#------------------------------------------------------------------------------
#$Date: 2015-10-06 14:07:54 +0300 (Tue, 06 Oct 2015) $
#$Revision: 160461 $
#$URL: svn://www.crystallography.net/cod/cif/1/53/41/1534109.cif $
#------------------------------------------------------------------------------
#
# This file is available in the Crystallography Open Database (COD),
# http://www.crystallography.net/
#
# All data on this site have been placed in the public domain by the
# contributors.
#
data_1534109
loop_
_publ_author_name
'Lemercier, B\'er\'enice C'
'Pierce, Joshua G.'
_publ_section_title
;
 Synthesis of 1,4,2-Oxathiazoles via Oxidative Cyclization of
 Thiohydroximic Acids.
;
_journal_issue                   18
_journal_name_full               'Organic letters'
_journal_page_first              4542
_journal_page_last               4545
_journal_paper_doi               10.1021/acs.orglett.5b02256
_journal_volume                  17
_journal_year                    2015
_chemical_formula_moiety         'C14 H11 N O S'
_chemical_formula_sum            'C14 H11 N O S'
_chemical_formula_weight         241.30
_space_group_crystal_system      triclinic
_space_group_IT_number           2
_space_group_name_Hall           '-P 1'
_space_group_name_H-M_alt        'P -1'
_symmetry_space_group_name_Hall  '-P 1'
_symmetry_space_group_name_H-M   'P -1'
_atom_sites_solution_hydrogens   geom
_cell_angle_alpha                85.167(2)
_cell_angle_beta                 84.614(2)
_cell_angle_gamma                73.532(2)
_cell_formula_units_Z            2
_cell_length_a                   5.9946(2)
_cell_length_b                   7.9610(2)
_cell_length_c                   12.7201(4)
_cell_measurement_reflns_used    7853
_cell_measurement_temperature    100.(2)
_cell_measurement_theta_max      30.3081
_cell_measurement_theta_min      2.6728
_cell_volume                     578.51(3)
_computing_cell_refinement       'SAINT V8.34A (Bruker AXS Inc., 2013)'
_computing_data_collection       'Bruker Instrument Service v2013.12.0.0'
_computing_data_reduction        'SAINT V8.34A (Bruker AXS Inc., 2013)'
_computing_structure_refinement  'SHELXL-2013 (Sheldrick, 2013)'
_diffrn_ambient_temperature      100.(2)
_diffrn_detector_area_resol_mean 8.3333
_diffrn_measured_fraction_theta_full 0.996
_diffrn_measured_fraction_theta_max 0.996
_diffrn_measurement_device_type  'Bruker-Nonius X8 Kappa APEX II'
_diffrn_measurement_method       'phi and omega scans'
_diffrn_radiation_monochromator  graphite
_diffrn_radiation_type           MoK\a
_diffrn_radiation_wavelength     0.71073
_diffrn_reflns_av_R_equivalents  0.0368
_diffrn_reflns_av_unetI/netI     0.0269
_diffrn_reflns_limit_h_max       8
_diffrn_reflns_limit_h_min       -8
_diffrn_reflns_limit_k_max       11
_diffrn_reflns_limit_k_min       -11
_diffrn_reflns_limit_l_max       18
_diffrn_reflns_limit_l_min       -18
_diffrn_reflns_number            25454
_diffrn_reflns_theta_full        30.65
_diffrn_reflns_theta_max         30.65
_diffrn_reflns_theta_min         2.67
_diffrn_source                   'fine-focus sealed tube'
_exptl_absorpt_coefficient_mu    0.260
_exptl_absorpt_correction_T_max  0.98
_exptl_absorpt_correction_T_min  0.94
_exptl_absorpt_correction_type   multi-scan
_exptl_absorpt_process_details   'SADABS V2014/4 (Bruker AXS Inc.)'
_exptl_crystal_colour            colourless
_exptl_crystal_density_diffrn    1.385
_exptl_crystal_density_method    'not measured'
_exptl_crystal_description       rod
_exptl_crystal_F_000             252
_exptl_crystal_size_max          0.359
_exptl_crystal_size_mid          0.152
_exptl_crystal_size_min          0.077
_refine_diff_density_max         0.742
_refine_diff_density_min         -0.505
_refine_ls_extinction_method     none
_refine_ls_goodness_of_fit_ref   1.067
_refine_ls_hydrogen_treatment    constr
_refine_ls_matrix_type           full
_refine_ls_number_constraints    44
_refine_ls_number_parameters     209
_refine_ls_number_reflns         3564
_refine_ls_number_restraints     139
_refine_ls_restrained_S_all      1.055
_refine_ls_R_factor_all          0.0564
_refine_ls_R_factor_gt           0.0433
_refine_ls_shift/su_max          0.006
_refine_ls_shift/su_mean         0.000
_refine_ls_structure_factor_coef Fsqd
_refine_ls_weighting_details
;
w=1/[\s^2^(Fo^2^)+(0.0504P)^2^+0.3701P]
where P=(Fo^2^+2Fc^2^)/3
;
_refine_ls_weighting_scheme      calc
_refine_ls_wR_factor_gt          0.1057
_refine_ls_wR_factor_ref         0.1140
_reflns_number_gt                2944
_reflns_number_total             3564
_reflns_threshold_expression     'I > 2\s(I)'
_cod_data_source_file            ol5b02256_si_002.cif
_cod_data_source_block           I
_cod_database_code               1534109
_shelx_res_file
;
TITL rds318_0m in P-1
CELL 0.71073 5.9946 7.961 12.7201 85.167 84.614 73.532
ZERR 2 0.0002 0.0002 0.0004 0.002 0.002 0.002
LATT 1

SFAC C H N O S
UNIT 28 22 2 2 2
SADI C3 C1 C3A C1
SADI C4 C3 C5 C4 C6 C5 C7 C6 C8 C7 C8 C3 C4A C3A C5A C4A C6A C5A C7A C6A C8A =
 C7A C8A C3A
rigu c3 > c8
rigu c3a > c8a

L.S. 11
PLAN  -5 0 0
SIZE 0.077 0.152 0.359
TEMP -173.19
acta
HTAB
BOND $H
CONF
fmap 2
REM <HKL>Y:/guest/rds318/work/rds318_0m.hkl</HKL>

WGHT    0.050400    0.370100
FVAR       0.30098   0.49525
S1    5    0.315316    0.245777    0.250841    11.00000    0.02983    0.02833 =
         0.02145   -0.00909    0.00842   -0.01885
O1    4    0.038421    0.208854    0.116536    11.00000    0.02583    0.02286 =
         0.01234    0.00026   -0.00117    0.00433
N1    3   -0.083036    0.202486    0.216705    11.00000    0.01848    0.01555 =
         0.01767    0.00101   -0.00548    0.00208
C1    1    0.037488    0.225357    0.291003    11.00000    0.01993    0.01098 =
         0.01439    0.00035    0.00209   -0.00200
C2    1    0.283119    0.155857    0.127102    11.00000    0.02298    0.01507 =
         0.01214   -0.00022    0.00398   -0.00451
AFIX  13
H2    2    0.362205    0.211834    0.067124    11.00000   -1.20000
AFIX   0

PART 1
C3    1   -0.064513    0.235703    0.401302    21.00000    0.01691    0.00948 =
         0.00647   -0.00033   -0.00471   -0.00218

C4    1    0.035391    0.313014    0.471394    21.00000    0.02268    0.01837 =
         0.01298   -0.00033   -0.00048   -0.00933
AFIX  43
H4    2    0.162643    0.358771    0.447469    21.00000   -1.20000
AFIX   0

C5    1   -0.051938    0.323128    0.576966    21.00000    0.03239    0.02093 =
         0.01190   -0.00365   -0.00193   -0.00861
AFIX  43
H5    2    0.016646    0.375761    0.624806    21.00000   -1.20000
AFIX   0

C6    1   -0.239400    0.256553    0.613026    21.00000    0.02424    0.01994 =
         0.01427    0.00220    0.00797   -0.00445
AFIX  43
H6    2   -0.301093    0.265434    0.684558    21.00000   -1.20000
AFIX   0

C7    1   -0.333591    0.177025    0.541861    21.00000    0.01822    0.02258 =
         0.01947    0.00543    0.00233   -0.00466
AFIX  43
H7    2   -0.458891    0.129053    0.565728    21.00000   -1.20000
AFIX   0

C8    1   -0.247940    0.166355    0.436444    21.00000    0.01693    0.01705 =
         0.01663    0.00049   -0.00206   -0.00542
AFIX  43
H8    2   -0.314622    0.111926    0.388815    21.00000   -1.20000
AFIX   0

PART 0
PART 2
C3A   1   -0.042291    0.244372    0.404625   -21.00000    0.01562    0.01295 =
         0.01664   -0.00066    0.00485   -0.00562
C4A   1    0.105168    0.183207    0.485422   -21.00000    0.02444    0.01811 =
         0.01688   -0.00052   -0.00362   -0.00621
AFIX  43
H4A   2    0.266453    0.129702    0.469241   -21.00000   -1.20000
AFIX   0
C5A   1    0.017049    0.200144    0.590253   -21.00000    0.04334    0.02406 =
         0.01311    0.00093   -0.00566   -0.01208
AFIX  43
H5A   2    0.117593    0.158589    0.645963   -21.00000   -1.20000
AFIX   0
C6A   1   -0.214436    0.276742    0.612424   -21.00000    0.04337    0.02398 =
         0.01422   -0.00372    0.00353   -0.01590
AFIX  43
H6A   2   -0.273543    0.286275    0.684286   -21.00000   -1.20000
AFIX   0
C7A   1   -0.367297    0.341510    0.533395   -21.00000    0.02686    0.02918 =
         0.02350   -0.01095    0.00884   -0.01293
AFIX  43
H7A   2   -0.527929    0.395772    0.550659   -21.00000   -1.20000
AFIX   0
C8A   1   -0.279416    0.324955    0.428494   -21.00000    0.01869    0.02334 =
         0.01787   -0.00510   -0.00041   -0.00789
AFIX  43
H8A   2   -0.380263    0.368313    0.373061   -21.00000   -1.20000
AFIX   0
PART 0
C9    1    0.384980   -0.041060    0.128274    11.00000    0.01438    0.01453 =
         0.00849    0.00038    0.00150   -0.00368
C10   1    0.258735   -0.146004    0.094510    11.00000    0.01317    0.01695 =
         0.01214    0.00008   -0.00141   -0.00299
AFIX  43
H10   2    0.106572   -0.093974    0.071758    11.00000   -1.20000
AFIX   0
C11   1    0.354530   -0.326895    0.093942    11.00000    0.02168    0.01712 =
         0.01563   -0.00224    0.00125   -0.00663
AFIX  43
H11   2    0.267261   -0.398051    0.071179    11.00000   -1.20000
AFIX   0
C12   1    0.577268   -0.403695    0.126543    11.00000    0.02318    0.01492 =
         0.01687    0.00231    0.00409    0.00134
AFIX  43
H12   2    0.642182   -0.527298    0.126627    11.00000   -1.20000
AFIX   0
C13   1    0.704754   -0.298951    0.159036    11.00000    0.01341    0.02749 =
         0.01747    0.00385   -0.00050    0.00083
AFIX  43
H13   2    0.857694   -0.351090    0.180859    11.00000   -1.20000
AFIX   0
C14   1    0.609740   -0.118416    0.159776    11.00000    0.01481    0.02491 =
         0.01512   -0.00068   -0.00141   -0.00703
AFIX  43
H14   2    0.698054   -0.047406    0.181796    11.00000   -1.20000
AFIX   0
HKLF 4

REM  rds318_0m in P-1
REM R1 =  0.0433 for    2944 Fo > 4sig(Fo)  and  0.0564 for all    3564 data
REM    209 parameters refined using    139 restraints

END

WGHT      0.0507      0.3691

REM Instructions for potential hydrogen bonds

REM No hydrogen bonds found for HTAB generation

REM Highest difference peak  0.742,  deepest hole -0.505,  1-sigma level  0.066
Q1    1  -0.0208  0.1955  0.1739  11.00000  0.05    0.74
Q2    1   0.3723  0.2399  0.1725  11.00000  0.05    0.54
Q3    1   0.3202 -0.0805  0.1080  11.00000  0.05    0.48
Q4    1  -0.0354  0.2364  0.2417  11.00000  0.05    0.48
Q5    1   0.3171 -0.2365  0.0873  11.00000  0.05    0.47
;
_shelx_res_checksum              99855
_shelx_hkl_file
;
  -1   0   0    7.18    0.21
  -1   0   0    6.93    0.21
  -1   0   0    7.56    0.23
  -1   0   0    7.30    0.26
  -1   0   0    6.73    0.21
  -1   0   0    7.55    0.23
   1   0   0    7.05    0.20
   1   0   0    7.34    0.23
   1   0   0    7.09    0.25
   1   0   0    7.38    0.20
   1   0   0    6.82    0.21
   1   0   0    7.24    0.22
  -2   0   0   15.71    0.46
  -2   0   0   15.27    0.45
  -2   0   0   14.29    0.41
  -2   0   0   15.80    0.40
  -2   0   0   15.53    0.50
  -2   0   0   15.36    0.42
  -2   0   0   14.40    0.42
   2   0   0   15.11    0.42
   2   0   0   14.80    0.43
   2   0   0   15.49    0.38
  -3   0   0  314.13    5.49
  -3   0   0  303.16    5.53
  -3   0   0  318.27    5.50
  -3   0   0  320.88    5.50
  -3   0   0  321.75    5.55
  -3   0   0  306.33    5.64
  -3   0   0  324.19    5.44
   3   0   0  322.85    5.64
   3   0   0  316.17    5.49
   3   0   0  315.01    5.48
  -4   0   0    0.68    0.19
  -4   0   0    0.81    0.21
  -4   0   0    0.79    0.28
  -4   0   0    0.76    0.18
  -4   0   0    1.22    0.22
   4   0   0    1.16    0.19
   4   0   0    1.03    0.25
   4   0   0    0.72    0.24
   4   0   0    0.88    0.19
  -5   0   0    7.45    0.58
  -5   0   0    6.68    0.43
  -5   0   0    6.19    0.47
  -5   0   0    5.75    0.43
  -5   0   0    7.38    0.47
   5   0   0    6.75    0.57
   5   0   0    5.86    0.51
   5   0   0    6.05    0.40
  -6   0   0    1.11    0.31
  -6   0   0    1.00    0.30
  -6   0   0    1.03    0.29
  -6   0   0    0.76    0.40
   6   0   0    1.27    0.42
   6   0   0    1.09    0.37
  -7   0   0    0.29    0.43
  -7   0   0   -0.43    0.23
  -7   0   0   -0.05    0.26
   7   0   0   -0.12    0.31
   7   0   0    0.20    0.38
  -8   0   0   -0.11    0.30
  -8   0   0    0.78    0.36
   8   0   0    0.55    0.48
   8   0   0    0.14    0.38
   7  -1   0    5.92    0.72
   7  -1   0    6.30    0.80
  -7   1   0    7.34    0.71
  -7   1   0    6.20    0.77
  -7   1   0    5.87    0.68
   6  -1   0    6.48    0.70
   6  -1   0    6.87    0.68
  -6   1   0    7.50    0.62
  -6   1   0    7.22    0.62
  -6   1   0    6.70    0.70
   5  -1   0    0.12    0.26
   5  -1   0    0.13    0.27
   5  -1   0    0.43    0.20
  -5   1   0    0.38    0.25
  -5   1   0    0.71    0.24
  -5   1   0    0.51    0.26
  -5   1   0    0.47    0.33
   4  -1   0   11.82    0.62
   4  -1   0   10.95    0.53
   4  -1   0   10.64    0.48
  -4   1   0   11.51    0.51
  -4   1   0   11.40    0.59
  -4   1   0   10.83    0.62
  -4   1   0   11.94    0.56
  -4   1   0   11.25    0.55
   3  -1   0    7.25    0.35
   3  -1   0    7.46    0.36
   3  -1   0    6.71    0.40
   3  -1   0    7.41    0.45
  -3   1   0    7.85    0.44
  -3   1   0    7.22    0.33
  -3   1   0    6.44    0.45
  -3   1   0    7.81    0.41
  -3   1   0    7.60    0.37
  -3   1   0    7.43    0.40
   2  -1   0   29.14    0.77
   2  -1   0   28.10    0.77
   2  -1   0   29.96    0.67
   2  -1   0   30.00    0.72
   2  -1   0   30.04    0.73
  -2   1   0   29.82    0.72
  -2   1   0   28.88    0.76
  -2   1   0   28.78    0.79
  -2   1   0   29.74    0.76
  -2   1   0   30.32    0.66
  -2   1   0   28.80    0.78
   1  -1   0   12.11    0.38
   1  -1   0   11.35    0.39
   1  -1   0   11.83    0.38
   1  -1   0   11.43    0.38
   1  -1   0   11.35    0.35
   1  -1   0   11.70    0.33
   1  -1   0   11.44    0.39
  -1   1   0   11.99    0.33
  -1   1   0   11.57    0.40
  -1   1   0   12.17    0.38
  -1   1   0   11.30    0.34
  -1   1   0   12.64    0.42
  -1   1   0   11.67    0.39
   0  -1   0   44.70    0.89
   0  -1   0   46.70    0.86
   0  -1   0   46.71    0.83
   0  -1   0   46.39    0.90
   0  -1   0   47.16    0.92
   0  -1   0   46.68    0.91
   0  -1   0   46.42    0.90
   0  -1   0   45.27    0.89
   0  -1   0   46.10    0.91
   0  -1   0   48.61    0.92
   0   1   0   47.48    0.86
   0   1   0   47.45    0.90
   0   1   0   43.28    0.89
   0   1   0   45.93    0.83
   0   1   0   46.01    0.91
   0   1   0   46.75    0.91
   0   1   0   46.15    0.92
   0   1   0   46.62    0.91
   0   1   0   46.66    0.89
   0   1   0   48.38    0.90
  -1  -1   0    0.00    0.11
   1   1   0    0.15    0.11
  -2  -1   0   15.33    0.29
  -2  -1   0   14.76    0.29
  -2  -1   0   15.59    0.35
  -2  -1   0   14.94    0.42
  -3  -1   0    0.62    0.11
  -3  -1   0    0.08    0.17
  -3  -1   0    0.59    0.15
  -3  -1   0    0.31    0.11
  -3  -1   0    0.51    0.13
   3   1   0    0.50    0.18
   3   1   0    0.57    0.09
   3   1   0    0.52    0.18
   3   1   0    0.34    0.14
  -4  -1   0   16.15    0.51
  -4  -1   0   16.74    0.69
  -4  -1   0   16.40    0.54
  -4  -1   0   16.49    0.55
  -4  -1   0   16.88    0.52
  -4  -1   0   17.64    0.57
   4   1   0   16.58    0.42
   4   1   0   17.02    0.72
   4   1   0   17.12    0.65
   4   1   0   17.03    0.56
  -5  -1   0    0.86    0.21
  -5  -1   0    0.73    0.21
  -5  -1   0    0.93    0.21
  -5  -1   0    0.74    0.30
  -5  -1   0    0.76    0.21
   5   1   0    1.02    0.28
   5   1   0    1.07    0.22
   5   1   0    1.31    0.37
  -6  -1   0    1.38    0.27
  -6  -1   0    1.41    0.29
  -6  -1   0    2.01    0.46
  -6  -1   0    1.32    0.28
   6   1   0    1.46    0.35
   6   1   0    1.88    0.42
  -7  -1   0   14.16    0.90
  -7  -1   0   13.55    0.72
  -7  -1   0   13.28    0.71
   7   1   0   13.82    0.86
   7   1   0   13.27    0.93
  -8  -1   0    0.77    0.61
  -8  -1   0    0.73    0.33
  -8  -1   0    0.38    0.29
   8   1   0    0.91    0.53
   7  -2   0    0.14    0.41
   7  -2   0    0.21    0.41
  -7   2   0    0.31    0.36
  -7   2   0    1.51    0.53
  -7   2   0    0.08    0.36
  -7   2   0    1.22    0.52
   6  -2   0    0.38    0.35
   6  -2   0    0.88    0.36
  -6   2   0   -0.57    0.26
  -6   2   0    0.10    0.39
  -6   2   0    0.18    0.33
   5  -2   0    5.57    0.43
   5  -2   0    5.76    0.59
  -5   2   0    5.54    0.55
  -5   2   0    6.38    0.48
  -5   2   0    5.33    0.56
  -5   2   0    5.03    0.58
   4  -2   0    2.73    0.39
   4  -2   0    3.13    0.34
   4  -2   0    3.12    0.39
  -4   2   0    2.48    0.31
  -4   2   0    2.41    0.40
  -4   2   0    3.31    0.41
  -4   2   0    2.91    0.39
   3  -2   0   65.38    1.60
   3  -2   0   67.62    1.59
   3  -2   0   68.41    1.49
   3  -2   0   67.79    1.52
   3  -2   0   66.39    1.39
   3  -2   0   66.78    1.60
  -3   2   0   66.19    1.61
  -3   2   0   65.98    1.57
  -3   2   0   67.34    1.64
  -3   2   0   66.81    1.58
  -3   2   0   65.56    1.48
   2  -2   0   -0.07    0.12
   2  -2   0    0.06    0.13
   2  -2   0    0.30    0.18
   2  -2   0    0.02    0.16
   2  -2   0    0.09    0.18
  -2   2   0    0.03    0.15
  -2   2   0    0.34    0.22
  -2   2   0   -0.15    0.17
  -2   2   0    0.05    0.17
  -2   2   0    0.12    0.18
   1  -2   0   88.47    1.78
   1  -2   0   89.09    1.73
   1  -2   0   90.06    1.77
   1  -2   0   89.27    1.73
   1  -2   0   91.15    1.82
  -1   2   0   88.42    1.77
  -1   2   0   90.29    1.78
  -1   2   0   87.47    1.78
  -1   2   0   90.87    1.82
  -1   2   0   90.15    1.79
   0  -2   0  978.57   17.41
   0  -2   0  984.31   17.47
   0  -2   0 1000.00   17.35
   0  -2   0  969.73   16.76
   0  -2   0  983.07   17.20
   0  -2   0  988.13   16.73
   0  -2   0  960.98   16.92
   0  -2   0  972.17   16.84
   0   2   0  991.68   16.54
   0   2   0  974.31   16.57
   0   2   0  976.82   17.40
   0   2   0  992.93   16.82
   0   2   0  875.84   18.19
   0   2   0  981.56   17.37
   0   2   0  995.82   16.83
  -1  -2   0  183.03    3.12
  -1  -2   0  182.40    3.09
  -1  -2   0  180.91    3.28
  -1  -2   0  176.20    3.20
  -1  -2   0  186.57    3.16
  -1  -2   0  184.22    3.12
  -1  -2   0  178.11    3.21
  -1  -2   0  182.91    3.15
  -1  -2   0  184.10    3.12
   1   2   0  183.05    3.14
   1   2   0  187.08    3.12
   1   2   0  186.76    3.21
   1   2   0  182.73    3.22
   1   2   0  179.54    3.14
  -2  -2   0   23.20    0.46
  -2  -2   0   23.85    0.46
  -2  -2   0   23.28    0.65
   2   2   0   24.22    0.70
  -3  -2   0  161.50    2.98
  -3  -2   0  163.66    3.14
  -3  -2   0  160.82    2.80
  -3  -2   0  163.07    2.80
   3   2   0  165.02    3.09
   3   2   0  168.12    3.36
  -4  -2   0   32.69    1.01
  -4  -2   0   32.65    0.74
  -4  -2   0   32.62    0.86
  -4  -2   0   32.20    0.70
  -4  -2   0   33.74    0.74
  -4  -2   0   32.65    0.70
   4   2   0   33.30    0.93
   4   2   0   33.27    0.94
   4   2   0   32.74    1.06
  -5  -2   0   39.26    0.95
  -5  -2   0   40.07    0.93
  -5  -2   0   39.38    0.94
  -5  -2   0   40.34    1.07
  -5  -2   0   40.03    1.26
   5   2   0   40.80    1.11
   5   2   0   38.66    1.14
   5   2   0   39.66    1.31
  -6  -2   0    8.75    0.46
  -6  -2   0    9.39    0.47
  -6  -2   0    8.86    0.70
  -6  -2   0    8.85    0.46
  -6  -2   0    9.07    0.51
   6   2   0    8.51    0.68
   6   2   0    8.71    0.60
  -7  -2   0    0.36    0.23
  -7  -2   0   -0.17    0.38
  -7  -2   0    0.21    0.20
   7   2   0    0.22    0.31
   7   2   0    0.37    0.41
  -8  -2   0    3.81    0.47
  -8  -2   0    3.68    0.68
   8   2   0    3.57    0.68
   7  -3   0    3.33    0.66
   7  -3   0    3.07    0.62
  -7   3   0    3.23    0.71
  -7   3   0    3.43    0.68
  -7   3   0    3.33    0.63
  -7   3   0    3.17    0.66
   6  -3   0    4.36    0.64
   6  -3   0    4.32    0.62
  -6   3   0    3.83    0.58
  -6   3   0    4.84    0.69
  -6   3   0    3.56    0.61
  -6   3   0    3.03    0.57
   5  -3   0    5.05    0.50
   5  -3   0    5.64    0.61
  -5   3   0    4.69    0.60
  -5   3   0    3.77    0.54
  -5   3   0    4.25    0.59
   4  -3   0   36.22    1.23
   4  -3   0   36.27    0.96
   4  -3   0   37.03    1.11
   4  -3   0   34.72    1.18
  -4   3   0   35.50    1.27
  -4   3   0   37.34    1.26
  -4   3   0   37.63    1.12
  -4   3   0   36.30    1.23
   3  -3   0    2.37    0.29
   3  -3   0    3.14    0.36
   3  -3   0    2.54    0.38
   3  -3   0    2.57    0.29
   3  -3   0    2.25    0.35
  -3   3   0    2.74    0.37
  -3   3   0    1.90    0.36
  -3   3   0    1.95    0.35
   2  -3   0    3.60    0.39
   2  -3   0    3.42    0.32
   2  -3   0    4.46    0.42
   2  -3   0    4.07    0.39
   2  -3   0    3.82    0.34
  -2   3   0    3.34    0.38
  -2   3   0    3.99    0.41
  -2   3   0    3.16    0.35
  -2   3   0    4.34    0.41
   1  -3   0   83.33    1.84
   1  -3   0   83.98    1.78
   1  -3   0   85.31    1.75
   1  -3   0   82.17    1.74
   1  -3   0   84.21    1.79
  -1   3   0   83.10    1.78
  -1   3   0   82.97    1.80
  -1   3   0   84.21    1.84
  -1   3   0   86.14    1.83
  -1   3   0   84.70    1.78
  -1   3   0   85.46    1.65
   0  -3   0   23.42    0.69
   0  -3   0   24.69    0.68
   0  -3   0   22.77    0.72
   0  -3   0   23.47    0.68
   0  -3   0   24.26    0.72
   0  -3   0   23.71    0.67
   0  -3   0   23.36    0.57
   0   3   0   23.72    0.50
   0   3   0   22.66    0.70
   0   3   0   23.99    0.66
   0   3   0   22.60    0.51
   0   3   0   23.12    0.57
   0   3   0   23.35    0.75
   0   3   0   23.69    0.68
  -1  -3   0    6.49    0.33
  -1  -3   0    6.36    0.39
  -1  -3   0    5.94    0.32
  -1  -3   0    5.95    0.23
  -1  -3   0    6.27    0.33
  -1  -3   0    5.89    0.30
  -1  -3   0    5.95    0.32
  -1  -3   0    6.16    0.18
  -1  -3   0    5.87    0.20
  -1  -3   0    6.10    0.30
   1   3   0    6.53    0.42
   1   3   0    6.95    0.24
   1   3   0    6.38    0.32
   1   3   0    6.49    0.26
   1   3   0    6.56    0.32
  -2  -3   0   25.32    0.58
  -2  -3   0   24.72    0.54
  -2  -3   0   24.50    0.58
  -2  -3   0   24.81    0.67
  -2  -3   0   24.02    0.53
  -2  -3   0   24.40    0.59
  -2  -3   0   23.92    0.76
  -2  -3   0   23.80    0.70
   2   3   0   24.37    0.70
   2   3   0   25.29    0.50
   2   3   0   24.95    0.79
  -3  -3   0    8.89    0.25
  -3  -3   0    8.34    0.24
  -3  -3   0    8.24    0.46
   3   3   0    8.34    0.48
   3   3   0    8.40    0.48
   3   3   0    8.41    0.40
  -4  -3   0   13.50    0.33
  -4  -3   0   13.36    0.54
  -4  -3   0   13.58    0.65
   4   3   0   13.22    0.61
   4   3   0   12.95    0.65
   4   3   0   13.53    0.56
  -5  -3   0    0.33    0.12
  -5  -3   0   -0.04    0.17
  -5  -3   0   -0.02    0.26
  -5  -3   0    0.25    0.10
  -5  -3   0    0.14    0.26
  -5  -3   0    0.21    0.10
  -5  -3   0    0.39    0.11
   5   3   0    0.29    0.28
   5   3   0    0.12    0.21
   5   3   0    0.37    0.23
  -6  -3   0   -0.12    0.26
  -6  -3   0   -0.03    0.14
  -6  -3   0    0.01    0.22
  -6  -3   0    0.02    0.12
  -6  -3   0    0.17    0.14
  -6  -3   0    0.44    0.22
   6   3   0    0.00    0.23
   6   3   0   -0.25    0.31
  -7  -3   0    6.05    0.72
  -7  -3   0    6.77    0.44
   7   3   0    5.12    0.71
  -8  -3   0   -0.37    0.19
  -8  -3   0    0.23    0.46
   8   3   0    0.56    0.48
   6  -4   0    0.15    0.35
  -6   4   0    0.39    0.45
  -6   4   0   -0.09    0.37
  -6   4   0    0.17    0.40
  -6   4   0    0.41    0.45
   5  -4   0    0.92    0.36
  -5   4   0    1.61    0.48
  -5   4   0    1.44    0.45
  -5   4   0    1.42    0.44
  -5   4   0    1.24    0.44
   4  -4   0    1.28    0.38
   4  -4   0    1.20    0.26
   4  -4   0    1.13    0.29
   4  -4   0    1.01    0.36
   4  -4   0    1.22    0.34
  -4   4   0    0.81    0.37
  -4   4   0    0.89    0.34
  -4   4   0    1.35    0.34
  -4   4   0    0.49    0.38
  -4   4   0    1.46    0.38
   3  -4   0    1.26    0.26
   3  -4   0    1.30    0.30
   3  -4   0    0.97    0.32
   3  -4   0    0.79    0.33
   3  -4   0    0.84    0.24
  -3   4   0    0.70    0.31
  -3   4   0    1.20    0.34
  -3   4   0    1.49    0.36
  -3   4   0    0.55    0.31
  -3   4   0    0.92    0.29
  -3   4   0    1.83    0.36
   2  -4   0    8.22    0.56
   2  -4   0    7.36    0.45
   2  -4   0    7.94    0.47
   2  -4   0    8.25    0.52
   2  -4   0    8.56    0.53
  -2   4   0    7.68    0.53
  -2   4   0    9.82    0.57
  -2   4   0    8.89    0.57
  -2   4   0    7.91    0.45
  -2   4   0    7.57    0.59
  -2   4   0    7.72    0.54
   1  -4   0    6.60    0.43
   1  -4   0    6.27    0.49
   1  -4   0    6.44    0.40
   1  -4   0    6.23    0.45
   1  -4   0    6.23    0.43
  -1   4   0    6.33    0.46
  -1   4   0    6.32    0.50
  -1   4   0    6.68    0.50
  -1   4   0    5.79    0.32
  -1   4   0    5.88    0.45
  -1   4   0    6.97    0.44
   0  -4   0   22.05    0.76
   0  -4   0   21.15    0.73
   0  -4   0   22.21    0.73
   0  -4   0   22.20    0.73
   0  -4   0   22.67    0.60
   0  -4   0   22.52    0.77
   0  -4   0   22.53    0.72
   0   4   0   22.53    0.53
   0   4   0   21.96    0.81
   0   4   0   22.10    0.76
   0   4   0   23.36    0.72
   0   4   0   22.86    0.51
   0   4   0   23.34    0.73
  -1  -4   0   65.86    1.57
  -1  -4   0   64.56    1.46
  -1  -4   0   66.68    1.18
  -1  -4   0   67.74    1.28
  -1  -4   0   64.31    1.42
  -1  -4   0   64.82    1.46
  -1  -4   0   66.88    1.42
  -1  -4   0   66.55    1.47
   1   4   0   64.68    1.16
   1   4   0   67.90    1.27
   1   4   0   65.68    1.36
   1   4   0   67.15    1.46
   1   4   0   67.38    1.45
   1   4   0   64.27    1.61
  -2  -4   0    4.28    0.21
  -2  -4   0    3.99    0.23
  -2  -4   0    4.22    0.26
  -2  -4   0    4.16    0.34
  -2  -4   0    5.41    0.34
  -2  -4   0    3.90    0.29
  -2  -4   0    4.56    0.29
  -2  -4   0    4.24    0.27
  -2  -4   0    4.06    0.42
   2   4   0    4.37    0.33
   2   4   0    4.44    0.40
   2   4   0    4.33    0.24
  -3  -4   0   73.75    1.68
  -3  -4   0   73.53    1.41
  -3  -4   0   73.61    1.37
  -3  -4   0   71.06    1.40
  -3  -4   0   72.34    1.36
  -3  -4   0   72.83    1.49
  -3  -4   0   70.93    1.74
  -3  -4   0   70.40    1.59
   3   4   0   74.22    1.74
   3   4   0   76.42    1.68
   3   4   0   72.59    1.60
   3   4   0   72.84    1.79
  -4  -4   0    1.49    0.31
  -4  -4   0    1.51    0.13
  -4  -4   0    1.21    0.28
  -4  -4   0    1.80    0.12
  -4  -4   0    1.27    0.11
  -4  -4   0    1.39    0.25
  -4  -4   0    1.47    0.13
   4   4   0    2.07    0.36
   4   4   0    1.25    0.30
   4   4   0    1.73    0.27
  -5  -4   0   10.64    0.30
  -5  -4   0   10.08    0.66
  -5  -4   0   11.81    0.65
  -5  -4   0   10.24    0.53
  -5  -4   0   10.53    0.29
   5   4   0   10.52    0.57
   5   4   0    9.81    0.67
   5   4   0   10.86    0.66
  -6  -4   0   21.32    0.56
  -6  -4   0   20.14    0.54
  -6  -4   0   20.82    1.02
  -6  -4   0   21.63    0.91
  -6  -4   0   19.42    0.79
   6   4   0   22.70    0.87
   6   4   0   19.24    0.89
   6   4   0   18.57    1.00
  -7  -4   0    0.06    0.16
  -7  -4   0    0.21    0.37
   7   4   0    0.54    0.45
  -8  -4   0    4.34    0.73
  -8  -4   0    4.63    0.39
   8   4   0    3.68    0.69
   6  -5   0    2.67    0.55
  -6   5   0    2.03    0.58
  -6   5   0    2.70    0.63
  -6   5   0    2.19    0.62
  -6   5   0    3.00    0.68
   5  -5   0    0.37    0.33
  -5   5   0    0.13    0.42
  -5   5   0   -0.35    0.33
  -5   5   0    0.63    0.45
  -5   5   0   -0.11    0.37
   4  -5   0    6.24    0.66
   4  -5   0    6.09    0.73
   4  -5   0    4.91    0.63
  -4   5   0    5.31    0.71
  -4   5   0    5.12    0.64
  -4   5   0    5.74    0.60
  -4   5   0    6.86    0.69
  -4   5   0    6.16    0.74
   3  -5   0    1.72    0.33
   3  -5   0    2.12    0.48
   3  -5   0    1.04    0.35
  -3   5   0    1.43    0.40
  -3   5   0    1.95    0.48
  -3   5   0    0.64    0.28
  -3   5   0    1.57    0.43
  -3   5   0    1.91    0.40
   2  -5   0    1.49    0.35
   2  -5   0    2.00    0.35
   2  -5   0    1.76    0.36
   2  -5   0    1.50    0.36
   2  -5   0    1.36    0.29
  -2   5   0    1.60    0.38
  -2   5   0    1.30    0.36
  -2   5   0    1.06    0.38
  -2   5   0    1.85    0.28
  -2   5   0    1.44    0.36
  -2   5   0    1.83    0.36
   1  -5   0   45.94    1.32
   1  -5   0   46.03    1.38
   1  -5   0   46.98    1.28
   1  -5   0   49.46    1.36
  -1   5   0   45.34    1.08
  -1   5   0   48.40    1.43
  -1   5   0   47.61    1.07
  -1   5   0   45.70    1.39
  -1   5   0   47.97    1.33
  -1   5   0   47.97    1.39
  -1   5   0   46.98    1.31
   0  -5   0   13.53    0.66
   0  -5   0   13.89    0.64
   0  -5   0   13.93    0.66
   0  -5   0   14.94    0.64
   0  -5   0   15.20    0.70
   0   5   0   14.23    0.41
   0   5   0   14.75    0.39
   0   5   0   15.09    0.62
   0   5   0   14.92    0.70
   0   5   0   14.50    0.62
   0   5   0   14.07    0.72
  -1  -5   0    0.10    0.19
  -1  -5   0   -0.07    0.20
  -1  -5   0    0.14    0.19
  -1  -5   0    0.00    0.15
  -1  -5   0    0.23    0.17
  -1  -5   0    0.03    0.10
  -1  -5   0    0.28    0.18
   1   5   0   -0.05    0.18
   1   5   0    0.13    0.05
   1   5   0    0.22    0.15
   1   5   0   -0.10    0.14
   1   5   0    0.30    0.25
  -2  -5   0   77.50    1.68
  -2  -5   0   76.62    1.64
  -2  -5   0   76.09    1.74
  -2  -5   0   75.52    1.74
  -2  -5   0   77.95    1.40
  -2  -5   0   79.37    1.49
  -2  -5   0   77.66    1.63
  -2  -5   0   74.11    1.88
  -2  -5   0   77.49    1.50
   2   5   0   74.32    1.92
   2   5   0   77.41    1.61
   2   5   0   77.20    1.80
   2   5   0   79.16    1.76
  -3  -5   0   11.82    0.65
  -3  -5   0   11.86    0.53
  -3  -5   0   11.61    0.45
  -3  -5   0   11.51    0.46
  -3  -5   0   10.79    0.55
  -3  -5   0   12.23    0.44
  -3  -5   0   10.62    0.42
  -3  -5   0   12.09    0.44
  -3  -5   0   11.58    0.41
   3   5   0   11.93    0.58
   3   5   0   11.85    0.30
   3   5   0   11.76    0.70
   3   5   0   12.89    0.66
  -4  -5   0   19.45    0.54
  -4  -5   0   21.12    0.77
  -4  -5   0   20.43    0.56
  -4  -5   0   20.19    0.55
  -4  -5   0   22.20    0.91
  -4  -5   0   20.89    0.70
  -4  -5   0   20.37    0.54
  -4  -5   0   20.99    0.67
  -4  -5   0   20.72    0.83
   4   5   0   22.48    0.79
   4   5   0   20.31    0.89
   4   5   0   19.93    0.92
  -5  -5   0    1.30    0.14
  -5  -5   0    1.34    0.32
  -5  -5   0    1.29    0.35
  -5  -5   0    1.48    0.31
  -5  -5   0    1.64    0.30
  -5  -5   0    1.53    0.16
  -5  -5   0    1.49    0.27
   5   5   0    1.31    0.38
   5   5   0    1.68    0.31
   5   5   0    1.56    0.38
  -6  -5   0    2.36    0.20
  -6  -5   0    1.98    0.35
  -6  -5   0    2.32    0.48
  -6  -5   0    2.48    0.38
  -6  -5   0    2.73    0.46
  -6  -5   0    2.04    0.18
  -6  -5   0    2.79    0.40
   6   5   0    1.72    0.45
   6   5   0    2.27    0.48
  -7  -5   0    8.49    0.88
  -7  -5   0    6.83    0.64
  -7  -5   0    8.55    0.36
  -7  -5   0    7.96    0.34
   7   5   0    7.70    0.88
  -8  -5   0   -0.18    0.14
  -8  -5   0    0.19    0.48
   8   5   0   -0.49    0.42
   5  -6   0    0.31    0.33
  -5   6   0    0.37    0.41
  -5   6   0    0.20    0.47
  -5   6   0   -0.10    0.47
  -5   6   0   -0.38    0.38
   4  -6   0    0.29    0.29
   4  -6   0    0.52    0.39
   4  -6   0   -0.31    0.36
  -4   6   0   -0.35    0.38
  -4   6   0    0.00    0.30
  -4   6   0   -0.05    0.34
  -4   6   0   -0.14    0.44
   3  -6   0    1.05    0.44
   3  -6   0    1.10    0.34
   3  -6   0    1.06    0.41
  -3   6   0    0.27    0.40
  -3   6   0    1.21    0.48
  -3   6   0    1.03    0.44
  -3   6   0    0.92    0.29
  -3   6   0    1.68    0.42
   2  -6   0    0.29    0.29
   2  -6   0    0.10    0.25
   2  -6   0    0.15    0.32
   2  -6   0   -0.32    0.22
  -2   6   0    0.26    0.20
  -2   6   0    0.05    0.25
  -2   6   0   -0.39    0.26
  -2   6   0    0.26    0.33
  -2   6   0    0.22    0.33
   1  -6   0    0.04    0.21
   1  -6   0    0.62    0.28
   1  -6   0    0.24    0.27
   1  -6   0    0.02    0.30
   1  -6   0    0.62    0.30
  -1   6   0    0.38    0.28
  -1   6   0    0.27    0.15
  -1   6   0   -0.10    0.30
  -1   6   0    0.38    0.25
  -1   6   0    0.10    0.29
  -1   6   0    0.15    0.14
   0  -6   0    0.66    0.27
   0  -6   0    0.60    0.30
   0  -6   0    0.48    0.28
   0  -6   0    0.74    0.26
   0  -6   0    0.87    0.30
   0  -6   0    0.59    0.28
   0   6   0    0.32    0.34
   0   6   0    0.74    0.24
   0   6   0    0.60    0.11
   0   6   0    0.63    0.30
   0   6   0    0.52    0.23
   0   6   0    0.54    0.12
  -1  -6   0    0.94    0.29
  -1  -6   0    0.51    0.15
  -1  -6   0    0.25    0.22
  -1  -6   0    0.34    0.26
  -1  -6   0    0.51    0.28
  -1  -6   0    0.53    0.22
  -1  -6   0    0.62    0.25
   1   6   0    0.94    0.21
   1   6   0    0.53    0.24
   1   6   0    0.33    0.19
   1   6   0    0.68    0.33
  -2  -6   0    6.18    0.60
  -2  -6   0    5.61    0.40
  -2  -6   0    4.91    0.42
  -2  -6   0    5.61    0.21
  -2  -6   0    5.23    0.41
  -2  -6   0    5.07    0.46
  -2  -6   0    6.12    0.46
  -2  -6   0    6.00    0.29
   2   6   0    6.20    0.65
   2   6   0    5.80    0.39
   2   6   0    5.03    0.43
  -3  -6   0    0.15    0.17
  -3  -6   0    0.04    0.25
  -3  -6   0   -0.22    0.16
  -3  -6   0    0.00    0.10
  -3  -6   0    0.04    0.13
  -3  -6   0    0.15    0.23
  -3  -6   0   -0.12    0.19
  -3  -6   0    0.04    0.15
   3   6   0    0.08    0.19
   3   6   0    0.06    0.31
   3   6   0    0.31    0.25
  -4  -6   0    0.31    0.32
  -4  -6   0    0.10    0.14
  -4  -6   0   -0.08    0.14
  -4  -6   0    0.05    0.16
  -4  -6   0    0.09    0.24
  -4  -6   0   -0.42    0.18
  -4  -6   0   -0.04    0.14
  -4  -6   0    0.13    0.15
   4   6   0   -0.10    0.28
   4   6   0    0.26    0.30
  -5  -6   0    0.52    0.15
  -5  -6   0    0.37    0.24
  -5  -6   0   -0.23    0.23
  -5  -6   0    0.53    0.16
  -5  -6   0    0.46    0.13
  -5  -6   0    0.50    0.32
  -5  -6   0    0.23    0.27
  -5  -6   0    0.76    0.24
  -5  -6   0    0.28    0.19
   5   6   0    0.07    0.32
   5   6   0    0.38    0.35
  -6  -6   0    2.87    0.40
  -6  -6   0    2.45    0.21
  -6  -6   0    1.87    0.38
  -6  -6   0    2.52    0.38
  -6  -6   0    2.58    0.22
  -6  -6   0    2.16    0.47
   6   6   0    2.12    0.48
   6   6   0    2.89    0.57
  -7  -6   0    3.77    0.25
  -7  -6   0    2.95    0.65
  -7  -6   0    3.64    0.58
  -7  -6   0    3.98    0.25
   7   6   0    3.13    0.66
  -8  -6   0    8.25    0.32
  -8  -6   0    7.97    0.95
   8   6   0    6.58    0.87
   4  -7   0    0.34    0.42
   4  -7   0    0.99    0.55
   4  -7   0    0.26    0.31
  -4   7   0    0.54    0.47
  -4   7   0   -0.61    0.36
   3  -7   0    6.48    0.75
   3  -7   0    5.83    0.76
   3  -7   0    6.43    0.67
  -3   7   0    5.30    0.75
  -3   7   0    7.62    0.84
   2  -7   0    0.19    0.32
   2  -7   0    1.56    0.48
   2  -7   0    0.26    0.31
  -2   7   0    0.58    0.42
  -2   7   0   -0.02    0.42
   1  -7   0   38.39    1.48
   1  -7   0   44.62    1.49
   1  -7   0   41.99    1.44
   1  -7   0   43.00    1.46
  -1   7   0   39.45    1.51
  -1   7   0   45.20    1.57
   0  -7   0    3.02    0.49
   0  -7   0    2.16    0.42
   0  -7   0    1.76    0.42
   0  -7   0    2.77    0.46
   0   7   0    2.13    0.43
   0   7   0    2.25    0.38
   0   7   0    2.59    0.52
  -1  -7   0    0.88    0.33
  -1  -7   0    2.03    0.39
  -1  -7   0    1.20    0.31
  -1  -7   0    1.37    0.38
  -1  -7   0    1.33    0.35
   1   7   0    1.31    0.42
   1   7   0    0.93    0.30
   1   7   0    1.71    0.33
  -2  -7   0  108.28    2.66
  -2  -7   0  106.55    2.37
  -2  -7   0  104.93    2.41
  -2  -7   0  105.66    2.43
  -2  -7   0  105.59    2.00
  -2  -7   0  102.05    2.39
   2   7   0  102.15    2.70
   2   7   0  106.66    2.43
   2   7   0  104.63    2.31
  -3  -7   0    1.07    0.39
  -3  -7   0    0.74    0.25
  -3  -7   0    0.93    0.27
  -3  -7   0    0.89    0.30
  -3  -7   0    0.77    0.18
  -3  -7   0    0.91    0.30
   3   7   0    0.38    0.25
   3   7   0    0.73    0.43
  -4  -7   0   12.26    0.59
  -4  -7   0   14.22    0.73
  -4  -7   0   13.71    0.61
  -4  -7   0   14.96    0.94
  -4  -7   0   13.16    0.75
   4   7   0   14.08    0.92
   4   7   0   12.35    0.79
  -5  -7   0    8.72    0.75
  -5  -7   0    8.78    0.43
  -5  -7   0    6.79    0.67
  -5  -7   0    7.58    0.44
  -5  -7   0    8.89    0.60
   5   7   0    8.11    0.82
   5   7   0    8.28    0.85
  -6  -7   0    2.69    0.44
  -6  -7   0    3.29    0.59
  -6  -7   0    2.67    0.27
   6   7   0    3.03    0.62
   6   7   0    2.51    0.56
  -7  -7   0    4.23    0.67
  -7  -7   0    3.84    0.28
   7   7   0    5.34    0.76
   7   7   0    5.01    0.79
   4  -8   0    0.54    0.47
   4  -8   0    0.22    0.55
   4  -8   0    0.82    0.38
  -4   8   0    0.11    0.50
   3  -8   0    0.27    0.41
   3  -8   0    0.71    0.50
  -3   8   0    0.81    0.54
  -3   8   0   -0.86    0.34
   2  -8   0    2.28    0.60
   2  -8   0    2.56    0.54
   2  -8   0    4.40    0.70
  -2   8   0    2.91    0.59
  -2   8   0    2.42    0.65
   1  -8   0    1.50    0.47
   1  -8   0    2.07    0.51
   1  -8   0    1.57    0.51
   1  -8   0    1.38    0.47
  -1   8   0    1.44    0.57
  -1   8   0    1.97    0.51
   0  -8   0   -0.04    0.31
   0  -8   0    0.17    0.34
   0  -8   0    0.83    0.40
   0  -8   0    0.44    0.34
   0   8   0    0.46    0.36
   0   8   0    0.22    0.38
  -1  -8   0    3.48    0.57
  -1  -8   0    2.44    0.51
  -1  -8   0    1.61    0.41
  -1  -8   0    2.57    0.47
  -1  -8   0    2.09    0.40
   1   8   0    1.73    0.52
   1   8   0    2.06    0.40
  -2  -8   0    4.48    0.55
  -2  -8   0    3.37    0.46
  -2  -8   0    3.56    0.59
  -2  -8   0    3.46    0.50
  -2  -8   0    2.94    0.46
   2   8   0    2.49    0.57
  -3  -8   0    0.12    0.27
  -3  -8   0    0.41    0.29
  -3  -8   0    0.36    0.27
  -3  -8   0    0.25    0.29
  -3  -8   0    0.75    0.40
   3   8   0    0.00    0.36
  -4  -8   0   -0.09    0.23
  -4  -8   0    0.49    0.26
  -4  -8   0   -0.25    0.24
  -4  -8   0   -0.23    0.38
  -4  -8   0    0.24    0.25
   4   8   0    0.09    0.41
  -5  -8   0    0.49    0.31
  -5  -8   0    0.83    0.49
  -5  -8   0    0.52    0.23
  -5  -8   0    0.50    0.25
   5   8   0    0.91    0.47
   5   8   0    0.94    0.49
  -6  -8   0    6.03    0.79
  -6  -8   0    6.64    0.45
   6   8   0    6.19    0.89
   6   8   0    5.55    0.77
  -7  -8   0    0.28    0.18
  -7  -8   0    0.65    0.45
   7   8   0    0.72    0.57
   7   8   0    0.15    0.50
   3  -9   0    1.45    0.54
   3  -9   0   -0.10    0.55
  -3   9   0    0.43    0.57
  -3   9   0   -0.25    0.53
   2  -9   0    2.37    0.68
   2  -9   0    1.09    0.47
   2  -9   0    2.75    0.65
  -2   9   0    3.13    0.71
  -2   9   0    2.59    0.74
   1  -9   0    3.85    0.68
   1  -9   0    4.19    0.74
   1  -9   0    4.14    0.65
  -1   9   0    4.20    0.70
  -1   9   0    4.09    0.76
   0  -9   0    1.74    0.51
   0  -9   0    1.89    0.56
   0  -9   0    1.84    0.54
   0  -9   0    1.05    0.45
   0   9   0    1.98    0.51
   0   9   0    1.88    0.66
  -1  -9   0    0.77    0.43
  -1  -9   0    0.88    0.46
  -1  -9   0    1.19    0.48
  -1  -9   0    0.14    0.35
   1   9   0    1.14    0.51
  -2  -9   0   15.55    1.04
  -2  -9   0   14.15    0.92
  -2  -9   0   15.55    0.91
  -2  -9   0   15.96    0.95
   2   9   0   14.29    1.13
  -3  -9   0   11.89    0.78
  -3  -9   0   10.94    0.94
  -3  -9   0   12.09    0.82
  -3  -9   0   12.67    0.81
   3   9   0   11.74    1.01
  -4  -9   0   10.61    0.71
  -4  -9   0   10.08    1.00
  -4  -9   0    9.61    0.68
  -4  -9   0   10.28    0.73
   4   9   0   10.59    0.99
  -5  -9   0    7.55    0.56
  -5  -9   0    5.85    0.66
  -5  -9   0    7.80    0.94
  -5  -9   0    7.51    0.59
   5   9   0    6.45    0.88
  -6  -9   0    9.76    1.03
  -6  -9   0   10.61    0.63
   6   9   0   10.82    1.17
   6   9   0   10.18    1.07
   1 -10   0    1.32    0.57
   1 -10   0    1.93    0.67
   1 -10   0    0.78    0.52
  -1  10   0    1.20    0.68
   0 -10   0    1.36    0.59
   0 -10   0    2.09    0.56
   0 -10   0    2.85    0.64
   0 -10   0    0.29    0.45
   0  10   0    1.72    0.70
  -1 -10   0    2.39    0.59
  -1 -10   0    3.21    0.64
  -1 -10   0    2.65    0.62
  -1 -10   0    2.76    0.63
   1  10   0    1.93    0.65
  -2 -10   0   10.88    0.92
  -2 -10   0   10.10    0.86
  -2 -10   0   11.36    1.14
  -2 -10   0    8.89    0.86
   2  10   0    7.98    0.98
  -3 -10   0    2.68    0.55
  -3 -10   0    4.00    0.58
  -3 -10   0    4.27    0.64
  -3 -10   0    3.09    0.75
   3  10   0    2.56    0.70
  -4 -10   0    0.12    0.47
  -4 -10   0   -0.03    0.36
  -4 -10   0    0.04    0.33
  -4 -10   0    0.38    0.37
   4  10   0    0.36    0.56
  -5 -10   0    2.12    0.68
  -5 -10   0    1.44    0.38
  -5 -10   0    1.73    0.44
   5  10   0    0.64    0.57
  -1 -11   0    0.66    0.56
  -1 -11   0    0.68    0.59
  -1 -11   0    0.02    0.44
  -1 -11   0    0.02    0.46
   1  11   0    1.45    0.74
  -2 -11   0    2.64    0.66
  -2 -11   0    0.48    0.51
  -2 -11   0    1.33    0.55
  -2 -11   0    1.76    0.58
   2  11   0    0.42    0.59
  -3 -11   0   10.77    0.95
  -3 -11   0    8.66    0.87
  -3 -11   0    9.78    0.98
  -3 -11   0    7.94    1.00
   3  11   0    7.76    1.07
  -4 -11   0    2.15    0.51
  -4 -11   0    1.79    0.72
  -4 -11   0    1.59    0.52
  -4 -11   0    1.09    0.45
   4  11   0    1.97    0.77
   4  11  -1    0.22    0.67
  -4 -11   1    0.19    0.41
  -4 -11   1    0.03    0.49
  -4 -11   1   -0.11    0.38
   3  11  -1    4.40    0.90
  -3 -11   1    5.55    0.91
  -3 -11   1    4.82    0.74
  -3 -11   1    5.69    0.77
  -3 -11   1    3.99    0.66
   2  11  -1    8.98    1.20
  -2 -11   1   11.93    1.11
  -2 -11   1   10.14    1.05
  -2 -11   1    9.53    1.16
  -2 -11   1   10.60    1.02
   1  11  -1    5.34    0.96
  -1 -11   1    4.36    0.78
  -1 -11   1    4.29    0.79
  -1 -11   1    3.94    0.76
  -1 -11   1    4.58    0.80
   5  10  -1    0.32    0.53
  -5 -10   1   -0.04    0.32
  -5 -10   1    0.14    0.31
  -5 -10   1   -0.11    0.55
   4  10  -1    1.71    0.69
  -4 -10   1    1.70    0.64
  -4 -10   1    2.20    0.47
  -4 -10   1    2.63    0.50
  -4 -10   1    2.05    0.49
   3  10  -1   -0.34    0.53
  -3 -10   1    0.82    0.43
  -3 -10   1   -0.27    0.47
  -3 -10   1   -0.49    0.32
  -3 -10   1    0.32    0.39
   2  10  -1    7.61    1.03
  -2 -10   1    8.24    0.87
  -2 -10   1    9.10    0.91
  -2 -10   1    6.39    0.77
  -2 -10   1    9.55    1.07
   1  10  -1    1.11    0.62
  -1 -10   1    0.62    0.45
  -1 -10   1    0.58    0.51
  -1 -10   1    1.07    0.45
  -1 -10   1    0.88    0.49
   0  10  -1    0.37    0.55
   0 -10   1   -0.87    0.45
   0 -10   1    0.29    0.45
   0 -10   1    0.40    0.48
   0 -10   1    0.74    0.48
  -1  10  -1   12.18    1.28
   1 -10   1   12.68    1.03
   1 -10   1   12.03    1.03
   1 -10   1   13.55    1.15
   6   9  -1    5.19    0.86
   6   9  -1    4.20    0.78
  -6  -9   1    5.01    0.49
  -6  -9   1    4.59    0.78
   5   9  -1    2.87    0.70
  -5  -9   1    4.39    0.49
  -5  -9   1    4.70    0.81
  -5  -9   1    3.88    0.48
   4   9  -1    0.59    0.54
  -4  -9   1    0.05    0.29
  -4  -9   1    0.38    0.32
  -4  -9   1    0.10    0.30
  -4  -9   1   -0.40    0.38
   3   9  -1    2.40    0.70
  -3  -9   1    3.07    0.49
  -3  -9   1    3.29    0.54
  -3  -9   1    3.40    0.70
  -3  -9   1    3.99    0.57
   2   9  -1   10.56    1.10
  -2  -9   1    9.09    0.72
  -2  -9   1    8.88    0.83
  -2  -9   1    9.80    0.99
  -2  -9   1    9.38    0.77
   1   9  -1    0.98    0.52
  -1  -9   1    1.72    0.53
  -1  -9   1    1.81    0.48
  -1  -9   1    1.77    0.51
  -1  -9   1    1.19    0.43
   0   9  -1    1.02    0.44
   0   9  -1    1.40    0.60
   0  -9   1    0.78    0.42
   0  -9   1    1.49    0.53
   0  -9   1    0.73    0.44
   0  -9   1    0.93    0.42
  -1   9  -1    1.29    0.49
  -1   9  -1    1.92    0.64
   1  -9   1    1.23    0.50
   1  -9   1    1.81    0.52
   1  -9   1    0.52    0.54
  -2   9  -1   -0.03    0.44
  -2   9  -1    0.49    0.58
   2  -9   1    0.80    0.55
   2  -9   1   -0.08    0.40
   2  -9   1    0.16    0.42
  -3   9  -1    0.56    0.56
  -3   9  -1   -0.31    0.52
   3  -9   1   -0.02    0.55
   3  -9   1    0.37    0.56
   7   8  -1    2.62    0.66
   7   8  -1    4.62    0.79
  -7  -8   1    3.80    0.35
  -7  -8   1    3.84    0.68
   6   8  -1    2.91    0.68
   6   8  -1    2.28    0.64
  -6  -8   1    2.53    0.34
  -6  -8   1    2.39    0.60
   5   8  -1   -0.20    0.43
   5   8  -1    0.06    0.45
  -5  -8   1    0.44    0.44
  -5  -8   1    0.12    0.27
  -5  -8   1    0.09    0.24
  -5  -8   1    0.16    0.22
   4   8  -1   10.25    0.90
  -4  -8   1   13.32    0.74
  -4  -8   1   12.20    0.67
  -4  -8   1   10.09    0.96
  -4  -8   1   11.64    0.67
   3   8  -1    8.14    0.89
  -3  -8   1    7.66    0.63
  -3  -8   1    7.28    0.79
  -3  -8   1    8.42    0.61
  -3  -8   1    9.07    0.67
  -3  -8   1    8.31    0.62
   2   8  -1    1.40    0.49
  -2  -8   1    2.50    0.45
  -2  -8   1    2.26    0.41
  -2  -8   1    2.11    0.53
  -2  -8   1    1.85    0.41
  -2  -8   1    2.07    0.43
   1   8  -1    1.02    0.35
   1   8  -1    1.85    0.55
  -1  -8   1    1.08    0.41
  -1  -8   1    1.84    0.45
  -1  -8   1    0.25    0.28
  -1  -8   1    1.25    0.42
  -1  -8   1    0.68    0.37
   0   8  -1    7.21    0.74
   0   8  -1    6.42    0.80
   0  -8   1    9.34    0.83
   0  -8   1    8.66    0.76
   0  -8   1    7.87    0.76
   0  -8   1    8.30    0.81
  -1   8  -1    6.57    0.86
  -1   8  -1    6.21    0.73
   1  -8   1    5.88    0.74
   1  -8   1    5.92    0.68
   1  -8   1    5.55    0.68
   1  -8   1    6.09    0.71
  -2   8  -1    3.08    0.70
  -2   8  -1    2.43    0.57
   2  -8   1    2.04    0.57
   2  -8   1    1.60    0.49
   2  -8   1    2.06    0.54
  -3   8  -1   -0.26    0.46
  -3   8  -1   -0.32    0.48
   3  -8   1   -0.43    0.40
   3  -8   1    0.80    0.53
  -4   8  -1    2.95    0.74
   4  -8   1    2.26    0.62
   4  -8   1    2.42    0.76
   7   7  -1    0.33    0.47
  -7  -7   1    0.38    0.38
  -7  -7   1    0.73    0.19
  -7  -7   1    0.91    0.49
   6   7  -1    8.15    0.89
   6   7  -1    5.79    0.76
  -6  -7   1    7.72    0.79
  -6  -7   1    6.92    0.42
   5   7  -1    6.31    0.80
   5   7  -1    5.99    0.74
  -5  -7   1    6.57    0.45
  -5  -7   1    5.81    0.40
  -5  -7   1    4.86    0.64
  -5  -7   1    6.76    0.59
   4   7  -1    0.06    0.38
   4   7  -1    0.18    0.34
  -4  -7   1    0.39    0.25
  -4  -7   1    0.24    0.20
  -4  -7   1    0.26    0.39
  -4  -7   1   -0.26    0.20
  -4  -7   1    0.28    0.27
   3   7  -1    2.85    0.52
   3   7  -1    4.13    0.50
  -3  -7   1    4.25    0.48
  -3  -7   1    3.38    0.39
  -3  -7   1    4.61    0.60
  -3  -7   1    3.65    0.47
  -3  -7   1    4.17    0.44
   2   7  -1    4.96    0.67
   2   7  -1    4.36    0.43
   2   7  -1    4.39    0.50
  -2  -7   1    3.79    0.55
  -2  -7   1    4.72    0.50
  -2  -7   1    4.25    0.46
  -2  -7   1    3.58    0.45
  -2  -7   1    4.28    0.48
   1   7  -1    0.46    0.27
   1   7  -1    0.31    0.34
   1   7  -1    0.33    0.24
  -1  -7   1    0.43    0.28
  -1  -7   1    0.30    0.23
  -1  -7   1    0.12    0.27
  -1  -7   1    0.00    0.28
  -1  -7   1    0.66    0.36
   0   7  -1    2.73    0.53
   0   7  -1    2.00    0.42
   0  -7   1    1.80    0.39
   0  -7   1    2.77    0.46
   0  -7   1    2.53    0.47
   0  -7   1    3.15    0.47
   0  -7   1    2.54    0.50
  -1   7  -1    0.52    0.38
  -1   7  -1    0.39    0.42
   1  -7   1    0.42    0.36
   1  -7   1    0.43    0.36
   1  -7   1    0.22    0.31
   1  -7   1   -0.14    0.29
  -2   7  -1    0.54    0.39
  -2   7  -1    0.20    0.38
   2  -7   1    0.43    0.39
   2  -7   1    0.49    0.38
   2  -7   1    0.58    0.35
  -3   7  -1    9.07    0.96
  -3   7  -1   10.64    1.00
   3  -7   1   10.92    0.93
   3  -7   1   10.46    0.85
   3  -7   1   10.03    0.77
  -4   7  -1    1.10    0.55
  -4   7  -1    0.93    0.56
   4  -7   1    1.16    0.55
   4  -7   1    2.08    0.57
   8   6  -1   -0.06    0.45
  -8  -6   1    0.06    0.50
  -8  -6   1   -0.01    0.15
   7   6  -1   15.47    1.09
  -7  -6   1   14.99    0.53
  -7  -6   1   17.09    1.11
   6   6  -1    1.14    0.47
   6   6  -1    1.71    0.38
   6   6  -1    1.75    0.49
  -6  -6   1    1.80    0.22
  -6  -6   1    1.43    0.38
  -6  -6   1    1.11    0.19
  -6  -6   1    0.94    0.39
   5   6  -1    0.39    0.36
   5   6  -1    0.35    0.34
   5   6  -1    0.27    0.27
  -5  -6   1    0.18    0.29
  -5  -6   1    0.36    0.16
  -5  -6   1    0.26    0.25
  -5  -6   1    0.37    0.17
  -5  -6   1    0.00    0.17
  -5  -6   1    0.44    0.29
  -5  -6   1    0.45    0.21
  -5  -6   1    0.44    0.26
  -5  -6   1    0.26    0.15
   4   6  -1    4.17    0.48
   4   6  -1    5.48    0.62
   4   6  -1    4.71    0.55
  -4  -6   1    4.98    0.32
  -4  -6   1    5.46    0.63
  -4  -6   1    4.45    0.45
  -4  -6   1    4.14    0.49
  -4  -6   1    4.69    0.36
  -4  -6   1    4.67    0.35
  -4  -6   1    4.21    0.35
  -4  -6   1    4.36    0.31
   3   6  -1   16.83    0.88
   3   6  -1   15.92    0.79
   3   6  -1   16.43    0.74
  -3  -6   1   16.32    0.47
  -3  -6   1   15.07    0.62
  -3  -6   1   16.83    0.85
  -3  -6   1   15.57    0.65
  -3  -6   1   16.78    0.76
  -3  -6   1   16.97    0.70
  -3  -6   1   16.61    0.42
  -3  -6   1   16.52    0.63
   2   6  -1    0.12    0.20
   2   6  -1    0.03    0.27
   2   6  -1    0.11    0.16
  -2  -6   1    0.17    0.20
  -2  -6   1    0.12    0.25
  -2  -6   1    0.17    0.18
  -2  -6   1   -0.17    0.19
  -2  -6   1    0.31    0.21
  -2  -6   1    0.00    0.21
  -2  -6   1    0.07    0.08
   1   6  -1    1.89    0.27
   1   6  -1    1.47    0.29
   1   6  -1    1.74    0.33
   1   6  -1    1.22    0.37
  -1  -6   1    1.74    0.34
  -1  -6   1    1.58    0.37
  -1  -6   1    1.68    0.15
  -1  -6   1    1.16    0.27
  -1  -6   1    1.49    0.31
  -1  -6   1    1.81    0.32
  -1  -6   1    1.67    0.34
   0   6  -1   16.78    0.75
   0   6  -1   15.55    0.41
   0   6  -1   15.82    0.70
   0   6  -1   15.33    0.77
   0   6  -1   15.31    0.87
   0   6  -1   16.33    0.48
   0  -6   1   16.47    0.75
   0  -6   1   15.17    0.78
   0  -6   1   16.70    0.84
   0  -6   1   15.85    0.74
   0  -6   1   14.57    0.75
   0  -6   1   16.78    0.76
  -1   6  -1   16.96    0.59
  -1   6  -1   16.29    0.89
  -1   6  -1   16.96    0.81
  -1   6  -1   16.47    0.88
  -1   6  -1   16.24    0.79
  -1   6  -1   16.59    0.55
   1  -6   1   15.81    0.80
   1  -6   1   16.88    0.84
   1  -6   1   18.57    0.93
   1  -6   1   16.74    0.85
  -2   6  -1    0.07    0.26
  -2   6  -1   -0.16    0.19
  -2   6  -1   -0.04    0.31
  -2   6  -1   -0.25    0.32
   2  -6   1    0.10    0.29
   2  -6   1   -0.03    0.26
   2  -6   1   -0.06    0.31
   2  -6   1   -0.04    0.30
  -3   6  -1    0.53    0.37
  -3   6  -1    0.32    0.37
  -3   6  -1    0.07    0.38
  -3   6  -1    0.72    0.44
  -3   6  -1    0.25    0.27
   3  -6   1    0.16    0.34
   3  -6   1    0.71    0.42
   3  -6   1    0.15    0.30
  -4   6  -1   10.61    0.88
  -4   6  -1   10.36    0.88
  -4   6  -1   10.31    0.75
  -4   6  -1    8.04    0.89
  -4   6  -1    9.86    0.83
   4  -6   1    9.08    0.93
   4  -6   1    8.00    0.86
  -5   6  -1    0.19    0.47
  -5   6  -1    0.56    0.46
  -5   6  -1    1.66    0.54
  -5   6  -1    1.12    0.45
   5  -6   1   -0.07    0.32
   8   5  -1    0.49    0.50
  -8  -5   1    0.60    0.21
  -8  -5   1    0.11    0.43
   7   5  -1    0.38    0.46
  -7  -5   1   -0.31    0.42
  -7  -5   1   -0.27    0.23
   6   5  -1    1.86    0.39
   6   5  -1    2.33    0.46
   6   5  -1    2.43    0.53
  -6  -5   1    2.50    0.24
  -6  -5   1    2.48    0.23
  -6  -5   1    2.26    0.36
  -6  -5   1    3.38    0.59
  -6  -5   1    2.58    0.47
   5   5  -1   11.64    0.65
   5   5  -1    9.87    0.74
   5   5  -1   10.85    0.71
  -5  -5   1   11.31    0.73
  -5  -5   1   11.69    0.58
  -5  -5   1   11.36    0.41
  -5  -5   1   11.11    0.57
  -5  -5   1   12.27    0.72
  -5  -5   1   11.04    0.38
  -5  -5   1   10.76    0.40
   4   5  -1    4.01    0.51
   4   5  -1    4.45    0.54
   4   5  -1    3.86    0.41
  -4  -5   1    3.64    0.45
  -4  -5   1    3.54    0.28
  -4  -5   1    3.54    0.37
  -4  -5   1    3.90    0.46
  -4  -5   1    3.78    0.32
  -4  -5   1    3.23    0.27
  -4  -5   1    4.16    0.31
  -4  -5   1    3.38    0.25
   3   5  -1   15.66    0.72
   3   5  -1   12.91    0.72
   3   5  -1   14.61    0.40
   3   5  -1   14.56    0.67
  -3  -5   1   14.41    0.66
  -3  -5   1   14.15    0.53
  -3  -5   1   14.16    0.51
  -3  -5   1   13.81    0.71
  -3  -5   1   14.50    0.45
  -3  -5   1   15.02    0.59
  -3  -5   1   15.39    0.52
  -3  -5   1   14.00    0.44
  -3  -5   1   14.86    0.55
   2   5  -1   11.15    0.47
   2   5  -1   11.81    0.66
   2   5  -1   11.19    0.55
  -2  -5   1   12.30    0.53
  -2  -5   1   11.58    0.53
  -2  -5   1   11.05    0.49
  -2  -5   1   10.01    0.61
  -2  -5   1   10.89    0.32
  -2  -5   1   10.97    0.49
  -2  -5   1   11.71    0.56
   1   5  -1    7.26    0.46
   1   5  -1    6.32    0.44
   1   5  -1    6.50    0.37
   1   5  -1    6.94    0.53
   1   5  -1    6.98    0.24
  -1  -5   1    6.72    0.43
  -1  -5   1    6.86    0.26
  -1  -5   1    6.22    0.43
  -1  -5   1    6.36    0.42
  -1  -5   1    6.97    0.51
  -1  -5   1    7.65    0.44
  -1  -5   1    6.91    0.47
   0   5  -1   34.06    0.79
   0   5  -1   34.95    1.19
   0   5  -1   33.61    0.72
   0   5  -1   33.43    1.00
   0   5  -1   35.47    1.06
   0   5  -1   37.48    1.13
   0  -5   1   35.12    1.06
   0  -5   1   35.46    1.12
   0  -5   1   35.73    1.06
   0  -5   1   35.10    1.04
   0  -5   1   33.99    1.09
   0  -5   1   35.42    1.06
  -1   5  -1    0.56    0.24
  -1   5  -1    0.54    0.24
  -1   5  -1    0.60    0.17
  -1   5  -1    0.58    0.28
  -1   5  -1    0.03    0.25
   1  -5   1    0.81    0.29
   1  -5   1    0.59    0.24
   1  -5   1    0.16    0.22
   1  -5   1    0.55    0.27
   1  -5   1    0.49    0.26
  -2   5  -1   23.63    0.80
  -2   5  -1   23.17    0.94
  -2   5  -1   24.59    1.06
  -2   5  -1   23.77    1.00
  -2   5  -1   24.56    0.98
  -2   5  -1   21.72    0.96
   2  -5   1   23.53    0.89
   2  -5   1   22.78    0.99
   2  -5   1   24.05    0.92
   2  -5   1   22.33    0.94
   2  -5   1   23.21    0.93
  -3   5  -1   14.09    0.87
  -3   5  -1   13.70    0.83
  -3   5  -1   12.96    0.79
  -3   5  -1   12.75    0.69
  -3   5  -1   13.45    0.81
   3  -5   1   12.18    0.76
   3  -5   1   13.05    0.85
   3  -5   1   12.97    0.71
  -4   5  -1   -0.48    0.29
  -4   5  -1    0.03    0.30
  -4   5  -1   -0.33    0.31
  -4   5  -1    0.12    0.30
  -4   5  -1    0.63    0.39
   4  -5   1   -0.10    0.31
   4  -5   1    0.27    0.33
   4  -5   1   -0.38    0.20
  -5   5  -1    0.25    0.42
  -5   5  -1    1.04    0.48
  -5   5  -1    0.81    0.47
  -5   5  -1    0.28    0.38
   5  -5   1    0.52    0.34
  -6   5  -1   -0.02    0.47
  -6   5  -1   -0.40    0.43
  -6   5  -1    0.42    0.44
  -6   5  -1    0.06    0.41
   6  -5   1   -0.39    0.31
   8   4  -1    0.46    0.45
  -8  -4   1    0.61    0.24
  -8  -4   1    0.75    0.55
   7   4  -1    8.38    0.88
  -7  -4   1    8.84    0.45
  -7  -4   1   10.97    0.93
   6   4  -1    4.73    0.62
   6   4  -1    5.67    0.55
  -6  -4   1    6.52    0.71
  -6  -4   1    5.82    0.27
  -6  -4   1    6.11    0.34
  -6  -4   1    7.12    0.57
  -6  -4   1    5.95    0.33
   5   4  -1    2.16    0.42
   5   4  -1    2.68    0.41
   5   4  -1    2.06    0.36
  -5  -4   1    2.58    0.31
  -5  -4   1    2.62    0.21
  -5  -4   1    2.22    0.37
  -5  -4   1    2.13    0.39
  -5  -4   1    2.28    0.20
  -5  -4   1    2.43    0.20
   4   4  -1    1.82    0.30
   4   4  -1    2.18    0.35
   4   4  -1    2.35    0.38
  -4  -4   1    1.86    0.34
  -4  -4   1    1.89    0.26
  -4  -4   1    2.14    0.18
  -4  -4   1    1.92    0.18
  -4  -4   1    2.33    0.19
  -4  -4   1    1.82    0.18
  -4  -4   1    2.12    0.28
  -4  -4   1    2.13    0.34
   3   4  -1    1.86    0.33
   3   4  -1    1.67    0.32
   3   4  -1    0.92    0.23
   3   4  -1    1.92    0.29
  -3  -4   1    1.29    0.27
  -3  -4   1    1.40    0.18
  -3  -4   1    1.33    0.16
  -3  -4   1    1.06    0.16
  -3  -4   1    1.49    0.31
  -3  -4   1    1.50    0.23
  -3  -4   1    1.13    0.15
   2   4  -1   49.60    1.24
   2   4  -1   50.24    1.28
   2   4  -1   51.77    1.08
   2   4  -1   51.34    1.36
  -2  -4   1   48.12    1.12
  -2  -4   1   50.50    0.98
  -2  -4   1   48.50    1.09
  -2  -4   1   48.92    0.95
  -2  -4   1   51.24    1.34
  -2  -4   1   50.60    1.16
  -2  -4   1   50.21    1.14
  -2  -4   1   49.25    1.09
  -2  -4   1   48.39    1.24
   1   4  -1    8.21    0.42
   1   4  -1    8.49    0.24
   1   4  -1    8.90    0.44
   1   4  -1    8.20    0.36
   1   4  -1    8.79    0.52
  -1  -4   1    8.73    0.45
  -1  -4   1    8.87    0.43
  -1  -4   1    8.63    0.45
  -1  -4   1    8.85    0.41
  -1  -4   1    8.87    0.30
  -1  -4   1    8.62    0.25
  -1  -4   1    7.74    0.41
  -1  -4   1    8.19    0.49
   0   4  -1  139.07    2.69
   0   4  -1  139.00    2.48
   0   4  -1  140.31    2.88
   0   4  -1  137.66    2.77
   0   4  -1  138.76    2.40
   0   4  -1  139.52    2.74
   0  -4   1  137.63    2.78
   0  -4   1  141.93    2.77
   0  -4   1  133.94    2.71
   0  -4   1  139.69    2.73
   0  -4   1  138.98    2.72
   0  -4   1  140.86    2.72
   0  -4   1  132.85    2.72
   0  -4   1  132.16    2.78
  -1   4  -1   46.69    1.06
  -1   4  -1   45.84    1.23
  -1   4  -1   46.71    1.24
  -1   4  -1   46.57    1.30
  -1   4  -1   44.44    1.29
   1  -4   1   46.85    1.25
   1  -4   1   46.26    1.24
   1  -4   1   45.46    1.19
   1  -4   1   49.47    1.33
   1  -4   1   45.66    1.24
  -2   4  -1   31.38    0.92
  -2   4  -1   31.30    1.04
  -2   4  -1   31.11    1.10
  -2   4  -1   32.03    1.03
  -2   4  -1   30.48    1.01
   2  -4   1   32.51    0.99
   2  -4   1   31.21    1.01
   2  -4   1   31.29    1.09
   2  -4   1   30.36    0.97
   2  -4   1   29.20    1.01
  -3   4  -1   22.33    1.00
  -3   4  -1   23.12    0.87
  -3   4  -1   24.50    0.98
  -3   4  -1   24.21    1.01
  -3   4  -1   22.31    0.92
   3  -4   1   23.72    0.85
   3  -4   1   24.15    0.92
   3  -4   1   22.80    0.95
   3  -4   1   24.27    0.89
   3  -4   1   22.14    0.96
  -4   4  -1    1.00    0.41
  -4   4  -1    1.78    0.43
  -4   4  -1    1.50    0.40
  -4   4  -1    1.33    0.40
   4  -4   1    1.42    0.30
   4  -4   1    1.31    0.35
   4  -4   1    1.10    0.34
  -5   4  -1    1.98    0.50
  -5   4  -1    2.18    0.51
  -5   4  -1    2.19    0.48
  -5   4  -1    2.10    0.49
   5  -4   1    2.05    0.44
  -6   4  -1    0.11    0.38
  -6   4  -1    0.76    0.45
  -6   4  -1    0.49    0.43
  -6   4  -1    0.96    0.47
   6  -4   1    0.17    0.38
   8   3  -1    0.15    0.49
  -8  -3   1   -0.08    0.49
  -8  -3   1    0.53    0.26
   7   3  -1    2.76    0.59
   7   3  -1    4.01    0.55
  -7  -3   1    2.61    0.32
  -7  -3   1    2.63    0.57
   6   3  -1    5.76    0.68
   6   3  -1    8.03    0.59
  -6  -3   1    8.18    0.69
  -6  -3   1    8.02    0.54
  -6  -3   1    7.85    0.38
  -6  -3   1    8.12    0.41
  -6  -3   1    7.76    0.41
   5   3  -1    2.08    0.33
   5   3  -1    2.56    0.38
   5   3  -1    1.79    0.38
  -5  -3   1    1.32    0.29
  -5  -3   1    1.63    0.39
  -5  -3   1    1.89    0.26
  -5  -3   1    1.67    0.38
  -5  -3   1    1.76    0.19
  -5  -3   1    1.49    0.19
  -5  -3   1    1.36    0.18
   4   3  -1    0.41    0.20
   4   3  -1    0.52    0.24
   4   3  -1    0.28    0.20
  -4  -3   1    0.74    0.11
  -4  -3   1    0.70    0.12
  -4  -3   1    0.72    0.13
  -4  -3   1    0.84    0.25
  -4  -3   1    1.11    0.25
  -4  -3   1    0.76    0.12
  -4  -3   1    0.75    0.18
   3   3  -1   25.45    0.81
   3   3  -1   24.90    0.76
   3   3  -1   23.37    0.81
  -3  -3   1   24.14    0.53
  -3  -3   1   23.80    0.57
  -3  -3   1   24.16    0.78
  -3  -3   1   24.17    0.57
  -3  -3   1   25.31    0.81
  -3  -3   1   23.25    0.52
   2   3  -1    1.11    0.24
   2   3  -1    0.50    0.18
   2   3  -1    1.30    0.23
  -2  -3   1    0.86    0.17
  -2  -3   1    0.80    0.20
  -2  -3   1    0.92    0.14
  -2  -3   1    0.78    0.21
  -2  -3   1    0.74    0.14
  -2  -3   1    0.55    0.13
  -2  -3   1    0.83    0.13
   1   3  -1    1.56    0.23
   1   3  -1    1.31    0.27
   1   3  -1    1.36    0.17
   1   3  -1    1.31    0.19
  -1  -3   1    1.42    0.16
  -1  -3   1    1.27    0.21
  -1  -3   1    1.73    0.22
  -1  -3   1    1.25    0.19
  -1  -3   1    1.25    0.18
  -1  -3   1    1.60    0.29
  -1  -3   1    1.11    0.09
  -1  -3   1    1.23    0.20
  -1  -3   1    1.38    0.20
   0   3  -1  258.79    4.35
   0   3  -1  253.03    4.58
   0   3  -1  250.61    4.65
   0   3  -1  253.95    4.51
   0   3  -1  253.51    4.37
   0   3  -1  254.83    4.55
   0  -3   1  257.25    4.54
   0  -3   1  253.44    4.54
   0  -3   1  253.31    4.53
   0  -3   1  256.84    4.37
   0  -3   1  257.62    4.56
   0  -3   1  255.22    4.61
   0  -3   1  252.16    4.58
  -1   3  -1   20.07    0.59
  -1   3  -1   21.69    0.70
  -1   3  -1   21.79    0.71
  -1   3  -1   20.36    0.69
  -1   3  -1   20.62    0.75
   1  -3   1   20.19    0.68
   1  -3   1   22.15    0.75
   1  -3   1   21.07    0.66
   1  -3   1   20.06    0.68
   1  -3   1   20.21    0.68
  -2   3  -1   17.40    0.64
  -2   3  -1   17.23    0.71
  -2   3  -1   18.06    0.73
  -2   3  -1   17.04    0.69
  -2   3  -1   16.53    0.67
  -2   3  -1   18.10    0.64
   2  -3   1   17.55    0.67
   2  -3   1   18.11    0.64
   2  -3   1   16.55    0.62
   2  -3   1   17.75    0.70
   2  -3   1   17.99    0.74
  -3   3  -1   50.62    1.39
  -3   3  -1   50.73    1.31
  -3   3  -1   50.15    1.37
  -3   3  -1   46.82    1.43
  -3   3  -1   50.20    1.37
   3  -3   1   49.99    1.41
   3  -3   1   50.95    1.27
   3  -3   1   52.22    1.43
   3  -3   1   50.95    1.33
   3  -3   1   52.85    1.34
  -4   3  -1    0.99    0.31
  -4   3  -1    0.65    0.32
  -4   3  -1    1.59    0.33
  -4   3  -1    0.60    0.29
  -4   3  -1    1.31    0.35
   4  -3   1    1.51    0.33
   4  -3   1    1.33    0.32
   4  -3   1    1.43    0.26
   4  -3   1    1.21    0.29
  -5   3  -1    0.11    0.31
  -5   3  -1    0.03    0.30
  -5   3  -1    0.49    0.28
  -5   3  -1    0.13    0.33
  -5   3  -1    0.38    0.33
   5  -3   1    0.34    0.32
  -6   3  -1    1.71    0.49
  -6   3  -1    1.81    0.48
  -6   3  -1    2.50    0.59
  -6   3  -1    1.02    0.42
   6  -3   1    1.11    0.42
  -7   3  -1   -0.44    0.38
  -7   3  -1   -0.10    0.41
  -7   3  -1   -0.51    0.34
   7  -3   1    0.18    0.45
   7  -3   1    0.18    0.42
   8   2  -1    0.51    0.47
  -8  -2   1    0.34    0.28
  -8  -2   1    0.46    0.48
   7   2  -1   15.65    1.02
   7   2  -1   15.89    0.91
  -7  -2   1   17.64    0.75
  -7  -2   1   16.76    0.71
  -7  -2   1   17.43    1.07
   6   2  -1    0.93    0.36
   6   2  -1    0.87    0.33
  -6  -2   1    1.42    0.44
  -6  -2   1    0.67    0.21
  -6  -2   1    0.86    0.22
   5   2  -1    2.57    0.31
   5   2  -1    2.46    0.41
   5   2  -1    2.46    0.36
  -5  -2   1    2.08    0.40
  -5  -2   1    2.76    0.44
  -5  -2   1    2.30    0.26
  -5  -2   1    1.87    0.23
  -5  -2   1    2.03    0.26
  -5  -2   1    2.35    0.25
  -5  -2   1    2.05    0.27
   4   2  -1   14.29    0.61
   4   2  -1   14.74    0.56
   4   2  -1   14.93    0.67
  -4  -2   1   14.35    0.43
  -4  -2   1   14.98    0.55
  -4  -2   1   14.41    0.43
  -4  -2   1   13.90    0.46
  -4  -2   1   14.34    0.50
  -4  -2   1   14.85    0.47
  -4  -2   1   14.10    0.66
  -4  -2   1   13.53    0.66
   3   2  -1   27.15    0.84
   3   2  -1   27.47    0.75
   3   2  -1   26.24    0.77
  -3  -2   1   26.07    0.56
  -3  -2   1   25.92    0.56
  -3  -2   1   26.32    0.60
  -3  -2   1   26.62    0.74
  -3  -2   1   26.07    0.60
  -3  -2   1   25.05    0.66
  -3  -2   1   26.23    0.83
   2   2  -1   84.50    1.66
   2   2  -1   83.07    1.41
   2   2  -1   81.08    1.40
   2   2  -1   80.07    1.66
  -2  -2   1   79.62    1.66
  -2  -2   1   81.95    1.48
  -2  -2   1   80.33    1.47
  -2  -2   1   79.39    1.42
  -2  -2   1   78.21    1.62
  -2  -2   1   79.28    1.42
   1   2  -1    2.21    0.22
   1   2  -1    2.33    0.15
   1   2  -1    2.17    0.18
   1   2  -1    2.58    0.29
   1   2  -1    2.22    0.18
  -1  -2   1    2.22    0.18
  -1  -2   1    2.67    0.26
  -1  -2   1    2.20    0.22
  -1  -2   1    2.15    0.18
  -1  -2   1    2.26    0.19
  -1  -2   1    2.54    0.20
  -1  -2   1    1.72    0.15
  -1  -2   1    2.10    0.18
   0   2  -1  197.43    3.33
   0   2  -1  195.82    3.46
   0   2  -1  199.20    3.49
   0   2  -1  194.78    3.59
   0   2  -1  188.38    3.49
   0  -2   1  197.81    3.46
   0  -2   1  199.48    3.47
   0  -2   1  200.10    3.37
   0  -2   1  190.64    3.49
   0  -2   1  196.20    3.46
   0  -2   1  194.65    3.50
   0  -2   1  199.61    3.46
   0  -2   1  194.45    3.51
  -1   2  -1  100.90    1.97
  -1   2  -1  104.39    1.95
  -1   2  -1  103.46    2.05
  -1   2  -1  102.00    2.02
  -1   2  -1  102.99    2.01
  -1   2  -1  104.93    2.01
  -1   2  -1  104.61    2.00
   1  -2   1  103.58    2.00
   1  -2   1   99.83    2.04
   1  -2   1  101.06    2.00
   1  -2   1  107.01    1.99
   1  -2   1  103.44    2.01
  -2   2  -1   11.83    0.47
  -2   2  -1   12.27    0.53
  -2   2  -1   13.40    0.52
  -2   2  -1   11.13    0.51
  -2   2  -1   12.12    0.56
  -2   2  -1   12.06    0.53
   2  -2   1   11.75    0.49
   2  -2   1   13.03    0.56
   2  -2   1   11.16    0.51
   2  -2   1   12.00    0.47
   2  -2   1   12.44    0.47
  -3   2  -1    0.49    0.24
  -3   2  -1    0.93    0.27
  -3   2  -1    0.94    0.25
  -3   2  -1    0.74    0.21
  -3   2  -1    1.32    0.24
   3  -2   1    0.67    0.20
   3  -2   1    0.95    0.26
   3  -2   1    1.00    0.22
   3  -2   1    0.90    0.20
  -4   2  -1   15.28    0.73
  -4   2  -1   15.82    0.72
  -4   2  -1   14.14    0.73
  -4   2  -1   15.19    0.65
   4  -2   1   14.05    0.72
   4  -2   1   14.45    0.64
   4  -2   1   14.49    0.68
  -5   2  -1    1.75    0.37
  -5   2  -1    1.76    0.41
  -5   2  -1    1.61    0.32
  -5   2  -1    1.74    0.39
   5  -2   1    1.98    0.41
   5  -2   1    2.14    0.34
  -6   2  -1    0.30    0.36
  -6   2  -1   -0.05    0.28
  -6   2  -1   -0.45    0.31
  -6   2  -1   -0.04    0.30
   6  -2   1   -0.35    0.28
   6  -2   1   -0.05    0.32
  -7   2  -1    5.43    0.70
  -7   2  -1    5.34    0.83
  -7   2  -1    6.09    0.71
   7  -2   1    5.23    0.76
   7  -2   1    4.32    0.67
   8   1  -1    2.84    0.57
   8   1  -1    2.17    0.61
  -8  -1   1    2.72    0.45
  -8  -1   1    1.78    0.61
  -8  -1   1    2.58    0.45
   7   1  -1   -0.06    0.31
   7   1  -1    0.51    0.41
  -7  -1   1    0.28    0.26
  -7  -1   1    0.66    0.29
  -7  -1   1   -0.61    0.40
   6   1  -1   -0.14    0.31
   6   1  -1    0.23    0.28
  -6  -1   1   -0.52    0.28
  -6  -1   1    0.03    0.20
  -6  -1   1    0.38    0.22
   5   1  -1   20.15    0.84
   5   1  -1   19.19    0.88
  -5  -1   1   20.43    0.71
  -5  -1   1   20.21    0.69
  -5  -1   1   19.31    0.67
  -5  -1   1   19.89    0.89
  -5  -1   1   18.87    0.64
   4   1  -1   -0.06    0.18
   4   1  -1    0.26    0.22
  -4  -1   1   -0.26    0.24
  -4  -1   1    0.02    0.12
  -4  -1   1    0.05    0.12
  -4  -1   1    0.30    0.14
  -4  -1   1    0.09    0.13
  -4  -1   1   -0.01    0.14
   3   1  -1   63.15    1.41
  -3  -1   1   60.65    1.45
  -3  -1   1   61.47    1.26
  -3  -1   1   60.50    1.21
  -3  -1   1   60.86    1.21
  -3  -1   1   61.65    1.26
  -3  -1   1   61.51    1.23
   2   1  -1    7.09    0.25
  -2  -1   1    7.05    0.26
  -2  -1   1    7.10    0.23
  -2  -1   1    7.08    0.27
  -2  -1   1    7.03    0.25
  -2  -1   1    6.51    0.37
  -2  -1   1    7.27    0.24
   1   1  -1   35.59    0.64
   1   1  -1   35.65    0.68
   1   1  -1   36.26    0.69
   1   1  -1   35.51    0.74
   1   1  -1   35.67    0.64
  -1  -1   1   34.65    0.74
  -1  -1   1   34.99    0.67
  -1  -1   1   35.82    0.70
  -1  -1   1   36.43    0.67
  -1  -1   1   35.46    0.70
  -1  -1   1   33.68    0.77
   0   1  -1  181.62    3.07
   0   1  -1  177.58    3.03
   0   1  -1  179.87    3.05
   0   1  -1  173.61    3.15
   0   1  -1  178.77    3.08
   0   1  -1  172.08    3.22
   0   1  -1  179.71    3.07
   0   1  -1  174.38    3.08
   0   1  -1  178.24    3.05
   0   1  -1  178.12    3.07
   0  -1   1  177.03    3.29
   0  -1   1  177.77    3.08
   0  -1   1  179.20    3.05
   0  -1   1  177.54    3.10
   0  -1   1  178.78    3.07
   0  -1   1  174.42    3.04
   0  -1   1  175.63    3.03
   0  -1   1  175.31    3.07
  -1   1  -1  189.74    3.34
  -1   1  -1  190.69    3.34
  -1   1  -1  192.99    3.34
  -1   1  -1  192.48    3.33
  -1   1  -1  187.96    3.33
  -1   1  -1  186.24    3.30
  -1   1  -1  191.31    3.37
  -1   1  -1  194.47    3.37
   1  -1   1  191.15    3.36
   1  -1   1  189.87    3.33
   1  -1   1  190.01    3.30
   1  -1   1  187.79    3.32
   1  -1   1  190.14    3.39
   1  -1   1  192.49    3.33
   1  -1   1  183.94    3.35
  -2   1  -1    5.83    0.33
  -2   1  -1    4.69    0.34
  -2   1  -1    5.00    0.29
  -2   1  -1    5.42    0.32
  -2   1  -1    5.07    0.31
   2  -1   1    5.42    0.30
   2  -1   1    5.41    0.31
   2  -1   1    5.31    0.33
   2  -1   1    5.49    0.30
  -3   1  -1   37.45    1.01
  -3   1  -1   36.60    0.96
  -3   1  -1   37.16    0.95
  -3   1  -1   36.78    0.96
  -3   1  -1   36.26    0.99
   3  -1   1   37.70    0.96
   3  -1   1   37.15    0.97
   3  -1   1   37.59    1.05
   3  -1   1   37.44    0.89
  -4   1  -1    7.06    0.45
  -4   1  -1    6.96    0.45
  -4   1  -1    6.82    0.48
  -4   1  -1    7.25    0.44
  -4   1  -1    6.89    0.48
   4  -1   1    6.81    0.51
   4  -1   1    7.02    0.44
   4  -1   1    6.95    0.40
  -5   1  -1    3.64    0.39
  -5   1  -1    3.39    0.46
  -5   1  -1    3.96    0.42
  -5   1  -1    3.67    0.44
   5  -1   1    3.66    0.39
   5  -1   1    3.31    0.45
   5  -1   1    3.13    0.49
  -6   1  -1    2.60    0.39
  -6   1  -1    1.93    0.39
  -6   1  -1    2.04    0.41
  -6   1  -1    2.31    0.46
   6  -1   1    1.93    0.47
   6  -1   1    2.20    0.44
  -7   1  -1   -1.02    0.31
  -7   1  -1    0.88    0.46
  -7   1  -1    0.12    0.29
  -7   1  -1   -0.50    0.28
   7  -1   1    0.22    0.38
   7  -1   1    0.50    0.38
   8  -1   1    1.23    0.76
   8   0  -1   -0.01    0.41
   8   0  -1    0.68    0.49
  -8   0   1   -0.55    0.47
  -8   0   1    0.67    0.36
  -8   0   1    0.37    0.33
   7   0  -1   10.13    0.81
   7   0  -1    9.03    0.93
  -7   0   1   10.38    0.73
  -7   0   1   10.32    0.70
  -7   0   1   11.44    0.93
   6   0  -1    0.08    0.27
   6   0  -1    0.30    0.32
  -6   0   1    0.42    0.26
  -6   0   1    0.19    0.39
  -6   0   1    0.49    0.26
   5   0  -1    0.72    0.19
   5   0  -1    0.39    0.27
   5   0  -1    0.43    0.27
  -5   0   1    0.76    0.37
  -5   0   1    0.58    0.20
  -5   0   1    0.56    0.25
  -5   0   1    0.80    0.24
  -5   0   1    0.47    0.22
   4   0  -1    7.67    0.50
   4   0  -1    7.80    0.36
   4   0  -1    7.18    0.48
   4   0  -1    7.78    0.38
  -4   0   1    7.39    0.44
  -4   0   1    6.82    0.27
  -4   0   1    7.82    0.42
  -4   0   1    7.93    0.56
  -4   0   1    7.38    0.41
  -4   0   1    8.01    0.37
   3   0  -1    6.93    0.42
   3   0  -1    6.42    0.34
   3   0  -1    6.36    0.29
  -3   0   1    6.56    0.34
  -3   0   1    5.92    0.28
  -3   0   1    6.49    0.43
  -3   0   1    6.75    0.24
  -3   0   1    6.57    0.34
  -3   0   1    7.07    0.37
  -3   0   1    6.95    0.38
   2   0  -1   50.70    1.07
   2   0  -1   52.60    1.00
   2   0  -1   53.48    1.01
  -2   0   1   53.63    1.10
  -2   0   1   50.22    0.99
  -2   0   1   52.73    1.06
  -2   0   1   50.24    1.05
  -2   0   1   51.97    1.09
  -2   0   1   51.34    1.17
   1   0  -1    0.73    0.14
   1   0  -1    1.11    0.11
   1   0  -1    0.83    0.07
   1   0  -1    1.01    0.11
   1   0  -1    0.85    0.12
   1   0  -1    0.87    0.10
  -1   0   1    0.82    0.07
  -1   0   1    0.97    0.14
  -1   0   1    0.82    0.12
  -1   0   1    1.07    0.06
  -1   0   1    0.81    0.12
  -1   0   1    0.87    0.10
  -1   0   1    0.99    0.16
  -1   0   1    0.85    0.11
  -1   0   1    0.86    0.12
  -1   0  -1  397.19    7.09
  -1   0  -1  396.64    7.05
  -1   0  -1  396.80    6.82
  -1   0  -1  413.92    7.33
  -1   0  -1  410.00    7.11
  -1   0  -1  384.50    7.07
  -1   0  -1  415.72    7.17
   1   0   1  423.00    7.14
   1   0   1  418.42    7.08
   1   0   1  404.92    7.15
   1   0   1  413.56    7.05
   1   0   1  412.76    7.37
   1   0   1  393.76    7.04
  -2   0  -1    7.96    0.33
  -2   0  -1    7.43    0.29
  -2   0  -1    7.44    0.33
  -2   0  -1    8.41    0.32
  -2   0  -1    8.90    0.34
  -2   0  -1    7.94    0.33
  -2   0  -1    7.08    0.29
   2   0   1    7.86    0.33
   2   0   1    7.66    0.30
   2   0   1    7.98    0.25
  -3   0  -1   39.98    0.94
  -3   0  -1   37.99    0.97
  -3   0  -1   38.49    0.94
  -3   0  -1   37.45    0.89
  -3   0  -1   38.37    0.90
  -3   0  -1   38.46    0.94
   3   0   1   38.98    0.89
   3   0   1   38.98    0.94
   3   0   1   41.29    1.19
  -4   0  -1   42.27    1.04
  -4   0  -1   41.93    1.16
  -4   0  -1   40.33    1.07
  -4   0  -1   41.91    1.07
  -4   0  -1   39.85    1.13
  -4   0  -1   42.43    1.04
   4   0   1   42.93    1.14
   4   0   1   41.53    1.06
   4   0   1   42.78    1.00
   4   0   1   40.64    1.22
  -5   0  -1    2.33    0.32
  -5   0  -1    1.65    0.35
  -5   0  -1    1.91    0.31
  -5   0  -1    2.38    0.31
  -5   0  -1    2.20    0.30
   5   0   1    2.19    0.39
   5   0   1    2.22    0.36
   5   0   1    1.83    0.28
  -6   0  -1    0.34    0.26
  -6   0  -1    0.75    0.27
  -6   0  -1    0.95    0.37
  -6   0  -1    0.78    0.27
   6   0   1    0.67    0.32
   6   0   1    0.64    0.23
   6   0   1    0.51    0.38
  -7   0  -1    1.52    0.46
  -7   0  -1    1.77    0.40
  -7   0  -1    1.35    0.36
   7   0   1    1.46    0.44
   7   0   1    1.48    0.50
  -8   0  -1    0.13    0.31
  -8   0  -1   -0.34    0.40
  -8   0  -1    0.18    0.33
   8   0   1    0.41    0.45
   7  -1  -1    0.53    0.43
   7  -1  -1    0.15    0.37
  -7   1   1   -0.27    0.30
  -7   1   1    0.70    0.36
  -7   1   1   -0.15    0.46
   6  -1  -1    4.89    0.66
   6  -1  -1    4.30    0.61
  -6   1   1    4.34    0.53
  -6   1   1    3.39    0.47
  -6   1   1    4.27    0.63
   5  -1  -1   33.86    1.22
   5  -1  -1   34.94    1.22
   5  -1  -1   34.51    0.97
  -5   1   1   33.65    1.11
  -5   1   1   35.56    1.25
  -5   1   1   34.27    1.16
  -5   1   1   35.95    0.99
   4  -1  -1    0.23    0.18
   4  -1  -1    0.19    0.20
   4  -1  -1    0.16    0.14
   4  -1  -1    0.29    0.21
  -4   1   1    0.13    0.20
  -4   1   1    0.37    0.22
  -4   1   1    0.43    0.10
  -4   1   1    0.13    0.18
  -4   1   1    0.33    0.16
  -4   1   1    0.33    0.25
   3  -1  -1   23.44    0.74
   3  -1  -1   23.68    0.67
   3  -1  -1   24.28    0.65
  -3   1   1   23.72    0.81
  -3   1   1   23.10    0.77
  -3   1   1   24.05    0.74
  -3   1   1   23.50    0.73
  -3   1   1   24.26    0.52
  -3   1   1   23.62    0.64
   2  -1  -1   51.25    1.17
   2  -1  -1   52.04    1.12
   2  -1  -1   52.19    1.06
   2  -1  -1   50.48    1.15
   2  -1  -1   54.25    0.97
  -2   1   1   51.85    1.22
  -2   1   1   52.35    1.16
  -2   1   1   52.26    0.96
  -2   1   1   51.61    1.15
  -2   1   1   52.77    1.21
  -2   1   1   52.81    1.06
   1  -1  -1    1.26    0.13
   1  -1  -1    1.41    0.19
   1  -1  -1    1.17    0.16
   1  -1  -1    1.32    0.18
   1  -1  -1    1.42    0.12
   1  -1  -1    1.41    0.19
   1  -1  -1    1.21    0.18
  -1   1   1    1.52    0.20
  -1   1   1    1.39    0.18
  -1   1   1    1.10    0.20
  -1   1   1    1.02    0.16
  -1   1   1    1.19    0.20
  -1   1   1    1.60    0.18
   0  -1  -1   30.10    0.63
   0  -1  -1   29.06    0.61
   0  -1  -1   29.95    0.61
   0  -1  -1   29.71    0.61
   0  -1  -1   30.07    0.63
   0  -1  -1   28.35    0.60
   0  -1  -1   29.59    0.63
   0  -1  -1   28.47    0.58
   0   1   1   29.37    0.62
   0   1   1   30.98    0.62
   0   1   1   29.81    0.54
   0   1   1   29.28    0.56
   0   1   1   30.48    0.60
   0   1   1   28.84    0.60
   0   1   1   28.75    0.62
   0   1   1   28.30    0.58
   0   1   1   28.89    0.63
  -1  -1  -1  360.24    6.35
  -1  -1  -1  371.02    6.29
  -1  -1  -1  371.16    6.31
  -1  -1  -1  365.70    6.41
  -2  -1  -1    2.80    0.22
  -2  -1  -1    3.22    0.15
  -2  -1  -1    3.24    0.15
   2   1   1    3.12    0.23
  -3  -1  -1   11.43    0.32
  -3  -1  -1   10.72    0.36
  -3  -1  -1   10.65    0.32
  -3  -1  -1   11.03    0.46
  -3  -1  -1   11.10    0.36
  -3  -1  -1   10.82    0.43
   3   1   1   11.80    0.44
   3   1   1   11.39    0.27
   3   1   1   10.93    0.47
  -4  -1  -1    6.08    0.37
  -4  -1  -1    6.35    0.33
  -4  -1  -1    6.00    0.30
  -4  -1  -1    6.43    0.34
  -4  -1  -1    5.81    0.30
  -4  -1  -1    5.24    0.39
   4   1   1    6.57    0.33
   4   1   1    5.46    0.35
   4   1   1    6.09    0.47
   4   1   1    6.30    0.22
   4   1   1    5.67    0.37
  -5  -1  -1    4.22    0.35
  -5  -1  -1    4.06    0.33
  -5  -1  -1    3.77    0.36
  -5  -1  -1    3.90    0.33
  -5  -1  -1    4.26    0.49
   5   1   1    4.13    0.50
   5   1   1    3.67    0.40
   5   1   1    3.71    0.35
   5   1   1    4.35    0.32
  -6  -1  -1    3.16    0.38
  -6  -1  -1    4.02    0.39
  -6  -1  -1    3.50    0.48
  -6  -1  -1    2.86    0.35
   6   1   1    3.17    0.44
   6   1   1    3.13    0.37
   6   1   1    3.09    0.51
  -7  -1  -1    0.16    0.24
  -7  -1  -1   -0.23    0.23
  -7  -1  -1    0.87    0.42
   7   1   1    0.27    0.30
   7   1   1    0.86    0.47
  -8  -1  -1    0.95    0.55
  -8  -1  -1    1.32    0.41
  -8  -1  -1    1.40    0.38
   8   1   1    1.64    0.57
   7  -2  -1    3.08    0.67
   7  -2  -1    2.73    0.59
  -7   2   1    2.82    0.63
  -7   2   1    2.65    0.55
  -7   2   1    3.38    0.57
   6  -2  -1    0.18    0.31
   6  -2  -1    0.08    0.30
  -6   2   1   -0.22    0.29
  -6   2   1    0.65    0.41
  -6   2   1    0.82    0.37
   5  -2  -1    3.53    0.49
   5  -2  -1    4.51    0.59
   5  -2  -1    3.59    0.37
  -5   2   1    2.69    0.42
  -5   2   1    2.72    0.49
  -5   2   1    3.78    0.39
  -5   2   1    3.06    0.47
   4  -2  -1    7.14    0.48
   4  -2  -1    8.32    0.44
   4  -2  -1    7.54    0.52
  -4   2   1    6.98    0.53
  -4   2   1    7.80    0.44
  -4   2   1    7.26    0.61
  -4   2   1    7.28    0.54
   3  -2  -1    0.33    0.12
   3  -2  -1    0.81    0.24
   3  -2  -1    0.54    0.22
   3  -2  -1    0.57    0.21
   3  -2  -1    0.64    0.17
  -3   2   1    0.60    0.21
  -3   2   1    0.22    0.21
  -3   2   1    0.82    0.18
  -3   2   1    0.50    0.25
  -3   2   1    0.36    0.21
  -3   2   1    0.68    0.14
   2  -2  -1   10.92    0.36
   2  -2  -1   10.35    0.51
   2  -2  -1    9.30    0.44
   2  -2  -1    9.91    0.40
   2  -2  -1   10.56    0.47
  -2   2   1   10.35    0.49
  -2   2   1   10.42    0.36
  -2   2   1   10.65    0.48
  -2   2   1   10.47    0.49
  -2   2   1   10.27    0.53
  -2   2   1   11.80    0.55
   1  -2  -1   82.84    1.58
   1  -2  -1   81.34    1.65
   1  -2  -1   80.37    1.56
   1  -2  -1   81.91    1.63
   1  -2  -1   82.61    1.66
   1  -2  -1   79.42    1.69
  -1   2   1   80.58    1.68
  -1   2   1   82.07    1.66
  -1   2   1   82.59    1.57
  -1   2   1   83.40    1.71
  -1   2   1   82.97    1.66
   0  -2  -1    0.30    0.15
   0  -2  -1    0.28    0.14
   0  -2  -1    0.52    0.16
   0  -2  -1    0.21    0.14
   0  -2  -1    0.61    0.13
   0  -2  -1    0.35    0.15
   0  -2  -1    0.51    0.12
   0  -2  -1    0.38    0.10
   0  -2  -1    0.34    0.16
   0   2   1    0.63    0.16
   0   2   1    0.56    0.18
   0   2   1    0.59    0.13
   0   2   1    0.68    0.13
   0   2   1    0.34    0.10
   0   2   1    0.10    0.15
  -1  -2  -1   58.21    1.10
  -1  -2  -1   59.37    1.11
  -1  -2  -1   58.02    1.12
  -1  -2  -1   57.86    1.19
  -1  -2  -1   58.35    1.13
  -1  -2  -1   57.54    1.08
  -1  -2  -1   57.93    1.08
  -1  -2  -1   56.75    1.11
   1   2   1   60.56    1.28
   1   2   1   58.53    1.10
   1   2   1   59.42    1.13
   1   2   1   57.77    1.09
   1   2   1   59.55    1.10
   1   2   1   60.07    1.03
   1   2   1   58.34    1.12
  -2  -2  -1   11.37    0.23
  -2  -2  -1   11.47    0.40
  -2  -2  -1   11.12    0.23
  -2  -2  -1   11.11    0.39
   2   2   1   11.46    0.50
  -3  -2  -1   12.74    0.28
  -3  -2  -1   12.62    0.47
  -3  -2  -1   12.01    0.28
   3   2   1   12.22    0.54
  -4  -2  -1    3.11    0.36
  -4  -2  -1    3.25    0.20
  -4  -2  -1    3.42    0.17
  -4  -2  -1    3.64    0.20
  -4  -2  -1    4.10    0.34
  -4  -2  -1    3.19    0.17
   4   2   1    4.26    0.37
   4   2   1    3.19    0.28
   4   2   1    2.83    0.37
  -5  -2  -1    8.18    0.36
  -5  -2  -1    8.18    0.35
  -5  -2  -1    8.19    0.35
  -5  -2  -1    8.29    0.57
  -5  -2  -1    8.35    0.47
   5   2   1    7.94    0.46
   5   2   1    7.83    0.58
  -6  -2  -1    6.27    0.39
  -6  -2  -1    6.40    0.40
  -6  -2  -1    5.75    0.58
  -6  -2  -1    4.90    0.45
  -6  -2  -1    6.05    0.39
   6   2   1    6.27    0.50
   6   2   1    5.57    0.64
  -7  -2  -1    1.03    0.27
  -7  -2  -1    0.86    0.43
  -7  -2  -1    1.46    0.27
   7   2   1    1.23    0.46
  -8  -2  -1    2.93    0.41
   8   2   1    1.93    0.55
   7  -3  -1    3.03    0.63
   7  -3  -1    3.06    0.65
  -7   3   1    2.72    0.62
  -7   3   1    2.58    0.67
  -7   3   1    3.56    0.70
  -7   3   1    2.37    0.56
   6  -3  -1    3.34    0.53
   6  -3  -1    3.17    0.60
  -6   3   1    3.29    0.59
  -6   3   1    3.21    0.56
  -6   3   1    3.38    0.64
   5  -3  -1    5.95    0.61
  -5   3   1    5.70    0.66
  -5   3   1    6.61    0.66
  -5   3   1    6.62    0.71
   4  -3  -1   32.85    1.11
   4  -3  -1   35.23    1.19
   4  -3  -1   34.43    1.19
   4  -3  -1   33.85    1.02
  -4   3   1   29.84    1.13
  -4   3   1   33.91    1.24
  -4   3   1   35.05    1.25
   3  -3  -1   75.53    1.55
   3  -3  -1   73.11    1.74
   3  -3  -1   72.31    1.80
   3  -3  -1   74.31    1.67
   3  -3  -1   75.38    1.75
   3  -3  -1   74.07    1.84
  -3   3   1   73.03    1.86
  -3   3   1   74.04    1.88
  -3   3   1   74.52    1.66
  -3   3   1   73.76    1.80
   2  -3  -1    1.14    0.21
   2  -3  -1    1.67    0.28
   2  -3  -1    1.26    0.21
   2  -3  -1    1.77    0.29
   2  -3  -1    1.20    0.27
  -2   3   1    1.62    0.28
  -2   3   1    1.64    0.28
  -2   3   1    1.31    0.28
  -2   3   1    1.42    0.29
   1  -3  -1   36.58    0.91
   1  -3  -1   35.14    0.89
   1  -3  -1   37.39    0.98
   1  -3  -1   35.75    0.96
   1  -3  -1   33.13    0.98
   1  -3  -1   34.41    0.89
  -1   3   1   35.14    0.94
  -1   3   1   36.49    0.96
  -1   3   1   36.49    1.01
  -1   3   1   35.14    0.93
  -1   3   1   33.83    0.98
   0  -3  -1  152.81    2.84
   0  -3  -1  153.23    2.80
   0  -3  -1  158.60    2.89
   0  -3  -1  153.82    2.92
   0  -3  -1  155.76    2.89
   0  -3  -1  151.63    2.92
   0  -3  -1  154.36    2.90
   0   3   1  161.62    2.87
   0   3   1  155.15    2.98
   0   3   1  155.48    2.84
   0   3   1  158.67    2.74
   0   3   1  155.53    2.63
   0   3   1  156.48    2.95
   0   3   1  150.21    2.91
  -1  -3  -1    3.63    0.25
  -1  -3  -1    3.84    0.28
  -1  -3  -1    3.63    0.24
  -1  -3  -1    3.49    0.21
  -1  -3  -1    3.55    0.28
  -1  -3  -1    3.48    0.18
  -1  -3  -1    3.73    0.25
  -1  -3  -1    3.96    0.27
   1   3   1    3.63    0.21
   1   3   1    3.53    0.23
   1   3   1    3.67    0.34
   1   3   1    3.53    0.24
   1   3   1    3.97    0.19
   1   3   1    4.43    0.28
  -2  -3  -1   19.50    0.44
  -2  -3  -1   19.91    0.44
  -2  -3  -1   20.92    0.49
  -2  -3  -1   20.18    0.56
  -2  -3  -1   19.72    0.59
  -2  -3  -1   20.58    0.63
  -2  -3  -1   20.11    0.53
  -2  -3  -1   20.18    0.49
   2   3   1   20.46    0.72
   2   3   1   19.53    0.59
   2   3   1   20.10    0.39
   2   3   1   20.65    0.40
   2   3   1   20.64    0.59
  -3  -3  -1    0.08    0.15
  -3  -3  -1    0.15    0.14
  -3  -3  -1    0.04    0.04
  -3  -3  -1    0.02    0.14
   3   3   1    0.14    0.18
   3   3   1    0.15    0.18
   3   3   1   -0.05    0.13
  -4  -3  -1    1.19    0.22
  -4  -3  -1    1.33    0.28
   4   3   1    1.46    0.32
   4   3   1    1.70    0.24
   4   3   1    1.35    0.32
  -5  -3  -1    0.85    0.29
  -5  -3  -1    0.50    0.10
  -5  -3  -1    0.58    0.10
  -5  -3  -1    0.32    0.28
  -5  -3  -1    0.54    0.10
  -5  -3  -1    1.06    0.24
   5   3   1    0.66    0.21
   5   3   1    1.00    0.30
   5   3   1    0.84    0.31
  -6  -3  -1    0.05    0.20
  -6  -3  -1    0.07    0.14
  -6  -3  -1    0.07    0.11
  -6  -3  -1    0.16    0.26
  -6  -3  -1    0.14    0.13
  -6  -3  -1   -0.07    0.24
   6   3   1    0.22    0.23
   6   3   1    0.17    0.26
   6   3   1    0.21    0.35
  -7  -3  -1    0.75    0.21
  -7  -3  -1    0.88    0.38
   7   3   1    0.59    0.43
  -8  -3  -1    0.09    0.22
  -8  -3  -1   -0.19    0.56
   8   3   1   -0.31    0.34
   6  -4  -1   -0.25    0.28
   6  -4  -1   -0.51    0.32
  -6   4   1    0.51    0.44
  -6   4   1   -0.34    0.36
  -6   4   1   -0.29    0.39
  -6   4   1    0.18    0.39
   5  -4  -1    2.08    0.41
  -5   4   1    2.96    0.57
  -5   4   1    0.71    0.40
  -5   4   1    2.10    0.48
   4  -4  -1    0.01    0.21
   4  -4  -1   -0.19    0.29
   4  -4  -1   -0.02    0.29
   4  -4  -1    0.07    0.25
  -4   4   1   -0.32    0.29
  -4   4   1    0.13    0.31
  -4   4   1    0.21    0.31
   3  -4  -1    3.91    0.49
   3  -4  -1    3.42    0.45
   3  -4  -1    4.03    0.45
   3  -4  -1    3.55    0.37
   3  -4  -1    4.00    0.36
  -3   4   1    4.33    0.52
  -3   4   1    4.75    0.54
  -3   4   1    4.59    0.52
  -3   4   1    5.34    0.51
   2  -4  -1    0.31    0.24
   2  -4  -1    0.49    0.23
   2  -4  -1    0.31    0.19
   2  -4  -1    0.52    0.22
   2  -4  -1    0.51    0.20
  -2   4   1    0.30    0.21
  -2   4   1    0.81    0.27
  -2   4   1    0.52    0.26
  -2   4   1    0.35    0.24
  -2   4   1    0.14    0.27
   1  -4  -1   38.37    1.07
   1  -4  -1   37.07    1.11
   1  -4  -1   36.67    1.06
   1  -4  -1   35.73    1.01
   1  -4  -1   38.65    1.02
  -1   4   1   36.51    1.10
  -1   4   1   36.33    1.05
  -1   4   1   36.45    1.12
  -1   4   1   36.41    0.87
  -1   4   1   37.17    1.09
  -1   4   1   37.10    0.91
  -1   4   1   36.68    1.03
   0  -4  -1   31.58    0.80
   0  -4  -1   31.39    0.91
   0  -4  -1   32.13    0.95
   0  -4  -1   31.67    0.90
   0  -4  -1   31.13    0.92
   0  -4  -1   32.32    0.95
   0  -4  -1   31.75    0.87
   0   4   1   32.00    0.73
   0   4   1   31.20    0.94
   0   4   1   31.94    0.88
   0   4   1   31.93    1.00
   0   4   1   31.84    0.62
   0   4   1   31.51    0.87
  -1  -4  -1    6.31    0.39
  -1  -4  -1    6.80    0.25
  -1  -4  -1    6.66    0.38
  -1  -4  -1    7.02    0.36
  -1  -4  -1    5.50    0.42
  -1  -4  -1    6.86    0.42
  -1  -4  -1    6.06    0.35
  -1  -4  -1    6.64    0.31
   1   4   1    6.04    0.23
   1   4   1    6.70    0.35
   1   4   1    6.05    0.48
   1   4   1    6.40    0.31
   1   4   1    6.71    0.39
  -2  -4  -1   14.39    0.46
  -2  -4  -1   14.84    0.46
  -2  -4  -1   15.27    0.55
  -2  -4  -1   15.35    0.57
  -2  -4  -1   14.27    0.48
  -2  -4  -1   14.51    0.49
  -2  -4  -1   15.56    0.43
  -2  -4  -1   15.64    0.48
   2   4   1   14.57    0.54
   2   4   1   14.77    0.69
  -3  -4  -1   22.71    0.66
  -3  -4  -1   23.92    0.70
  -3  -4  -1   22.58    0.76
  -3  -4  -1   23.38    0.75
  -3  -4  -1   23.09    0.52
  -3  -4  -1   23.20    0.56
  -3  -4  -1   23.46    0.56
  -3  -4  -1   23.73    0.53
   3   4   1   24.93    0.84
   3   4   1   24.41    0.90
  -4  -4  -1   14.80    0.66
  -4  -4  -1   16.46    0.65
  -4  -4  -1   16.39    0.62
   4   4   1   15.45    0.74
   4   4   1   14.89    0.74
   4   4   1   15.87    0.58
  -5  -4  -1    0.25    0.21
  -5  -4  -1   -0.07    0.21
  -5  -4  -1   -0.38    0.17
   5   4   1    0.20    0.18
   5   4   1    0.08    0.26
   5   4   1   -0.07    0.25
  -6  -4  -1    5.76    0.57
  -6  -4  -1    6.99    0.66
  -6  -4  -1    6.54    0.64
  -6  -4  -1    6.44    0.27
  -6  -4  -1    5.99    0.25
  -6  -4  -1    5.30    0.48
   6   4   1    6.74    0.66
   6   4   1    6.76    0.75
  -7  -4  -1    4.56    0.30
  -7  -4  -1    4.04    0.56
  -7  -4  -1    3.96    0.61
  -7  -4  -1    4.25    0.30
   7   4   1    4.88    0.69
  -8  -4  -1    0.44    0.43
  -8  -4  -1    0.17    0.18
   8   4   1   -0.54    0.35
   6  -5  -1    0.70    0.39
   6  -5  -1    0.93    0.50
  -6   5   1    1.07    0.52
  -6   5   1    0.79    0.48
  -6   5   1    1.70    0.54
  -6   5   1    2.14    0.64
   5  -5  -1    5.69    0.66
  -5   5   1    4.97    0.68
  -5   5   1    4.48    0.71
  -5   5   1    6.05    0.80
  -5   5   1    5.98    0.73
   4  -5  -1    2.79    0.44
   4  -5  -1    4.83    0.65
   4  -5  -1    4.22    0.61
  -4   5   1    4.84    0.65
  -4   5   1    4.50    0.63
  -4   5   1    3.99    0.57
  -4   5   1    4.44    0.55
   3  -5  -1   18.88    0.82
   3  -5  -1   18.48    0.91
   3  -5  -1   19.76    0.77
   3  -5  -1   18.79    0.96
  -3   5   1   19.77    0.96
  -3   5   1   19.69    1.00
  -3   5   1   17.49    0.98
  -3   5   1   19.21    0.81
  -3   5   1   19.49    0.89
   2  -5  -1    2.78    0.42
   2  -5  -1    3.18    0.39
   2  -5  -1    2.69    0.40
   2  -5  -1    3.10    0.46
   2  -5  -1    3.62    0.41
  -2   5   1    3.88    0.49
  -2   5   1    2.84    0.40
  -2   5   1    2.94    0.48
  -2   5   1    2.98    0.33
  -2   5   1    3.61    0.47
  -2   5   1    3.22    0.49
   1  -5  -1    0.61    0.27
   1  -5  -1    1.11    0.25
   1  -5  -1    0.64    0.25
   1  -5  -1    0.96    0.25
   1  -5  -1    0.71    0.28
  -1   5   1    0.72    0.29
  -1   5   1    0.72    0.18
  -1   5   1    0.66    0.32
  -1   5   1    0.57    0.31
  -1   5   1    0.57    0.27
  -1   5   1    0.71    0.16
  -1   5   1    0.81    0.26
   0  -5  -1   22.69    0.85
   0  -5  -1   23.35    0.88
   0  -5  -1   22.26    0.68
   0  -5  -1   22.06    0.82
   0  -5  -1   22.51    0.82
   0   5   1   23.25    0.48
   0   5   1   23.95    0.79
   0   5   1   21.94    0.76
   0   5   1   22.69    0.60
   0   5   1   25.58    0.90
   0   5   1   22.59    0.91
  -1  -5  -1   -0.04    0.12
  -1  -5  -1   -0.23    0.14
  -1  -5  -1    0.06    0.19
  -1  -5  -1    0.14    0.19
  -1  -5  -1    0.20    0.16
  -1  -5  -1    0.00    0.23
  -1  -5  -1   -0.19    0.16
   1   5   1    0.16    0.27
   1   5   1    0.07    0.16
   1   5   1    0.15    0.20
   1   5   1   -0.15    0.12
   1   5   1   -0.04    0.07
  -2  -5  -1    0.75    0.19
  -2  -5  -1    0.84    0.22
  -2  -5  -1    0.89    0.11
  -2  -5  -1    0.92    0.22
  -2  -5  -1    0.75    0.23
  -2  -5  -1    0.78    0.18
  -2  -5  -1    0.74    0.13
  -2  -5  -1    0.43    0.26
  -2  -5  -1    1.21    0.23
  -2  -5  -1    0.70    0.16
   2   5   1    0.66    0.29
   2   5   1    0.87    0.21
   2   5   1    0.76    0.23
   2   5   1    0.78    0.17
  -3  -5  -1   17.27    0.58
  -3  -5  -1   18.30    0.70
  -3  -5  -1   16.95    0.66
  -3  -5  -1   17.16    0.53
  -3  -5  -1   16.85    0.52
  -3  -5  -1   16.36    0.79
  -3  -5  -1   16.89    0.55
  -3  -5  -1   17.16    0.54
  -3  -5  -1   16.49    0.53
   3   5   1   17.98    0.75
   3   5   1   16.35    0.65
   3   5   1   15.87    0.79
  -4  -5  -1    0.15    0.10
  -4  -5  -1    0.02    0.09
  -4  -5  -1   -0.22    0.25
  -4  -5  -1    0.16    0.18
  -4  -5  -1   -0.32    0.18
  -4  -5  -1    0.08    0.10
  -4  -5  -1   -0.27    0.15
  -4  -5  -1    0.18    0.10
  -4  -5  -1    0.12    0.20
   4   5   1    0.24    0.24
   4   5   1    0.11    0.24
  -5  -5  -1    7.25    0.22
  -5  -5  -1    7.72    0.50
  -5  -5  -1    7.47    0.48
  -5  -5  -1    8.35    0.58
  -5  -5  -1    6.76    0.21
  -5  -5  -1    8.45    0.56
  -5  -5  -1    6.65    0.60
   5   5   1    8.07    0.74
   5   5   1    6.86    0.63
   5   5   1    6.80    0.45
  -6  -5  -1   10.85    0.64
  -6  -5  -1    9.18    0.61
  -6  -5  -1    9.49    0.81
  -6  -5  -1   11.73    0.76
   6   5   1   11.09    0.81
   6   5   1   10.52    0.81
  -7  -5  -1    0.49    0.13
  -7  -5  -1    0.41    0.30
  -7  -5  -1    1.27    0.46
  -7  -5  -1    0.60    0.12
  -7  -5  -1    0.77    0.38
   7   5   1    0.71    0.47
  -8  -5  -1    0.30    0.15
  -8  -5  -1    0.36    0.44
   8   5   1    0.20    0.42
   5  -6  -1    2.18    0.45
  -5   6   1    3.39    0.75
  -5   6   1    1.84    0.50
  -5   6   1    1.88    0.59
   4  -6  -1    2.41    0.57
   4  -6  -1    1.64    0.40
   4  -6  -1    0.89    0.44
  -4   6   1    1.58    0.40
  -4   6   1    1.22    0.48
  -4   6   1    1.29    0.48
  -4   6   1    1.49    0.50
   3  -6  -1    0.21    0.41
   3  -6  -1   -0.18    0.29
   3  -6  -1    0.52    0.26
  -3   6   1   -0.12    0.41
  -3   6   1   -0.22    0.22
  -3   6   1    0.21    0.37
  -3   6   1   -0.07    0.29
  -3   6   1   -0.23    0.33
   2  -6  -1    0.06    0.30
   2  -6  -1    0.18    0.28
   2  -6  -1    0.26    0.27
   2  -6  -1    0.25    0.28
  -2   6   1    0.54    0.37
  -2   6   1    0.42    0.21
  -2   6   1    0.32    0.30
  -2   6   1    0.81    0.37
  -2   6   1    0.63    0.38
   1  -6  -1   23.27    0.90
   1  -6  -1   22.74    0.93
   1  -6  -1   21.80    0.95
   1  -6  -1   24.77    1.06
   1  -6  -1   22.15    0.94
  -1   6   1   24.54    0.94
  -1   6   1   23.55    0.66
  -1   6   1   23.19    1.04
  -1   6   1   21.84    0.91
  -1   6   1   23.90    0.73
  -1   6   1   22.77    1.01
   0  -6  -1   19.31    0.67
   0  -6  -1   17.88    0.80
   0  -6  -1   19.47    0.88
   0  -6  -1   19.79    0.83
   0  -6  -1   18.40    0.83
   0   6   1   19.48    0.77
   0   6   1   20.01    0.56
   0   6   1   17.89    0.83
   0   6   1   18.21    0.89
   0   6   1   18.29    0.76
  -1  -6  -1    0.82    0.23
  -1  -6  -1    0.51    0.26
  -1  -6  -1    0.80    0.26
  -1  -6  -1    1.11    0.20
  -1  -6  -1    1.18    0.25
  -1  -6  -1    1.13    0.33
  -1  -6  -1    0.80    0.28
   1   6   1    1.12    0.26
   1   6   1    0.51    0.18
   1   6   1    0.78    0.11
   1   6   1    0.68    0.33
   1   6   1    1.22    0.30
  -2  -6  -1   11.78    0.60
  -2  -6  -1   11.93    0.70
  -2  -6  -1   11.78    0.54
  -2  -6  -1   11.76    0.57
  -2  -6  -1   11.63    0.64
  -2  -6  -1   12.11    0.45
  -2  -6  -1   10.68    0.55
  -2  -6  -1   11.81    0.34
   2   6   1   11.94    0.57
   2   6   1   10.91    0.51
   2   6   1   10.04    0.71
  -3  -6  -1   13.67    0.64
  -3  -6  -1   14.11    0.69
  -3  -6  -1   13.93    0.55
  -3  -6  -1   14.46    0.53
  -3  -6  -1   14.35    0.46
  -3  -6  -1   13.75    0.58
  -3  -6  -1   14.33    0.57
  -3  -6  -1   13.68    0.77
   3   6   1   12.91    0.69
   3   6   1   14.12    0.82
   3   6   1   14.76    0.66
  -4  -6  -1    9.65    0.58
  -4  -6  -1    9.95    0.49
  -4  -6  -1    9.75    0.69
  -4  -6  -1    9.35    0.56
  -4  -6  -1    9.46    0.46
  -4  -6  -1    8.94    0.41
  -4  -6  -1    9.12    0.42
  -4  -6  -1    9.76    0.41
   4   6   1    9.12    0.67
   4   6   1    8.94    0.74
  -5  -6  -1    1.88    0.45
  -5  -6  -1    1.75    0.16
  -5  -6  -1    1.57    0.31
  -5  -6  -1    1.96    0.20
  -5  -6  -1    2.05    0.20
  -5  -6  -1    1.48    0.35
  -5  -6  -1    1.42    0.31
  -5  -6  -1    2.01    0.30
  -5  -6  -1    1.05    0.32
   5   6   1    1.49    0.41
   5   6   1    1.98    0.50
  -6  -6  -1    2.13    0.36
  -6  -6  -1    2.54    0.49
  -6  -6  -1    2.12    0.18
  -6  -6  -1    2.76    0.41
  -6  -6  -1    2.44    0.19
  -6  -6  -1    2.40    0.40
  -6  -6  -1    1.80    0.36
   6   6   1    2.88    0.59
   6   6   1    1.91    0.48
  -7  -6  -1    2.25    0.42
  -7  -6  -1    2.34    0.59
  -7  -6  -1    2.68    0.54
   7   6   1    1.96    0.55
   7   6   1    2.66    0.63
  -8  -6  -1    0.26    0.48
   8   6   1   -0.25    0.47
   4  -7  -1   -0.35    0.40
   4  -7  -1    0.05    0.29
   4  -7  -1   -0.29    0.38
  -4   7   1    1.02    0.53
  -4   7   1   -0.41    0.45
   3  -7  -1    0.79    0.45
   3  -7  -1    0.36    0.43
  -3   7   1    0.11    0.41
  -3   7   1   -0.24    0.41
  -3   7   1   -0.25    0.38
   2  -7  -1    0.60    0.36
   2  -7  -1    0.04    0.29
   2  -7  -1    0.20    0.37
  -2   7   1    0.09    0.38
  -2   7   1    0.43    0.42
   1  -7  -1    3.18    0.54
   1  -7  -1    2.65    0.47
   1  -7  -1    3.12    0.49
   1  -7  -1    2.48    0.48
  -1   7   1    3.27    0.55
  -1   7   1    2.53    0.52
   0  -7  -1   13.11    0.79
   0  -7  -1   13.21    0.79
   0  -7  -1   13.62    0.78
   0  -7  -1   12.24    0.81
   0   7   1   10.25    0.79
   0   7   1   13.56    0.80
   0   7   1   13.02    0.71
  -1  -7  -1    0.73    0.20
  -1  -7  -1    0.11    0.22
  -1  -7  -1    0.88    0.33
  -1  -7  -1    0.28    0.30
  -1  -7  -1    0.27    0.26
  -1  -7  -1    0.35    0.32
   1   7   1    0.26    0.38
   1   7   1    0.63    0.28
   1   7   1    0.31    0.24
  -2  -7  -1   17.68    0.85
  -2  -7  -1   17.68    0.82
  -2  -7  -1   16.16    0.90
  -2  -7  -1   19.04    0.80
  -2  -7  -1   18.15    0.77
  -2  -7  -1   19.10    0.61
   2   7   1   18.23    0.77
   2   7   1   18.27    0.74
   2   7   1   16.50    0.97
  -3  -7  -1   79.38    1.94
  -3  -7  -1   80.87    1.63
  -3  -7  -1   77.42    2.19
  -3  -7  -1   79.40    1.84
  -3  -7  -1   81.03    1.69
  -3  -7  -1   79.56    2.00
  -3  -7  -1   80.48    1.89
   3   7   1   80.52    2.31
   3   7   1   81.42    1.96
  -4  -7  -1   -0.04    0.32
  -4  -7  -1    0.40    0.27
  -4  -7  -1    0.43    0.20
  -4  -7  -1    0.31    0.20
  -4  -7  -1    0.25    0.25
  -4  -7  -1    0.12    0.19
  -4  -7  -1    0.08    0.19
   4   7   1    0.07    0.23
   4   7   1   -0.16    0.37
   4   7   1   -0.24    0.32
  -5  -7  -1   13.18    0.53
  -5  -7  -1   14.37    0.55
  -5  -7  -1   13.62    0.77
  -5  -7  -1   14.60    0.67
  -5  -7  -1   13.85    0.91
  -5  -7  -1   15.03    0.79
  -5  -7  -1   14.03    0.51
   5   7   1   15.50    1.02
   5   7   1   13.40    0.87
  -6  -7  -1   21.44    1.13
  -6  -7  -1   22.30    0.63
  -6  -7  -1   22.98    1.01
  -6  -7  -1   22.27    0.64
   6   7   1   23.02    1.22
   6   7   1   20.07    1.20
  -7  -7  -1    1.70    0.16
  -7  -7  -1    1.17    0.45
  -7  -7  -1    1.49    0.16
   7   7   1    1.32    0.52
   7   7   1    1.18    0.54
   4  -8  -1    2.15    0.66
   4  -8  -1    2.80    0.74
  -4   8   1    0.82    0.58
   3  -8  -1    2.88    0.68
   3  -8  -1    3.23    0.66
  -3   8   1    0.96    0.56
  -3   8   1    3.05    0.67
   2  -8  -1   -0.11    0.40
   2  -8  -1    0.27    0.37
   2  -8  -1   -0.35    0.31
  -2   8   1   -0.05    0.43
  -2   8   1    0.55    0.52
   1  -8  -1   13.22    0.90
   1  -8  -1   11.68    0.83
   1  -8  -1   10.39    0.81
   1  -8  -1   12.65    0.98
  -1   8   1   11.68    0.94
  -1   8   1   11.78    0.97
   0  -8  -1    7.68    0.78
   0  -8  -1   10.61    0.84
   0  -8  -1   10.08    0.76
   0  -8  -1    9.60    0.77
   0   8   1    9.78    0.79
   0   8   1    9.96    0.86
  -1  -8  -1    3.57    0.54
  -1  -8  -1    4.40    0.56
  -1  -8  -1    3.84    0.49
  -1  -8  -1    4.48    0.59
  -1  -8  -1    4.90    0.66
   1   8   1    3.52    0.48
   1   8   1    2.85    0.60
  -2  -8  -1    5.34    0.69
  -2  -8  -1    5.19    0.53
  -2  -8  -1    5.69    0.61
  -2  -8  -1    5.66    0.64
  -2  -8  -1    4.90    0.54
   2   8   1    4.01    0.68
   2   8   1    5.19    0.55
  -3  -8  -1   19.24    0.95
  -3  -8  -1   20.36    0.90
  -3  -8  -1   21.20    0.88
  -3  -8  -1   19.70    0.88
  -3  -8  -1   20.16    1.10
   3   8   1   18.83    1.17
   3   8   1   19.51    1.01
  -4  -8  -1    4.45    0.67
  -4  -8  -1    5.00    0.54
  -4  -8  -1    5.43    0.61
  -4  -8  -1    5.00    0.48
  -4  -8  -1    4.90    0.47
   4   8   1    4.34    0.70
   4   8   1    4.03    0.59
  -5  -8  -1   -0.01    0.19
  -5  -8  -1   -0.12    0.19
  -5  -8  -1    0.20    0.40
  -5  -8  -1    0.24    0.31
   5   8   1    0.11    0.36
   5   8   1    0.40    0.43
  -6  -8  -1    8.01    0.47
  -6  -8  -1    7.54    0.90
  -6  -8  -1    6.89    0.69
   6   8   1    6.94    0.91
   6   8   1    7.05    0.87
  -7  -8  -1    3.05    0.27
  -7  -8  -1    3.69    0.70
   7   8   1    3.62    0.75
   7   8   1    3.55    0.75
   3  -9  -1    0.63    0.53
   3  -9  -1    0.37    0.54
  -3   9   1   -0.24    0.51
   2  -9  -1    2.98    0.66
   2  -9  -1    3.56    0.61
   2  -9  -1    3.37    0.74
  -2   9   1    0.43    0.58
  -2   9   1    3.21    0.71
   1  -9  -1   -0.01    0.40
   1  -9  -1    0.16    0.47
   1  -9  -1   -0.15    0.38
  -1   9   1    0.65    0.48
  -1   9   1   -0.13    0.49
   0  -9  -1    4.95    0.75
   0  -9  -1    3.65    0.63
   0  -9  -1    4.07    0.64
   0  -9  -1    3.72    0.62
   0   9   1    3.81    0.63
   0   9   1    3.97    0.75
  -1  -9  -1    2.72    0.55
  -1  -9  -1    3.01    0.56
  -1  -9  -1    2.05    0.49
  -1  -9  -1    2.61    0.59
   1   9   1    1.51    0.60
  -2  -9  -1    0.19    0.33
  -2  -9  -1    0.61    0.34
  -2  -9  -1   -0.66    0.33
  -2  -9  -1    0.13    0.33
  -2  -9  -1   -0.32    0.31
   2   9   1    0.17    0.47
  -3  -9  -1   17.01    0.90
  -3  -9  -1   16.56    0.93
  -3  -9  -1   15.41    0.99
  -3  -9  -1   16.18    1.07
  -3  -9  -1   17.24    0.90
   3   9   1   16.27    1.15
  -4  -9  -1    6.51    0.71
  -4  -9  -1    5.53    0.55
  -4  -9  -1    6.47    0.87
  -4  -9  -1    6.30    0.60
   4   9   1    6.15    0.87
  -5  -9  -1    7.47    0.58
  -5  -9  -1    7.69    0.91
  -5  -9  -1    7.17    0.54
  -5  -9  -1    6.35    0.70
   5   9   1    7.54    1.01
  -6  -9  -1    6.59    0.92
  -6  -9  -1    6.20    0.51
   6   9   1    4.75    0.79
   6   9   1    5.92    0.94
   1 -10  -1   18.05    1.19
   1 -10  -1   18.80    1.31
   1 -10  -1   17.30    1.18
  -1  10   1   17.96    1.36
   0 -10  -1   -0.01    0.43
   0 -10  -1    0.48    0.43
   0 -10  -1    0.18    0.41
   0 -10  -1    0.79    0.47
   0  10   1    0.44    0.59
  -1 -10  -1    7.04    0.83
  -1 -10  -1    7.07    0.85
  -1 -10  -1    8.16    0.89
  -1 -10  -1    7.69    0.93
   1  10   1    4.73    0.84
  -2 -10  -1    8.40    0.87
  -2 -10  -1    9.29    0.88
  -2 -10  -1    7.25    0.94
  -2 -10  -1    8.48    0.82
   2  10   1    8.09    1.01
  -3 -10  -1    4.16    0.76
  -3 -10  -1    5.18    0.68
  -3 -10  -1    6.20    0.72
  -3 -10  -1    4.65    0.69
   3  10   1    3.87    0.83
  -4 -10  -1    0.50    0.42
  -4 -10  -1    1.75    0.64
  -4 -10  -1    1.27    0.40
  -4 -10  -1    0.91    0.39
   4  10   1    0.08    0.59
  -5 -10  -1   -0.58    0.25
  -5 -10  -1    0.44    0.52
  -5 -10  -1   -0.28    0.35
  -5 -10  -1   -0.40    0.26
   5  10   1    0.08    0.58
  -6 -10  -1    3.54    0.78
  -6 -10  -1    3.68    0.49
   6  10   1    3.09    0.84
  -1 -11  -1    0.08    0.51
  -1 -11  -1    0.36    0.50
  -1 -11  -1    0.27    0.45
  -1 -11  -1    0.71    0.52
   1  11   1    0.43    0.63
  -2 -11  -1    0.16    0.48
  -2 -11  -1    0.51    0.47
  -2 -11  -1    0.14    0.44
  -2 -11  -1    0.21    0.55
   2  11   1   -0.38    0.58
  -3 -11  -1    3.62    0.68
  -3 -11  -1    2.37    0.59
  -3 -11  -1    3.71    0.80
  -3 -11  -1    4.01    0.69
   3  11   1    1.78    0.75
  -4 -11  -1    5.92    0.99
  -4 -11  -1    5.82    0.69
  -4 -11  -1    5.87    0.77
  -4 -11  -1    6.44    0.75
   4  11   1    4.61    0.98
   3  11  -2    1.56    0.68
  -3 -11   2    0.53    0.57
  -3 -11   2    0.80    0.47
  -3 -11   2    1.39    0.53
  -3 -11   2    2.50    0.61
   2  11  -2    2.65    0.81
  -2 -11   2    2.75    0.76
  -2 -11   2    3.32    0.66
  -2 -11   2    3.60    0.75
  -2 -11   2    3.87    0.72
   1  11  -2    0.34    0.60
  -1 -11   2    1.50    0.57
  -1 -11   2    3.05    0.77
  -1 -11   2    2.79    0.69
  -1 -11   2    2.23    0.65
   5  10  -2    7.63    1.06
  -5 -10   2    7.12    0.68
  -5 -10   2    7.89    1.00
  -5 -10   2    7.45    0.70
   4  10  -2    1.41    0.68
  -4 -10   2    0.77    0.42
  -4 -10   2    0.90    0.61
  -4 -10   2    1.11    0.43
   3  10  -2    1.65    0.66
  -3 -10   2    0.82    0.44
  -3 -10   2    0.87    0.45
  -3 -10   2    0.74    0.41
  -3 -10   2    1.42    0.55
   2  10  -2    0.97    0.59
  -2 -10   2    0.66    0.43
  -2 -10   2    0.21    0.41
  -2 -10   2    0.16    0.46
  -2 -10   2    0.48    0.45
   1  10  -2    1.01    0.58
  -1 -10   2    1.32    0.48
  -1 -10   2    1.94    0.58
  -1 -10   2    0.86    0.50
  -1 -10   2    1.05    0.52
   0  10  -2    1.45    0.70
   0 -10   2    3.10    0.73
   0 -10   2    3.70    0.69
   0 -10   2    2.37    0.66
   0 -10   2    1.75    0.53
  -1  10  -2    2.07    0.72
   1 -10   2    3.22    0.69
   1 -10   2    3.27    0.79
   1 -10   2    2.02    0.63
   6   9  -2   -0.15    0.50
  -6  -9   2   -0.03    0.44
  -6  -9   2    0.20    0.29
   5   9  -2    1.08    0.59
  -5  -9   2    0.63    0.31
  -5  -9   2    0.94    0.34
  -5  -9   2    0.83    0.56
   4   9  -2    6.61    0.90
  -4  -9   2    8.01    0.66
  -4  -9   2    7.38    0.68
  -4  -9   2    7.80    0.70
  -4  -9   2    6.76    0.92
   3   9  -2    0.86    0.51
  -3  -9   2    0.17    0.30
  -3  -9   2    0.23    0.35
  -3  -9   2    0.03    0.33
  -3  -9   2    0.19    0.41
   2   9  -2    1.36    0.56
  -2  -9   2    2.69    0.51
  -2  -9   2    2.77    0.54
  -2  -9   2    2.90    0.54
  -2  -9   2    2.00    0.54
   1   9  -2    0.02    0.42
  -1  -9   2    0.41    0.38
  -1  -9   2    0.17    0.38
  -1  -9   2   -0.28    0.41
  -1  -9   2   -0.05    0.37
   0   9  -2    3.02    0.58
   0   9  -2    2.44    0.71
   0  -9   2    3.94    0.71
   0  -9   2    2.73    0.60
   0  -9   2    3.34    0.59
   0  -9   2    4.51    0.69
  -1   9  -2   13.76    1.08
  -1   9  -2   10.43    1.14
   1  -9   2   13.58    1.05
   1  -9   2   11.81    1.11
   1  -9   2   10.85    0.89
  -2   9  -2    1.40    0.61
  -2   9  -2    2.23    0.71
   2  -9   2    2.49    0.62
   2  -9   2    4.07    0.81
   2  -9   2    4.10    0.70
   7   8  -2    1.34    0.64
  -7  -8   2    0.99    0.27
  -7  -8   2    1.36    0.74
   6   8  -2    7.87    0.94
   6   8  -2    6.95    0.87
  -6  -8   2    8.20    0.88
  -6  -8   2    6.98    0.53
   5   8  -2    5.70    0.79
   5   8  -2    3.88    0.67
  -5  -8   2    5.97    0.51
  -5  -8   2    4.80    0.73
  -5  -8   2    5.36    0.49
   4   8  -2    1.22    0.54
  -4  -8   2    1.02    0.33
  -4  -8   2    0.79    0.31
  -4  -8   2    0.81    0.46
  -4  -8   2    1.68    0.37
   3   8  -2   19.65    1.16
  -3  -8   2   20.52    0.92
  -3  -8   2   21.45    1.20
  -3  -8   2   20.10    0.89
  -3  -8   2   20.98    0.97
   2   8  -2    7.50    0.85
  -2  -8   2    5.63    0.60
  -2  -8   2    6.61    0.62
  -2  -8   2    6.95    0.67
  -2  -8   2    7.53    0.83
   1   8  -2   -0.21    0.25
   1   8  -2   -0.08    0.38
  -1  -8   2    0.52    0.38
  -1  -8   2    0.79    0.37
  -1  -8   2    0.15    0.33
  -1  -8   2   -0.01    0.31
   0   8  -2   16.03    1.06
   0   8  -2   15.84    0.93
   0  -8   2   15.69    0.95
   0  -8   2   16.01    1.01
   0  -8   2   16.19    0.99
   0  -8   2   17.14    0.93
  -1   8  -2    1.91    0.60
  -1   8  -2    1.74    0.51
   1  -8   2    1.66    0.54
   1  -8   2    2.19    0.50
   1  -8   2    1.85    0.47
   1  -8   2    2.30    0.53
  -2   8  -2    4.13    0.75
  -2   8  -2    2.96    0.62
   2  -8   2    3.89    0.70
   2  -8   2    3.46    0.61
   2  -8   2    3.10    0.60
  -3   8  -2    0.41    0.54
  -3   8  -2    0.49    0.47
   3  -8   2   -0.03    0.43
   3  -8   2    0.42    0.56
   3  -8   2   -0.15    0.40
  -4   8  -2   -0.51    0.57
  -4   8  -2    0.67    0.54
   4  -8   2    0.33    0.56
   7   7  -2    5.67    0.81
  -7  -7   2    5.87    0.83
  -7  -7   2    5.41    0.41
   6   7  -2    1.17    0.48
   6   7  -2    0.51    0.44
  -6  -7   2    0.35    0.39
  -6  -7   2    0.62    0.23
   5   7  -2    0.47    0.39
   5   7  -2    0.02    0.39
  -5  -7   2    0.24    0.20
  -5  -7   2   -0.29    0.22
  -5  -7   2    0.26    0.35
  -5  -7   2    0.36    0.21
   4   7  -2    4.86    0.68
   4   7  -2    4.56    0.66
  -4  -7   2    4.20    0.61
  -4  -7   2    4.18    0.42
  -4  -7   2    2.97    0.48
  -4  -7   2    3.50    0.40
  -4  -7   2    4.22    0.45
   3   7  -2    3.34    0.60
  -3  -7   2    2.21    0.37
  -3  -7   2    2.54    0.51
  -3  -7   2    2.10    0.39
  -3  -7   2    2.72    0.38
  -3  -7   2    3.15    0.40
   2   7  -2   14.38    0.69
   2   7  -2   15.14    0.93
  -2  -7   2   14.02    0.70
  -2  -7   2   13.95    0.76
  -2  -7   2   13.85    0.72
  -2  -7   2   12.92    0.84
  -2  -7   2   12.95    0.73
   1   7  -2   -0.05    0.22
   1   7  -2    0.08    0.34
  -1  -7   2   -0.01    0.28
  -1  -7   2   -0.03    0.28
  -1  -7   2   -0.23    0.23
  -1  -7   2   -0.13    0.25
  -1  -7   2   -0.38    0.23
   0   7  -2    6.00    0.69
   0   7  -2    5.37    0.61
   0  -7   2    5.88    0.65
   0  -7   2    5.43    0.60
   0  -7   2    4.79    0.57
   0  -7   2    4.27    0.52
   0  -7   2    5.33    0.63
  -1   7  -2   17.31    1.05
  -1   7  -2   15.20    0.93
  -1   7  -2   16.16    0.92
   1  -7   2   16.12    0.88
   1  -7   2   16.74    0.92
   1  -7   2   16.94    0.97
   1  -7   2   18.24    0.93
  -2   7  -2    5.25    0.73
  -2   7  -2    4.50    0.69
   2  -7   2    5.32    0.73
   2  -7   2    4.39    0.60
   2  -7   2    5.23    0.67
  -3   7  -2    8.02    0.91
  -3   7  -2    6.75    0.85
   3  -7   2    8.05    0.84
   3  -7   2    7.67    0.79
   3  -7   2    8.14    0.90
  -4   7  -2    2.87    0.67
  -4   7  -2    2.68    0.64
   4  -7   2    3.55    0.75
   8   6  -2    0.28    0.51
  -8  -6   2   -0.10    0.51
  -8  -6   2    0.21    0.19
   7   6  -2    1.08    0.53
  -7  -6   2    1.13    0.24
  -7  -6   2    1.20    0.53
   6   6  -2    3.85    0.54
   6   6  -2    4.78    0.70
   6   6  -2    5.74    0.68
  -6  -6   2    4.30    0.36
  -6  -6   2    4.40    0.57
   5   6  -2    7.10    0.76
   5   6  -2    7.53    0.70
   5   6  -2    8.03    0.63
  -5  -6   2    8.15    0.65
  -5  -6   2    8.34    0.52
  -5  -6   2    8.20    0.45
  -5  -6   2    8.24    0.44
  -5  -6   2    9.14    0.50
  -5  -6   2    8.02    0.42
   4   6  -2   -0.38    0.28
   4   6  -2    0.01    0.30
  -4  -6   2   -0.49    0.17
  -4  -6   2    0.06    0.13
  -4  -6   2    0.18    0.32
  -4  -6   2   -0.06    0.17
  -4  -6   2   -0.07    0.16
  -4  -6   2    0.26    0.20
  -4  -6   2    0.33    0.28
  -4  -6   2   -0.03    0.13
   3   6  -2   14.09    0.77
   3   6  -2   14.59    0.85
   3   6  -2   14.21    0.73
  -3  -6   2   14.79    0.80
  -3  -6   2   13.78    0.35
  -3  -6   2   13.97    0.60
  -3  -6   2   14.03    0.33
  -3  -6   2   14.44    0.63
  -3  -6   2   14.26    0.33
  -3  -6   2   13.53    0.63
  -3  -6   2   13.09    0.60
  -3  -6   2   14.09    0.72
   2   6  -2   30.83    1.22
   2   6  -2   30.62    1.05
   2   6  -2   30.73    0.94
  -2  -6   2   29.10    0.99
  -2  -6   2   30.18    0.97
  -2  -6   2   30.13    1.04
  -2  -6   2   30.85    0.96
  -2  -6   2   28.71    1.13
  -2  -6   2   30.20    0.96
   1   6  -2    6.32    0.49
   1   6  -2    6.38    0.50
   1   6  -2    5.72    0.62
   1   6  -2    6.44    0.41
  -1  -6   2    6.13    0.47
  -1  -6   2    6.71    0.48
  -1  -6   2    6.90    0.53
  -1  -6   2    6.19    0.56
  -1  -6   2    6.46    0.51
  -1  -6   2    6.40    0.53
  -1  -6   2    7.04    0.50
   0   6  -2   50.78    1.40
   0   6  -2   52.12    1.53
   0   6  -2   50.80    0.94
   0   6  -2   54.81    1.51
   0   6  -2   50.69    0.93
   0   6  -2   51.16    1.16
   0   6  -2   51.44    1.63
   0  -6   2   49.43    1.44
   0  -6   2   53.31    1.46
   0  -6   2   51.73    1.57
   0  -6   2   51.49    1.52
   0  -6   2   49.99    1.46
   0  -6   2   51.23    1.48
  -1   6  -2    2.19    0.28
  -1   6  -2    1.69    0.42
  -1   6  -2    2.31    0.37
  -1   6  -2    2.57    0.53
   1  -6   2    1.58    0.38
   1  -6   2    1.85    0.39
   1  -6   2    2.90    0.49
   1  -6   2    2.23    0.43
  -2   6  -2    0.60    0.29
  -2   6  -2    0.81    0.43
  -2   6  -2    1.08    0.39
  -2   6  -2    1.01    0.27
   2  -6   2    1.20    0.44
   2  -6   2    1.52    0.39
   2  -6   2    0.90    0.36
   2  -6   2    1.11    0.36
  -3   6  -2   31.81    1.36
  -3   6  -2   34.14    1.44
  -3   6  -2   33.05    1.16
  -3   6  -2   31.77    1.30
   3  -6   2   33.04    1.39
   3  -6   2   33.07    1.25
   3  -6   2   31.26    1.31
  -4   6  -2    3.01    0.62
  -4   6  -2    4.41    0.67
  -4   6  -2    4.08    0.69
  -4   6  -2    3.84    0.54
  -4   6  -2    3.28    0.57
   4  -6   2    4.29    0.69
  -5   6  -2    2.62    0.56
  -5   6  -2    3.46    0.64
  -5   6  -2    3.22    0.67
  -5   6  -2    2.14    0.66
   5  -6   2    3.75    0.64
   8   5  -2    4.80    0.80
  -8  -5   2    7.07    0.96
  -8  -5   2    6.15    0.44
   7   5  -2   11.41    0.78
   7   5  -2   12.32    0.94
  -7  -5   2   12.43    1.04
  -7  -5   2   11.50    0.52
   6   5  -2    0.74    0.38
   6   5  -2    0.68    0.32
   6   5  -2    0.93    0.35
  -6  -5   2    0.84    0.43
  -6  -5   2    0.71    0.18
  -6  -5   2    0.89    0.20
  -6  -5   2    0.58    0.33
   5   5  -2    0.86    0.38
   5   5  -2    0.52    0.29
   5   5  -2    0.80    0.34
  -5  -5   2    0.52    0.29
  -5  -5   2    1.25    0.39
  -5  -5   2    1.02    0.26
  -5  -5   2    0.74    0.18
  -5  -5   2    0.78    0.19
  -5  -5   2    0.52    0.18
  -5  -5   2    0.77    0.23
   4   5  -2   33.88    1.11
   4   5  -2   31.95    1.16
   4   5  -2   32.74    1.20
  -4  -5   2   34.25    1.17
  -4  -5   2   32.46    0.85
  -4  -5   2   32.46    0.93
  -4  -5   2   31.54    1.12
  -4  -5   2   32.59    0.86
  -4  -5   2   31.52    0.85
   3   5  -2    9.14    0.58
   3   5  -2   10.08    0.63
   3   5  -2   10.20    0.58
   3   5  -2   10.04    0.57
  -3  -5   2    9.06    0.34
  -3  -5   2    8.95    0.57
  -3  -5   2    9.31    0.63
  -3  -5   2    9.85    0.45
  -3  -5   2   10.23    0.48
  -3  -5   2    9.31    0.46
  -3  -5   2    9.01    0.45
  -3  -5   2   10.33    0.48
  -3  -5   2    9.76    0.33
   2   5  -2   19.61    0.66
   2   5  -2   19.70    0.76
   2   5  -2   19.86    0.88
  -2  -5   2   19.29    0.76
  -2  -5   2   19.35    0.71
  -2  -5   2   18.32    0.66
  -2  -5   2   19.82    0.67
  -2  -5   2   18.35    0.67
  -2  -5   2   20.12    0.84
   1   5  -2    0.49    0.14
   1   5  -2    0.29    0.16
   1   5  -2    0.46    0.26
   1   5  -2    0.95    0.25
   1   5  -2    0.47    0.21
  -1  -5   2    0.71    0.27
  -1  -5   2    0.81    0.23
  -1  -5   2    0.42    0.20
  -1  -5   2    0.27    0.22
  -1  -5   2    0.72    0.25
  -1  -5   2    0.62    0.22
  -1  -5   2    0.63    0.21
   0   5  -2    2.53    0.38
   0   5  -2    2.50    0.42
   0   5  -2    2.73    0.34
   0   5  -2    2.15    0.23
   0   5  -2    2.69    0.14
   0   5  -2    2.77    0.35
   0   5  -2    2.65    0.14
   0  -5   2    2.86    0.36
   0  -5   2    1.99    0.36
   0  -5   2    2.98    0.37
   0  -5   2    2.46    0.35
   0  -5   2    2.28    0.33
   0  -5   2    2.89    0.35
  -1   5  -2   26.35    0.95
  -1   5  -2   27.25    1.04
  -1   5  -2   28.08    0.99
  -1   5  -2   26.47    1.06
  -1   5  -2   28.13    0.82
   1  -5   2   27.02    1.02
   1  -5   2   27.55    0.97
   1  -5   2   29.35    1.03
   1  -5   2   27.38    0.94
   1  -5   2   28.45    1.00
  -2   5  -2   12.62    0.71
  -2   5  -2   13.14    0.74
  -2   5  -2   13.37    0.82
  -2   5  -2   11.86    0.60
  -2   5  -2   12.71    0.78
   2  -5   2   12.77    0.76
   2  -5   2   12.00    0.70
   2  -5   2   11.83    0.68
   2  -5   2   14.15    0.69
  -3   5  -2    1.12    0.38
  -3   5  -2    1.08    0.39
  -3   5  -2    0.98    0.31
  -3   5  -2    1.29    0.40
  -3   5  -2    1.14    0.37
   3  -5   2    1.11    0.40
   3  -5   2    1.13    0.37
   3  -5   2    0.56    0.30
  -4   5  -2    5.43    0.67
  -4   5  -2    5.26    0.72
  -4   5  -2    5.91    0.64
  -4   5  -2    5.41    0.63
  -4   5  -2    7.00    0.75
   4  -5   2    5.72    0.71
   4  -5   2    6.42    0.60
  -5   5  -2    0.21    0.41
  -5   5  -2    0.07    0.40
  -5   5  -2   -0.08    0.39
  -5   5  -2   -0.47    0.34
   5  -5   2   -0.23    0.29
  -6   5  -2    0.41    0.46
  -6   5  -2   -0.32    0.38
  -6   5  -2   -0.34    0.40
   6  -5   2    0.89    0.45
   8   4  -2    1.75    0.58
  -8  -4   2    2.60    0.72
  -8  -4   2    2.10    0.33
   7   4  -2    1.70    0.54
   7   4  -2    2.33    0.47
  -7  -4   2    2.07    0.30
  -7  -4   2    1.95    0.56
   6   4  -2    3.07    0.53
   6   4  -2    3.41    0.48
  -6  -4   2    3.24    0.28
  -6  -4   2    3.53    0.58
  -6  -4   2    3.23    0.30
  -6  -4   2    3.18    0.30
  -6  -4   2    3.89    0.46
   5   4  -2   10.04    0.69
   5   4  -2   11.67    0.66
   5   4  -2   10.14    0.60
  -5  -4   2   10.41    0.42
  -5  -4   2   11.11    0.75
  -5  -4   2   11.64    0.43
  -5  -4   2   10.45    0.61
  -5  -4   2   11.15    0.74
  -5  -4   2   12.20    0.54
  -5  -4   2   11.26    0.44
  -5  -4   2   10.55    0.51
   4   4  -2    0.35    0.28
   4   4  -2    0.25    0.22
   4   4  -2    0.27    0.23
  -4  -4   2    0.08    0.12
  -4  -4   2   -0.06    0.20
  -4  -4   2    0.18    0.13
  -4  -4   2   -0.06    0.13
  -4  -4   2    0.52    0.27
  -4  -4   2    0.13    0.14
  -4  -4   2    0.32    0.13
   3   4  -2    1.55    0.28
   3   4  -2    1.37    0.28
   3   4  -2    0.81    0.28
   3   4  -2    1.27    0.13
   3   4  -2    1.23    0.29
  -3  -4   2    1.27    0.20
  -3  -4   2    0.90    0.17
  -3  -4   2    1.40    0.30
  -3  -4   2    1.29    0.28
  -3  -4   2    1.64    0.20
  -3  -4   2    1.44    0.21
  -3  -4   2    1.44    0.21
   2   4  -2   14.43    0.49
   2   4  -2   13.52    0.59
   2   4  -2   14.33    0.60
   2   4  -2   14.34    0.67
   2   4  -2   14.02    0.63
  -2  -4   2   14.91    0.55
  -2  -4   2   13.41    0.65
  -2  -4   2   14.59    0.51
  -2  -4   2   14.74    0.50
  -2  -4   2   14.72    0.33
  -2  -4   2   14.50    0.35
  -2  -4   2   14.08    0.51
  -2  -4   2   14.75    0.61
  -2  -4   2   14.48    0.54
   1   4  -2    0.07    0.13
   1   4  -2    0.33    0.18
   1   4  -2    0.25    0.17
   1   4  -2    0.11    0.12
   1   4  -2    0.00    0.22
  -1  -4   2   -0.05    0.23
  -1  -4   2    0.29    0.18
  -1  -4   2    0.02    0.16
  -1  -4   2    0.15    0.18
  -1  -4   2   -0.03    0.16
  -1  -4   2    0.43    0.20
   0   4  -2  176.54    3.05
   0   4  -2  171.06    3.38
   0   4  -2  172.95    2.97
   0   4  -2  172.94    3.30
   0   4  -2  173.61    3.13
   0   4  -2  174.45    3.37
   0   4  -2  176.10    3.50
   0  -4   2  172.20    3.37
   0  -4   2  170.98    3.38
   0  -4   2  179.57    3.34
   0  -4   2  172.97    3.31
   0  -4   2  176.08    3.34
   0  -4   2  176.57    3.32
   0  -4   2  165.28    3.41
  -1   4  -2    2.93    0.35
  -1   4  -2    3.01    0.28
  -1   4  -2    3.01    0.34
  -1   4  -2    3.33    0.41
   1  -4   2    2.76    0.36
   1  -4   2    2.51    0.34
   1  -4   2    3.28    0.37
   1  -4   2    3.07    0.34
   1  -4   2    3.60    0.38
  -2   4  -2    4.07    0.38
  -2   4  -2    4.55    0.46
  -2   4  -2    4.17    0.48
  -2   4  -2    4.20    0.43
  -2   4  -2    4.26    0.44
   2  -4   2    4.58    0.49
   2  -4   2    5.16    0.41
   2  -4   2    4.12    0.43
   2  -4   2    4.64    0.47
   2  -4   2    4.46    0.46
  -3   4  -2  156.07    3.39
  -3   4  -2  159.30    3.32
  -3   4  -2  161.15    3.31
  -3   4  -2  159.66    3.51
  -3   4  -2  160.95    3.35
   3  -4   2  161.25    3.46
   3  -4   2  163.42    3.32
   3  -4   2  166.71    3.35
   3  -4   2  159.89    3.44
   3  -4   2  160.92    3.34
  -4   4  -2   -0.04    0.30
  -4   4  -2   -0.42    0.27
  -4   4  -2   -0.01    0.29
  -4   4  -2   -0.06    0.30
  -4   4  -2    0.05    0.28
   4  -4   2    0.19    0.24
   4  -4   2    0.30    0.36
  -5   4  -2   10.36    0.85
  -5   4  -2   10.44    0.83
  -5   4  -2    9.76    0.75
  -5   4  -2   10.42    0.84
   5  -4   2    8.29    0.82
  -6   4  -2    7.34    0.86
  -6   4  -2    8.32    0.90
  -6   4  -2    7.72    0.84
   6  -4   2    6.64    0.82
   8   3  -2    6.93    0.87
  -8  -3   2    6.93    0.57
  -8  -3   2    8.35    0.97
   7   3  -2   18.60    1.11
   7   3  -2   18.59    1.00
  -7  -3   2   17.44    0.84
  -7  -3   2   19.05    0.74
  -7  -3   2   19.31    1.16
   6   3  -2   20.83    1.05
   6   3  -2   17.95    0.89
  -6  -3   2   19.54    0.67
  -6  -3   2   20.80    1.06
  -6  -3   2   20.22    0.86
   5   3  -2   20.52    0.86
   5   3  -2   19.33    0.73
   5   3  -2   18.60    0.89
  -5  -3   2   21.27    0.96
  -5  -3   2   19.54    0.64
  -5  -3   2   20.15    0.96
  -5  -3   2   19.46    0.61
  -5  -3   2   20.72    0.62
  -5  -3   2   18.84    0.73
   4   3  -2   36.85    1.19
   4   3  -2   38.79    1.12
   4   3  -2   38.60    1.06
  -4  -3   2   37.60    0.88
  -4  -3   2   37.93    1.18
  -4  -3   2   38.60    0.93
  -4  -3   2   37.54    0.86
  -4  -3   2   37.61    0.89
  -4  -3   2   37.04    1.05
  -4  -3   2   37.58    0.86
   3   3  -2   67.77    1.58
   3   3  -2   67.73    1.63
   3   3  -2   68.82    1.58
   3   3  -2   68.83    1.24
  -3  -3   2   68.66    1.34
  -3  -3   2   69.51    1.39
  -3  -3   2   69.75    1.35
  -3  -3   2   69.45    1.39
  -3  -3   2   67.87    1.38
  -3  -3   2   67.54    1.63
  -3  -3   2   66.60    1.55
   2   3  -2   12.65    0.52
   2   3  -2   12.05    0.51
   2   3  -2   12.48    0.55
   2   3  -2   12.22    0.40
  -2  -3   2   11.48    0.43
  -2  -3   2   11.44    0.40
  -2  -3   2   11.92    0.51
  -2  -3   2   10.97    0.40
  -2  -3   2   12.34    0.54
  -2  -3   2   11.71    0.39
  -2  -3   2   11.59    0.43
   1   3  -2   13.88    0.45
   1   3  -2   13.96    0.50
   1   3  -2   14.91    0.62
   1   3  -2   13.97    0.53
   1   3  -2   14.12    0.45
  -1  -3   2   14.96    0.59
  -1  -3   2   13.67    0.48
  -1  -3   2   15.10    0.59
  -1  -3   2   13.61    0.53
  -1  -3   2   14.86    0.46
  -1  -3   2   13.26    0.50
  -1  -3   2   13.96    0.27
  -1  -3   2   13.44    0.49
   0   3  -2   21.36    0.57
   0   3  -2   20.54    0.44
   0   3  -2   20.46    0.66
   0   3  -2   21.39    0.47
   0   3  -2   20.18    0.63
   0   3  -2   20.65    0.69
   0  -3   2   21.38    0.72
   0  -3   2   20.43    0.67
   0  -3   2   20.38    0.68
   0  -3   2   21.44    0.66
   0  -3   2   20.77    0.63
   0  -3   2   21.78    0.68
   0  -3   2   21.10    0.64
  -1   3  -2  101.76    2.13
  -1   3  -2  100.70    2.10
  -1   3  -2  100.59    2.00
  -1   3  -2  101.87    2.17
  -1   3  -2  101.90    2.09
   1  -3   2  101.47    2.16
   1  -3   2  101.53    2.10
   1  -3   2   99.89    2.12
   1  -3   2  106.77    2.10
   1  -3   2  106.45    2.12
  -2   3  -2    2.70    0.36
  -2   3  -2    2.33    0.30
  -2   3  -2    1.92    0.29
  -2   3  -2    1.99    0.33
  -2   3  -2    2.13    0.28
  -2   3  -2    1.51    0.26
   2  -3   2    2.60    0.33
   2  -3   2    2.11    0.28
   2  -3   2    2.46    0.32
   2  -3   2    1.71    0.30
   2  -3   2    2.62    0.36
  -3   3  -2   12.99    0.62
  -3   3  -2   12.02    0.61
  -3   3  -2   12.92    0.70
  -3   3  -2   11.65    0.64
  -3   3  -2   12.90    0.68
  -3   3  -2   11.85    0.58
   3  -3   2   12.59    0.60
   3  -3   2   11.74    0.58
   3  -3   2   12.24    0.59
   3  -3   2   12.62    0.66
  -4   3  -2   17.19    0.79
  -4   3  -2   16.08    0.74
  -4   3  -2   17.24    0.90
  -4   3  -2   16.09    0.81
  -4   3  -2   17.15    0.83
   4  -3   2   16.17    0.82
   4  -3   2   17.31    0.84
   4  -3   2   17.78    0.76
   4  -3   2   17.28    0.72
  -5   3  -2    0.75    0.37
  -5   3  -2    0.71    0.33
  -5   3  -2    0.14    0.28
  -5   3  -2    0.13    0.31
  -5   3  -2    1.02    0.41
   5  -3   2    1.08    0.36
  -6   3  -2    0.37    0.46
  -6   3  -2    0.13    0.32
  -6   3  -2   -0.05    0.35
  -6   3  -2    0.75    0.41
   6  -3   2    0.05    0.31
  -7   3  -2    1.79    0.51
  -7   3  -2    2.90    0.61
  -7   3  -2    1.81    0.59
   7  -3   2    1.87    0.56
   7  -3   2    3.05    0.66
   8   2  -2    9.08    0.95
   8   2  -2   10.11    0.89
  -8  -2   2   12.87    0.74
  -8  -2   2   10.81    1.07
   7   2  -2    1.43    0.44
   7   2  -2    2.08    0.52
  -7  -2   2    1.82    0.33
  -7  -2   2    1.73    0.55
  -7  -2   2    1.99    0.35
   6   2  -2   10.00    0.68
   6   2  -2    9.84    0.75
  -6  -2   2   10.62    0.78
  -6  -2   2    9.36    0.52
  -6  -2   2   10.24    0.54
   5   2  -2   33.78    1.19
   5   2  -2   33.25    1.12
  -5  -2   2   32.22    1.18
  -5  -2   2   33.88    0.86
  -5  -2   2   32.10    1.20
  -5  -2   2   32.98    0.90
  -5  -2   2   32.69    0.92
  -5  -2   2   34.86    0.90
   4   2  -2    4.06    0.45
   4   2  -2    3.97    0.41
   4   2  -2    3.80    0.14
   4   2  -2    3.37    0.29
  -4  -2   2    3.42    0.27
  -4  -2   2    3.38    0.43
  -4  -2   2    3.54    0.27
  -4  -2   2    3.53    0.28
  -4  -2   2    3.40    0.29
  -4  -2   2    4.20    0.44
  -4  -2   2    3.37    0.25
  -4  -2   2    3.37    0.29
   3   2  -2    6.95    0.44
   3   2  -2    8.31    0.44
   3   2  -2    7.69    0.37
   3   2  -2    7.91    0.25
  -3  -2   2    7.28    0.30
  -3  -2   2    8.12    0.31
  -3  -2   2    7.73    0.33
  -3  -2   2    8.17    0.38
  -3  -2   2    7.16    0.30
  -3  -2   2    7.41    0.33
  -3  -2   2    7.29    0.45
   2   2  -2   17.28    0.56
   2   2  -2   16.95    0.57
   2   2  -2   17.79    0.60
   2   2  -2   16.93    0.44
  -2  -2   2   16.77    0.49
  -2  -2   2   16.21    0.45
  -2  -2   2   15.85    0.42
  -2  -2   2   17.19    0.45
  -2  -2   2   17.29    0.61
  -2  -2   2   15.87    0.53
  -2  -2   2   16.76    0.48
   1   2  -2   -0.04    0.09
   1   2  -2    0.02    0.14
   1   2  -2    0.08    0.12
   1   2  -2    0.07    0.16
   1   2  -2   -0.04    0.09
   1   2  -2    0.01    0.12
  -1  -2   2   -0.30    0.08
  -1  -2   2   -0.11    0.05
  -1  -2   2    0.15    0.13
  -1  -2   2    0.01    0.07
  -1  -2   2   -0.15    0.15
  -1  -2   2   -0.12    0.13
  -1  -2   2    0.13    0.13
  -1  -2   2   -0.16    0.12
  -1  -2   2   -0.05    0.13
   0   2  -2   81.24    1.60
   0   2  -2   80.09    1.41
   0   2  -2   80.85    1.57
   0   2  -2   79.53    1.52
   0   2  -2   79.88    1.56
   0   2  -2   81.06    1.62
   0  -2   2   79.88    1.61
   0  -2   2   78.42    1.55
   0  -2   2   77.18    1.59
   0  -2   2   78.83    1.63
   0  -2   2   79.48    1.54
   0  -2   2   79.13    1.58
   0  -2   2   82.13    1.58
   0  -2   2   80.94    1.57
  -1   2  -2    0.71    0.19
  -1   2  -2    0.85    0.17
  -1   2  -2    1.34    0.22
  -1   2  -2    1.22    0.20
  -1   2  -2    1.19    0.23
  -1   2  -2    1.29    0.21
  -1   2  -2    1.21    0.25
   1  -2   2    0.99    0.19
   1  -2   2    1.26    0.21
   1  -2   2    1.72    0.25
   1  -2   2    1.04    0.23
   1  -2   2    1.21    0.23
  -2   2  -2    0.74    0.22
  -2   2  -2    0.42    0.18
  -2   2  -2    0.26    0.19
  -2   2  -2    0.42    0.20
  -2   2  -2    0.31    0.17
  -2   2  -2    0.45    0.21
  -2   2  -2    0.72    0.22
   2  -2   2    0.31    0.17
   2  -2   2    0.42    0.18
   2  -2   2    0.38    0.20
   2  -2   2    0.06    0.16
   2  -2   2    0.08    0.19
  -3   2  -2   48.29    1.30
  -3   2  -2   47.80    1.23
  -3   2  -2   46.48    1.20
  -3   2  -2   47.80    1.27
  -3   2  -2   45.01    1.28
  -3   2  -2   49.37    1.26
   3  -2   2   48.29    1.23
   3  -2   2   48.94    1.19
   3  -2   2   47.80    1.28
   3  -2   2   48.58    1.21
  -4   2  -2    3.32    0.41
  -4   2  -2    3.11    0.45
  -4   2  -2    3.37    0.41
  -4   2  -2    3.35    0.38
  -4   2  -2    2.73    0.40
   4  -2   2    3.51    0.39
   4  -2   2    2.83    0.38
   4  -2   2    2.81    0.43
  -5   2  -2    8.93    0.65
  -5   2  -2    8.56    0.68
  -5   2  -2    8.99    0.65
  -5   2  -2    9.55    0.59
  -5   2  -2    9.11    0.69
   5  -2   2    7.05    0.61
  -6   2  -2    3.58    0.60
  -6   2  -2    3.92    0.56
  -6   2  -2    3.03    0.48
  -6   2  -2    2.83    0.51
   6  -2   2    2.88    0.52
   6  -2   2    3.16    0.57
  -7   2  -2    3.27    0.58
  -7   2  -2    2.98    0.67
  -7   2  -2    2.97    0.54
   7  -2   2    3.38    0.63
   7  -2   2    4.11    0.66
   8   1  -2    1.75    0.56
   8   1  -2    1.42    0.51
  -8  -1   2    1.00    0.56
  -8  -1   2    1.50    0.38
  -8  -1   2    1.16    0.36
   7   1  -2    3.21    0.57
   7   1  -2    2.35    0.54
  -7  -1   2    2.86    0.42
  -7  -1   2    2.81    0.65
  -7  -1   2    2.90    0.42
   6   1  -2   -0.15    0.27
   6   1  -2   -0.02    0.26
  -6  -1   2   -0.01    0.38
  -6  -1   2   -0.14    0.20
  -6  -1   2    0.34    0.22
   5   1  -2    0.14    0.23
   5   1  -2    0.15    0.23
  -5  -1   2    0.28    0.13
  -5  -1   2    0.12    0.18
  -5  -1   2   -0.12    0.16
  -5  -1   2    0.05    0.19
  -5  -1   2   -0.14    0.12
  -5  -1   2   -0.03    0.29
   4   1  -2   51.86    1.39
   4   1  -2   53.42    1.42
  -4  -1   2   53.95    1.47
  -4  -1   2   52.66    1.09
  -4  -1   2   52.45    1.10
  -4  -1   2   51.32    1.24
  -4  -1   2   53.28    1.21
  -4  -1   2   53.08    1.24
   3   1  -2   39.07    1.05
   3   1  -2   39.26    0.87
  -3  -1   2   39.58    0.93
  -3  -1   2   39.63    0.81
  -3  -1   2   38.73    0.84
  -3  -1   2   38.97    0.93
  -3  -1   2   38.26    0.88
  -3  -1   2   37.86    0.88
  -3  -1   2   37.84    1.08
   2   1  -2  113.92    2.24
   2   1  -2   97.11    1.95
   2   1  -2  108.44    1.99
  -2  -1   2  110.37    1.90
  -2  -1   2  109.71    1.99
  -2  -1   2  109.45    2.02
  -2  -1   2  108.57    1.98
  -2  -1   2  107.96    2.17
  -2  -1   2  113.34    2.03
  -2  -1   2  109.42    1.98
  -2  -1   2  112.13    2.16
   1   1  -2  645.08   11.20
   1   1  -2  639.16   11.02
   1   1  -2  641.40   11.27
   1   1  -2  660.78   11.52
   1   1  -2  668.52   11.32
  -1  -1   2  620.21   11.56
  -1  -1   2  634.35   11.30
  -1  -1   2  649.34   11.35
  -1  -1   2  635.11   11.16
  -1  -1   2  596.99   10.87
  -1  -1   2  660.20   11.36
  -1  -1   2  660.73   11.22
  -1  -1   2  639.82   11.33
  -1  -1   2  662.93   10.78
   0   1  -2   44.04    0.92
   0   1  -2   44.64    0.91
   0   1  -2   44.38    0.93
   0   1  -2   41.83    0.88
   0   1  -2   45.34    0.94
   0   1  -2   44.08    0.91
   0   1  -2   45.04    0.86
   0   1  -2   45.92    0.91
   0   1  -2   43.65    0.82
   0   1  -2   44.75    0.83
   0  -1   2   44.34    0.88
   0  -1   2   44.24    0.94
   0  -1   2   43.71    0.93
   0  -1   2   43.60    0.83
   0  -1   2   44.47    0.86
   0  -1   2   43.49    0.91
   0  -1   2   45.29    0.94
   0  -1   2   45.28    0.91
   0  -1   2   45.60    0.91
   0  -1   2   43.24    0.91
  -1   1  -2   88.16    1.71
  -1   1  -2   88.86    1.72
  -1   1  -2   87.53    1.69
  -1   1  -2   86.53    1.67
  -1   1  -2   88.06    1.60
  -1   1  -2   87.43    1.69
  -1   1  -2   86.63    1.64
  -1   1  -2   86.12    1.68
  -1   1  -2   89.65    1.68
   1  -1   2   85.51    1.70
   1  -1   2   89.01    1.60
   1  -1   2   87.93    1.67
   1  -1   2   87.80    1.68
   1  -1   2   87.89    1.72
  -2   1  -2  120.89    2.34
  -2   1  -2  118.04    2.37
  -2   1  -2  120.47    2.26
  -2   1  -2  125.78    2.34
  -2   1  -2  120.20    2.39
  -2   1  -2  125.26    2.33
   2  -1   2  125.95    2.36
   2  -1   2  125.51    2.30
   2  -1   2  121.61    2.35
   2  -1   2  121.99    2.34
  -3   1  -2    1.22    0.22
  -3   1  -2    1.04    0.25
  -3   1  -2    1.40    0.23
  -3   1  -2    1.68    0.24
  -3   1  -2    1.49    0.24
  -3   1  -2    1.60    0.27
   3  -1   2    1.90    0.31
   3  -1   2    1.89    0.21
   3  -1   2    1.61    0.24
   3  -1   2    1.24    0.23
  -4   1  -2    2.80    0.39
  -4   1  -2    2.80    0.33
  -4   1  -2    2.81    0.34
  -4   1  -2    3.08    0.34
  -4   1  -2    2.75    0.35
  -4   1  -2    2.81    0.34
   4  -1   2    3.78    0.37
   4  -1   2    3.23    0.42
   4  -1   2    3.78    0.37
  -5   1  -2    0.02    0.28
  -5   1  -2    0.49    0.28
  -5   1  -2    0.90    0.28
  -5   1  -2    0.57    0.28
  -5   1  -2    0.47    0.25
   5  -1   2    0.69    0.33
   5  -1   2    0.50    0.23
  -6   1  -2    2.04    0.41
  -6   1  -2    2.12    0.38
  -6   1  -2    2.49    0.50
  -6   1  -2    1.79    0.38
  -6   1  -2    1.93    0.42
   6  -1   2    2.38    0.45
   6  -1   2    1.70    0.47
  -7   1  -2    1.02    0.39
  -7   1  -2    0.88    0.49
  -7   1  -2    1.29    0.39
   7  -1   2    1.71    0.47
   7  -1   2    2.09    0.59
   8   0  -2    5.10    0.78
   8   0  -2    6.47    0.87
  -8   0   2    6.00    0.93
  -8   0   2    4.50    0.60
  -8   0   2    4.85    0.64
   7   0  -2    0.65    0.39
   7   0  -2    0.48    0.41
  -7   0   2    0.55    0.49
  -7   0   2    0.66    0.34
  -7   0   2    0.13    0.29
   6   0  -2    0.74    0.37
   6   0  -2    0.41    0.32
  -6   0   2    0.47    0.27
  -6   0   2    0.22    0.37
  -6   0   2    0.56    0.28
   5   0  -2   11.78    0.70
   5   0  -2   13.65    0.49
   5   0  -2   12.77    0.71
  -5   0   2   13.54    0.64
  -5   0   2   14.00    0.68
  -5   0   2   13.01    0.77
  -5   0   2   12.45    0.49
   4   0  -2   17.69    0.74
   4   0  -2   17.45    0.51
   4   0  -2   18.05    0.75
   4   0  -2   17.39    0.61
  -4   0   2   17.30    0.52
  -4   0   2   17.34    0.69
  -4   0   2   18.08    0.65
  -4   0   2   17.31    0.81
  -4   0   2   17.27    0.63
   3   0  -2   23.97    0.55
   3   0  -2   23.19    0.68
   3   0  -2   22.90    0.77
  -3   0   2   21.93    0.70
  -3   0   2   23.01    0.68
  -3   0   2   22.28    0.54
  -3   0   2   22.26    0.67
  -3   0   2   22.89    0.81
   2   0  -2    5.12    0.34
   2   0  -2    5.07    0.18
   2   0  -2    5.03    0.29
   2   0  -2    5.23    0.26
  -2   0   2    4.72    0.17
  -2   0   2    5.33    0.31
  -2   0   2    5.09    0.32
  -2   0   2    4.96    0.28
  -2   0   2    4.77    0.36
  -2   0   2    4.37    0.29
  -2   0   2    4.62    0.26
   1   0  -2   18.42    0.39
   1   0  -2   18.50    0.48
   1   0  -2   18.40    0.50
   1   0  -2   18.68    0.39
  -1   0   2   18.79    0.51
  -1   0   2   18.41    0.48
  -1   0   2   18.38    0.39
  -1   0   2   18.88    0.51
  -1   0   2   18.79    0.48
  -1   0   2   18.71    0.39
  -1   0   2   18.13    0.48
  -1   0   2   17.89    0.53
   0   0  -2   10.57    0.30
   0   0  -2   11.33    0.29
   0   0  -2   11.70    0.33
   0   0  -2   12.00    0.35
   0   0  -2   11.38    0.33
   0   0  -2   11.46    0.29
   0   0  -2   11.51    0.33
   0   0  -2   11.29    0.30
   0   0  -2   10.84    0.28
   0   0  -2   11.23    0.34
   0   0   2   11.07    0.28
   0   0   2   11.31    0.33
   0   0   2   11.10    0.33
   0   0   2   10.98    0.32
   0   0   2   11.04    0.34
   0   0   2   11.76    0.33
   0   0   2   10.63    0.30
   0   0   2   11.16    0.28
   0   0   2   11.01    0.29
   0   0   2   11.19    0.30
   0   0   2   11.20    0.34
  -1   0  -2    0.40    0.15
  -1   0  -2    0.47    0.13
  -1   0  -2    0.59    0.14
  -1   0  -2    0.51    0.05
  -1   0  -2    0.46    0.15
  -1   0  -2    0.52    0.14
  -1   0  -2    0.41    0.11
  -1   0  -2    0.53    0.13
  -1   0  -2    0.34    0.11
   1   0   2    0.51    0.13
   1   0   2    0.35    0.12
   1   0   2    0.23    0.16
   1   0   2    0.49    0.11
   1   0   2    0.42    0.13
   1   0   2    0.44    0.11
   1   0   2    0.45    0.12
   1   0   2    0.40    0.05
  -2   0  -2    2.01    0.18
  -2   0  -2    1.78    0.20
  -2   0  -2    1.72    0.24
  -2   0  -2    1.71    0.17
  -2   0  -2    1.78    0.18
  -2   0  -2    1.83    0.22
  -2   0  -2    2.20    0.21
   2   0   2    2.32    0.17
   2   0   2    2.11    0.23
   2   0   2    1.56    0.18
   2   0   2    2.19    0.18
  -3   0  -2    2.43    0.25
  -3   0  -2    3.17    0.25
  -3   0  -2    2.77    0.28
  -3   0  -2    3.32    0.29
  -3   0  -2    3.16    0.26
  -3   0  -2    2.83    0.25
   3   0   2    3.00    0.29
   3   0   2    3.04    0.26
   3   0   2    4.04    0.39
  -4   0  -2    4.08    0.36
  -4   0  -2    3.89    0.35
  -4   0  -2    4.07    0.35
  -4   0  -2    3.37    0.30
  -4   0  -2    4.24    0.32
   4   0   2    3.73    0.34
   4   0   2    5.06    0.50
   4   0   2    3.97    0.30
  -5   0  -2    2.37    0.34
  -5   0  -2    2.74    0.38
  -5   0  -2    2.82    0.36
  -5   0  -2    2.33    0.32
  -5   0  -2    2.70    0.32
   5   0   2    2.65    0.37
   5   0   2    2.25    0.33
   5   0   2    2.33    0.35
   5   0   2    1.98    0.39
  -6   0  -2    3.70    0.42
  -6   0  -2    3.94    0.46
  -6   0  -2    3.47    0.43
  -6   0  -2    4.25    0.53
  -6   0  -2    3.78    0.56
   6   0   2    4.19    0.51
   6   0   2    2.91    0.50
   6   0   2    3.70    0.48
  -7   0  -2    0.50    0.29
  -7   0  -2   -0.01    0.36
  -7   0  -2    0.05    0.28
   7   0   2    1.02    0.38
   7   0   2    0.16    0.36
  -8   0  -2    1.49    0.41
  -8   0  -2    1.54    0.57
  -8   0  -2    1.68    0.43
   8   0   2    1.32    0.52
   7  -1  -2    2.05    0.52
   7  -1  -2    2.43    0.58
  -7   1   2    1.95    0.63
  -7   1   2    2.16    0.46
  -7   1   2    2.04    0.48
   6  -1  -2    0.63    0.35
   6  -1  -2    0.25    0.33
  -6   1   2    0.03    0.28
  -6   1   2    0.38    0.31
  -6   1   2    0.09    0.41
   5  -1  -2    4.97    0.34
   5  -1  -2    5.73    0.59
   5  -1  -2    6.10    0.62
  -5   1   2    5.21    0.51
  -5   1   2    5.87    0.37
  -5   1   2    4.57    0.57
  -5   1   2    5.22    0.52
   4  -1  -2   24.01    0.82
   4  -1  -2   23.67    0.91
   4  -1  -2   23.18    0.66
   4  -1  -2   22.72    0.86
  -4   1   2   22.93    0.82
  -4   1   2   24.22    0.84
  -4   1   2   22.96    0.66
  -4   1   2   23.92    0.94
  -4   1   2   23.88    0.87
   3  -1  -2   15.42    0.46
   3  -1  -2   14.80    0.64
   3  -1  -2   14.74    0.52
   3  -1  -2   15.37    0.57
   3  -1  -2   15.23    0.60
  -3   1   2   13.80    0.67
  -3   1   2   14.80    0.58
  -3   1   2   14.86    0.63
  -3   1   2   14.89    0.46
  -3   1   2   14.55    0.58
   2  -1  -2   18.30    0.46
   2  -1  -2   17.38    0.55
   2  -1  -2   17.94    0.60
  -2   1   2   17.85    0.58
  -2   1   2   18.53    0.60
  -2   1   2   18.46    0.64
  -2   1   2   19.05    0.67
   1  -1  -2  174.39    3.14
   1  -1  -2  173.16    3.12
   1  -1  -2  173.73    3.10
   1  -1  -2  172.06    3.06
  -1   1   2  176.89    3.11
  -1   1   2  171.33    3.11
  -1   1   2  178.96    3.06
  -1   1   2  172.53    3.14
  -1   1   2  172.73    3.16
  -1   1   2  171.53    3.09
   0  -1  -2    4.03    0.22
   0  -1  -2    3.94    0.25
   0  -1  -2    4.18    0.25
   0  -1  -2    3.99    0.20
   0  -1  -2    3.66    0.23
   0  -1  -2    4.04    0.19
   0  -1  -2    3.87    0.21
   0  -1  -2    4.16    0.24
   0   1   2    4.00    0.20
   0   1   2    4.15    0.23
   0   1   2    4.13    0.21
   0   1   2    4.54    0.26
   0   1   2    4.05    0.22
   0   1   2    4.18    0.22
   0   1   2    4.09    0.26
   0   1   2    3.97    0.21
   0   1   2    3.86    0.18
  -1  -1  -2    0.07    0.09
  -1  -1  -2    0.00    0.11
  -1  -1  -2   -0.06    0.11
  -1  -1  -2    0.11    0.09
  -1  -1  -2   -0.03    0.08
  -1  -1  -2    0.07    0.13
  -1  -1  -2   -0.04    0.07
  -1  -1  -2    0.20    0.12
   1   1   2    0.08    0.06
   1   1   2   -0.10    0.11
   1   1   2    0.00    0.08
   1   1   2    0.00    0.13
   1   1   2    0.10    0.07
   1   1   2    0.16    0.11
   1   1   2    0.01    0.08
  -2  -1  -2  174.10    3.00
  -2  -1  -2  182.19    3.05
  -2  -1  -2  175.64    3.05
  -2  -1  -2  176.23    3.00
  -2  -1  -2  177.32    3.18
  -2  -1  -2  170.71    3.18
   2   1   2  175.28    3.17
   2   1   2  175.62    3.26
   2   1   2  176.55    3.00
   2   1   2  178.54    3.00
  -3  -1  -2   17.31    0.48
  -3  -1  -2   16.60    0.48
  -3  -1  -2   17.75    0.59
  -3  -1  -2   16.56    0.44
  -3  -1  -2   16.64    0.44
  -3  -1  -2   17.73    0.55
   3   1   2   17.57    0.40
   3   1   2   16.16    0.57
   3   1   2   17.86    0.64
   3   1   2   16.96    0.54
  -4  -1  -2   11.08    0.41
  -4  -1  -2   10.56    0.50
  -4  -1  -2   12.33    0.53
  -4  -1  -2   11.38    0.44
  -4  -1  -2   10.16    0.43
  -4  -1  -2   10.69    0.41
   4   1   2   11.64    0.50
   4   1   2   11.94    0.62
   4   1   2   11.34    0.47
   4   1   2   11.49    0.32
   4   1   2   10.41    0.46
  -5  -1  -2   11.82    0.51
  -5  -1  -2   12.78    0.52
  -5  -1  -2   12.83    0.55
  -5  -1  -2   13.92    0.67
  -5  -1  -2   12.98    0.61
   5   1   2   13.47    0.61
   5   1   2   12.77    0.59
   5   1   2   13.24    0.55
   5   1   2   11.87    0.70
  -6  -1  -2    2.81    0.44
  -6  -1  -2    2.21    0.32
  -6  -1  -2    2.25    0.37
  -6  -1  -2    2.36    0.33
   6   1   2    2.96    0.52
   6   1   2    2.49    0.36
   6   1   2    3.55    0.43
  -7  -1  -2   10.95    0.64
  -7  -1  -2   11.43    0.91
  -7  -1  -2   11.89    0.80
  -7  -1  -2   10.72    0.65
   7   1   2    9.62    0.83
  -8  -1  -2   -0.29    0.45
  -8  -1  -2   -0.13    0.26
   8   1   2    0.36    0.48
   7  -2  -2    1.55    0.53
   7  -2  -2    2.16    0.52
  -7   2   2    1.49    0.47
  -7   2   2    1.17    0.56
  -7   2   2    1.55    0.47
   6  -2  -2    0.13    0.36
   6  -2  -2    0.66    0.35
  -6   2   2   -0.41    0.29
  -6   2   2    0.01    0.40
  -6   2   2    0.46    0.33
   5  -2  -2    6.68    0.57
   5  -2  -2    6.32    0.67
  -5   2   2    6.03    0.63
  -5   2   2    8.67    0.80
  -5   2   2    7.55    0.61
   4  -2  -2    1.07    0.20
   4  -2  -2    1.05    0.28
   4  -2  -2    0.97    0.30
   4  -2  -2    0.69    0.26
  -4   2   2    0.70    0.32
  -4   2   2    0.99    0.30
  -4   2   2    1.12    0.33
   3  -2  -2    1.82    0.29
   3  -2  -2    2.86    0.35
   3  -2  -2    2.65    0.25
   3  -2  -2    2.75    0.33
  -3   2   2    2.13    0.32
  -3   2   2    2.52    0.38
  -3   2   2    1.94    0.33
  -3   2   2    2.04    0.31
   2  -2  -2    5.26    0.37
   2  -2  -2    5.12    0.29
   2  -2  -2    6.03    0.42
   2  -2  -2    5.10    0.34
   2  -2  -2    5.74    0.24
  -2   2   2    5.57    0.42
  -2   2   2    5.65    0.44
  -2   2   2    4.83    0.38
  -2   2   2    5.84    0.38
   1  -2  -2    0.31    0.15
   1  -2  -2    0.17    0.18
   1  -2  -2    0.41    0.16
   1  -2  -2    0.54    0.18
   1  -2  -2    0.22    0.12
  -1   2   2    0.50    0.19
  -1   2   2    0.57    0.18
  -1   2   2    0.33    0.15
  -1   2   2    0.27    0.20
  -1   2   2    0.50    0.21
   0  -2  -2    3.71    0.24
   0  -2  -2    3.65    0.24
   0  -2  -2    4.04    0.27
   0  -2  -2    3.83    0.30
   0  -2  -2    3.60    0.25
   0  -2  -2    4.07    0.28
   0   2   2    3.94    0.30
   0   2   2    3.86    0.23
   0   2   2    3.88    0.17
   0   2   2    3.86    0.21
   0   2   2    4.43    0.31
   0   2   2    3.82    0.27
   0   2   2    3.81    0.32
  -1  -2  -2    9.87    0.33
  -1  -2  -2    9.64    0.28
  -1  -2  -2    9.26    0.33
  -1  -2  -2    9.80    0.31
  -1  -2  -2    9.82    0.36
  -1  -2  -2    8.90    0.38
  -1  -2  -2   10.26    0.27
  -1  -2  -2    9.96    0.31
   1   2   2    9.89    0.34
   1   2   2    9.59    0.39
   1   2   2    9.30    0.32
   1   2   2   10.10    0.28
   1   2   2    9.90    0.45
   1   2   2   10.15    0.28
  -2  -2  -2   25.62    0.53
  -2  -2  -2   25.73    0.45
  -2  -2  -2   25.00    0.63
  -2  -2  -2   25.25    0.66
  -2  -2  -2   25.26    0.68
  -2  -2  -2   25.15    0.53
  -2  -2  -2   25.10    0.45
   2   2   2   26.19    0.67
   2   2   2   25.86    0.80
  -3  -2  -2    3.20    0.16
  -3  -2  -2    3.31    0.30
  -3  -2  -2    3.27    0.15
  -3  -2  -2    3.17    0.29
   3   2   2    3.17    0.27
   3   2   2    3.51    0.36
  -4  -2  -2    0.09    0.09
  -4  -2  -2    0.17    0.09
  -4  -2  -2   -0.16    0.15
  -4  -2  -2    0.09    0.08
  -4  -2  -2   -0.13    0.15
  -4  -2  -2    0.16    0.10
   4   2   2    0.07    0.15
   4   2   2    0.29    0.22
   4   2   2   -0.08    0.18
  -5  -2  -2   -0.26    0.16
  -5  -2  -2    0.04    0.13
  -5  -2  -2    0.10    0.22
  -5  -2  -2   -0.12    0.11
  -5  -2  -2   -0.04    0.12
   5   2   2    0.07    0.16
   5   2   2    0.14    0.28
   5   2   2    0.27    0.17
  -6  -2  -2    1.38    0.32
  -6  -2  -2    0.71    0.31
  -6  -2  -2    1.31    0.22
  -6  -2  -2    1.29    0.23
  -6  -2  -2    1.18    0.22
   6   2   2    0.53    0.36
  -7  -2  -2    0.68    0.36
  -7  -2  -2    0.21    0.20
  -7  -2  -2    0.11    0.29
  -7  -2  -2    0.33    0.23
   7   2   2    0.12    0.35
  -8  -2  -2    0.38    0.26
  -8  -2  -2   -0.04    0.40
   8   2   2    0.77    0.47
   7  -3  -2    0.55    0.39
   7  -3  -2    0.58    0.47
  -7   3   2    1.17    0.59
  -7   3   2    0.81    0.45
  -7   3   2    0.60    0.45
   6  -3  -2    1.42    0.45
   6  -3  -2    0.76    0.35
  -6   3   2    0.08    0.49
  -6   3   2    0.55    0.39
  -6   3   2    0.66    0.38
   5  -3  -2    1.22    0.36
   5  -3  -2    1.83    0.46
  -5   3   2    0.74    0.42
  -5   3   2    1.34    0.38
  -5   3   2    0.65    0.36
   4  -3  -2   -0.07    0.23
   4  -3  -2   -0.19    0.15
   4  -3  -2    0.15    0.25
   4  -3  -2   -0.03    0.20
  -4   3   2    0.26    0.30
  -4   3   2    0.08    0.35
  -4   3   2   -0.26    0.25
   3  -3  -2    5.61    0.40
   3  -3  -2    4.38    0.46
   3  -3  -2    4.76    0.28
   3  -3  -2    4.74    0.35
   3  -3  -2    4.62    0.47
   3  -3  -2    5.03    0.41
  -3   3   2    4.53    0.47
  -3   3   2    4.63    0.51
  -3   3   2    4.23    0.48
  -3   3   2    5.11    0.37
   2  -3  -2   11.47    0.56
   2  -3  -2   11.60    0.44
   2  -3  -2   11.31    0.59
   2  -3  -2   11.68    0.57
   2  -3  -2   11.74    0.48
  -2   3   2   11.61    0.61
  -2   3   2   11.83    0.61
  -2   3   2   12.39    0.60
  -2   3   2   12.30    0.51
   1  -3  -2   -0.10    0.18
   1  -3  -2    0.42    0.18
   1  -3  -2   -0.12    0.18
   1  -3  -2    0.00    0.16
   1  -3  -2    0.22    0.14
  -1   3   2   -0.09    0.20
  -1   3   2    0.04    0.13
  -1   3   2   -0.08    0.18
  -1   3   2    0.00    0.20
  -1   3   2    0.19    0.19
   0  -3  -2   97.10    1.88
   0  -3  -2   96.55    1.92
   0  -3  -2   97.38    1.95
   0  -3  -2   95.88    1.93
   0  -3  -2   96.93    1.82
   0  -3  -2   92.32    1.95
   0   3   2   96.10    1.96
   0   3   2   99.19    1.69
   0   3   2   97.94    1.91
   0   3   2   95.37    1.98
   0   3   2   97.23    2.00
   0   3   2   94.08    1.82
   0   3   2   98.77    1.85
  -1  -3  -2    9.63    0.33
  -1  -3  -2    9.41    0.40
  -1  -3  -2    9.77    0.34
  -1  -3  -2   10.13    0.38
  -1  -3  -2    9.92    0.37
  -1  -3  -2    9.88    0.40
  -1  -3  -2    9.30    0.23
  -1  -3  -2    9.35    0.38
  -1  -3  -2    9.31    0.43
   1   3   2   10.77    0.40
   1   3   2    9.34    0.33
   1   3   2    9.77    0.34
   1   3   2    9.86    0.51
   1   3   2    9.58    0.44
   1   3   2    9.68    0.33
  -2  -3  -2  132.55    2.32
  -2  -3  -2  130.68    2.37
  -2  -3  -2  128.69    2.55
  -2  -3  -2  132.43    2.42
  -2  -3  -2  133.01    2.44
  -2  -3  -2  131.62    2.44
  -2  -3  -2  130.41    2.32
  -2  -3  -2  135.76    2.38
  -2  -3  -2  131.88    2.49
   2   3   2  135.67    2.52
   2   3   2  135.26    2.70
   2   3   2  134.57    2.29
   2   3   2  133.95    2.44
  -3  -3  -2    0.18    0.06
  -3  -3  -2    0.15    0.06
  -3  -3  -2    0.14    0.14
  -3  -3  -2   -0.08    0.11
  -3  -3  -2    0.04    0.14
   3   3   2   -0.03    0.18
   3   3   2   -0.02    0.14
   3   3   2   -0.18    0.15
  -4  -3  -2   18.65    0.69
  -4  -3  -2   19.64    0.72
  -4  -3  -2   20.17    0.72
   4   3   2   19.64    0.61
   4   3   2   20.28    0.82
   4   3   2   19.86    0.80
  -5  -3  -2   66.24    1.21
  -5  -3  -2   64.59    1.20
  -5  -3  -2   63.17    1.21
  -5  -3  -2   64.73    1.21
  -5  -3  -2   62.57    1.64
  -5  -3  -2   64.69    1.68
  -5  -3  -2   66.62    1.68
  -5  -3  -2   62.87    1.58
   5   3   2   65.38    1.45
   5   3   2   65.36    1.73
   5   3   2   66.19    1.42
   5   3   2   63.69    1.78
  -6  -3  -2    0.99    0.28
  -6  -3  -2    1.57    0.17
  -6  -3  -2    1.27    0.19
  -6  -3  -2    1.47    0.20
  -6  -3  -2    1.59    0.37
  -6  -3  -2    1.68    0.36
  -6  -3  -2    0.93    0.34
   6   3   2    1.79    0.43
  -7  -3  -2   10.83    0.80
  -7  -3  -2    9.31    0.48
  -7  -3  -2    9.55    0.73
   7   3   2   10.19    0.95
  -8  -3  -2    2.57    0.36
  -8  -3  -2    3.60    0.65
   8   3   2    2.42    0.66
   6  -4  -2    4.24    0.72
   6  -4  -2    3.48    0.57
  -6   4   2    4.05    0.75
  -6   4   2    3.63    0.67
  -6   4   2    5.37    0.72
   5  -4  -2    1.26    0.38
  -5   4   2    1.51    0.47
  -5   4   2    1.53    0.42
  -5   4   2    1.74    0.49
   4  -4  -2    4.96    0.57
   4  -4  -2    5.52    0.55
   4  -4  -2    4.97    0.61
   4  -4  -2    4.60    0.44
  -4   4   2    5.14    0.64
  -4   4   2    4.94    0.63
  -4   4   2    4.59    0.55
   3  -4  -2   11.25    0.49
   3  -4  -2   11.05    0.57
   3  -4  -2   12.10    0.65
   3  -4  -2   11.26    0.56
   3  -4  -2   10.90    0.65
   3  -4  -2   11.94    0.75
  -3   4   2   10.96    0.59
  -3   4   2   10.03    0.68
  -3   4   2   11.24    0.72
  -3   4   2   10.65    0.74
   2  -4  -2    1.29    0.29
   2  -4  -2    1.24    0.32
   2  -4  -2    1.40    0.24
   2  -4  -2    1.70    0.27
   2  -4  -2    1.32    0.29
  -2   4   2    1.55    0.34
  -2   4   2    1.35    0.29
  -2   4   2    1.63    0.31
  -2   4   2    0.86    0.31
  -2   4   2    1.37    0.31
   1  -4  -2    6.13    0.39
   1  -4  -2    5.25    0.45
   1  -4  -2    5.04    0.36
   1  -4  -2    5.74    0.45
   1  -4  -2    5.87    0.43
  -1   4   2    6.07    0.45
  -1   4   2    5.65    0.45
  -1   4   2    6.17    0.51
  -1   4   2    5.59    0.38
  -1   4   2    5.96    0.35
  -1   4   2    5.30    0.45
   0  -4  -2    4.08    0.36
   0  -4  -2    3.65    0.36
   0  -4  -2    3.72    0.38
   0  -4  -2    3.72    0.36
   0  -4  -2    3.66    0.32
   0  -4  -2    3.96    0.38
   0   4   2    2.91    0.36
   0   4   2    3.37    0.37
   0   4   2    3.74    0.26
   0   4   2    3.65    0.38
   0   4   2    3.51    0.29
   0   4   2    3.29    0.15
   0   4   2    3.53    0.15
   0   4   2    4.08    0.34
  -1  -4  -2   27.04    0.66
  -1  -4  -2   28.86    0.74
  -1  -4  -2   26.24    0.82
  -1  -4  -2   26.96    0.72
  -1  -4  -2   26.60    0.76
  -1  -4  -2   26.57    0.80
  -1  -4  -2   27.56    0.76
   1   4   2   27.86    0.71
   1   4   2   26.98    0.72
   1   4   2   28.61    0.95
   1   4   2   28.27    0.79
   1   4   2   27.32    0.65
  -2  -4  -2   41.50    0.98
  -2  -4  -2   41.87    0.93
  -2  -4  -2   41.87    0.94
  -2  -4  -2   40.91    0.93
  -2  -4  -2   41.19    0.97
  -2  -4  -2   41.00    0.98
  -2  -4  -2   42.71    0.87
  -2  -4  -2   42.85    0.98
  -2  -4  -2   40.97    1.09
   2   4   2   41.81    0.93
   2   4   2   42.48    0.95
   2   4   2   42.20    0.98
   2   4   2   42.54    1.23
  -3  -4  -2   26.81    0.75
  -3  -4  -2   27.15    0.62
  -3  -4  -2   25.95    0.62
  -3  -4  -2   26.86    0.79
  -3  -4  -2   26.48    0.58
  -3  -4  -2   25.50    0.77
  -3  -4  -2   26.13    0.84
  -3  -4  -2   26.48    0.58
   3   4   2   27.26    0.89
   3   4   2   25.62    0.95
   3   4   2   28.30    0.80
  -4  -4  -2    0.05    0.17
  -4  -4  -2    0.11    0.14
  -4  -4  -2   -0.16    0.14
   4   4   2    0.12    0.16
   4   4   2    0.15    0.25
   4   4   2    0.19    0.22
  -5  -4  -2   10.18    0.58
  -5  -4  -2   10.05    0.59
  -5  -4  -2    9.00    0.55
   5   4   2   10.17    0.69
   5   4   2    9.40    0.64
  -6  -4  -2   10.14    0.62
  -6  -4  -2   10.35    0.31
  -6  -4  -2   11.08    0.32
  -6  -4  -2   10.71    0.71
  -6  -4  -2   10.64    0.71
  -6  -4  -2   10.37    0.65
   6   4   2   10.20    0.74
   6   4   2   10.68    0.79
  -7  -4  -2    3.19    0.52
  -7  -4  -2    2.16    0.23
  -7  -4  -2    2.73    0.25
  -7  -4  -2    1.85    0.41
   7   4   2    1.57    0.48
  -8  -4  -2    1.29    0.52
  -8  -4  -2    0.35    0.19
   8   4   2    0.42    0.46
   6  -5  -2    2.37    0.61
   6  -5  -2    3.02    0.55
  -6   5   2    2.09    0.59
  -6   5   2    1.71    0.65
  -6   5   2    1.88    0.56
  -6   5   2    1.55    0.54
   5  -5  -2    0.66    0.33
  -5   5   2    0.56    0.46
  -5   5   2    1.31    0.58
  -5   5   2    1.27    0.48
  -5   5   2    0.34    0.37
   4  -5  -2    3.57    0.58
   4  -5  -2    3.47    0.53
   4  -5  -2    3.27    0.45
  -4   5   2    2.41    0.51
  -4   5   2    2.87    0.52
  -4   5   2    2.82    0.56
   3  -5  -2   -0.58    0.28
   3  -5  -2   -0.09    0.19
   3  -5  -2   -0.02    0.26
   3  -5  -2    0.02    0.19
  -3   5   2   -0.23    0.29
  -3   5   2   -0.23    0.27
  -3   5   2   -0.29    0.30
  -3   5   2    0.33    0.34
   2  -5  -2    3.76    0.40
   2  -5  -2    4.58    0.50
   2  -5  -2    4.78    0.57
   2  -5  -2    4.66    0.51
   2  -5  -2    4.67    0.45
  -2   5   2    5.25    0.55
  -2   5   2    4.50    0.49
  -2   5   2    5.20    0.59
  -2   5   2    3.62    0.50
  -2   5   2    4.90    0.53
   1  -5  -2    2.76    0.38
   1  -5  -2    3.30    0.37
   1  -5  -2    3.00    0.37
   1  -5  -2    3.15    0.43
   1  -5  -2    2.54    0.35
   1  -5  -2    3.12    0.40
  -1   5   2    2.41    0.40
  -1   5   2    2.61    0.41
  -1   5   2    2.62    0.24
  -1   5   2    2.89    0.39
  -1   5   2    3.29    0.44
  -1   5   2    2.93    0.29
  -1   5   2    3.17    0.38
   0  -5  -2    4.74    0.34
   0  -5  -2    5.29    0.47
   0  -5  -2    4.62    0.46
   0  -5  -2    4.51    0.45
   0  -5  -2    5.83    0.52
   0   5   2    4.65    0.37
   0   5   2    4.12    0.44
   0   5   2    4.76    0.52
   0   5   2    4.56    0.41
   0   5   2    4.93    0.29
  -1  -5  -2   -0.02    0.15
  -1  -5  -2    0.21    0.22
  -1  -5  -2    0.27    0.15
  -1  -5  -2   -0.02    0.14
  -1  -5  -2    0.25    0.18
  -1  -5  -2   -0.04    0.20
  -1  -5  -2    0.19    0.18
  -1  -5  -2    0.22    0.11
   1   5   2    0.10    0.18
   1   5   2    0.08    0.25
   1   5   2   -0.01    0.13
   1   5   2    0.17    0.11
   1   5   2    0.23    0.16
  -2  -5  -2   -0.21    0.16
  -2  -5  -2    0.12    0.07
  -2  -5  -2   -0.18    0.24
  -2  -5  -2    0.08    0.14
  -2  -5  -2   -0.04    0.14
  -2  -5  -2    0.01    0.10
  -2  -5  -2   -0.06    0.13
  -2  -5  -2    0.03    0.15
  -2  -5  -2    0.16    0.06
  -2  -5  -2    0.00    0.13
   2   5   2    0.19    0.15
   2   5   2    0.22    0.20
   2   5   2    0.07    0.11
   2   5   2    0.59    0.32
   2   5   2   -0.08    0.13
  -3  -5  -2    0.22    0.15
  -3  -5  -2   -0.08    0.18
  -3  -5  -2    0.06    0.11
  -3  -5  -2   -0.21    0.13
  -3  -5  -2   -0.03    0.11
  -3  -5  -2    0.03    0.13
  -3  -5  -2   -0.07    0.11
  -3  -5  -2   -0.17    0.14
   3   5   2    0.26    0.29
   3   5   2   -0.11    0.14
   3   5   2    0.05    0.20
  -4  -5  -2    2.75    0.19
  -4  -5  -2    3.05    0.35
  -4  -5  -2    3.09    0.32
  -4  -5  -2    2.56    0.35
  -4  -5  -2    2.40    0.20
  -4  -5  -2    2.76    0.19
  -4  -5  -2    2.27    0.35
  -4  -5  -2    2.53    0.33
   4   5   2    2.91    0.41
   4   5   2    2.94    0.48
  -5  -5  -2    3.80    0.41
  -5  -5  -2    3.30    0.41
  -5  -5  -2    4.19    0.44
  -5  -5  -2    3.87    0.43
   5   5   2    4.47    0.61
   5   5   2    3.14    0.48
  -6  -5  -2    4.56    0.54
  -6  -5  -2    4.41    0.48
  -6  -5  -2    5.16    0.50
   6   5   2    6.73    0.73
   6   5   2    4.47    0.60
  -7  -5  -2   11.09    0.72
  -7  -5  -2   12.51    0.85
  -7  -5  -2   12.42    0.85
   7   5   2   12.27    0.93
   7   5   2   12.17    0.97
  -8  -5  -2    2.51    0.58
  -8  -5  -2    2.69    0.22
   8   5   2    1.97    0.64
  -5   6   2    0.50    0.44
  -5   6   2    0.72    0.43
  -5   6   2    0.50    0.56
   4  -6  -2    2.13    0.59
   4  -6  -2    2.87    0.47
   4  -6  -2    2.83    0.59
  -4   6   2    2.58    0.56
  -4   6   2    2.14    0.44
  -4   6   2    2.74    0.62
  -4   6   2    2.65    0.61
   3  -6  -2    0.29    0.42
   3  -6  -2    0.05    0.23
   3  -6  -2    1.29    0.40
  -3   6   2    1.07    0.29
  -3   6   2    0.63    0.45
  -3   6   2    0.41    0.34
  -3   6   2    0.72    0.42
  -3   6   2    0.01    0.34
   2  -6  -2   11.74    0.75
   2  -6  -2   11.21    0.74
   2  -6  -2   10.61    0.82
   2  -6  -2   10.95    0.66
  -2   6   2   11.07    0.54
  -2   6   2   10.97    0.74
  -2   6   2   11.07    0.79
  -2   6   2   11.00    0.83
  -2   6   2   10.17    0.73
   1  -6  -2    0.55    0.30
   1  -6  -2    0.64    0.29
   1  -6  -2    0.42    0.26
   1  -6  -2    0.99    0.31
   1  -6  -2    0.49    0.31
  -1   6   2    0.36    0.24
  -1   6   2    0.59    0.20
  -1   6   2    1.23    0.40
  -1   6   2    0.38    0.24
  -1   6   2    0.47    0.32
  -1   6   2    1.00    0.35
  -1   6   2    0.66    0.16
   0  -6  -2   23.28    0.78
   0  -6  -2   21.84    0.91
   0  -6  -2   22.48    0.94
   0  -6  -2   22.38    0.91
   0  -6  -2   22.22    0.91
   0   6   2   23.85    0.68
   0   6   2   24.37    0.85
   0   6   2   23.17    0.96
   0   6   2   23.73    1.03
   0   6   2   21.96    0.83
  -1  -6  -2   43.90    1.23
  -1  -6  -2   44.10    1.30
  -1  -6  -2   43.15    1.24
  -1  -6  -2   43.84    1.10
  -1  -6  -2   43.23    1.36
  -1  -6  -2   42.67    1.16
  -1  -6  -2   43.59    1.29
   1   6   2   43.24    1.17
   1   6   2   43.32    1.13
   1   6   2   43.44    0.96
   1   6   2   42.24    1.42
   1   6   2   44.83    1.27
  -2  -6  -2    3.07    0.40
  -2  -6  -2    2.63    0.28
  -2  -6  -2    3.03    0.33
  -2  -6  -2    2.98    0.45
  -2  -6  -2    2.58    0.32
  -2  -6  -2    2.87    0.35
  -2  -6  -2    2.47    0.33
  -2  -6  -2    2.98    0.22
   2   6   2    3.39    0.34
   2   6   2    2.74    0.46
   2   6   2    2.20    0.28
   2   6   2    2.88    0.22
  -3  -6  -2   25.85    0.79
  -3  -6  -2   24.58    0.79
  -3  -6  -2   23.78    0.82
  -3  -6  -2   24.64    0.62
  -3  -6  -2   24.93    1.04
  -3  -6  -2   26.15    0.77
  -3  -6  -2   25.85    0.70
  -3  -6  -2   24.58    0.91
  -3  -6  -2   24.72    0.77
   3   6   2   24.33    0.94
   3   6   2   24.77    1.09
   3   6   2   24.66    0.84
  -4  -6  -2    0.08    0.14
  -4  -6  -2    0.35    0.28
  -4  -6  -2    0.21    0.19
  -4  -6  -2    0.38    0.31
  -4  -6  -2    0.23    0.18
  -4  -6  -2   -0.20    0.18
  -4  -6  -2    0.10    0.15
  -4  -6  -2    0.04    0.13
   4   6   2    0.48    0.31
   4   6   2    0.11    0.33
  -5  -6  -2    7.86    0.57
  -5  -6  -2    8.69    0.34
  -5  -6  -2    8.24    0.27
  -5  -6  -2    9.32    0.76
  -5  -6  -2    9.46    0.59
  -5  -6  -2    8.03    0.57
  -5  -6  -2    9.17    0.35
  -5  -6  -2    8.64    0.56
  -5  -6  -2    8.58    0.53
   5   6   2    9.19    0.75
   5   6   2    8.48    0.67
  -6  -6  -2    9.26    0.67
  -6  -6  -2    9.95    0.79
  -6  -6  -2    8.25    0.62
  -6  -6  -2    9.91    0.62
  -6  -6  -2    8.95    0.27
  -6  -6  -2   10.09    0.65
  -6  -6  -2    8.83    0.27
   6   6   2    9.08    0.88
   6   6   2   10.19    0.87
  -7  -6  -2    5.76    0.73
  -7  -6  -2    7.53    0.81
  -7  -6  -2    7.30    0.75
  -7  -6  -2    6.21    0.61
  -7  -6  -2    9.07    0.71
  -7  -6  -2    6.74    0.66
   7   6   2    6.83    0.83
   7   6   2    6.92    0.82
  -8  -6  -2    1.42    0.52
  -8  -6  -2    1.71    0.48
   8   6   2    1.93    0.59
   4  -7  -2    2.07    0.58
   4  -7  -2    3.59    0.73
  -4   7   2    2.45    0.64
  -4   7   2    2.43    0.70
   3  -7  -2    0.27    0.46
   3  -7  -2    0.73    0.42
  -3   7   2    0.43    0.48
  -3   7   2   -0.20    0.47
  -3   7   2    0.35    0.42
   2  -7  -2    2.62    0.44
   2  -7  -2    2.61    0.50
   2  -7  -2    2.44    0.52
  -2   7   2    2.40    0.55
  -2   7   2    1.77    0.51
  -2   7   2    3.78    0.63
   1  -7  -2    2.68    0.54
   1  -7  -2    2.23    0.46
   1  -7  -2    2.34    0.45
   1  -7  -2    1.62    0.37
  -1   7   2    3.19    0.57
  -1   7   2    2.48    0.50
   0  -7  -2    0.57    0.31
   0  -7  -2    0.45    0.32
   0  -7  -2    0.03    0.28
   0  -7  -2    0.11    0.20
   0  -7  -2    0.20    0.29
   0   7   2   -0.10    0.30
   0   7   2    0.76    0.28
   0   7   2    0.54    0.37
  -1  -7  -2    6.39    0.41
  -1  -7  -2    7.06    0.64
  -1  -7  -2    7.63    0.59
  -1  -7  -2    7.01    0.58
  -1  -7  -2    6.78    0.50
  -1  -7  -2    6.41    0.65
   1   7   2    7.02    0.58
   1   7   2    8.11    0.52
   1   7   2    7.33    0.79
  -2  -7  -2    6.61    0.41
  -2  -7  -2    6.82    0.56
  -2  -7  -2    6.78    0.48
  -2  -7  -2    6.83    0.57
  -2  -7  -2    7.18    0.54
  -2  -7  -2    7.38    0.30
  -2  -7  -2    7.21    0.72
   2   7   2    6.55    0.47
   2   7   2    6.97    0.76
   2   7   2    6.64    0.49
  -3  -7  -2    1.30    0.36
  -3  -7  -2    1.30    0.25
  -3  -7  -2    1.49    0.30
  -3  -7  -2    1.29    0.29
  -3  -7  -2    1.28    0.30
  -3  -7  -2    1.61    0.20
  -3  -7  -2    1.24    0.40
   3   7   2    1.38    0.29
   3   7   2    1.49    0.45
   3   7   2    1.75    0.42
  -4  -7  -2   10.72    0.66
  -4  -7  -2    8.92    0.50
  -4  -7  -2    9.66    0.49
  -4  -7  -2    9.87    0.46
  -4  -7  -2    9.40    0.50
  -4  -7  -2   10.71    0.61
  -4  -7  -2    9.85    0.81
  -4  -7  -2    9.11    0.50
   4   7   2   10.16    0.82
   4   7   2    9.46    0.72
  -5  -7  -2    0.53    0.27
  -5  -7  -2    0.44    0.26
  -5  -7  -2    0.11    0.18
  -5  -7  -2   -0.06    0.24
  -5  -7  -2   -0.08    0.38
  -5  -7  -2    0.18    0.16
  -5  -7  -2    0.23    0.15
   5   7   2    0.03    0.35
   5   7   2    0.79    0.47
  -6  -7  -2    5.08    0.30
  -6  -7  -2    4.95    0.51
  -6  -7  -2    4.77    0.29
  -6  -7  -2    4.18    0.54
  -6  -7  -2    5.34    0.73
   6   7   2    5.59    0.79
   6   7   2    4.79    0.67
  -7  -7  -2    3.48    0.55
  -7  -7  -2    2.69    0.59
   7   7   2    2.95    0.68
   7   7   2    2.63    0.65
   4  -8  -2    1.04    0.63
   4  -8  -2    1.37    0.52
  -4   8   2    0.44    0.56
  -4   8   2    1.03    0.66
   3  -8  -2    0.99    0.60
   3  -8  -2    2.40    0.63
  -3   8   2    0.83    0.55
   2  -8  -2    7.59    0.92
   2  -8  -2    5.59    0.74
   2  -8  -2    6.14    0.68
  -2   8   2    6.71    0.83
  -2   8   2    4.32    0.67
   1  -8  -2    0.29    0.35
   1  -8  -2   -0.13    0.33
   1  -8  -2   -0.29    0.30
   1  -8  -2   -0.20    0.39
  -1   8   2    0.03    0.46
  -1   8   2   -0.35    0.36
   0  -8  -2    4.43    0.61
   0  -8  -2    6.15    0.65
   0  -8  -2    5.37    0.69
   0  -8  -2    5.05    0.63
   0   8   2    4.44    0.61
   0   8   2    4.71    0.74
  -1  -8  -2    1.12    0.37
  -1  -8  -2    1.03    0.39
  -1  -8  -2    1.47    0.28
  -1  -8  -2    0.87    0.39
  -1  -8  -2    1.15    0.40
   1   8   2    0.58    0.32
   1   8   2    0.55    0.43
   1   8   2    0.73    0.29
  -2  -8  -2    3.40    0.36
  -2  -8  -2    3.18    0.60
  -2  -8  -2    4.27    0.56
  -2  -8  -2    3.56    0.50
  -2  -8  -2    3.50    0.48
  -2  -8  -2    3.08    0.43
   2   8   2    3.27    0.62
   2   8   2    3.79    0.45
  -3  -8  -2   14.78    0.78
  -3  -8  -2   15.96    0.98
  -3  -8  -2   15.18    0.88
  -3  -8  -2   16.25    0.76
  -3  -8  -2   15.11    0.76
   3   8   2   15.93    0.76
   3   8   2   15.12    1.03
  -4  -8  -2    2.76    0.38
  -4  -8  -2    2.94    0.38
  -4  -8  -2    2.91    0.42
  -4  -8  -2    3.10    0.53
  -4  -8  -2    2.98    0.63
   4   8   2    1.81    0.47
   4   8   2    2.31    0.61
  -5  -8  -2    6.27    0.83
  -5  -8  -2    4.67    0.40
  -5  -8  -2    6.23    0.46
  -5  -8  -2    6.08    0.66
   5   8   2    5.31    0.80
   5   8   2    5.03    0.67
  -6  -8  -2    8.14    0.91
  -6  -8  -2    7.97    0.46
  -6  -8  -2    8.28    0.66
   6   8   2    8.45    0.93
   6   8   2    7.17    0.88
  -7  -8  -2    3.15    0.27
  -7  -8  -2    3.17    0.64
   7   8   2    2.58    0.68
   7   8   2    3.86    0.79
   3  -9  -2    0.01    0.49
   3  -9  -2   -0.53    0.49
  -3   9   2   -0.74    0.42
   2  -9  -2    1.18    0.58
   2  -9  -2    2.56    0.62
  -2   9   2    1.85    0.66
  -2   9   2    1.21    0.58
   1  -9  -2    1.29    0.47
   1  -9  -2    1.30    0.57
   1  -9  -2    1.58    0.53
  -1   9   2   -0.09    0.40
  -1   9   2    0.75    0.55
   0  -9  -2    0.47    0.36
   0  -9  -2   -0.21    0.33
   0  -9  -2    0.56    0.47
   0  -9  -2    0.12    0.37
   0   9   2   -0.13    0.45
   0   9   2   -0.03    0.36
  -1  -9  -2   15.18    0.95
  -1  -9  -2   16.09    1.02
  -1  -9  -2   15.45    1.05
  -1  -9  -2   15.46    0.96
   1   9   2   14.22    1.07
  -2  -9  -2    0.46    0.37
  -2  -9  -2    0.62    0.39
  -2  -9  -2    0.53    0.40
  -2  -9  -2    0.53    0.32
  -2  -9  -2    0.18    0.36
   2   9   2    0.03    0.43
  -3  -9  -2    0.24    0.35
  -3  -9  -2    0.01    0.31
  -3  -9  -2    0.15    0.29
  -3  -9  -2   -0.25    0.39
   3   9   2    0.46    0.51
  -4  -9  -2    8.23    0.64
  -4  -9  -2    7.53    0.62
  -4  -9  -2    8.50    0.79
  -4  -9  -2    9.42    0.96
   4   9   2    8.38    1.02
  -5  -9  -2    1.67    0.60
  -5  -9  -2    1.71    0.36
  -5  -9  -2    2.01    0.34
  -5  -9  -2    1.98    0.46
   5   9   2    1.01    0.48
   5   9   2    1.21    0.57
  -6  -9  -2    1.65    0.46
  -6  -9  -2    1.02    0.53
  -6  -9  -2    1.24    0.29
   6   9   2    1.46    0.66
   6   9   2    0.22    0.45
   1 -10  -2   11.97    1.12
   1 -10  -2   14.47    1.09
   1 -10  -2   14.54    1.18
  -1  10   2   12.64    1.27
   0 -10  -2    7.80    0.97
   0 -10  -2    7.42    0.88
   0 -10  -2    7.92    0.91
   0 -10  -2    7.53    0.89
   0  10   2    6.27    0.93
  -1 -10  -2    2.58    0.65
  -1 -10  -2    2.24    0.59
  -1 -10  -2    2.09    0.59
  -1 -10  -2    2.09    0.58
   1  10   2    2.10    0.71
  -2 -10  -2    7.64    0.82
  -2 -10  -2    7.09    0.92
  -2 -10  -2   10.20    0.92
  -2 -10  -2    8.55    0.88
   2  10   2    6.44    0.93
  -3 -10  -2   15.94    1.02
  -3 -10  -2   14.85    0.94
  -3 -10  -2   14.96    0.94
  -3 -10  -2   17.36    1.23
   3  10   2   12.60    1.20
  -4 -10  -2    0.88    0.38
  -4 -10  -2    1.45    0.42
  -4 -10  -2    0.82    0.47
  -4 -10  -2    1.18    0.59
   4  10   2    1.19    0.59
  -5 -10  -2   -0.74    0.35
  -5 -10  -2    0.10    0.48
  -5 -10  -2    0.29    0.31
  -5 -10  -2    0.37    0.40
   5  10   2   -0.14    0.52
  -6 -10  -2    2.05    0.40
  -6 -10  -2    2.40    0.70
  -6 -10  -2    4.17    0.83
   6  10   2    2.18    0.69
  -1 -11  -2    4.65    0.79
  -1 -11  -2    6.02    0.88
  -1 -11  -2    4.08    0.77
  -1 -11  -2    5.33    0.81
   1  11   2    4.01    0.85
  -2 -11  -2    0.72    0.50
  -2 -11  -2    0.56    0.50
  -2 -11  -2    0.52    0.46
  -2 -11  -2    0.14    0.44
   2  11   2    0.19    0.58
  -3 -11  -2    0.27    0.43
  -3 -11  -2   -0.07    0.45
  -3 -11  -2   -0.39    0.44
  -3 -11  -2    0.01    0.39
   3  11   2    0.27    0.56
  -4 -11  -2    7.88    0.81
  -4 -11  -2    7.32    0.89
  -4 -11  -2   10.46    0.88
  -4 -11  -2    6.24    0.99
   4  11   2    5.78    0.99
  -3 -11   3    3.73    0.70
   2  11  -3    3.08    0.82
  -2 -11   3    5.12    0.94
  -2 -11   3    2.73    0.69
  -2 -11   3    3.47    0.62
  -2 -11   3    3.34    0.66
   5  10  -3    0.13    0.58
  -5 -10   3    1.36    0.66
  -5 -10   3   -0.17    0.30
  -5 -10   3    0.25    0.34
   4  10  -3    6.19    0.96
  -4 -10   3    8.13    1.04
  -4 -10   3    9.17    0.85
  -4 -10   3    8.13    0.76
   3  10  -3    0.21    0.59
  -3 -10   3    0.02    0.48
  -3 -10   3    0.09    0.37
  -3 -10   3    0.03    0.35
  -3 -10   3    0.45    0.46
   2  10  -3    0.06    0.52
  -2 -10   3    0.05    0.41
  -2 -10   3   -0.50    0.41
  -2 -10   3   -0.51    0.41
  -2 -10   3    0.38    0.46
   1  10  -3   -0.22    0.48
  -1 -10   3   -0.03    0.44
  -1 -10   3    0.22    0.47
  -1 -10   3   -0.12    0.44
  -1 -10   3    0.41    0.41
   0  10  -3    2.71    0.73
   0 -10   3    4.37    0.76
   0 -10   3    3.90    0.75
   0 -10   3    4.48    0.87
   0 -10   3    5.12    0.73
  -1  10  -3   -0.02    0.61
   1 -10   3   -0.17    0.50
   1 -10   3   -0.33    0.46
   1 -10   3    0.54    0.50
   6   9  -3    0.29    0.57
  -6  -9   3    0.72    0.55
  -6  -9   3    0.97    0.35
   5   9  -3    0.03    0.47
  -5  -9   3   -0.64    0.42
  -5  -9   3    0.49    0.33
  -5  -9   3   -0.04    0.28
   4   9  -3    0.51    0.48
  -4  -9   3    0.14    0.50
  -4  -9   3    0.10    0.32
  -4  -9   3    0.40    0.36
   3   9  -3    0.33    0.51
  -3  -9   3    1.48    0.39
  -3  -9   3    0.40    0.44
  -3  -9   3    0.55    0.40
  -3  -9   3    0.76    0.40
   2   9  -3    7.22    0.95
  -2  -9   3    9.45    0.80
  -2  -9   3    9.14    0.99
  -2  -9   3    7.62    0.73
  -2  -9   3    7.88    0.80
   1   9  -3   -0.47    0.44
  -1  -9   3    0.27    0.40
  -1  -9   3   -0.25    0.38
  -1  -9   3    0.25    0.39
  -1  -9   3    0.13    0.33
   0   9  -3   -0.06    0.34
   0   9  -3   -0.11    0.45
   0  -9   3    0.43    0.40
   0  -9   3    0.41    0.38
   0  -9   3   -0.27    0.41
   0  -9   3    0.22    0.40
  -1   9  -3    2.48    0.63
  -1   9  -3    3.29    0.73
   1  -9   3    3.33    0.61
   1  -9   3    3.14    0.63
   1  -9   3    3.04    0.70
  -2   9  -3    1.09    0.66
  -2   9  -3   -0.17    0.43
   2  -9   3    1.06    0.51
   2  -9   3    1.00    0.52
   2  -9   3    0.87    0.59
   7   8  -3    5.20    0.89
  -7  -8   3    6.40    0.52
   6   8  -3   -0.08    0.48
   6   8  -3    0.61    0.50
  -6  -8   3   -0.16    0.23
  -6  -8   3    0.74    0.47
   5   8  -3    0.14    0.40
  -5  -8   3   -0.48    0.36
  -5  -8   3    0.14    0.26
  -5  -8   3    0.22    0.25
   4   8  -3   10.39    0.92
  -4  -8   3   12.24    0.73
  -4  -8   3   11.23    0.66
  -4  -8   3   11.38    0.71
  -4  -8   3   11.75    0.98
   3   8  -3    0.02    0.39
  -3  -8   3   -0.17    0.26
  -3  -8   3    0.00    0.29
  -3  -8   3   -0.09    0.30
  -3  -8   3   -0.03    0.36
   2   8  -3    2.64    0.58
  -2  -8   3    3.32    0.52
  -2  -8   3    2.51    0.49
  -2  -8   3    2.50    0.44
  -2  -8   3    2.76    0.56
   1   8  -3   -0.01    0.26
   1   8  -3    0.27    0.40
  -1  -8   3    0.15    0.29
  -1  -8   3    0.29    0.35
  -1  -8   3    0.17    0.36
  -1  -8   3    0.14    0.36
   0   8  -3    5.08    0.66
   0   8  -3    4.33    0.69
   0  -8   3    5.29    0.66
   0  -8   3    5.23    0.71
   0  -8   3    5.31    0.72
   0  -8   3    4.89    0.65
  -1   8  -3    7.22    0.82
  -1   8  -3    8.41    0.96
   1  -8   3    7.06    0.75
   1  -8   3    6.89    0.82
   1  -8   3    7.63    0.77
   1  -8   3    7.74    0.82
  -2   8  -3    0.41    0.52
  -2   8  -3    0.65    0.46
   2  -8   3    0.12    0.44
   2  -8   3   -0.01    0.38
   2  -8   3    0.01    0.40
  -3   8  -3    8.92    1.07
  -3   8  -3   10.42    1.09
   3  -8   3   11.68    1.12
   3  -8   3   11.01    0.94
   3  -8   3    8.26    0.94
   7   7  -3    5.92    0.86
  -7  -7   3    8.40    0.53
  -7  -7   3    8.54    1.06
   6   7  -3    0.76    0.43
   6   7  -3    0.41    0.37
   6   7  -3   -0.02    0.40
  -6  -7   3   -0.20    0.35
  -6  -7   3    0.28    0.23
   5   7  -3    1.25    0.49
   5   7  -3    0.97    0.44
  -5  -7   3    0.49    0.25
  -5  -7   3    0.59    0.26
  -5  -7   3    0.92    0.46
   4   7  -3    7.97    0.84
  -4  -7   3    8.47    0.57
  -4  -7   3    8.46    0.57
  -4  -7   3    9.02    0.55
  -4  -7   3    8.93    0.76
   3   7  -3   10.88    0.83
  -3  -7   3   10.84    0.65
  -3  -7   3   10.32    0.73
  -3  -7   3   11.17    0.61
  -3  -7   3   10.84    0.81
  -3  -7   3   10.27    0.67
   2   7  -3    0.75    0.40
   2   7  -3    0.28    0.22
  -2  -7   3    0.40    0.30
  -2  -7   3    0.56    0.29
  -2  -7   3    0.36    0.26
  -2  -7   3    0.68    0.36
  -2  -7   3    0.54    0.29
   1   7  -3    0.66    0.41
   1   7  -3    0.52    0.27
  -1  -7   3    0.45    0.29
  -1  -7   3    0.08    0.31
  -1  -7   3    0.09    0.31
  -1  -7   3    0.40    0.30
  -1  -7   3    0.61    0.28
   0   7  -3    1.52    0.40
   0   7  -3    1.17    0.22
   0   7  -3    1.30    0.44
   0  -7   3    1.06    0.35
   0  -7   3    1.59    0.43
   0  -7   3    1.20    0.38
   0  -7   3    1.63    0.41
   0  -7   3    0.87    0.38
  -1   7  -3    0.11    0.32
  -1   7  -3   -0.36    0.39
  -1   7  -3   -0.06    0.18
   1  -7   3   -0.06    0.31
   1  -7   3   -0.11    0.33
   1  -7   3    0.51    0.33
   1  -7   3    0.08    0.37
  -2   7  -3    8.49    0.56
  -2   7  -3    7.01    0.79
  -2   7  -3    8.50    0.94
   2  -7   3    9.12    0.80
   2  -7   3    8.53    0.81
   2  -7   3   11.53    0.91
  -3   7  -3    5.75    0.83
  -3   7  -3    6.64    0.85
   3  -7   3    6.64    0.76
   3  -7   3    7.29    0.84
   3  -7   3    8.76    0.92
  -4   7  -3    0.26    0.54
  -4   7  -3   -0.15    0.45
   4  -7   3   -0.22    0.50
   7   6  -3   12.80    1.20
   7   6  -3   10.95    0.83
  -7  -6   3   12.28    0.58
  -7  -6   3   13.07    1.12
   6   6  -3    4.12    0.59
   6   6  -3    3.55    0.63
   6   6  -3    3.88    0.60
  -6  -6   3    4.22    0.38
  -6  -6   3    3.70    0.55
   5   6  -3   -0.09    0.28
   5   6  -3    0.19    0.35
   5   6  -3    0.02    0.31
  -5  -6   3    0.55    0.36
  -5  -6   3    0.26    0.20
  -5  -6   3    0.20    0.20
   4   6  -3   19.50    1.01
   4   6  -3   20.10    0.98
   4   6  -3   20.52    0.92
  -4  -6   3   20.47    0.76
  -4  -6   3   20.95    0.74
  -4  -6   3   21.23    0.63
  -4  -6   3   20.47    0.95
  -4  -6   3   22.01    1.03
  -4  -6   3   20.12    0.74
   3   6  -3    3.77    0.46
   3   6  -3    3.24    0.52
  -3  -6   3    3.63    0.37
  -3  -6   3    3.99    0.42
  -3  -6   3    3.64    0.39
  -3  -6   3    3.48    0.52
  -3  -6   3    4.00    0.39
  -3  -6   3    3.51    0.47
   2   6  -3    2.72    0.40
   2   6  -3    1.81    0.29
   2   6  -3    2.77    0.51
  -2  -6   3    2.31    0.33
  -2  -6   3    1.77    0.34
  -2  -6   3    1.61    0.32
  -2  -6   3    1.75    0.36
  -2  -6   3    2.15    0.33
  -2  -6   3    2.14    0.37
  -2  -6   3    1.85    0.40
   1   6  -3    3.44    0.43
   1   6  -3    3.33    0.29
   1   6  -3    2.72    0.38
   1   6  -3    2.67    0.49
  -1  -6   3    2.98    0.38
  -1  -6   3    2.89    0.43
  -1  -6   3    1.74    0.40
  -1  -6   3    1.81    0.35
  -1  -6   3    2.95    0.37
  -1  -6   3    3.37    0.44
   0   6  -3   17.00    0.82
   0   6  -3   17.57    0.61
   0   6  -3   17.52    0.86
   0   6  -3   16.68    0.92
   0   6  -3   17.08    0.75
   0  -6   3   17.03    0.81
   0  -6   3   17.15    0.78
   0  -6   3   17.52    0.84
   0  -6   3   17.22    0.90
   0  -6   3   17.76    0.78
   0  -6   3   16.79    0.87
  -1   6  -3    8.42    0.36
  -1   6  -3    8.37    0.48
  -1   6  -3    7.67    0.59
  -1   6  -3    7.19    0.68
  -1   6  -3    8.75    0.69
   1  -6   3    8.39    0.61
   1  -6   3    7.81    0.64
   1  -6   3    7.08    0.69
   1  -6   3    9.08    0.75
  -2   6  -3    1.13    0.42
  -2   6  -3    1.58    0.49
  -2   6  -3    0.87    0.29
  -2   6  -3    1.02    0.23
  -2   6  -3    1.09    0.36
   2  -6   3    0.67    0.32
   2  -6   3    0.91    0.35
   2  -6   3    1.59    0.43
   2  -6   3    1.56    0.48
  -3   6  -3    8.40    0.79
  -3   6  -3    5.90    0.73
  -3   6  -3    8.11    0.88
  -3   6  -3    7.17    0.64
   3  -6   3    6.98    0.71
   3  -6   3    7.25    0.81
   3  -6   3    6.42    0.73
  -4   6  -3    1.78    0.53
  -4   6  -3    2.66    0.55
  -4   6  -3    2.37    0.50
  -4   6  -3    2.42    0.60
   4  -6   3    1.88    0.57
   4  -6   3    1.60    0.45
  -5   6  -3    0.08    0.43
  -5   6  -3    0.94    0.52
   5  -6   3    0.70    0.45
   8   5  -3    0.57    0.49
  -8  -5   3    0.15    0.55
  -8  -5   3    0.60    0.26
   7   5  -3    2.65    0.63
   7   5  -3    2.83    0.54
  -7  -5   3    2.58    0.34
  -7  -5   3    2.56    0.63
   6   5  -3    2.94    0.56
   6   5  -3    3.72    0.53
  -6  -5   3    3.19    0.31
  -6  -5   3    3.01    0.47
  -6  -5   3    3.35    0.64
  -6  -5   3    3.50    0.35
   5   5  -3    8.01    0.79
   5   5  -3    7.64    0.61
   5   5  -3    8.00    0.62
  -5  -5   3    7.73    0.44
  -5  -5   3    7.91    0.44
  -5  -5   3    8.65    0.46
  -5  -5   3    8.01    0.47
  -5  -5   3    6.68    0.62
  -5  -5   3    6.98    0.43
   4   5  -3    0.66    0.30
   4   5  -3    0.06    0.22
   4   5  -3    0.18    0.28
  -4  -5   3    0.53    0.20
  -4  -5   3    0.22    0.28
  -4  -5   3    0.42    0.18
  -4  -5   3    0.11    0.17
  -4  -5   3    0.33    0.19
  -4  -5   3    0.68    0.30
   3   5  -3    5.00    0.30
   3   5  -3    4.97    0.49
   3   5  -3    5.66    0.49
   3   5  -3    4.77    0.48
   3   5  -3    5.12    0.56
  -3  -5   3    4.89    0.36
  -3  -5   3    4.67    0.33
  -3  -5   3    4.82    0.51
  -3  -5   3    4.52    0.25
  -3  -5   3    5.12    0.39
  -3  -5   3    5.19    0.22
  -3  -5   3    4.69    0.48
  -3  -5   3    4.80    0.39
  -3  -5   3    5.59    0.21
   2   5  -3   25.18    0.80
   2   5  -3   26.98    0.94
   2   5  -3   26.05    1.02
  -2  -5   3   25.68    0.84
  -2  -5   3   23.94    0.84
  -2  -5   3   24.25    0.92
  -2  -5   3   26.45    0.78
  -2  -5   3   25.74    0.83
  -2  -5   3   26.18    0.99
   1   5  -3   -0.20    0.13
   1   5  -3    0.25    0.20
   1   5  -3    0.15    0.14
   1   5  -3   -0.03    0.18
   1   5  -3    0.09    0.26
  -1  -5   3    0.06    0.26
  -1  -5   3    0.01    0.20
  -1  -5   3   -0.19    0.18
  -1  -5   3   -0.01    0.20
  -1  -5   3    0.07    0.17
  -1  -5   3    0.24    0.20
  -1  -5   3   -0.10    0.20
   0   5  -3   13.58    0.33
   0   5  -3   14.03    0.63
   0   5  -3   13.67    0.52
   0   5  -3   13.90    0.71
   0   5  -3   14.56    0.77
   0   5  -3   13.40    0.65
   0  -5   3   13.03    0.68
   0  -5   3   13.19    0.65
   0  -5   3   14.22    0.73
   0  -5   3   13.70    0.64
   0  -5   3   14.84    0.66
   0  -5   3   14.02    0.67
  -1   5  -3    2.87    0.40
  -1   5  -3    2.59    0.23
  -1   5  -3    2.45    0.41
  -1   5  -3    2.48    0.31
  -1   5  -3    2.93    0.40
   1  -5   3    1.97    0.35
   1  -5   3    2.44    0.41
   1  -5   3    3.12    0.40
   1  -5   3    2.53    0.42
   1  -5   3    3.14    0.39
   1  -5   3    2.69    0.39
  -2   5  -3    0.24    0.30
  -2   5  -3    0.17    0.22
  -2   5  -3   -0.01    0.23
   2  -5   3    0.29    0.28
   2  -5   3    0.33    0.27
   2  -5   3   -0.54    0.24
   2  -5   3   -0.27    0.25
  -3   5  -3    0.63    0.38
  -3   5  -3    1.03    0.34
  -3   5  -3    0.76    0.35
   3  -5   3    0.56    0.35
   3  -5   3    0.29    0.32
   3  -5   3    1.09    0.37
  -4   5  -3    0.49    0.36
  -4   5  -3    0.33    0.35
  -4   5  -3    0.53    0.41
  -4   5  -3    0.29    0.29
   4  -5   3    0.28    0.32
   4  -5   3    0.46    0.42
  -5   5  -3    1.44    0.49
  -5   5  -3    0.60    0.41
  -5   5  -3    0.84    0.51
  -5   5  -3   -0.03    0.37
  -5   5  -3    0.17    0.38
   5  -5   3    0.39    0.38
  -6   5  -3    0.92    0.52
  -6   5  -3    1.52    0.56
  -6   5  -3    0.90    0.51
   6  -5   3    0.35    0.46
   8   4  -3    0.80    0.50
  -8  -4   3    0.41    0.26
  -8  -4   3    1.13    0.56
   7   4  -3    0.42    0.39
   7   4  -3    0.96    0.43
  -7  -4   3    1.20    0.52
   6   4  -3    0.69    0.36
   6   4  -3    0.28    0.29
  -6  -4   3    0.47    0.40
  -6  -4   3    0.12    0.17
  -6  -4   3    0.22    0.20
   5   4  -3    2.03    0.42
   5   4  -3    2.78    0.39
   5   4  -3    2.03    0.39
  -5  -4   3    2.21    0.27
  -5  -4   3    2.93    0.39
  -5  -4   3    1.90    0.25
  -5  -4   3    2.20    0.43
  -5  -4   3    1.98    0.26
  -5  -4   3    1.38    0.42
  -5  -4   3    2.15    0.27
  -5  -4   3    1.84    0.25
   4   4  -3   13.12    0.70
   4   4  -3   12.85    0.66
   4   4  -3   13.58    0.69
  -4  -4   3   13.41    0.50
  -4  -4   3   12.44    0.47
  -4  -4   3   11.80    0.48
  -4  -4   3   11.69    0.50
  -4  -4   3   12.88    0.70
  -4  -4   3   12.35    0.63
   3   4  -3   -0.08    0.20
   3   4  -3    0.13    0.20
   3   4  -3    0.01    0.19
   3   4  -3    0.21    0.20
  -3  -4   3   -0.01    0.13
  -3  -4   3   -0.02    0.20
  -3  -4   3   -0.15    0.14
  -3  -4   3   -0.19    0.13
  -3  -4   3    0.28    0.21
  -3  -4   3    0.02    0.13
  -3  -4   3    0.07    0.14
   2   4  -3   14.92    0.54
   2   4  -3   16.40    0.66
   2   4  -3   14.86    0.68
   2   4  -3   15.10    0.67
   2   4  -3   15.54    0.65
  -2  -4   3   14.98    0.65
  -2  -4   3   15.04    0.59
  -2  -4   3   14.80    0.67
  -2  -4   3   15.23    0.50
  -2  -4   3   14.37    0.54
  -2  -4   3   13.73    0.55
  -2  -4   3   15.37    0.39
   1   4  -3   23.50    0.70
   1   4  -3   22.62    0.76
   1   4  -3   22.92    0.67
   1   4  -3   23.63    0.88
   1   4  -3   23.55    0.80
  -1  -4   3   24.75    0.77
  -1  -4   3   22.75    0.80
  -1  -4   3   25.17    0.77
  -1  -4   3   24.80    0.76
  -1  -4   3   23.23    0.70
  -1  -4   3   24.01    0.87
  -1  -4   3   22.93    0.79
   0   4  -3    8.21    0.27
   0   4  -3    7.54    0.51
   0   4  -3    8.16    0.25
   0   4  -3    7.80    0.39
   0   4  -3    7.69    0.45
   0   4  -3    8.15    0.47
   0  -4   3    8.21    0.50
   0  -4   3    8.51    0.46
   0  -4   3    8.43    0.52
   0  -4   3    8.21    0.52
   0  -4   3    8.01    0.49
   0  -4   3    8.63    0.46
  -1   4  -3    8.78    0.37
  -1   4  -3    9.30    0.46
  -1   4  -3    9.60    0.54
  -1   4  -3    9.07    0.53
  -1   4  -3    8.75    0.59
   1  -4   3    9.04    0.52
   1  -4   3   10.25    0.59
   1  -4   3   10.72    0.53
   1  -4   3    9.64    0.57
   1  -4   3   10.05    0.57
   1  -4   3    9.95    0.59
  -2   4  -3    7.99    0.55
  -2   4  -3    8.49    0.51
  -2   4  -3    8.21    0.56
  -2   4  -3    8.20    0.54
  -2   4  -3    8.84    0.62
   2  -4   3    8.39    0.61
   2  -4   3    8.59    0.52
   2  -4   3    8.15    0.57
   2  -4   3    8.80    0.59
   2  -4   3    8.38    0.54
  -3   4  -3    0.09    0.26
  -3   4  -3   -0.05    0.21
  -3   4  -3    0.07    0.27
  -3   4  -3   -0.36    0.27
  -3   4  -3    0.03    0.25
   3  -4   3   -0.18    0.24
   3  -4   3   -0.07    0.20
   3  -4   3    0.16    0.31
  -4   4  -3    8.52    0.63
  -4   4  -3    9.47    0.68
  -4   4  -3    7.13    0.68
  -4   4  -3    7.25    0.73
  -4   4  -3    9.58    0.68
   4  -4   3    8.21    0.60
   4  -4   3    9.86    0.75
  -5   4  -3    0.36    0.41
  -5   4  -3    0.42    0.37
  -5   4  -3    0.50    0.36
  -5   4  -3    0.25    0.37
   5  -4   3    0.31    0.32
  -6   4  -3    1.25    0.50
  -6   4  -3    2.19    0.57
  -6   4  -3    1.81    0.50
   6  -4   3    1.63    0.57
   8   3  -3    3.25    0.60
   8   3  -3    2.75    0.67
  -8  -3   3    2.35    0.41
  -8  -3   3    1.18    0.64
   7   3  -3    0.35    0.42
   7   3  -3    0.95    0.40
  -7  -3   3    0.53    0.25
  -7  -3   3    0.13    0.20
  -7  -3   3   -0.08    0.47
   6   3  -3   17.79    0.97
   6   3  -3   18.34    0.91
  -6  -3   3   18.73    0.70
  -6  -3   3   19.25    0.71
  -6  -3   3   17.24    1.02
   5   3  -3   40.70    1.31
   5   3  -3   39.67    1.35
  -5  -3   3   37.52    1.36
  -5  -3   3   40.37    0.96
  -5  -3   3   39.85    1.02
  -5  -3   3   41.35    1.11
  -5  -3   3   39.86    1.36
  -5  -3   3   39.49    1.02
  -5  -3   3   39.62    1.04
   4   3  -3    1.68    0.32
   4   3  -3    1.34    0.11
   4   3  -3    1.25    0.30
   4   3  -3    1.75    0.28
  -4  -3   3    1.41    0.21
  -4  -3   3    1.52    0.21
  -4  -3   3    1.67    0.37
  -4  -3   3    1.41    0.22
  -4  -3   3    1.50    0.34
  -4  -3   3    1.73    0.22
  -4  -3   3    1.29    0.26
  -4  -3   3    1.24    0.19
   3   3  -3   48.34    1.27
   3   3  -3   46.97    1.22
   3   3  -3   47.73    1.29
  -3  -3   3   46.90    1.07
  -3  -3   3   47.95    0.99
  -3  -3   3   48.11    1.30
  -3  -3   3   49.51    1.11
  -3  -3   3   45.71    1.09
  -3  -3   3   47.10    1.20
  -3  -3   3   46.36    1.06
   2   3  -3   95.35    1.86
   2   3  -3   96.45    2.03
   2   3  -3   94.30    2.02
   2   3  -3   98.15    2.05
   2   3  -3   97.10    2.03
  -2  -3   3   93.02    1.74
  -2  -3   3   93.40    2.00
  -2  -3   3   97.63    1.92
  -2  -3   3   93.95    1.86
  -2  -3   3   93.12    1.76
  -2  -3   3   92.25    1.89
  -2  -3   3   93.23    1.85
  -2  -3   3   95.60    1.71
  -2  -3   3   90.48    2.01
   1   3  -3    0.41    0.24
   1   3  -3    0.44    0.16
   1   3  -3    0.28    0.13
   1   3  -3    0.07    0.17
   1   3  -3    0.25    0.16
   1   3  -3    0.19    0.17
  -1  -3   3    0.12    0.17
  -1  -3   3    0.48    0.22
  -1  -3   3    0.29    0.08
  -1  -3   3    0.30    0.14
  -1  -3   3    0.00    0.14
  -1  -3   3    0.14    0.17
  -1  -3   3    0.09    0.15
  -1  -3   3    0.39    0.19
   0   3  -3   18.92    0.65
   0   3  -3   18.11    0.66
   0   3  -3   19.09    0.44
   0   3  -3   19.22    0.58
   0   3  -3   18.74    0.62
   0  -3   3   18.91    0.69
   0  -3   3   19.31    0.69
   0  -3   3   20.36    0.66
   0  -3   3   19.32    0.63
   0  -3   3   18.10    0.65
   0  -3   3   19.04    0.60
   0  -3   3   18.93    0.65
  -1   3  -3    3.80    0.30
  -1   3  -3    4.91    0.42
  -1   3  -3    4.51    0.39
  -1   3  -3    4.29    0.33
  -1   3  -3    5.03    0.27
  -1   3  -3    4.33    0.42
   1  -3   3    3.68    0.35
   1  -3   3    4.25    0.35
   1  -3   3    4.21    0.36
   1  -3   3    3.91    0.38
   1  -3   3    3.56    0.33
   1  -3   3    4.07    0.41
  -2   3  -3    4.85    0.40
  -2   3  -3    6.62    0.51
  -2   3  -3    6.42    0.48
  -2   3  -3    5.50    0.40
  -2   3  -3    5.58    0.39
  -2   3  -3    5.62    0.45
   2  -3   3    4.42    0.43
   2  -3   3    5.39    0.42
   2  -3   3    5.92    0.45
   2  -3   3    5.53    0.44
   2  -3   3    5.27    0.40
  -3   3  -3    1.95    0.32
  -3   3  -3    1.95    0.34
  -3   3  -3    1.86    0.33
  -3   3  -3    2.78    0.35
  -3   3  -3    2.03    0.37
  -3   3  -3    2.13    0.36
   3  -3   3    2.08    0.35
   3  -3   3    1.62    0.27
   3  -3   3    2.92    0.42
   3  -3   3    2.15    0.31
  -4   3  -3    4.47    0.54
  -4   3  -3    4.37    0.47
  -4   3  -3    4.81    0.55
  -4   3  -3    3.94    0.49
  -4   3  -3    4.69    0.51
   4  -3   3    4.49    0.52
   4  -3   3    4.00    0.45
  -5   3  -3    1.86    0.43
  -5   3  -3    2.65    0.53
  -5   3  -3    1.48    0.43
  -5   3  -3    2.24    0.42
   5  -3   3    1.39    0.46
  -6   3  -3    1.14    0.43
  -6   3  -3    1.32    0.44
  -6   3  -3    0.73    0.42
   6  -3   3    1.17    0.43
  -7   3  -3   -0.73    0.33
  -7   3  -3   -0.25    0.37
  -7   3  -3    0.61    0.47
   7  -3   3   -0.26    0.43
   7  -3   3   -0.12    0.39
   8   2  -3    0.32    0.44
   8   2  -3   -0.16    0.38
  -8  -2   3   -0.76    0.41
  -8  -2   3   -0.10    0.27
   7   2  -3    3.86    0.66
  -7  -2   3    2.48    0.59
  -7  -2   3    3.74    0.44
  -7  -2   3    3.02    0.43
   6   2  -3    0.46    0.33
   6   2  -3    0.26    0.32
  -6  -2   3    0.28    0.23
  -6  -2   3    0.52    0.23
  -6  -2   3    0.05    0.39
   5   2  -3   15.65    0.79
   5   2  -3   16.20    0.83
  -5  -2   3   17.61    0.52
  -5  -2   3   17.06    0.66
  -5  -2   3   18.36    0.88
  -5  -2   3   17.13    0.65
  -5  -2   3   17.11    0.57
  -5  -2   3   17.19    0.90
  -5  -2   3   17.38    0.64
   4   2  -3   15.21    0.69
   4   2  -3   15.77    0.73
   4   2  -3   16.20    0.53
  -4  -2   3   15.98    0.55
  -4  -2   3   15.84    0.57
  -4  -2   3   15.18    0.55
  -4  -2   3   15.96    0.45
  -4  -2   3   14.45    0.74
  -4  -2   3   15.54    0.57
  -4  -2   3   15.11    0.55
  -4  -2   3   16.27    0.78
   3   2  -3    0.06    0.19
   3   2  -3    0.23    0.15
   3   2  -3    0.48    0.21
   3   2  -3    0.11    0.10
  -3  -2   3    0.28    0.22
  -3  -2   3    0.11    0.15
  -3  -2   3    0.21    0.13
  -3  -2   3    0.09    0.14
  -3  -2   3    0.15    0.20
  -3  -2   3    0.09    0.10
  -3  -2   3    0.18    0.15
  -3  -2   3    0.42    0.15
   2   2  -3   31.99    0.82
   2   2  -3   30.01    0.86
   2   2  -3   31.73    0.76
   2   2  -3   30.22    0.87
  -2  -2   3   30.38    0.87
  -2  -2   3   30.91    0.61
  -2  -2   3   29.19    0.74
  -2  -2   3   30.76    0.78
  -2  -2   3   30.45    0.75
  -2  -2   3   31.67    0.79
  -2  -2   3   30.05    0.80
   1   2  -3    8.71    0.37
   1   2  -3    9.28    0.42
   1   2  -3    8.99    0.27
   1   2  -3    9.08    0.24
   1   2  -3    9.86    0.43
   1   2  -3    8.28    0.38
   1   2  -3    9.09    0.35
  -1  -2   3    9.37    0.34
  -1  -2   3    9.59    0.38
  -1  -2   3    9.33    0.39
  -1  -2   3    8.96    0.42
  -1  -2   3    9.26    0.25
  -1  -2   3    9.21    0.42
  -1  -2   3    9.16    0.40
  -1  -2   3    8.86    0.40
  -1  -2   3    9.08    0.29
  -1  -2   3    9.47    0.28
   0   2  -3   14.61    0.48
   0   2  -3   14.50    0.50
   0   2  -3   13.85    0.37
   0   2  -3   13.38    0.51
   0   2  -3   13.89    0.46
   0   2  -3   14.09    0.35
   0   2  -3   13.99    0.47
   0  -2   3   14.26    0.50
   0  -2   3   14.25    0.51
   0  -2   3   14.21    0.45
   0  -2   3   13.34    0.52
   0  -2   3   13.90    0.46
   0  -2   3   13.82    0.53
   0  -2   3   14.18    0.52
   0  -2   3   14.21    0.37
  -1   2  -3    0.66    0.18
  -1   2  -3    0.96    0.22
  -1   2  -3    0.56    0.19
  -1   2  -3    0.63    0.15
  -1   2  -3    0.50    0.21
  -1   2  -3    0.68    0.18
   1  -2   3    0.65    0.22
   1  -2   3    0.58    0.20
   1  -2   3    0.59    0.20
   1  -2   3    0.93    0.20
   1  -2   3    0.53    0.21
   1  -2   3    0.58    0.19
  -2   2  -3   18.97    0.67
  -2   2  -3   18.63    0.58
  -2   2  -3   17.75    0.65
  -2   2  -3   18.80    0.67
  -2   2  -3   17.89    0.67
  -2   2  -3   17.92    0.66
  -2   2  -3   18.21    0.71
   2  -2   3   18.17    0.64
   2  -2   3   18.76    0.64
   2  -2   3   17.86    0.67
   2  -2   3   18.64    0.68
  -3   2  -3    8.95    0.53
  -3   2  -3    8.40    0.48
  -3   2  -3    8.72    0.50
  -3   2  -3    8.18    0.52
  -3   2  -3    7.89    0.51
  -3   2  -3    8.37    0.43
  -3   2  -3    8.03    0.48
   3  -2   3    9.29    0.49
   3  -2   3    8.95    0.53
   3  -2   3    9.20    0.48
   3  -2   3    8.29    0.49
  -4   2  -3    5.68    0.45
  -4   2  -3    5.43    0.52
  -4   2  -3    6.62    0.54
  -4   2  -3    5.80    0.52
  -4   2  -3    5.56    0.57
   4  -2   3    5.92    0.50
   4  -2   3    5.61    0.57
   4  -2   3    5.18    0.47
  -5   2  -3    0.03    0.29
  -5   2  -3   -0.01    0.25
  -5   2  -3    0.39    0.28
  -5   2  -3    0.32    0.29
  -5   2  -3    0.60    0.30
   5  -2   3    0.31    0.32
  -6   2  -3    0.44    0.31
  -6   2  -3    0.86    0.39
  -6   2  -3    1.16    0.46
  -6   2  -3    0.84    0.39
   6  -2   3    0.34    0.39
  -7   2  -3    0.05    0.45
  -7   2  -3   -0.48    0.29
  -7   2  -3    0.06    0.35
   7  -2   3   -0.65    0.33
   7  -2   3    0.37    0.45
   8   1  -3    2.83    0.64
   8   1  -3    3.50    0.70
  -8  -1   3    2.55    0.49
  -8  -1   3    1.90    0.44
  -8  -1   3    2.62    0.71
   7   1  -3   -0.24    0.31
   7   1  -3   -0.29    0.30
  -7  -1   3    0.14    0.28
  -7  -1   3    0.19    0.27
  -7  -1   3    0.11    0.45
   6   1  -3    6.84    0.70
   6   1  -3    6.11    0.66
  -6  -1   3    7.34    0.54
  -6  -1   3    7.38    0.55
  -6  -1   3    6.50    0.75
   5   1  -3   13.68    0.73
   5   1  -3   13.90    0.74
  -5  -1   3   14.29    0.80
  -5  -1   3   14.19    0.44
  -5  -1   3   14.36    0.65
  -5  -1   3   13.40    0.65
  -5  -1   3   15.67    0.64
  -5  -1   3   14.42    0.84
   4   1  -3    8.00    0.38
   4   1  -3    8.43    0.56
   4   1  -3    7.20    0.50
  -4  -1   3    8.65    0.44
  -4  -1   3    8.39    0.56
  -4  -1   3    8.27    0.43
  -4  -1   3    7.42    0.28
  -4  -1   3    8.19    0.46
  -4  -1   3    8.31    0.29
  -4  -1   3    7.51    0.61
   3   1  -3   37.89    0.91
   3   1  -3   41.18    1.14
   3   1  -3   37.99    1.07
  -3  -1   3   38.07    0.73
  -3  -1   3   38.47    0.97
  -3  -1   3   37.36    0.92
  -3  -1   3   37.25    0.96
  -3  -1   3   38.42    1.10
  -3  -1   3   37.43    1.11
  -3  -1   3   37.53    0.92
  -3  -1   3   37.84    0.82
   2   1  -3   12.95    0.45
   2   1  -3   13.42    0.41
   2   1  -3   13.68    0.40
   2   1  -3   14.40    0.55
  -2  -1   3   13.53    0.45
  -2  -1   3   13.45    0.48
  -2  -1   3   13.20    0.31
  -2  -1   3   13.27    0.45
  -2  -1   3   13.30    0.56
  -2  -1   3   12.93    0.48
  -2  -1   3   13.27    0.41
  -2  -1   3   13.23    0.29
  -2  -1   3   13.24    0.55
   1   1  -3  198.31    3.56
   1   1  -3  199.88    3.44
   1   1  -3  202.09    3.54
   1   1  -3  200.91    3.58
   1   1  -3  199.17    3.56
  -1  -1   3  198.16    3.38
  -1  -1   3  193.99    3.54
  -1  -1   3  205.40    3.45
  -1  -1   3  200.70    3.52
  -1  -1   3  194.82    3.47
  -1  -1   3  198.49    3.51
  -1  -1   3  195.98    3.56
  -1  -1   3  200.01    3.54
  -1  -1   3  196.96    3.51
   0   1  -3  324.69    6.28
   0   1  -3  335.92    5.70
   0   1  -3  330.33    5.61
   0   1  -3  319.89    5.55
   0   1  -3  323.00    5.81
   0   1  -3  330.98    6.03
   0   1  -3  323.57    5.64
   0   1  -3  320.41    5.82
   0   1  -3  319.36    5.60
   0  -1   3  327.70    5.55
   0  -1   3  329.49    5.90
   0  -1   3  331.93    5.61
   0  -1   3  315.83    5.60
   0  -1   3  326.39    5.50
   0  -1   3  327.51    6.27
   0  -1   3  324.26    5.65
   0  -1   3  329.47    5.64
  -1   1  -3    4.04    0.27
  -1   1  -3    4.40    0.28
  -1   1  -3    4.11    0.29
  -1   1  -3    3.37    0.28
  -1   1  -3    3.94    0.27
  -1   1  -3    4.14    0.25
  -1   1  -3    4.02    0.31
   1  -1   3    3.97    0.19
   1  -1   3    4.35    0.28
   1  -1   3    4.34    0.31
   1  -1   3    4.17    0.33
   1  -1   3    4.04    0.30
   1  -1   3    4.45    0.28
  -2   1  -3   60.20    1.39
  -2   1  -3   61.12    1.34
  -2   1  -3   60.92    1.21
  -2   1  -3   62.93    1.35
  -2   1  -3   61.34    1.39
  -2   1  -3   62.15    1.39
  -2   1  -3   62.02    1.36
  -2   1  -3   61.56    1.35
   2  -1   3   59.20    1.35
   2  -1   3   60.72    1.39
   2  -1   3   60.87    1.37
   2  -1   3   62.15    1.22
  -3   1  -3   27.66    0.92
  -3   1  -3   27.02    0.84
  -3   1  -3   27.86    0.75
  -3   1  -3   26.10    0.81
  -3   1  -3   28.09    0.88
  -3   1  -3   27.66    0.81
   3  -1   3   28.55    0.76
   3  -1   3   27.65    0.84
   3  -1   3   28.48    0.85
  -4   1  -3    4.77    0.38
  -4   1  -3    4.01    0.46
  -4   1  -3    3.58    0.36
  -4   1  -3    4.17    0.37
  -4   1  -3    4.75    0.44
  -4   1  -3    5.64    0.49
   4  -1   3    5.41    0.42
   4  -1   3    4.19    0.48
   4  -1   3    4.64    0.39
  -5   1  -3    0.57    0.32
  -5   1  -3    0.57    0.27
  -5   1  -3    0.40    0.27
  -5   1  -3    0.02    0.25
  -5   1  -3   -0.02    0.21
   5  -1   3   -0.18    0.24
   5  -1   3   -0.18    0.20
  -6   1  -3    0.82    0.41
  -6   1  -3    0.54    0.29
  -6   1  -3    0.50    0.30
  -6   1  -3    0.34    0.26
  -6   1  -3    0.26    0.29
   6  -1   3    0.76    0.33
   6  -1   3   -0.03    0.35
   6  -1   3    0.23    0.33
  -7   1  -3    2.74    0.61
  -7   1  -3    2.05    0.47
  -7   1  -3    1.92    0.44
   7  -1   3    2.77    0.62
   7  -1   3    2.56    0.52
   8   0  -3    1.26    0.54
  -8   0   3    1.22    0.44
   7   0  -3    9.62    0.82
   7   0  -3   10.22    0.83
  -7   0   3    9.70    0.74
  -7   0   3   10.45    0.77
  -7   0   3   10.25    0.99
   6   0  -3   11.57    0.75
   6   0  -3   11.56    0.82
  -6   0   3   11.58    0.70
  -6   0   3   11.79    0.88
  -6   0   3   13.41    0.76
   5   0  -3    1.76    0.38
   5   0  -3    1.31    0.37
  -5   0   3    1.63    0.47
  -5   0   3    1.39    0.32
  -5   0   3    2.03    0.20
  -5   0   3    1.49    0.29
   4   0  -3    0.92    0.27
   4   0  -3    0.62    0.20
   4   0  -3    0.90    0.26
   4   0  -3    0.89    0.13
  -4   0   3    1.02    0.23
  -4   0   3    0.85    0.13
  -4   0   3    0.98    0.24
  -4   0   3    0.63    0.31
  -4   0   3    0.65    0.24
   3   0  -3    8.42    0.42
   3   0  -3    8.86    0.51
   3   0  -3    8.10    0.40
   3   0  -3    8.62    0.25
  -3   0   3    9.23    0.44
  -3   0   3    8.55    0.46
  -3   0   3    8.57    0.25
  -3   0   3    8.43    0.53
   2   0  -3   19.33    0.56
   2   0  -3   19.95    0.67
   2   0  -3   19.72    0.49
   2   0  -3   19.76    0.61
  -2   0   3   20.05    0.41
  -2   0   3   19.42    0.60
  -2   0   3   20.03    0.60
  -2   0   3   18.57    0.62
  -2   0   3   19.58    0.69
  -2   0   3   19.83    0.50
   1   0  -3   55.44    1.15
   1   0  -3   54.92    1.19
   1   0  -3   56.15    1.08
   1   0  -3   55.26    0.96
   1   0  -3   57.10    1.02
   1   0  -3   56.54    1.15
  -1   0   3   56.43    1.17
  -1   0   3   55.03    1.08
  -1   0   3   56.10    1.22
  -1   0   3   56.86    1.17
  -1   0   3   54.89    1.16
  -1   0   3   57.80    1.02
  -1   0   3   56.26    1.16
  -1   0   3   56.83    1.20
  -1   0   3   56.12    1.19
   0   0  -3  411.19    7.15
   0   0  -3  390.43    7.49
   0   0  -3  411.96    7.58
   0   0  -3  399.71    7.34
   0   0  -3  397.96    7.47
   0   0  -3  406.88    6.84
   0   0  -3  392.26    7.13
   0   0  -3  423.86    7.35
   0   0  -3  393.17    7.33
   0   0  -3  394.86    7.07
   0   0  -3  395.89    6.91
   0   0   3  421.47    7.06
   0   0   3  403.25    6.78
   0   0   3  395.84    6.86
   0   0   3  408.45    7.07
   0   0   3  388.67    7.36
   0   0   3  394.35    6.84
   0   0   3  408.13    7.05
   0   0   3  409.72    7.16
   0   0   3  400.81    7.28
   0   0   3  418.17    6.88
  -1   0  -3    3.96    0.27
  -1   0  -3    3.92    0.24
  -1   0  -3    4.60    0.29
  -1   0  -3    4.04    0.28
  -1   0  -3    4.02    0.25
  -1   0  -3    3.81    0.22
  -1   0  -3    4.36    0.28
  -1   0  -3    4.17    0.27
   1   0   3    3.94    0.25
   1   0   3    4.17    0.26
   1   0   3    4.14    0.29
   1   0   3    3.59    0.29
   1   0   3    4.40    0.29
  -2   0  -3    9.16    0.44
  -2   0  -3    9.01    0.37
  -2   0  -3    9.24    0.36
  -2   0  -3    9.59    0.40
  -2   0  -3   10.18    0.42
  -2   0  -3    9.98    0.41
  -2   0  -3    9.76    0.43
  -2   0  -3    9.86    0.28
   2   0   3    9.98    0.39
   2   0   3   10.67    0.35
   2   0   3    8.92    0.42
   2   0   3    9.12    0.40
  -3   0  -3   44.35    1.03
  -3   0  -3   43.55    1.18
  -3   0  -3   43.52    1.11
  -3   0  -3   46.00    1.08
  -3   0  -3   43.70    0.97
  -3   0  -3   43.18    1.02
  -3   0  -3   43.42    1.07
   3   0   3   44.23    1.02
   3   0   3   42.29    1.09
   3   0   3   45.36    1.20
  -4   0  -3   11.52    0.54
  -4   0  -3   12.12    0.56
  -4   0  -3   11.13    0.63
  -4   0  -3   11.37    0.51
  -4   0  -3   11.12    0.49
  -4   0  -3   11.59    0.50
   4   0   3   11.76    0.55
   4   0   3   12.30    0.63
   4   0   3   11.64    0.47
   4   0   3   11.26    0.56
  -5   0  -3    0.08    0.19
  -5   0  -3   -0.17    0.20
  -5   0  -3    0.24    0.20
  -5   0  -3    0.16    0.23
  -5   0  -3    0.17    0.23
  -5   0  -3   -0.07    0.26
   5   0   3    0.04    0.20
   5   0   3    0.11    0.28
   5   0   3   -0.16    0.23
   5   0   3    0.11    0.21
  -6   0  -3    0.37    0.25
  -6   0  -3    0.72    0.37
  -6   0  -3    0.74    0.29
  -6   0  -3    0.49    0.30
  -6   0  -3    0.54    0.27
   6   0   3    1.06    0.31
   6   0   3    0.18    0.31
   6   0   3    0.93    0.33
  -7   0  -3    3.22    0.46
  -7   0  -3    3.08    0.62
  -7   0  -3    3.30    0.49
   7   0   3    1.68    0.49
  -8   0  -3    0.97    0.54
  -8   0  -3    0.40    0.33
  -8   0  -3    0.02    0.31
   8   0   3    0.84    0.55
   7  -1  -3    0.45    0.36
   7  -1  -3    0.57    0.45
  -7   1   3    0.50    0.53
  -7   1   3    0.25    0.34
  -7   1   3    0.17    0.34
   6  -1  -3    3.90    0.58
   6  -1  -3    4.83    0.62
  -6   1   3    2.89    0.47
  -6   1   3    4.04    0.54
  -6   1   3    3.16    0.63
   5  -1  -3    5.55    0.62
   5  -1  -3    6.63    0.54
  -5   1   3    4.63    0.53
  -5   1   3    5.26    0.64
  -5   1   3    5.02    0.51
   4  -1  -3    1.88    0.19
   4  -1  -3    1.72    0.31
   4  -1  -3    1.52    0.30
   4  -1  -3    1.47    0.32
  -4   1   3    1.27    0.29
  -4   1   3    1.41    0.28
  -4   1   3    1.54    0.31
  -4   1   3    2.52    0.42
   3  -1  -3   19.28    0.71
   3  -1  -3   20.07    0.65
   3  -1  -3   19.71    0.78
   3  -1  -3   19.53    0.51
   3  -1  -3   20.94    0.66
  -3   1   3   17.46    0.67
  -3   1   3   20.05    0.71
  -3   1   3   19.58    0.79
  -3   1   3   19.45    0.75
   2  -1  -3   19.56    0.69
   2  -1  -3   19.75    0.66
   2  -1  -3   20.00    0.58
   2  -1  -3   19.13    0.66
   2  -1  -3   19.85    0.46
  -2   1   3   20.70    0.71
  -2   1   3   20.73    0.66
  -2   1   3   18.56    0.63
  -2   1   3   20.07    0.72
   1  -1  -3   29.21    0.80
   1  -1  -3   30.81    0.71
   1  -1  -3   30.40    0.78
   1  -1  -3   32.58    0.79
  -1   1   3   31.68    0.78
  -1   1   3   30.62    0.82
  -1   1   3   33.16    0.81
  -1   1   3   31.31    0.79
  -1   1   3   33.45    0.85
  -1   1   3   31.19    0.83
   0  -1  -3  124.08    2.30
   0  -1  -3  128.31    2.31
   0  -1  -3  127.02    2.28
   0  -1  -3  125.88    2.35
   0  -1  -3  121.78    2.30
   0  -1  -3  127.93    2.33
   0  -1  -3  126.24    2.28
   0  -1  -3  127.63    2.32
   0   1   3  128.20    2.35
   0   1   3  125.20    2.30
   0   1   3  131.07    2.29
   0   1   3  126.27    2.31
   0   1   3  124.57    2.18
   0   1   3  125.77    2.31
   0   1   3  130.56    2.32
  -1  -1  -3   10.60    0.38
  -1  -1  -3   10.63    0.38
  -1  -1  -3   10.57    0.36
  -1  -1  -3   10.31    0.29
  -1  -1  -3   10.96    0.35
  -1  -1  -3   10.74    0.36
  -1  -1  -3   10.96    0.39
  -1  -1  -3   10.46    0.34
  -1  -1  -3   10.15    0.26
  -1  -1  -3    9.84    0.36
   1   1   3   10.31    0.33
   1   1   3   10.99    0.46
   1   1   3   10.99    0.36
   1   1   3   10.69    0.43
   1   1   3   10.46    0.38
   1   1   3   10.86    0.37
  -2  -1  -3   10.94    0.36
  -2  -1  -3    9.55    0.41
  -2  -1  -3    8.65    0.31
  -2  -1  -3   10.05    0.43
  -2  -1  -3    9.89    0.32
  -2  -1  -3    9.62    0.35
   2   1   3    9.74    0.42
   2   1   3    9.93    0.48
   2   1   3   10.15    0.43
   2   1   3    9.94    0.33
  -3  -1  -3    6.56    0.33
  -3  -1  -3    7.12    0.42
  -3  -1  -3    7.00    0.32
  -3  -1  -3    6.46    0.28
  -3  -1  -3    6.70    0.29
  -3  -1  -3    6.84    0.43
  -3  -1  -3    7.18    0.32
  -3  -1  -3    6.16    0.38
   3   1   3    7.35    0.43
   3   1   3    6.19    0.37
   3   1   3    6.60    0.38
  -4  -1  -3    0.89    0.17
  -4  -1  -3    0.84    0.18
  -4  -1  -3    0.50    0.14
  -4  -1  -3    0.39    0.23
  -4  -1  -3    0.69    0.23
  -4  -1  -3    0.51    0.17
  -4  -1  -3    0.75    0.20
  -4  -1  -3    0.71    0.21
   4   1   3    0.98    0.13
   4   1   3    0.44    0.21
   4   1   3    0.99    0.21
   4   1   3    0.85    0.26
  -5  -1  -3    4.61    0.35
  -5  -1  -3    4.88    0.41
  -5  -1  -3    4.51    0.36
  -5  -1  -3    4.39    0.53
  -5  -1  -3    5.15    0.47
  -5  -1  -3    4.75    0.37
   5   1   3    4.55    0.44
   5   1   3    4.17    0.41
   5   1   3    4.57    0.40
   5   1   3    2.98    0.45
  -6  -1  -3    4.62    0.55
  -6  -1  -3    3.58    0.56
  -6  -1  -3    4.67    0.50
  -6  -1  -3    4.43    0.42
  -6  -1  -3    4.22    0.42
  -6  -1  -3    4.62    0.50
   6   1   3    4.34    0.59
  -7  -1  -3   -0.04    0.40
  -7  -1  -3    0.49    0.27
  -7  -1  -3    0.57    0.26
   7   1   3    0.85    0.45
  -8  -1  -3    0.35    0.46
  -8  -1  -3    0.98    0.35
   8   1   3    0.18    0.48
   7  -2  -3    4.80    0.69
   7  -2  -3    4.82    0.72
  -7   2   3    5.11    0.68
  -7   2   3    7.09    0.93
  -7   2   3    5.30    0.72
   6  -2  -3    2.04    0.43
   6  -2  -3    2.06    0.50
  -6   2   3    1.77    0.44
  -6   2   3    1.69    0.53
  -6   2   3    1.92    0.44
   5  -2  -3    7.51    0.74
   5  -2  -3    9.35    0.63
  -5   2   3    8.03    0.65
  -5   2   3    8.49    0.70
  -5   2   3    8.15    0.79
   4  -2  -3   10.42    0.67
   4  -2  -3   10.48    0.63
   4  -2  -3   10.57    0.44
   4  -2  -3   11.30    0.59
  -4   2   3   10.61    0.64
  -4   2   3   10.35    0.71
  -4   2   3   10.37    0.67
   3  -2  -3    1.28    0.29
   3  -2  -3    1.31    0.25
   3  -2  -3    1.33    0.19
  -3   2   3    1.07    0.27
  -3   2   3    1.55    0.28
  -3   2   3    1.55    0.35
  -3   2   3    1.68    0.33
   2  -2  -3   16.97    0.65
   2  -2  -3   17.21    0.68
   2  -2  -3   16.91    0.50
   2  -2  -3   17.36    0.43
   2  -2  -3   16.96    0.60
   2  -2  -3   18.22    0.65
  -2   2   3   16.92    0.70
  -2   2   3   17.43    0.72
  -2   2   3   17.25    0.66
  -2   2   3   18.24    0.67
   1  -2  -3   49.54    1.11
   1  -2  -3   48.99    1.15
   1  -2  -3   50.11    1.16
   1  -2  -3   48.78    1.19
  -1   2   3   49.10    1.20
  -1   2   3   47.99    1.15
  -1   2   3   49.92    1.21
  -1   2   3   49.47    1.11
   0  -2  -3    0.76    0.18
   0  -2  -3    0.49    0.12
   0  -2  -3    0.27    0.17
   0  -2  -3    0.40    0.18
   0  -2  -3    0.19    0.15
   0  -2  -3    0.67    0.18
   0  -2  -3    0.40    0.16
   0   2   3    0.49    0.15
   0   2   3    0.45    0.12
   0   2   3    0.21    0.19
   0   2   3    0.66    0.21
   0   2   3    0.50    0.22
   0   2   3    0.66    0.21
   0   2   3    0.61    0.18
  -1  -2  -3    3.97    0.24
  -1  -2  -3    4.23    0.25
  -1  -2  -3    4.38    0.22
  -1  -2  -3    3.76    0.26
  -1  -2  -3    3.76    0.27
  -1  -2  -3    4.06    0.12
  -1  -2  -3    4.15    0.27
  -1  -2  -3    4.26    0.27
  -1  -2  -3    3.51    0.28
   1   2   3    4.31    0.22
   1   2   3    4.24    0.35
   1   2   3    4.51    0.28
   1   2   3    3.94    0.31
   1   2   3    3.90    0.27
   1   2   3    4.25    0.23
  -2  -2  -3    5.53    0.33
  -2  -2  -3    5.80    0.31
  -2  -2  -3    5.72    0.26
  -2  -2  -3    5.76    0.32
  -2  -2  -3    5.70    0.26
  -2  -2  -3    5.74    0.23
  -2  -2  -3    6.01    0.36
   2   2   3    5.57    0.33
   2   2   3    5.01    0.40
   2   2   3    6.52    0.37
  -3  -2  -3    7.68    0.43
  -3  -2  -3    7.96    0.29
  -3  -2  -3    7.52    0.25
  -3  -2  -3    7.75    0.42
  -3  -2  -3    7.94    0.42
  -3  -2  -3    7.99    0.25
  -3  -2  -3    7.40    0.28
   3   2   3    7.46    0.50
   3   2   3    7.04    0.46
   3   2   3    7.98    0.41
  -4  -2  -3    5.78    0.25
  -4  -2  -3    5.63    0.26
  -4  -2  -3    6.27    0.37
  -4  -2  -3    5.94    0.28
  -4  -2  -3    6.11    0.28
  -4  -2  -3    6.30    0.43
  -4  -2  -3    6.08    0.44
  -4  -2  -3    6.17    0.48
   4   2   3    5.70    0.45
   4   2   3    5.11    0.45
   4   2   3    5.61    0.38
  -5  -2  -3    6.79    0.56
  -5  -2  -3    7.24    0.53
  -5  -2  -3    6.29    0.35
  -5  -2  -3    6.47    0.33
  -5  -2  -3    7.22    0.35
  -5  -2  -3    6.73    0.50
  -5  -2  -3    6.42    0.46
   5   2   3    7.07    0.43
   5   2   3    5.75    0.59
   5   2   3    5.64    0.35
  -6  -2  -3    2.85    0.51
  -6  -2  -3    2.56    0.28
  -6  -2  -3    2.61    0.30
  -6  -2  -3    2.58    0.29
  -6  -2  -3    2.97    0.45
  -6  -2  -3    2.81    0.40
  -6  -2  -3    2.48    0.40
   6   2   3    2.67    0.48
  -7  -2  -3    4.37    0.40
  -7  -2  -3    3.46    0.39
  -7  -2  -3    4.02    0.57
  -7  -2  -3    4.21    0.65
   7   2   3    4.09    0.65
  -8  -2  -3    0.68    0.29
  -8  -2  -3    1.00    0.54
   8   2   3   -0.11    0.44
   7  -3  -3   -0.19    0.31
   7  -3  -3    0.40    0.43
  -7   3   3    0.38    0.45
  -7   3   3    1.02    0.46
  -7   3   3    0.41    0.59
   6  -3  -3    0.52    0.33
   6  -3  -3    0.86    0.43
  -6   3   3    0.66    0.42
  -6   3   3   -0.22    0.49
  -6   3   3   -0.25    0.35
   5  -3  -3    0.28    0.26
   5  -3  -3    0.05    0.35
  -5   3   3    0.42    0.32
  -5   3   3    0.17    0.36
  -5   3   3   -0.10    0.38
   4  -3  -3    0.03    0.22
   4  -3  -3   -0.12    0.25
   4  -3  -3   -0.17    0.20
   4  -3  -3    0.26    0.16
  -4   3   3   -0.07    0.27
  -4   3   3    0.19    0.35
  -4   3   3   -0.22    0.27
   3  -3  -3   10.43    0.63
   3  -3  -3   10.86    0.35
   3  -3  -3   10.49    0.57
   3  -3  -3   10.64    0.47
   3  -3  -3    9.70    0.49
   3  -3  -3   10.78    0.58
  -3   3   3   10.14    0.64
  -3   3   3   10.45    0.45
  -3   3   3   11.02    0.66
  -3   3   3   10.78    0.69
   2  -3  -3   12.90    0.44
   2  -3  -3   12.64    0.57
   2  -3  -3   12.06    0.64
   2  -3  -3   12.86    0.49
   2  -3  -3   12.16    0.59
  -2   3   3   13.44    0.66
  -2   3   3   12.78    0.55
  -2   3   3   11.76    0.64
  -2   3   3   12.96    0.61
  -2   3   3   12.59    0.50
   1  -3  -3    5.33    0.31
   1  -3  -3    5.03    0.40
   1  -3  -3    4.81    0.38
   1  -3  -3    5.22    0.36
   1  -3  -3    5.64    0.37
  -1   3   3    4.38    0.31
  -1   3   3    4.70    0.41
  -1   3   3    4.79    0.37
  -1   3   3    5.67    0.48
  -1   3   3    5.71    0.37
   0  -3  -3    5.59    0.40
   0  -3  -3    4.97    0.35
   0  -3  -3    4.63    0.35
   0  -3  -3    5.30    0.31
   0  -3  -3    5.17    0.35
   0  -3  -3    5.05    0.35
   0   3   3    4.68    0.40
   0   3   3    5.48    0.22
   0   3   3    4.81    0.34
   0   3   3    4.76    0.30
   0   3   3    4.87    0.27
   0   3   3    5.19    0.41
   0   3   3    3.98    0.36
  -1  -3  -3    9.15    0.40
  -1  -3  -3    8.37    0.35
  -1  -3  -3    8.64    0.28
  -1  -3  -3    9.27    0.27
  -1  -3  -3    8.96    0.38
  -1  -3  -3    8.87    0.43
  -1  -3  -3    8.96    0.41
  -1  -3  -3    8.93    0.37
   1   3   3    9.10    0.28
   1   3   3    8.62    0.35
   1   3   3    8.76    0.28
   1   3   3    8.87    0.45
   1   3   3    9.47    0.51
   1   3   3    8.35    0.41
   1   3   3    8.97    0.36
  -2  -3  -3   43.63    0.93
  -2  -3  -3   45.43    0.93
  -2  -3  -3   44.47    1.06
  -2  -3  -3   45.50    0.96
  -2  -3  -3   42.41    0.95
  -2  -3  -3   44.74    0.97
  -2  -3  -3   44.81    0.92
  -2  -3  -3   45.13    1.03
   2   3   3   45.66    1.09
   2   3   3   45.19    1.23
   2   3   3   44.36    1.02
  -3  -3  -3   20.24    0.69
  -3  -3  -3   19.30    0.68
  -3  -3  -3   20.60    0.50
  -3  -3  -3   20.93    0.66
  -3  -3  -3   20.35    0.44
  -3  -3  -3   20.07    0.44
  -3  -3  -3   20.19    0.62
  -3  -3  -3   20.04    0.66
  -3  -3  -3   20.98    0.50
   3   3   3   20.95    0.74
   3   3   3   20.36    0.66
   3   3   3   20.05    0.80
  -4  -3  -3    0.11    0.06
  -4  -3  -3    0.08    0.07
  -4  -3  -3   -0.03    0.19
  -4  -3  -3    0.07    0.07
  -4  -3  -3    0.12    0.16
  -4  -3  -3    0.17    0.06
  -4  -3  -3    0.02    0.17
  -4  -3  -3    0.24    0.18
   4   3   3    0.23    0.18
   4   3   3    0.06    0.24
   4   3   3    0.10    0.25
  -5  -3  -3   18.99    0.49
  -5  -3  -3   18.75    0.78
  -5  -3  -3   19.26    0.49
  -5  -3  -3   18.68    0.78
  -5  -3  -3   19.33    0.81
  -5  -3  -3   18.90    0.49
  -5  -3  -3   19.94    0.78
  -5  -3  -3   19.16    0.48
   5   3   3   19.34    0.89
   5   3   3   20.29    0.68
   5   3   3   19.75    0.92
  -6  -3  -3   37.11    1.28
  -6  -3  -3   37.95    1.22
  -6  -3  -3   36.61    0.88
  -6  -3  -3   39.52    1.32
  -6  -3  -3   38.08    1.36
  -6  -3  -3   36.39    1.21
  -6  -3  -3   35.97    0.83
  -6  -3  -3   36.26    0.88
   6   3   3   33.75    1.34
  -7  -3  -3    1.36    0.25
  -7  -3  -3    1.43    0.46
  -7  -3  -3    1.57    0.42
  -7  -3  -3    1.51    0.40
   7   3   3    0.85    0.46
  -8  -3  -3    5.74    0.83
  -8  -3  -3    4.65    0.44
   8   3   3    4.44    0.76
   6  -4  -3    1.14    0.40
   6  -4  -3    1.17    0.54
  -6   4   3    1.17    0.46
  -6   4   3    1.63    0.58
  -6   4   3    0.83    0.47
   5  -4  -3    2.39    0.41
   5  -4  -3    2.48    0.52
  -5   4   3    2.86    0.55
  -5   4   3    2.41    0.55
  -5   4   3    2.26    0.61
   4  -4  -3   27.26    1.14
   4  -4  -3   30.29    0.98
   4  -4  -3   30.60    1.04
   4  -4  -3   29.31    1.21
  -4   4   3   31.31    1.30
  -4   4   3   31.24    1.23
  -4   4   3   29.70    1.28
   3  -4  -3   16.14    0.84
   3  -4  -3   14.74    0.64
   3  -4  -3   14.18    0.52
   3  -4  -3   14.92    0.73
   3  -4  -3   15.36    0.76
   3  -4  -3   15.11    0.65
  -3   4   3   16.47    0.66
  -3   4   3   15.19    0.84
  -3   4   3   15.28    0.79
  -3   4   3   15.50    0.86
   2  -4  -3    0.57    0.28
   2  -4  -3    0.24    0.17
   2  -4  -3    0.32    0.22
   2  -4  -3    0.58    0.25
   2  -4  -3    0.16    0.17
  -2   4   3    0.09    0.27
  -2   4   3    0.41    0.23
  -2   4   3    0.50    0.25
  -2   4   3    0.59    0.28
   1  -4  -3   46.04    1.32
   1  -4  -3   47.12    1.28
   1  -4  -3   48.03    1.27
   1  -4  -3   48.26    1.19
   1  -4  -3   46.84    1.23
  -1   4   3   46.50    1.33
  -1   4   3   48.90    1.17
  -1   4   3   47.47    1.20
  -1   4   3   47.96    1.27
  -1   4   3   48.69    1.36
  -1   4   3   47.99    1.28
   0  -4  -3   27.10    0.86
   0  -4  -3   29.82    0.86
   0  -4  -3   27.38    0.80
   0  -4  -3   27.97    0.75
   0  -4  -3   28.05    0.90
   0  -4  -3   26.71    0.86
   0  -4  -3   26.59    0.85
   0   4   3   27.12    0.90
   0   4   3   28.82    0.75
   0   4   3   27.73    0.75
   0   4   3   29.49    0.92
   0   4   3   28.06    0.59
   0   4   3   27.43    0.83
   0   4   3   28.93    0.93
  -1  -4  -3   15.05    0.48
  -1  -4  -3   14.00    0.59
  -1  -4  -3   15.23    0.55
  -1  -4  -3   14.11    0.45
  -1  -4  -3   14.75    0.58
  -1  -4  -3   14.79    0.54
  -1  -4  -3   13.63    0.54
   1   4   3   14.92    0.57
   1   4   3   14.35    0.47
   1   4   3   14.68    0.46
   1   4   3   15.44    0.51
   1   4   3   15.62    0.69
  -2  -4  -3    6.16    0.42
  -2  -4  -3    5.89    0.32
  -2  -4  -3    6.86    0.36
  -2  -4  -3    6.11    0.29
  -2  -4  -3    6.26    0.32
  -2  -4  -3    6.42    0.33
  -2  -4  -3    6.53    0.27
  -2  -4  -3    6.20    0.35
  -2  -4  -3    6.15    0.36
   2   4   3    6.39    0.32
   2   4   3    6.34    0.31
   2   4   3    5.88    0.48
   2   4   3    6.42    0.31
   2   4   3    6.34    0.43
  -3  -4  -3    4.83    0.40
  -3  -4  -3    4.53    0.26
  -3  -4  -3    4.68    0.34
  -3  -4  -3    5.55    0.33
  -3  -4  -3    4.75    0.23
  -3  -4  -3    4.38    0.32
  -3  -4  -3    4.81    0.30
  -3  -4  -3    4.82    0.23
  -3  -4  -3    4.91    0.41
  -3  -4  -3    4.74    0.25
   3   4   3    5.58    0.49
   3   4   3    5.57    0.40
   3   4   3    4.80    0.38
  -4  -4  -3   42.10    0.80
  -4  -4  -3   40.38    1.16
  -4  -4  -3   42.42    0.83
  -4  -4  -3   42.04    1.15
  -4  -4  -3   42.15    0.80
  -4  -4  -3   41.70    0.82
  -4  -4  -3   42.43    1.13
  -4  -4  -3   42.45    1.19
  -4  -4  -3   41.84    1.13
   4   4   3   40.95    1.24
   4   4   3   42.60    1.11
   4   4   3   42.25    1.36
  -5  -4  -3    3.55    0.46
  -5  -4  -3    3.06    0.38
  -5  -4  -3    3.51    0.41
  -5  -4  -3    2.94    0.37
   5   4   3    4.40    0.55
   5   4   3    3.81    0.38
   5   4   3    4.80    0.59
  -6  -4  -3    5.68    0.25
  -6  -4  -3    5.62    0.25
  -6  -4  -3    4.33    0.48
  -6  -4  -3    6.46    0.55
  -6  -4  -3    5.88    0.57
  -6  -4  -3    6.21    0.64
  -6  -4  -3    5.15    0.53
   6   4   3    5.83    0.67
   6   4   3    5.05    0.61
  -7  -4  -3    6.98    0.69
  -7  -4  -3    7.55    0.79
  -7  -4  -3    7.21    0.64
  -7  -4  -3    7.19    0.35
  -7  -4  -3    6.76    0.35
   7   4   3    7.24    0.85
  -8  -4  -3    1.96    0.26
  -8  -4  -3    2.75    0.62
   8   4   3    0.83    0.54
   6  -5  -3   -0.10    0.46
  -6   5   3    0.02    0.56
  -6   5   3    0.97    0.52
  -6   5   3    0.88    0.52
  -6   5   3    0.44    0.47
  -5   5   3    1.30    0.49
  -5   5   3    1.88    0.54
  -5   5   3    1.77    0.58
   4  -5  -3    1.82    0.46
   4  -5  -3    2.50    0.40
   4  -5  -3    2.16    0.50
  -4   5   3    1.95    0.51
  -4   5   3    2.16    0.51
  -4   5   3    2.29    0.55
   3  -5  -3   13.41    0.85
   3  -5  -3   11.05    0.60
   3  -5  -3   13.05    0.77
   3  -5  -3   12.57    0.65
   3  -5  -3   12.18    0.56
  -3   5   3   12.86    0.85
  -3   5   3   13.13    0.88
  -3   5   3   12.07    0.80
  -3   5   3   13.12    0.71
   2  -5  -3    9.77    0.54
   2  -5  -3   11.17    0.66
   2  -5  -3   11.10    0.67
   2  -5  -3   12.01    0.77
   2  -5  -3   11.29    0.56
  -2   5   3   10.85    0.65
  -2   5   3   10.81    0.64
  -2   5   3   11.11    0.70
  -2   5   3   10.45    0.73
  -2   5   3   11.24    0.73
   1  -5  -3    9.20    0.54
   1  -5  -3   10.07    0.55
   1  -5  -3    9.49    0.65
   1  -5  -3   10.92    0.61
   1  -5  -3    9.73    0.61
  -1   5   3   10.89    0.62
  -1   5   3   10.64    0.63
  -1   5   3   10.33    0.65
  -1   5   3    9.42    0.64
  -1   5   3   10.98    0.56
  -1   5   3   10.35    0.50
   0  -5  -3    9.95    0.59
   0  -5  -3    8.44    0.53
   0  -5  -3    8.95    0.53
   0  -5  -3    9.90    0.57
   0  -5  -3    9.07    0.46
   0   5   3    9.15    0.24
   0   5   3    8.07    0.43
   0   5   3    8.63    0.61
   0   5   3    8.99    0.24
   0   5   3    9.29    0.42
   0   5   3    8.50    0.59
   0   5   3    8.44    0.57
   0   5   3    8.48    0.49
  -1  -5  -3    8.98    0.38
  -1  -5  -3    9.04    0.43
  -1  -5  -3    8.68    0.52
  -1  -5  -3    8.72    0.52
  -1  -5  -3    8.86    0.49
  -1  -5  -3    9.26    0.48
  -1  -5  -3    8.69    0.40
   1   5   3    8.54    0.50
   1   5   3    8.48    0.37
   1   5   3    8.69    0.42
   1   5   3    8.74    0.60
   1   5   3    8.10    0.40
  -2  -5  -3   35.71    0.96
  -2  -5  -3   37.06    0.92
  -2  -5  -3   36.73    1.00
  -2  -5  -3   34.87    1.08
  -2  -5  -3   37.78    0.72
  -2  -5  -3   37.03    0.90
  -2  -5  -3   36.11    0.95
  -2  -5  -3   38.50    0.99
   2   5   3   36.81    0.94
   2   5   3   37.09    0.92
   2   5   3   37.08    0.90
   2   5   3   36.00    1.23
  -3  -5  -3    8.86    0.53
  -3  -5  -3    8.08    0.36
  -3  -5  -3    8.19    0.40
  -3  -5  -3    7.49    0.38
  -3  -5  -3    6.90    0.41
  -3  -5  -3    7.55    0.40
  -3  -5  -3    8.04    0.37
  -3  -5  -3    7.28    0.35
   3   5   3    7.12    0.49
   3   5   3    8.06    0.23
   3   5   3    6.97    0.59
   3   5   3    8.22    0.51
  -4  -5  -3    0.31    0.26
  -4  -5  -3    0.03    0.19
  -4  -5  -3    0.09    0.16
  -4  -5  -3   -0.28    0.18
  -4  -5  -3    0.02    0.18
  -4  -5  -3    0.42    0.19
  -4  -5  -3    0.01    0.10
  -4  -5  -3    0.20    0.11
  -4  -5  -3   -0.02    0.11
  -4  -5  -3    0.20    0.10
   4   5   3    0.16    0.21
   4   5   3    0.05    0.27
   4   5   3    0.23    0.28
  -5  -5  -3    3.46    0.41
  -5  -5  -3    3.20    0.16
  -5  -5  -3    3.22    0.16
  -5  -5  -3    3.31    0.39
  -5  -5  -3    3.40    0.40
  -5  -5  -3    2.78    0.40
  -5  -5  -3    2.69    0.40
   5   5   3    3.83    0.39
   5   5   3    2.15    0.42
   5   5   3    2.49    0.51
  -6  -5  -3    9.20    0.67
  -6  -5  -3    9.69    0.61
  -6  -5  -3    8.14    0.60
  -6  -5  -3    8.75    0.63
   6   5   3    9.32    0.80
   6   5   3    8.78    0.73
  -7  -5  -3    9.38    0.84
  -7  -5  -3    8.81    0.28
  -7  -5  -3    9.04    0.29
  -7  -5  -3    9.70    0.73
  -7  -5  -3    9.15    0.72
   7   5   3    8.96    0.85
   7   5   3    8.65    0.91
  -8  -5  -3    3.25    0.61
  -8  -5  -3    4.06    0.25
   8   5   3    3.48    0.69
   5  -6  -3    0.35    0.43
  -5   6   3    0.33    0.48
  -5   6   3   -0.26    0.36
   4  -6  -3    3.38    0.65
   4  -6  -3    3.36    0.61
  -4   6   3    4.46    0.76
  -4   6   3    3.01    0.61
  -4   6   3    2.61    0.46
  -4   6   3    2.54    0.58
   3  -6  -3    1.61    0.51
   3  -6  -3    1.46    0.45
  -3   6   3    0.81    0.40
  -3   6   3    1.20    0.49
  -3   6   3    1.17    0.31
  -3   6   3    0.50    0.40
  -3   6   3    2.26    0.73
   2  -6  -3    4.18    0.53
   2  -6  -3    5.01    0.51
   2  -6  -3    5.36    0.61
   2  -6  -3    3.15    0.54
  -2   6   3    3.94    0.58
  -2   6   3    5.38    0.61
  -2   6   3    4.08    0.55
  -2   6   3    4.14    0.38
  -2   6   3    4.37    0.59
   1  -6  -3   18.53    0.81
   1  -6  -3   16.31    0.75
   1  -6  -3   17.38    0.85
   1  -6  -3   18.43    0.87
   1  -6  -3   18.37    0.79
  -1   6   3   18.66    0.94
  -1   6   3   17.56    0.91
  -1   6   3   17.11    0.89
  -1   6   3   18.28    0.78
  -1   6   3   18.82    0.84
  -1   6   3   18.01    0.55
   0  -6  -3    5.07    0.52
   0  -6  -3    4.55    0.49
   0  -6  -3    5.89    0.43
   0  -6  -3    4.98    0.52
   0  -6  -3    5.21    0.52
   0   6   3    5.66    0.42
   0   6   3    5.57    0.60
   0   6   3    5.45    0.56
   0   6   3    5.08    0.47
   0   6   3    4.82    0.33
  -1  -6  -3   94.16    1.98
  -1  -6  -3   89.44    2.15
  -1  -6  -3   92.64    2.07
  -1  -6  -3   92.80    1.83
  -1  -6  -3   90.02    1.96
  -1  -6  -3   95.76    2.13
  -1  -6  -3   89.86    2.14
  -1  -6  -3   89.96    2.22
   1   6   3   91.43    1.96
   1   6   3   88.87    2.30
   1   6   3   93.77    2.12
   1   6   3   87.21    1.81
   1   6   3   88.80    1.95
  -2  -6  -3   48.43    1.23
  -2  -6  -3   46.64    1.20
  -2  -6  -3   50.33    1.13
  -2  -6  -3   46.89    1.39
  -2  -6  -3   51.92    1.52
  -2  -6  -3   49.57    1.27
  -2  -6  -3   47.18    1.27
  -2  -6  -3   49.90    1.33
   2   6   3   49.09    1.11
   2   6   3   49.86    1.58
   2   6   3   50.53    1.26
   2   6   3   50.32    1.23
  -3  -6  -3    7.48    0.43
  -3  -6  -3    7.29    0.40
  -3  -6  -3    7.01    0.44
  -3  -6  -3    8.11    0.44
  -3  -6  -3    7.54    0.46
  -3  -6  -3    7.00    0.41
  -3  -6  -3    7.32    0.31
  -3  -6  -3    7.16    0.54
   3   6   3    8.35    0.44
   3   6   3    7.36    0.54
   3   6   3    8.62    0.81
  -4  -6  -3   65.93    1.53
  -4  -6  -3   66.58    1.41
  -4  -6  -3   64.48    1.39
  -4  -6  -3   65.77    1.47
  -4  -6  -3   62.21    1.75
  -4  -6  -3   63.55    1.41
  -4  -6  -3   66.53    1.61
  -4  -6  -3   65.20    1.59
   4   6   3   63.25    1.97
   4   6   3   66.69    1.77
  -5  -6  -3    2.23    0.36
  -5  -6  -3    2.52    0.45
  -5  -6  -3    3.07    0.24
  -5  -6  -3    3.01    0.19
  -5  -6  -3    2.95    0.38
  -5  -6  -3    3.11    0.25
  -5  -6  -3    3.03    0.42
  -5  -6  -3    3.29    0.40
  -5  -6  -3    2.69    0.36
   5   6   3    2.10    0.46
   5   6   3    2.71    0.58
  -6  -6  -3   -0.17    0.07
  -6  -6  -3    0.21    0.22
  -6  -6  -3   -0.26    0.21
  -6  -6  -3   -0.70    0.23
  -6  -6  -3   -0.03    0.07
  -6  -6  -3    0.01    0.25
  -6  -6  -3   -0.18    0.23
   6   6   3   -0.19    0.37
   6   6   3   -0.16    0.35
  -7  -6  -3    3.39    0.56
  -7  -6  -3    3.21    0.47
  -7  -6  -3    2.80    0.57
  -7  -6  -3    2.82    0.51
  -7  -6  -3    2.40    0.48
  -7  -6  -3    3.15    0.50
   7   6   3    3.29    0.67
   7   6   3    2.39    0.63
  -8  -6  -3    1.07    0.55
  -8  -6  -3    1.41    0.49
  -8  -6  -3    0.72    0.41
   8   6   3    0.60    0.54
   4  -7  -3    7.37    0.89
   4  -7  -3    8.18    0.98
  -4   7   3    6.93    0.92
  -4   7   3    6.80    0.91
   3  -7  -3    3.62    0.66
   3  -7  -3    3.02    0.58
  -3   7   3    1.73    0.53
  -3   7   3    2.46    0.61
   2  -7  -3    1.80    0.50
   2  -7  -3    1.50    0.38
   2  -7  -3    1.52    0.44
  -2   7   3    1.63    0.49
  -2   7   3    0.85    0.43
  -2   7   3    2.12    0.53
   1  -7  -3   12.95    0.87
   1  -7  -3   13.47    0.80
   1  -7  -3   15.46    0.87
   1  -7  -3   14.83    0.88
  -1   7   3   17.11    1.00
  -1   7   3   14.96    0.94
  -1   7   3   15.59    0.96
  -1   7   3   15.55    0.88
   0  -7  -3    8.05    0.66
   0  -7  -3    7.81    0.67
   0  -7  -3    8.35    0.53
   0  -7  -3    9.68    0.70
   0  -7  -3    7.47    0.69
   0   7   3    8.42    0.55
   0   7   3    7.64    0.71
   0   7   3    9.57    0.79
  -1  -7  -3   -0.03    0.30
  -1  -7  -3   -0.24    0.21
  -1  -7  -3   -0.15    0.18
  -1  -7  -3   -0.22    0.26
  -1  -7  -3   -0.26    0.24
   1   7   3    0.25    0.20
   1   7   3   -0.12    0.23
   1   7   3   -0.17    0.31
  -2  -7  -3   45.88    1.05
  -2  -7  -3   46.50    1.33
  -2  -7  -3   45.84    1.23
  -2  -7  -3   46.86    1.22
  -2  -7  -3   42.09    1.33
  -2  -7  -3   44.54    1.41
  -2  -7  -3   45.68    1.52
   2   7   3   46.32    1.28
   2   7   3   42.26    1.57
   2   7   3   44.45    1.22
  -3  -7  -3    2.47    0.35
  -3  -7  -3    3.37    0.55
  -3  -7  -3    2.67    0.44
  -3  -7  -3    3.03    0.35
  -3  -7  -3    1.91    0.33
  -3  -7  -3    2.57    0.33
  -3  -7  -3    2.42    0.26
   3   7   3    2.48    0.44
   3   7   3    2.29    0.32
   3   7   3    2.45    0.51
  -4  -7  -3    5.40    0.39
  -4  -7  -3    5.02    0.46
  -4  -7  -3    4.80    0.41
  -4  -7  -3    5.41    0.48
  -4  -7  -3    3.52    0.50
  -4  -7  -3    5.45    0.43
  -4  -7  -3    4.87    0.64
   4   7   3    4.30    0.65
   4   7   3    5.35    0.58
  -5  -7  -3    6.34    0.35
  -5  -7  -3    7.53    0.81
  -5  -7  -3    6.25    0.50
  -5  -7  -3    6.73    0.65
  -5  -7  -3    7.60    0.42
  -5  -7  -3    6.47    0.52
  -5  -7  -3    7.38    0.54
  -5  -7  -3    6.31    0.37
   5   7   3    5.37    0.77
   5   7   3    7.09    0.74
  -6  -7  -3    3.74    0.47
  -6  -7  -3    4.27    0.70
  -6  -7  -3    2.40    0.50
  -6  -7  -3    3.64    0.26
  -6  -7  -3    3.33    0.27
   6   7   3    2.83    0.59
   6   7   3    3.86    0.70
  -7  -7  -3    5.59    0.66
  -7  -7  -3    5.61    0.79
  -7  -7  -3    5.67    0.66
   7   7   3    5.63    0.82
   7   7   3    5.82    0.86
   3  -8  -3    2.07    0.69
   3  -8  -3    2.22    0.60
  -3   8   3    3.37    0.72
  -3   8   3    1.17    0.56
   2  -8  -3    1.62    0.45
   2  -8  -3    1.57    0.55
   2  -8  -3    2.12    0.58
  -2   8   3    1.32    0.53
  -2   8   3    2.49    0.62
   1  -8  -3    5.19    0.65
   1  -8  -3    4.57    0.61
   1  -8  -3    4.79    0.74
   1  -8  -3    5.18    0.68
  -1   8   3    4.03    0.65
  -1   8   3    5.60    0.79
   0  -8  -3    4.44    0.61
   0  -8  -3    4.27    0.47
   0  -8  -3    5.08    0.66
   0  -8  -3    3.74    0.59
   0  -8  -3    4.54    0.63
   0   8   3    3.59    0.54
   0   8   3    3.29    0.63
  -1  -8  -3   22.90    0.85
  -1  -8  -3   21.99    1.03
  -1  -8  -3   23.65    1.11
  -1  -8  -3   23.60    1.13
  -1  -8  -3   23.25    1.08
   1   8   3   23.77    0.93
   1   8   3   23.59    1.05
   1   8   3   24.10    1.26
  -2  -8  -3    2.14    0.48
  -2  -8  -3    2.09    0.36
  -2  -8  -3    1.55    0.43
  -2  -8  -3    2.14    0.32
  -2  -8  -3    2.01    0.41
  -2  -8  -3    1.94    0.43
   2   8   3    1.72    0.54
   2   8   3    2.01    0.33
  -3  -8  -3    3.13    0.45
  -3  -8  -3    2.93    0.36
  -3  -8  -3    2.20    0.52
  -3  -8  -3    2.17    0.39
  -3  -8  -3    2.98    0.39
  -3  -8  -3    2.47    0.47
   3   8   3    1.93    0.54
  -4  -8  -3   37.21    1.52
  -4  -8  -3   34.40    1.17
  -4  -8  -3   36.03    1.12
  -4  -8  -3   34.74    1.35
  -4  -8  -3   34.91    1.11
   4   8   3   33.83    1.56
   4   8   3   36.48    1.34
  -5  -8  -3    0.49    0.21
  -5  -8  -3    0.65    0.35
  -5  -8  -3    0.33    0.41
  -5  -8  -3    0.32    0.23
   5   8   3    1.08    0.56
   5   8   3    0.74    0.42
  -6  -8  -3    4.20    0.76
  -6  -8  -3    2.47    0.48
  -6  -8  -3    2.72    0.31
   6   8   3    2.93    0.66
   6   8   3    2.90    0.71
  -7  -8  -3   10.57    0.41
  -7  -8  -3   13.74    1.10
  -7  -8  -3   10.02    0.81
   7   8   3    9.17    1.04
   7   8   3    9.53    1.04
   2  -9  -3    6.72    0.92
   2  -9  -3    5.14    0.78
  -2   9   3    4.71    0.82
  -2   9   3    5.10    0.84
   1  -9  -3    2.32    0.55
   1  -9  -3    1.74    0.58
   1  -9  -3    1.86    0.54
  -1   9   3    1.55    0.53
  -1   9   3    1.89    0.64
   0  -9  -3    4.21    0.72
   0  -9  -3    5.24    0.70
   0  -9  -3    5.43    0.75
   0  -9  -3    4.14    0.67
   0   9   3    4.28    0.66
   0   9   3    4.67    0.78
  -1  -9  -3    0.71    0.43
  -1  -9  -3    0.96    0.45
  -1  -9  -3    0.56    0.40
  -1  -9  -3    0.67    0.41
   1   9   3    0.66    0.50
  -2  -9  -3    7.14    0.72
  -2  -9  -3    9.04    0.84
  -2  -9  -3    7.29    0.83
  -2  -9  -3    5.87    0.70
   2   9   3   10.23    1.07
  -3  -9  -3    0.03    0.30
  -3  -9  -3    0.87    0.44
  -3  -9  -3    0.01    0.35
  -3  -9  -3    0.51    0.35
   3   9   3   -0.25    0.49
  -4  -9  -3    3.03    0.65
  -4  -9  -3    3.35    0.47
  -4  -9  -3    3.78    0.60
  -4  -9  -3    3.87    0.50
   4   9   3    2.29    0.67
  -5  -9  -3    3.93    0.46
  -5  -9  -3    4.66    0.46
  -5  -9  -3    3.84    0.61
  -5  -9  -3    3.08    0.70
   5   9   3    3.36    0.77
   5   9   3    3.60    0.67
  -6  -9  -3    0.04    0.48
  -6  -9  -3    0.76    0.27
  -6  -9  -3    1.49    0.47
   6   9   3    0.67    0.57
   6   9   3   -0.15    0.45
   1 -10  -3    0.00    0.48
   1 -10  -3    0.47    0.46
   1 -10  -3    0.33    0.45
  -1  10   3   -0.41    0.55
   0 -10  -3   -0.63    0.42
   0 -10  -3   -0.25    0.44
   0 -10  -3   -0.26    0.41
   0 -10  -3   -0.18    0.40
   0  10   3    0.72    0.61
  -1 -10  -3    4.88    0.75
  -1 -10  -3    7.39    0.91
  -1 -10  -3    6.32    0.81
  -1 -10  -3    6.21    0.80
   1  10   3    5.47    0.90
  -2 -10  -3    3.23    0.65
  -2 -10  -3    3.08    0.65
  -2 -10  -3    4.90    0.73
  -2 -10  -3    3.42    0.59
   2  10   3    2.58    0.68
  -3 -10  -3    0.68    0.42
  -3 -10  -3    1.46    0.43
  -3 -10  -3    0.96    0.47
  -3 -10  -3    1.30    0.55
   3  10   3    0.68    0.54
  -4 -10  -3   15.75    0.91
  -4 -10  -3   16.99    0.93
  -4 -10  -3   15.21    1.18
  -4 -10  -3   16.72    1.09
   4  10   3   14.45    1.29
  -5 -10  -3    0.77    0.33
  -5 -10  -3    0.22    0.40
  -5 -10  -3    0.31    0.55
   5  10   3    0.52    0.57
  -6 -10  -3    1.61    0.37
  -6 -10  -3    2.49    0.57
  -6 -10  -3    1.74    0.67
   6  10   3    1.35    0.71
  -1 -11  -3    0.01    0.51
  -1 -11  -3   -0.17    0.47
  -1 -11  -3   -0.23    0.46
  -1 -11  -3    0.34    0.50
   1  11   3   -0.05    0.60
  -2 -11  -3   -0.64    0.40
  -2 -11  -3    0.47    0.50
  -2 -11  -3   -0.02    0.44
  -2 -11  -3   -0.55    0.44
   2  11   3    0.08    0.57
  -3 -11  -3    2.05    0.59
  -3 -11  -3    1.85    0.67
  -3 -11  -3    0.76    0.46
  -3 -11  -3    1.66    0.52
   3  11   3    2.26    0.78
  -4 -11  -3    0.15    0.57
  -4 -11  -3   -0.26    0.38
  -4 -11  -3   -0.69    0.33
  -4 -11  -3   -0.06    0.36
   4  11   3   -0.35    0.47
   5  10  -4    0.58    0.63
  -5 -10   4    0.59    0.64
  -5 -10   4    1.21    0.43
  -5 -10   4    2.05    0.50
   4  10  -4    1.28    0.71
  -4 -10   4    0.03    0.37
  -4 -10   4    1.17    0.67
  -4 -10   4    0.62    0.43
   3  10  -4    1.30    0.67
  -3 -10   4    0.62    0.44
  -3 -10   4    1.45    0.66
  -3 -10   4    0.80    0.49
   2  10  -4    1.45    0.67
  -2 -10   4    1.29    0.52
  -2 -10   4    1.84    0.57
  -2 -10   4    1.58    0.62
  -2 -10   4    2.25    0.48
   1  10  -4    0.60    0.58
  -1 -10   4    0.38    0.48
  -1 -10   4    0.20    0.42
  -1 -10   4   -0.25    0.43
  -1 -10   4    0.14    0.48
   0  10  -4   -0.38    0.53
   0 -10   4   -0.13    0.43
   0 -10   4   -0.16    0.40
   0 -10   4   -0.76    0.44
  -1  10  -4    3.40    0.87
   1 -10   4    1.73    0.73
   1 -10   4    2.43    0.67
   1 -10   4    2.74    0.67
   6   9  -4    0.50    0.56
  -6  -9   4    1.12    0.38
  -6  -9   4    2.17    0.68
   5   9  -4   -0.12    0.50
  -5  -9   4   -0.21    0.30
  -5  -9   4    0.28    0.52
  -5  -9   4    0.05    0.32
   4   9  -4    2.64    0.71
  -4  -9   4    3.58    0.54
  -4  -9   4    2.69    0.53
  -4  -9   4    2.94    0.72
   3   9  -4    1.34    0.63
  -3  -9   4    1.26    0.44
  -3  -9   4    2.37    0.63
  -3  -9   4    1.88    0.47
  -3  -9   4    1.48    0.40
   2   9  -4    0.20    0.54
  -2  -9   4    0.50    0.44
  -2  -9   4    0.61    0.47
  -2  -9   4    0.07    0.39
  -2  -9   4    0.43    0.34
   1   9  -4    9.13    1.06
  -1  -9   4    8.38    0.80
  -1  -9   4    9.79    0.95
  -1  -9   4    9.02    0.87
  -1  -9   4    5.84    0.81
   0   9  -4    0.04    0.36
   0   9  -4    0.60    0.52
   0  -9   4    1.11    0.43
   0  -9   4   -0.44    0.39
   0  -9   4    0.30    0.49
   0  -9   4    1.01    0.49
  -1   9  -4    0.20    0.48
  -1   9  -4    0.52    0.49
   1  -9   4   -0.16    0.38
   1  -9   4    1.05    0.56
   1  -9   4    0.93    0.57
  -2   9  -4    1.62    0.61
  -2   9  -4    0.18    0.59
   2  -9   4    1.23    0.63
   2  -9   4    1.41    0.54
   2  -9   4    0.66    0.55
   6   8  -4    5.01    0.80
   6   8  -4    7.09    0.95
  -6  -8   4    4.96    0.52
  -6  -8   4    7.46    0.89
   5   8  -4    4.54    0.73
  -5  -8   4    4.63    0.53
  -5  -8   4    6.12    0.81
  -5  -8   4    4.96    0.54
   4   8  -4   -0.32    0.42
  -4  -8   4    0.33    0.42
  -4  -8   4   -0.26    0.27
  -4  -8   4   -0.33    0.29
   3   8  -4   10.90    0.92
  -3  -8   4   11.88    0.93
  -3  -8   4   11.60    0.80
  -3  -8   4   11.78    0.69
  -3  -8   4    9.88    0.73
   2   8  -4    9.86    1.00
  -2  -8   4    9.43    0.66
  -2  -8   4    9.41    0.74
  -2  -8   4    7.51    0.84
  -2  -8   4    9.28    0.78
   1   8  -4    3.61    0.53
   1   8  -4    3.90    0.68
  -1  -8   4    3.57    0.60
  -1  -8   4    3.82    0.53
  -1  -8   4    3.10    0.59
  -1  -8   4    3.20    0.54
   0   8  -4    0.27    0.35
   0   8  -4    0.61    0.52
   0  -8   4    0.16    0.37
   0  -8   4    0.95    0.45
   0  -8   4    0.51    0.45
   0  -8   4    0.12    0.36
  -1   8  -4    3.30    0.68
  -1   8  -4    3.42    0.61
   1  -8   4    3.08    0.59
   1  -8   4    3.50    0.63
   1  -8   4    4.88    0.70
   1  -8   4    4.08    0.71
  -2   8  -4    0.61    0.51
  -2   8  -4    0.61    0.49
   2  -8   4    0.26    0.46
   2  -8   4    0.26    0.45
   2  -8   4    0.65    0.44
  -3   8  -4    2.14    0.65
  -3   8  -4    0.10    0.58
   3  -8   4    0.82    0.53
   3  -8   4    1.52    0.66
   7   7  -4    1.85    0.61
   7   7  -4    1.32    0.48
  -7  -7   4    1.87    0.70
  -7  -7   4    1.38    0.32
   6   7  -4    2.08    0.55
   6   7  -4    2.13    0.57
   6   7  -4    1.81    0.51
  -6  -7   4    1.90    0.35
  -6  -7   4    2.54    0.56
   5   7  -4   -0.21    0.38
   5   7  -4   -0.29    0.39
  -5  -7   4    0.27    0.37
  -5  -7   4    0.49    0.28
  -5  -7   4   -0.08    0.23
   4   7  -4    9.10    0.83
  -4  -7   4    8.57    0.61
  -4  -7   4    9.19    0.77
  -4  -7   4    8.02    0.60
   3   7  -4   26.28    1.25
  -3  -7   4   24.90    0.98
  -3  -7   4   24.76    0.89
  -3  -7   4   25.35    1.02
  -3  -7   4   24.13    1.16
   2   7  -4    2.33    0.52
   2   7  -4    3.13    0.42
  -2  -7   4    2.03    0.41
  -2  -7   4    3.39    0.43
  -2  -7   4    2.91    0.54
  -2  -7   4    2.41    0.43
  -2  -7   4    2.22    0.43
   1   7  -4   18.60    1.05
   1   7  -4   18.78    0.90
   1   7  -4   19.29    0.67
  -1  -7   4   19.89    0.87
  -1  -7   4   18.48    0.97
  -1  -7   4   18.98    0.94
  -1  -7   4   17.66    0.93
  -1  -7   4   17.82    0.99
   0   7  -4    8.54    0.48
   0   7  -4    6.83    0.81
   0   7  -4    8.12    0.67
   0  -7   4    9.38    0.66
   0  -7   4    9.74    0.72
   0  -7   4    8.82    0.74
   0  -7   4    9.29    0.77
  -1   7  -4    0.75    0.48
  -1   7  -4    0.03    0.21
  -1   7  -4    0.26    0.35
   1  -7   4    0.44    0.38
   1  -7   4    0.31    0.34
   1  -7   4    0.38    0.36
   1  -7   4    0.36    0.39
  -2   7  -4   10.80    0.92
  -2   7  -4    8.05    0.90
  -2   7  -4    8.61    0.61
   2  -7   4    9.01    0.84
   2  -7   4    9.22    0.90
   2  -7   4   10.20    0.98
  -3   7  -4   14.66    1.11
  -3   7  -4   11.52    0.77
  -3   7  -4   12.37    1.07
   3  -7   4   13.34    0.99
   3  -7   4   12.06    0.93
   3  -7   4   12.49    1.08
  -4   7  -4    2.30    0.66
  -4   7  -4    2.45    0.73
   4  -7   4    1.26    0.62
   7   6  -4    2.16    0.61
   7   6  -4    2.82    0.57
  -7  -6   4    2.92    0.68
  -7  -6   4    3.45    0.41
   6   6  -4    8.32    0.91
   6   6  -4    6.19    0.71
  -6  -6   4    5.86    0.66
  -6  -6   4    5.55    0.47
  -6  -6   4    7.50    0.90
  -6  -6   4    6.54    0.46
   5   6  -4   28.17    1.24
   5   6  -4   30.99    1.32
   5   6  -4   29.83    1.21
  -5  -6   4   31.18    0.98
  -5  -6   4   30.74    0.99
  -5  -6   4   32.49    1.26
   4   6  -4    0.66    0.39
   4   6  -4    0.51    0.37
   4   6  -4    0.09    0.26
  -4  -6   4    0.46    0.26
  -4  -6   4    0.23    0.34
  -4  -6   4   -0.06    0.21
  -4  -6   4    0.55    0.22
   3   6  -4   30.31    1.25
  -3  -6   4   30.97    1.17
  -3  -6   4   33.21    1.26
  -3  -6   4   29.65    1.01
  -3  -6   4   31.53    0.91
  -3  -6   4   30.48    1.04
  -3  -6   4   32.44    1.04
   2   6  -4   32.62    1.27
   2   6  -4   32.11    1.28
   2   6  -4   33.90    1.06
  -2  -6   4   33.28    1.28
  -2  -6   4   33.85    1.10
  -2  -6   4   33.09    1.14
  -2  -6   4   33.11    1.06
  -2  -6   4   32.95    1.17
  -2  -6   4   32.07    0.98
   1   6  -4    7.28    0.42
   1   6  -4    8.00    0.68
   1   6  -4    7.28    0.56
   1   6  -4    6.89    0.55
  -1  -6   4    8.12    0.56
  -1  -6   4    5.55    0.61
  -1  -6   4    7.10    0.51
  -1  -6   4    5.70    0.58
  -1  -6   4    5.50    0.54
  -1  -6   4    7.69    0.58
   0   6  -4    3.67    0.58
   0   6  -4    3.67    0.50
   0   6  -4    3.98    0.37
   0  -6   4    3.65    0.51
   0  -6   4    3.97    0.51
   0  -6   4    4.73    0.51
   0  -6   4    4.56    0.51
   0  -6   4    3.26    0.49
  -1   6  -4    1.41    0.44
  -1   6  -4    2.17    0.39
  -1   6  -4    1.83    0.20
  -1   6  -4    2.16    0.33
  -1   6  -4    1.27    0.41
   1  -6   4    1.91    0.43
   1  -6   4    1.68    0.42
   1  -6   4    1.80    0.39
   1  -6   4    2.00    0.44
  -2   6  -4    4.06    0.35
  -2   6  -4    4.68    0.57
  -2   6  -4    4.27    0.68
  -2   6  -4    4.24    0.47
  -2   6  -4    3.88    0.60
   2  -6   4    4.66    0.59
   2  -6   4    4.15    0.59
   2  -6   4    4.36    0.60
   2  -6   4    4.33    0.58
  -3   6  -4    0.02    0.22
  -3   6  -4    0.16    0.32
  -3   6  -4    0.18    0.39
  -3   6  -4    0.54    0.47
  -3   6  -4    0.36    0.30
   3  -6   4   -0.19    0.33
   3  -6   4   -0.22    0.39
  -4   6  -4    0.61    0.40
  -4   6  -4    0.94    0.46
  -4   6  -4    0.42    0.37
  -4   6  -4    0.60    0.49
   4  -6   4   -0.25    0.43
   4  -6   4   -0.39    0.34
  -5   6  -4    1.13    0.62
  -5   6  -4    1.25    0.52
  -5   6  -4    0.70    0.52
   5  -6   4    0.82    0.49
   7   5  -4    1.70    0.49
   7   5  -4    2.17    0.56
  -7  -5   4    1.13    0.56
  -7  -5   4    1.98    0.34
   6   5  -4    2.29    0.50
   6   5  -4    2.75    0.55
  -6  -5   4    3.22    0.38
  -6  -5   4    3.66    0.67
  -6  -5   4    3.62    0.37
   5   5  -4    1.78    0.43
   5   5  -4    1.12    0.36
   5   5  -4    1.37    0.44
  -5  -5   4    1.00    0.25
  -5  -5   4    1.22    0.27
  -5  -5   4    1.63    0.36
   4   5  -4    5.19    0.56
   4   5  -4    5.08    0.59
   4   5  -4    4.77    0.55
  -4  -5   4    4.66    0.32
  -4  -5   4    5.27    0.43
  -4  -5   4    5.70    0.36
  -4  -5   4    4.96    0.40
  -4  -5   4    4.84    0.41
  -4  -5   4    4.92    0.53
  -4  -5   4    4.89    0.54
   3   5  -4    7.19    0.57
   3   5  -4    6.89    0.56
   3   5  -4    6.82    0.39
   3   5  -4    6.13    0.53
   3   5  -4    7.60    0.58
  -3  -5   4    7.16    0.21
  -3  -5   4    7.17    0.46
  -3  -5   4    7.25    0.56
  -3  -5   4    7.62    0.33
  -3  -5   4    7.10    0.45
  -3  -5   4    7.19    0.37
  -3  -5   4    7.14    0.56
  -3  -5   4    7.14    0.49
   2   5  -4    4.67    0.38
   2   5  -4    4.70    0.56
   2   5  -4    4.67    0.48
  -2  -5   4    4.91    0.44
  -2  -5   4    4.59    0.42
  -2  -5   4    4.83    0.49
  -2  -5   4    5.16    0.54
  -2  -5   4    5.02    0.40
  -2  -5   4    3.97    0.42
  -2  -5   4    4.93    0.35
   1   5  -4   44.20    1.16
   1   5  -4   44.36    1.42
   1   5  -4   43.94    1.26
   1   5  -4   43.51    1.12
   1   5  -4   45.47    1.30
  -1  -5   4   43.42    1.29
  -1  -5   4   42.40    1.29
  -1  -5   4   44.29    1.15
  -1  -5   4   43.22    1.36
  -1  -5   4   46.15    1.25
  -1  -5   4   42.83    1.24
  -1  -5   4   43.79    1.20
   0   5  -4    4.78    0.41
   0   5  -4    5.20    0.21
   0   5  -4    5.22    0.39
   0   5  -4    5.63    0.23
   0   5  -4    5.60    0.46
   0   5  -4    4.77    0.55
   0   5  -4    6.38    0.57
   0  -5   4    4.40    0.47
   0  -5   4    4.51    0.43
   0  -5   4    6.50    0.59
   0  -5   4    4.58    0.44
   0  -5   4    5.11    0.50
   0  -5   4    5.36    0.56
  -1   5  -4   19.71    0.58
  -1   5  -4   18.47    0.89
  -1   5  -4   19.95    0.74
  -1   5  -4   18.87    0.82
  -1   5  -4   18.91    0.84
   1  -5   4   19.58    0.92
   1  -5   4   20.58    0.89
   1  -5   4   18.91    0.81
   1  -5   4   17.75    0.78
   1  -5   4   18.58    0.88
   1  -5   4   20.75    0.89
  -2   5  -4   90.67    1.92
  -2   5  -4   86.81    2.21
  -2   5  -4   87.62    2.31
  -2   5  -4   89.93    2.07
   2  -5   4   88.67    2.26
   2  -5   4   89.33    2.22
   2  -5   4   88.68    2.20
   2  -5   4   88.36    2.29
  -3   5  -4    2.55    0.36
  -3   5  -4    2.39    0.45
  -3   5  -4    2.93    0.55
  -3   5  -4    1.74    0.41
   3  -5   4    2.75    0.55
   3  -5   4    2.20    0.46
  -4   5  -4    2.27    0.49
  -4   5  -4    2.27    0.51
  -4   5  -4    2.25    0.41
  -4   5  -4    1.47    0.44
   4  -5   4    3.24    0.60
   4  -5   4    1.46    0.42
  -5   5  -4   12.27    0.94
  -5   5  -4   15.15    1.11
  -5   5  -4   13.34    0.87
  -5   5  -4   15.16    1.05
   5  -5   4   12.07    0.91
  -6   5  -4    0.43    0.46
  -6   5  -4    0.03    0.47
  -6   5  -4    1.31    0.51
   6  -5   4    0.28    0.44
   8   4  -4    3.14    0.71
   8   4  -4    1.65    0.53
  -8  -4   4    3.49    0.82
  -8  -4   4    2.81    0.41
   7   4  -4   10.88    0.93
   7   4  -4   11.46    0.87
  -7  -4   4   12.36    1.02
   6   4  -4    0.87    0.43
   6   4  -4    1.85    0.44
  -6  -4   4    2.62    0.60
  -6  -4   4    2.20    0.33
   5   4  -4   22.65    1.00
   5   4  -4   21.19    1.00
   5   4  -4   20.74    0.82
  -5  -4   4   21.08    1.07
  -5  -4   4   21.04    0.74
  -5  -4   4   20.49    0.74
  -5  -4   4   21.30    0.75
  -5  -4   4   20.50    0.83
   4   4  -4    1.56    0.36
   4   4  -4    2.00    0.40
   4   4  -4    2.16    0.36
  -4  -4   4    1.64    0.38
  -4  -4   4    2.04    0.27
  -4  -4   4    1.56    0.26
  -4  -4   4    1.44    0.30
  -4  -4   4    2.12    0.28
  -4  -4   4    1.73    0.20
   3   4  -4    2.80    0.26
   3   4  -4    2.51    0.38
   3   4  -4    3.30    0.42
   3   4  -4    3.24    0.42
   3   4  -4    2.86    0.38
  -3  -4   4    2.73    0.22
  -3  -4   4    3.85    0.43
  -3  -4   4    2.61    0.25
  -3  -4   4    2.99    0.31
  -3  -4   4    3.01    0.40
  -3  -4   4    2.50    0.29
  -3  -4   4    2.62    0.32
   2   4  -4    6.14    0.39
   2   4  -4    6.30    0.46
   2   4  -4    5.74    0.49
   2   4  -4    5.92    0.44
  -2  -4   4    6.24    0.26
  -2  -4   4    6.04    0.37
  -2  -4   4    5.77    0.42
  -2  -4   4    6.17    0.50
  -2  -4   4    5.50    0.44
  -2  -4   4    5.82    0.41
  -2  -4   4    6.03    0.40
  -2  -4   4    5.73    0.31
   1   4  -4   44.91    1.20
   1   4  -4   45.55    1.13
   1   4  -4   47.29    1.26
   1   4  -4   44.95    1.32
  -1  -4   4   46.52    1.16
  -1  -4   4   46.37    1.26
  -1  -4   4   42.69    1.22
  -1  -4   4   45.16    1.19
  -1  -4   4   45.05    0.84
  -1  -4   4   44.94    1.07
  -1  -4   4   45.57    1.19
  -1  -4   4   44.52    1.29
   0   4  -4   30.25    0.64
   0   4  -4   30.58    0.92
   0   4  -4   30.65    0.86
   0   4  -4   30.14    0.65
   0   4  -4   31.91    0.98
   0   4  -4   27.60    0.96
   0  -4   4   28.60    0.94
   0  -4   4   30.05    0.88
   0  -4   4   30.44    0.97
   0  -4   4   28.47    0.97
   0  -4   4   29.48    0.90
   0  -4   4   29.42    1.01
  -1   4  -4    0.58    0.22
  -1   4  -4    0.17    0.13
  -1   4  -4    0.13    0.23
  -1   4  -4    0.33    0.21
  -1   4  -4    0.22    0.17
  -1   4  -4    0.04    0.18
   1  -4   4    0.20    0.25
   1  -4   4    0.10    0.20
   1  -4   4    0.15    0.20
   1  -4   4   -0.38    0.22
   1  -4   4    0.78    0.27
   1  -4   4    0.09    0.22
  -2   4  -4   35.64    0.98
  -2   4  -4   35.02    1.15
  -2   4  -4   34.78    1.08
  -2   4  -4   35.67    1.12
  -2   4  -4   36.87    1.20
  -2   4  -4   38.66    1.28
   2  -4   4   34.41    1.13
   2  -4   4   36.65    1.17
   2  -4   4   35.27    1.18
   2  -4   4   37.03    1.24
   2  -4   4   37.55    1.14
  -3   4  -4    3.59    0.51
  -3   4  -4    3.18    0.51
  -3   4  -4    3.23    0.45
  -3   4  -4    3.09    0.42
  -3   4  -4    3.43    0.37
   3  -4   4    3.90    0.50
   3  -4   4    3.30    0.52
  -4   4  -4    2.11    0.40
  -4   4  -4    3.22    0.49
  -4   4  -4    2.63    0.47
  -4   4  -4    2.54    0.42
  -4   4  -4    2.22    0.47
   4  -4   4    1.58    0.45
   4  -4   4    2.41    0.46
  -5   4  -4    5.42    0.71
  -5   4  -4    6.33    0.71
  -5   4  -4    5.56    0.67
  -5   4  -4    5.44    0.60
   5  -4   4    6.14    0.79
  -6   4  -4    0.22    0.45
  -6   4  -4   -0.23    0.34
  -6   4  -4    1.01    0.45
   6  -4   4   -0.25    0.40
   8   3  -4   -0.26    0.40
   8   3  -4    0.10    0.43
  -8  -3   4    0.84    0.63
  -8  -3   4   -0.26    0.25
   7   3  -4    9.39    0.82
   7   3  -4   10.15    0.98
  -7  -3   4   12.84    1.09
  -7  -3   4   10.80    0.63
  -7  -3   4   10.54    0.64
   6   3  -4   15.02    0.92
   6   3  -4   15.67    0.88
  -6  -3   4   16.14    0.71
  -6  -3   4   16.44    1.03
  -6  -3   4   15.95    0.70
   5   3  -4    3.71    0.51
   5   3  -4    4.34    0.54
  -5  -3   4    3.51    0.55
  -5  -3   4    3.58    0.36
  -5  -3   4    4.10    0.37
  -5  -3   4    4.72    0.57
  -5  -3   4    4.36    0.40
  -5  -3   4    4.28    0.39
   4   3  -4   10.99    0.63
   4   3  -4   10.82    0.64
   4   3  -4   10.63    0.52
  -4  -3   4   10.52    0.49
  -4  -3   4   10.60    0.36
  -4  -3   4    9.97    0.48
  -4  -3   4   11.19    0.67
  -4  -3   4   11.22    0.39
  -4  -3   4   11.32    0.72
  -4  -3   4   10.90    0.53
  -4  -3   4   10.60    0.51
   3   3  -4   11.39    0.58
   3   3  -4    9.74    0.41
   3   3  -4   10.56    0.51
   3   3  -4    9.97    0.57
   3   3  -4   10.15    0.58
  -3  -3   4   10.16    0.44
  -3  -3   4   10.31    0.30
  -3  -3   4   10.74    0.59
  -3  -3   4   10.39    0.48
  -3  -3   4   11.32    0.54
  -3  -3   4   10.30    0.49
  -3  -3   4   10.47    0.46
  -3  -3   4   10.13    0.46
   2   3  -4   22.81    0.80
   2   3  -4   20.09    0.79
   2   3  -4   23.47    0.81
   2   3  -4   23.52    0.70
   2   3  -4   23.28    0.80
   2   3  -4   23.14    0.79
  -2  -3   4   23.85    0.71
  -2  -3   4   22.74    0.53
  -2  -3   4   22.87    0.79
  -2  -3   4   22.43    0.74
  -2  -3   4   22.86    0.60
  -2  -3   4   24.16    0.71
  -2  -3   4   23.72    0.54
  -2  -3   4   22.55    0.79
  -2  -3   4   22.75    0.63
   1   3  -4   35.53    0.74
   1   3  -4   35.32    0.93
   1   3  -4   36.22    1.01
   1   3  -4   36.78    1.02
   1   3  -4   33.95    0.95
  -1  -3   4   34.17    1.02
  -1  -3   4   35.13    0.94
  -1  -3   4   35.35    0.88
  -1  -3   4   36.10    0.95
  -1  -3   4   34.64    0.74
  -1  -3   4   34.81    0.80
  -1  -3   4   35.49    0.98
  -1  -3   4   35.01    1.00
   0   3  -4    1.16    0.23
   0   3  -4    1.07    0.14
   0   3  -4    1.11    0.13
   0   3  -4    1.14    0.23
   0   3  -4    1.32    0.23
   0   3  -4    1.13    0.21
   0   3  -4    1.06    0.25
   0  -3   4    1.18    0.27
   0  -3   4    1.06    0.14
   0  -3   4    0.98    0.23
   0  -3   4    1.13    0.21
   0  -3   4    1.23    0.25
   0  -3   4    1.22    0.21
   0  -3   4    1.03    0.26
  -1   3  -4    9.88    0.47
  -1   3  -4    9.41    0.48
  -1   3  -4    9.92    0.53
  -1   3  -4   10.18    0.52
  -1   3  -4    9.88    0.39
  -1   3  -4   10.02    0.58
   1  -3   4    9.92    0.51
   1  -3   4   10.12    0.55
   1  -3   4    9.26    0.54
   1  -3   4   10.24    0.49
   1  -3   4   10.25    0.50
   1  -3   4    9.63    0.51
  -2   3  -4   44.10    1.09
  -2   3  -4   43.53    1.19
  -2   3  -4   42.43    1.28
  -2   3  -4   42.72    1.19
  -2   3  -4   42.98    1.24
  -2   3  -4   43.21    1.22
   2  -3   4   43.31    1.19
   2  -3   4   41.15    1.18
   2  -3   4   42.01    1.24
   2  -3   4   43.33    1.26
  -3   3  -4    4.69    0.42
  -3   3  -4    4.74    0.52
  -3   3  -4    4.27    0.42
  -3   3  -4    4.92    0.49
  -3   3  -4    5.14    0.52
  -3   3  -4    4.99    0.53
  -3   3  -4    5.06    0.47
   3  -3   4    5.28    0.43
   3  -3   4    4.58    0.46
   3  -3   4    5.02    0.50
   3  -3   4    5.17    0.53
  -4   3  -4   -0.03    0.24
  -4   3  -4   -0.01    0.24
  -4   3  -4    0.03    0.27
  -4   3  -4    0.25    0.26
  -4   3  -4    0.30    0.25
  -4   3  -4   -0.05    0.26
   4  -3   4    0.00    0.27
   4  -3   4    0.08    0.25
  -5   3  -4    7.38    0.73
  -5   3  -4    8.79    0.76
  -5   3  -4    8.26    0.65
  -5   3  -4    7.43    0.57
  -5   3  -4    9.75    0.75
   5  -3   4    7.11    0.74
  -6   3  -4    1.28    0.44
  -6   3  -4    0.95    0.48
  -6   3  -4    0.53    0.38
   6  -3   4    1.55    0.53
  -7   3  -4    1.65    0.51
  -7   3  -4    0.96    0.57
  -7   3  -4    1.21    0.50
   7  -3   4    1.28    0.55
   7  -3   4    1.72    0.54
   8   2  -4    0.07    0.40
   8   2  -4   -0.43    0.32
  -8  -2   4    0.05    0.28
  -8  -2   4    0.63    0.58
   7   2  -4   -0.01    0.31
   7   2  -4   -0.09    0.36
  -7  -2   4    0.18    0.26
  -7  -2   4    0.21    0.25
  -7  -2   4   -0.41    0.51
   6   2  -4   -0.19    0.29
   6   2  -4   -0.28    0.29
  -6  -2   4    0.18    0.23
  -6  -2   4    0.13    0.39
  -6  -2   4   -0.10    0.22
   5   2  -4    4.36    0.53
   5   2  -4    4.05    0.53
  -5  -2   4    4.42    0.40
  -5  -2   4    4.44    0.62
  -5  -2   4    5.19    0.59
  -5  -2   4    5.04    0.63
   4   2  -4    2.94    0.26
   4   2  -4    3.25    0.41
   4   2  -4    3.01    0.40
  -4  -2   4    3.62    0.57
  -4  -2   4    2.76    0.32
  -4  -2   4    3.87    0.46
  -4  -2   4    2.65    0.29
  -4  -2   4    3.57    0.30
  -4  -2   4    3.46    0.33
  -4  -2   4    3.78    0.18
  -4  -2   4    3.28    0.47
   3   2  -4    5.43    0.42
   3   2  -4    4.98    0.32
   3   2  -4    5.46    0.42
   3   2  -4    5.31    0.32
  -3  -2   4    5.56    0.48
  -3  -2   4    4.57    0.36
  -3  -2   4    5.24    0.34
  -3  -2   4    4.70    0.18
  -3  -2   4    4.86    0.34
  -3  -2   4    5.58    0.44
  -3  -2   4    5.03    0.21
  -3  -2   4    4.64    0.32
  -3  -2   4    5.09    0.18
  -3  -2   4    5.12    0.35
   2   2  -4   11.92    0.47
   2   2  -4   12.01    0.41
   2   2  -4   12.90    0.50
   2   2  -4   11.14    0.52
   2   2  -4   13.58    0.57
  -2  -2   4   12.88    0.45
  -2  -2   4   12.59    0.36
  -2  -2   4   12.12    0.47
  -2  -2   4   12.99    0.50
  -2  -2   4   13.01    0.56
  -2  -2   4   11.88    0.50
  -2  -2   4   13.33    0.49
   1   2  -4    0.03    0.08
   1   2  -4    0.21    0.16
   1   2  -4   -0.01    0.11
   1   2  -4    0.20    0.16
   1   2  -4    0.06    0.15
   1   2  -4    0.14    0.19
   1   2  -4    0.03    0.08
  -1  -2   4    0.12    0.19
  -1  -2   4    0.15    0.17
  -1  -2   4    0.15    0.12
  -1  -2   4   -0.02    0.09
  -1  -2   4    0.01    0.16
  -1  -2   4   -0.06    0.16
  -1  -2   4   -0.01    0.16
  -1  -2   4   -0.03    0.10
  -1  -2   4    0.16    0.09
   0   2  -4   10.09    0.40
   0   2  -4    9.75    0.44
   0   2  -4   10.29    0.49
   0   2  -4   11.15    0.49
   0   2  -4    9.79    0.31
   0   2  -4    9.78    0.44
   0   2  -4   10.19    0.35
   0   2  -4   10.47    0.45
   0  -2   4    9.14    0.45
   0  -2   4    9.93    0.47
   0  -2   4    9.75    0.34
   0  -2   4   10.02    0.45
   0  -2   4   10.62    0.50
   0  -2   4   10.67    0.51
   0  -2   4   10.02    0.40
  -1   2  -4   29.19    0.83
  -1   2  -4   31.53    0.87
  -1   2  -4   30.32    0.90
  -1   2  -4   28.52    0.83
  -1   2  -4   31.00    0.76
  -1   2  -4   29.25    0.85
   1  -2   4   30.76    0.91
   1  -2   4   30.55    0.86
   1  -2   4   29.37    0.83
   1  -2   4   30.12    0.86
   1  -2   4   31.71    0.92
  -2   2  -4    5.01    0.41
  -2   2  -4    5.94    0.44
  -2   2  -4    6.33    0.42
  -2   2  -4    6.50    0.41
  -2   2  -4    6.59    0.43
  -2   2  -4    6.47    0.37
  -2   2  -4    6.41    0.46
   2  -2   4    6.42    0.41
   2  -2   4    5.57    0.42
   2  -2   4    6.75    0.43
   2  -2   4    5.90    0.43
  -3   2  -4    0.41    0.19
  -3   2  -4   -0.13    0.19
  -3   2  -4   -0.01    0.16
  -3   2  -4    0.16    0.16
  -3   2  -4   -0.05    0.23
  -3   2  -4    0.16    0.22
  -3   2  -4    0.41    0.21
  -3   2  -4    0.57    0.23
   3  -2   4    0.15    0.23
   3  -2   4    0.24    0.20
   3  -2   4    0.15    0.21
  -4   2  -4    8.26    0.60
  -4   2  -4    8.04    0.54
  -4   2  -4    8.55    0.58
  -4   2  -4    7.56    0.60
  -4   2  -4    8.05    0.57
  -4   2  -4    8.25    0.47
  -4   2  -4    7.63    0.60
   4  -2   4    8.35    0.58
   4  -2   4    7.40    0.52
   4  -2   4    9.49    0.64
  -5   2  -4   17.96    0.88
  -5   2  -4   17.80    0.85
  -5   2  -4   17.20    0.76
  -5   2  -4   18.32    0.96
  -5   2  -4   17.60    0.92
  -5   2  -4   19.67    0.93
   5  -2   4   18.33    0.96
  -6   2  -4   -0.57    0.33
  -6   2  -4    0.15    0.31
  -6   2  -4   -0.17    0.27
  -6   2  -4   -0.13    0.29
   6  -2   4   -0.08    0.37
  -7   2  -4    0.29    0.37
  -7   2  -4    0.07    0.35
  -7   2  -4    0.03    0.50
   7  -2   4    0.03    0.36
   7  -2   4   -0.15    0.39
   8   1  -4    0.04    0.41
   8   1  -4   -0.23    0.37
  -8  -1   4   -0.01    0.29
  -8  -1   4    0.07    0.52
  -8  -1   4   -0.40    0.28
   7   1  -4    2.24    0.50
   7   1  -4    2.32    0.51
  -7  -1   4    2.52    0.44
  -7  -1   4    2.45    0.44
  -7  -1   4    2.77    0.66
   6   1  -4    7.83    0.67
   6   1  -4    7.69    0.66
  -6  -1   4    7.49    0.57
  -6  -1   4    8.33    0.62
  -6  -1   4    8.00    0.83
   5   1  -4    7.39    0.55
   5   1  -4    7.41    0.59
  -5  -1   4    7.70    0.51
  -5  -1   4    7.91    0.55
  -5  -1   4    7.84    0.63
  -5  -1   4    8.90    0.81
   4   1  -4   11.95    0.64
   4   1  -4   11.46    0.49
   4   1  -4   10.92    0.58
  -4  -1   4   10.84    0.64
  -4  -1   4   11.26    0.33
  -4  -1   4   10.99    0.53
  -4  -1   4   10.58    0.56
  -4  -1   4   11.97    0.71
  -4  -1   4   10.66    0.53
   3   1  -4   20.04    0.64
   3   1  -4   19.27    0.75
   3   1  -4   20.05    0.71
  -3  -1   4   19.14    0.79
  -3  -1   4   20.35    0.65
  -3  -1   4   20.42    0.49
  -3  -1   4   20.13    0.65
  -3  -1   4   17.94    0.73
  -3  -1   4   18.90    0.68
  -3  -1   4   20.40    0.53
   2   1  -4   34.77    0.90
   2   1  -4   36.02    0.84
   2   1  -4   34.95    0.98
   2   1  -4   34.66    0.87
  -2  -1   4   34.71    0.89
  -2  -1   4   34.58    0.82
  -2  -1   4   33.95    0.95
  -2  -1   4   35.07    0.93
  -2  -1   4   35.85    0.90
  -2  -1   4   36.36    0.90
  -2  -1   4   35.37    1.01
   1   1  -4   36.38    0.91
   1   1  -4   36.71    0.81
   1   1  -4   35.48    0.83
   1   1  -4   35.87    0.89
   1   1  -4   36.17    0.73
   1   1  -4   37.56    0.64
   1   1  -4   36.11    0.90
   1   1  -4   33.13    0.84
  -1  -1   4   36.55    0.90
  -1  -1   4   35.75    0.88
  -1  -1   4   37.18    0.74
  -1  -1   4   35.95    0.91
  -1  -1   4   36.63    0.84
  -1  -1   4   35.87    0.88
  -1  -1   4   35.28    0.91
  -1  -1   4   39.23    0.90
   0   1  -4    3.79    0.22
   0   1  -4    3.77    0.25
   0   1  -4    3.82    0.27
   0   1  -4    3.70    0.28
   0   1  -4    3.59    0.24
   0   1  -4    3.65    0.27
   0   1  -4    3.91    0.33
   0  -1   4    3.68    0.24
   0  -1   4    3.99    0.31
   0  -1   4    3.85    0.33
   0  -1   4    3.39    0.29
   0  -1   4    3.56    0.30
   0  -1   4    3.56    0.31
   0  -1   4    4.01    0.25
   0  -1   4    3.42    0.24
   0  -1   4    3.45    0.25
  -1   1  -4    9.59    0.40
  -1   1  -4    9.43    0.42
  -1   1  -4    9.42    0.46
  -1   1  -4    9.19    0.43
  -1   1  -4    9.52    0.43
  -1   1  -4    9.12    0.40
  -1   1  -4    8.47    0.36
   1  -1   4    9.56    0.41
   1  -1   4    9.91    0.44
   1  -1   4    9.63    0.41
   1  -1   4    8.80    0.38
   1  -1   4    9.14    0.45
   1  -1   4    9.03    0.46
  -2   1  -4   -0.08    0.13
  -2   1  -4    0.08    0.17
  -2   1  -4   -0.02    0.18
  -2   1  -4    0.59    0.22
  -2   1  -4    0.21    0.19
  -2   1  -4    0.03    0.15
  -2   1  -4    0.11    0.15
   2  -1   4    0.06    0.17
   2  -1   4    0.22    0.11
   2  -1   4   -0.08    0.17
   2  -1   4    0.11    0.17
  -3   1  -4   12.37    0.59
  -3   1  -4   12.46    0.61
  -3   1  -4   12.57    0.44
  -3   1  -4   13.68    0.59
  -3   1  -4   13.53    0.56
  -3   1  -4   13.79    0.61
  -3   1  -4   12.97    0.58
  -3   1  -4   13.73    0.57
   3  -1   4   12.35    0.56
   3  -1   4   14.14    0.60
   3  -1   4   13.60    0.51
  -4   1  -4    1.93    0.37
  -4   1  -4    2.09    0.34
  -4   1  -4    1.76    0.28
  -4   1  -4    2.29    0.28
  -4   1  -4    1.75    0.33
  -4   1  -4    2.05    0.32
  -4   1  -4    1.33    0.30
   4  -1   4    1.84    0.31
   4  -1   4    2.14    0.31
   4  -1   4    2.31    0.39
  -5   1  -4    1.16    0.33
  -5   1  -4    1.47    0.35
  -5   1  -4    1.60    0.41
  -5   1  -4    2.52    0.38
  -5   1  -4    2.23    0.33
  -5   1  -4    1.42    0.32
   5  -1   4    2.55    0.46
  -6   1  -4    0.63    0.39
  -6   1  -4    0.48    0.30
  -6   1  -4    0.78    0.33
  -6   1  -4    0.66    0.32
   6  -1   4    0.46    0.30
   6  -1   4    0.74    0.37
   6  -1   4    0.91    0.41
  -7   1  -4    4.05    0.71
  -7   1  -4    4.98    0.62
  -7   1  -4    4.75    0.62
   7  -1   4    4.50    0.75
   7   0  -4    0.62    0.45
   7   0  -4    1.04    0.41
  -7   0   4    1.14    0.40
  -7   0   4    0.06    0.29
  -7   0   4    0.23    0.56
   6   0  -4   11.44    0.84
   6   0  -4   12.03    0.79
  -6   0   4   12.45    0.94
  -6   0   4   11.12    0.71
  -6   0   4   12.24    0.76
   5   0  -4    4.53    0.56
   5   0  -4    5.66    0.57
  -5   0   4    3.76    0.58
  -5   0   4    4.59    0.49
  -5   0   4    4.13    0.45
   4   0  -4    1.03    0.30
   4   0  -4    1.55    0.30
   4   0  -4    1.33    0.25
  -4   0   4    1.07    0.35
  -4   0   4    0.84    0.27
  -4   0   4    0.76    0.24
  -4   0   4    1.09    0.26
   3   0  -4   -0.08    0.17
   3   0  -4    0.22    0.14
   3   0  -4    0.16    0.17
  -3   0   4    0.28    0.18
  -3   0   4    0.18    0.20
  -3   0   4    0.27    0.18
  -3   0   4    0.12    0.26
   2   0  -4    3.37    0.30
   2   0  -4    2.93    0.25
   2   0  -4    3.24    0.18
   2   0  -4    2.74    0.28
   2   0  -4    3.53    0.19
   2   0  -4    3.73    0.37
  -2   0   4    3.35    0.19
  -2   0   4    2.77    0.28
  -2   0   4    3.44    0.37
  -2   0   4    3.03    0.30
  -2   0   4    3.06    0.31
  -2   0   4    2.96    0.30
  -2   0   4    3.87    0.33
  -2   0   4    3.77    0.20
   1   0  -4  109.20    1.92
   1   0  -4  104.43    2.08
   1   0  -4  108.83    2.15
   1   0  -4  111.57    2.03
   1   0  -4  111.38    2.16
   1   0  -4  111.54    2.11
   1   0  -4  109.76    1.89
   1   0  -4  109.96    2.10
  -1   0   4  111.00    2.04
  -1   0   4  111.75    2.12
  -1   0   4  110.45    2.09
  -1   0   4  113.08    2.13
  -1   0   4  110.42    2.10
  -1   0   4  106.45    2.15
  -1   0   4  108.08    2.15
   0   0  -4  129.44    2.34
   0   0  -4  132.32    2.44
   0   0  -4  131.25    2.47
   0   0  -4  127.82    2.39
   0   0  -4  130.73    2.41
   0   0  -4  129.58    2.44
   0   0  -4  131.38    2.45
   0   0  -4  134.27    2.37
   0   0  -4  132.21    2.35
   0   0   4  131.18    2.37
   0   0   4  126.83    2.35
   0   0   4  132.38    2.46
   0   0   4  130.99    2.47
   0   0   4  133.40    2.44
   0   0   4  134.23    2.45
   0   0   4  132.72    2.41
   0   0   4  130.18    2.34
   0   0   4  128.37    2.43
  -1   0  -4   50.55    1.03
  -1   0  -4   49.75    1.09
  -1   0  -4   48.93    1.08
  -1   0  -4   49.43    1.12
  -1   0  -4   48.78    1.08
  -1   0  -4   50.15    1.08
  -1   0  -4   48.78    1.08
  -1   0  -4   49.32    1.12
   1   0   4   49.26    1.08
   1   0   4   49.18    1.08
   1   0   4   51.23    1.14
   1   0   4   49.93    1.02
   1   0   4   50.29    0.87
   1   0   4   49.29    1.11
   1   0   4   49.52    1.17
  -2   0  -4    0.28    0.15
  -2   0  -4    0.51    0.18
  -2   0  -4    0.55    0.18
  -2   0  -4    0.50    0.18
  -2   0  -4    0.82    0.17
  -2   0  -4    0.31    0.14
  -2   0  -4    0.60    0.19
   2   0   4    0.39    0.18
   2   0   4    0.56    0.15
   2   0   4    0.56    0.18
   2   0   4    0.22    0.20
  -3   0  -4    2.99    0.32
  -3   0  -4    2.81    0.31
  -3   0  -4    2.57    0.31
  -3   0  -4    2.63    0.26
  -3   0  -4    2.38    0.33
  -3   0  -4    3.50    0.21
  -3   0  -4    3.07    0.28
   3   0   4    3.19    0.37
   3   0   4    4.38    0.42
   3   0   4    3.11    0.32
   3   0   4    3.40    0.30
  -4   0  -4   22.61    0.76
  -4   0  -4   24.84    0.82
  -4   0  -4   26.18    0.91
  -4   0  -4   23.90    0.77
  -4   0  -4   24.86    0.70
  -4   0  -4   24.61    0.86
  -4   0  -4   24.74    0.94
   4   0   4   23.71    0.74
   4   0   4   24.30    0.87
   4   0   4   24.76    0.95
   4   0   4   24.44    0.85
  -5   0  -4   37.75    1.05
  -5   0  -4   37.98    1.11
  -5   0  -4   39.28    1.28
  -5   0  -4   37.23    1.20
  -5   0  -4   36.91    1.14
  -5   0  -4   38.18    1.34
   5   0   4   37.77    1.18
   5   0   4   37.16    1.29
   5   0   4   37.28    1.18
  -6   0  -4    6.31    0.54
  -6   0  -4    5.14    0.55
  -6   0  -4    5.74    0.64
  -6   0  -4    5.38    0.52
  -6   0  -4    5.00    0.64
   6   0   4    4.58    0.63
   6   0   4    6.83    0.63
  -7   0  -4   -0.11    0.25
  -7   0  -4    0.12    0.28
  -7   0  -4    0.19    0.39
   7   0   4    0.27    0.45
  -8   0  -4    5.74    0.66
  -8   0  -4    6.79    0.89
  -8   0  -4    6.79    0.69
   8   0   4    3.29    0.74
   7  -1  -4    0.14    0.33
   7  -1  -4   -0.18    0.39
  -7   1   4    0.20    0.56
  -7   1   4    0.02    0.32
  -7   1   4    0.03    0.32
   6  -1  -4    0.21    0.34
   6  -1  -4    0.10    0.28
  -6   1   4    0.09    0.32
  -6   1   4    0.53    0.33
  -6   1   4    0.47    0.51
   5  -1  -4    4.96    0.60
   5  -1  -4    3.89    0.49
  -5   1   4    4.17    0.54
  -5   1   4    4.41    0.50
  -5   1   4    4.28    0.61
   4  -1  -4    6.49    0.49
   4  -1  -4    5.77    0.58
   4  -1  -4    6.74    0.27
   4  -1  -4    6.90    0.49
  -4   1   4    6.17    0.56
  -4   1   4    6.93    0.52
  -4   1   4    6.82    0.67
   3  -1  -4   25.76    0.55
   3  -1  -4   24.29    0.83
   3  -1  -4   25.25    0.73
   3  -1  -4   24.58    0.76
   3  -1  -4   22.72    0.88
  -3   1   4   24.82    0.83
  -3   1   4   24.55    0.88
  -3   1   4   22.57    0.90
  -3   1   4   24.32    0.82
   2  -1  -4    5.47    0.39
   2  -1  -4    5.43    0.17
   2  -1  -4    5.42    0.20
   2  -1  -4    5.34    0.40
   2  -1  -4    5.29    0.29
   2  -1  -4    5.01    0.37
   2  -1  -4    5.66    0.35
  -2   1   4    5.49    0.40
  -2   1   4    5.78    0.37
  -2   1   4    5.18    0.43
  -2   1   4    5.33    0.36
   1  -1  -4   73.55    1.56
   1  -1  -4   73.21    1.44
   1  -1  -4   74.63    1.60
   1  -1  -4   75.60    1.56
   1  -1  -4   74.01    1.54
   1  -1  -4   77.71    1.61
   1  -1  -4   75.76    1.43
  -1   1   4   73.13    1.59
  -1   1   4   74.50    1.53
  -1   1   4   71.42    1.55
  -1   1   4   75.42    1.57
  -1   1   4   74.87    1.55
   0  -1  -4    5.55    0.33
   0  -1  -4    5.49    0.31
   0  -1  -4    4.63    0.31
   0  -1  -4    4.55    0.29
   0  -1  -4    4.21    0.28
   0  -1  -4    4.79    0.25
   0  -1  -4    4.96    0.33
   0  -1  -4    5.06    0.25
   0   1   4    5.23    0.35
   0   1   4    4.54    0.36
   0   1   4    5.17    0.34
   0   1   4    5.29    0.21
   0   1   4    5.61    0.34
   0   1   4    5.02    0.30
   0   1   4    5.06    0.29
  -1  -1  -4   31.04    0.80
  -1  -1  -4   32.75    0.79
  -1  -1  -4   33.08    0.63
  -1  -1  -4   31.22    0.79
  -1  -1  -4   32.84    0.67
  -1  -1  -4   33.44    0.78
  -1  -1  -4   32.61    0.77
  -1  -1  -4   32.15    0.80
  -1  -1  -4   31.91    0.79
  -1  -1  -4   34.72    0.82
   1   1   4   27.48    0.73
   1   1   4   33.90    0.80
   1   1   4   34.38    0.91
   1   1   4   33.52    0.85
   1   1   4   32.72    0.67
   1   1   4   32.66    0.80
   1   1   4   31.79    0.80
  -2  -1  -4    0.42    0.18
  -2  -1  -4    0.71    0.17
  -2  -1  -4    0.32    0.17
  -2  -1  -4    0.50    0.19
  -2  -1  -4    0.40    0.14
  -2  -1  -4    0.31    0.15
  -2  -1  -4    0.45    0.13
   2   1   4    0.32    0.26
   2   1   4    0.41    0.12
   2   1   4    0.25    0.16
   2   1   4    0.62    0.19
   2   1   4    0.23    0.20
   2   1   4    0.31    0.14
  -3  -1  -4    1.80    0.22
  -3  -1  -4    1.91    0.23
  -3  -1  -4    1.84    0.20
  -3  -1  -4    1.63    0.29
  -3  -1  -4    2.35    0.30
  -3  -1  -4    2.09    0.18
  -3  -1  -4    1.96    0.27
  -3  -1  -4    1.40    0.18
   3   1   4    1.92    0.27
   3   1   4    2.07    0.31
   3   1   4    1.85    0.19
   3   1   4    1.55    0.25
  -4  -1  -4    7.74    0.38
  -4  -1  -4    7.84    0.39
  -4  -1  -4    8.30    0.41
  -4  -1  -4    7.52    0.53
  -4  -1  -4    7.70    0.41
  -4  -1  -4    7.36    0.47
  -4  -1  -4    7.69    0.37
  -4  -1  -4    8.26    0.51
   4   1   4    7.69    0.47
   4   1   4    7.28    0.51
   4   1   4    7.94    0.47
  -5  -1  -4    5.47    0.50
  -5  -1  -4    5.37    0.42
  -5  -1  -4    5.44    0.58
  -5  -1  -4    5.17    0.38
  -5  -1  -4    5.07    0.38
  -5  -1  -4    5.41    0.40
  -5  -1  -4    5.37    0.52
   5   1   4    7.36    0.68
   5   1   4    5.72    0.46
   5   1   4    6.26    0.49
   5   1   4    5.76    0.38
  -6  -1  -4    3.83    0.41
  -6  -1  -4    4.10    0.44
  -6  -1  -4    4.00    0.58
  -6  -1  -4    3.61    0.40
  -6  -1  -4    3.38    0.44
  -6  -1  -4    5.42    0.60
   6   1   4    3.41    0.56
   6   1   4    4.08    0.48
  -7  -1  -4    1.05    0.51
  -7  -1  -4    1.49    0.32
  -7  -1  -4    1.28    0.34
   7   1   4    0.96    0.52
  -8  -1  -4    0.13    0.29
  -8  -1  -4   -0.49    0.38
   8   1   4    0.20    0.44
   7  -2  -4    0.66    0.39
   7  -2  -4    0.86    0.47
  -7   2   4    0.50    0.53
  -7   2   4    0.91    0.42
  -7   2   4    0.82    0.44
   6  -2  -4    8.73    0.88
   6  -2  -4    9.46    0.71
  -6   2   4   11.21    0.82
  -6   2   4    9.38    0.98
  -6   2   4    7.56    0.76
   5  -2  -4    0.85    0.32
   5  -2  -4    0.65    0.34
  -5   2   4    0.82    0.49
  -5   2   4    0.31    0.32
  -5   2   4    1.02    0.37
   4  -2  -4    0.30    0.22
   4  -2  -4    0.15    0.25
   4  -2  -4    0.34    0.27
   4  -2  -4    0.10    0.12
   4  -2  -4    0.30    0.22
  -4   2   4   -0.22    0.22
  -4   2   4    0.14    0.26
  -4   2   4    0.58    0.36
   3  -2  -4   26.55    0.84
   3  -2  -4   24.07    0.91
   3  -2  -4   25.48    0.66
   3  -2  -4   26.12    0.97
  -3   2   4   23.92    0.89
  -3   2   4   25.07    0.90
  -3   2   4   25.51    0.95
  -3   2   4   25.71    0.99
   2  -2  -4    3.99    0.32
   2  -2  -4    4.44    0.36
   2  -2  -4    3.80    0.23
   2  -2  -4    4.02    0.39
   2  -2  -4    3.31    0.38
   2  -2  -4    4.29    0.20
   2  -2  -4    4.12    0.42
  -2   2   4    4.14    0.40
  -2   2   4    3.67    0.39
  -2   2   4    4.03    0.43
  -2   2   4    4.40    0.38
   1  -2  -4   13.73    0.50
   1  -2  -4   13.85    0.55
   1  -2  -4   13.70    0.58
   1  -2  -4   13.58    0.54
  -1   2   4   14.36    0.59
  -1   2   4   14.71    0.56
  -1   2   4   13.95    0.62
  -1   2   4   13.84    0.52
  -1   2   4   14.31    0.56
   0  -2  -4    9.50    0.42
   0  -2  -4    9.00    0.39
   0  -2  -4    8.95    0.35
   0  -2  -4    8.58    0.41
   0  -2  -4    9.43    0.42
   0  -2  -4    8.31    0.40
   0  -2  -4    9.05    0.46
   0   2   4    8.61    0.38
   0   2   4    8.62    0.42
   0   2   4    9.09    0.45
   0   2   4    9.09    0.41
   0   2   4    9.20    0.44
  -1  -2  -4  169.54    3.12
  -1  -2  -4  170.43    3.13
  -1  -2  -4  176.29    3.10
  -1  -2  -4  169.52    3.13
  -1  -2  -4  170.16    3.06
  -1  -2  -4  172.15    3.16
  -1  -2  -4  172.52    3.14
  -1  -2  -4  165.38    3.09
   1   2   4  174.13    3.20
   1   2   4  169.71    3.12
   1   2   4  174.01    3.05
   1   2   4  173.37    3.12
   1   2   4  169.94    3.08
   1   2   4  171.93    3.27
  -2  -2  -4    4.88    0.34
  -2  -2  -4    5.00    0.35
  -2  -2  -4    4.63    0.28
  -2  -2  -4    4.70    0.25
  -2  -2  -4    5.35    0.29
  -2  -2  -4    5.31    0.30
  -2  -2  -4    4.81    0.26
  -2  -2  -4    5.61    0.36
   2   2   4    4.89    0.41
   2   2   4    4.93    0.26
   2   2   4    4.70    0.33
   2   2   4    5.36    0.37
  -3  -2  -4   11.58    0.40
  -3  -2  -4   10.59    0.36
  -3  -2  -4   11.52    0.37
  -3  -2  -4   10.57    0.40
  -3  -2  -4   10.95    0.52
  -3  -2  -4   11.29    0.53
  -3  -2  -4   11.78    0.52
   3   2   4   12.03    0.53
   3   2   4   11.16    0.52
   3   2   4   10.33    0.50
   3   2   4   11.79    0.32
   3   2   4   10.38    0.58
  -4  -2  -4   97.61    2.16
  -4  -2  -4   99.92    1.88
  -4  -2  -4   96.20    2.20
  -4  -2  -4   97.58    1.91
  -4  -2  -4   99.26    1.91
  -4  -2  -4   99.54    1.98
  -4  -2  -4   97.47    1.87
   4   2   4   97.04    2.23
   4   2   4   96.11    2.28
   4   2   4  101.52    2.10
   4   2   4   99.10    2.15
  -5  -2  -4    4.66    0.47
  -5  -2  -4    5.10    0.32
  -5  -2  -4    4.22    0.49
  -5  -2  -4    5.22    0.50
  -5  -2  -4    4.53    0.33
  -5  -2  -4    4.94    0.33
  -5  -2  -4    4.82    0.39
   5   2   4    4.74    0.46
   5   2   4    5.43    0.59
   5   2   4    4.94    0.42
  -6  -2  -4    2.41    0.50
  -6  -2  -4    3.09    0.44
  -6  -2  -4    2.39    0.37
  -6  -2  -4    2.08    0.41
  -6  -2  -4    2.56    0.31
  -6  -2  -4    2.34    0.29
   6   2   4    2.28    0.47
   6   2   4    2.62    0.44
  -7  -2  -4    1.48    0.29
  -7  -2  -4    1.40    0.29
  -7  -2  -4    1.99    0.50
  -7  -2  -4    1.21    0.43
   7   2   4    1.29    0.50
  -8  -2  -4    2.08    0.58
  -8  -2  -4    1.60    0.34
   8   2   4    1.71    0.57
   7  -3  -4    0.58    0.52
   6  -3  -4    0.16    0.45
   6  -3  -4    0.68    0.34
  -6   3   4    0.41    0.52
  -6   3   4    0.04    0.37
  -6   3   4    0.27    0.39
   5  -3  -4    1.75    0.44
   5  -3  -4    2.25    0.42
  -5   3   4    2.05    0.48
  -5   3   4    1.49    0.56
  -5   3   4    1.83    0.46
   4  -3  -4    6.66    0.39
   4  -3  -4    5.42    0.64
   4  -3  -4    6.56    0.48
   4  -3  -4    6.78    0.61
   4  -3  -4    6.93    0.66
  -4   3   4    6.17    0.62
  -4   3   4    4.64    0.56
  -4   3   4    5.14    0.65
   3  -3  -4    0.48    0.22
   3  -3  -4   -0.03    0.18
   3  -3  -4    0.03    0.25
   3  -3  -4    0.08    0.13
   3  -3  -4    0.09    0.08
   3  -3  -4   -0.09    0.16
  -3   3   4   -0.10    0.25
  -3   3   4    0.00    0.28
  -3   3   4    0.23    0.26
   2  -3  -4   -0.14    0.10
   2  -3  -4    0.21    0.22
   2  -3  -4   -0.07    0.15
   2  -3  -4    0.15    0.13
   2  -3  -4    0.37    0.24
   2  -3  -4    0.01    0.19
  -2   3   4    0.14    0.23
  -2   3   4    0.37    0.26
  -2   3   4   -0.01    0.23
  -2   3   4    0.19    0.18
   1  -3  -4    9.15    0.48
   1  -3  -4    9.07    0.46
   1  -3  -4    9.46    0.51
   1  -3  -4    9.39    0.53
  -1   3   4    9.47    0.47
  -1   3   4    8.79    0.56
  -1   3   4    9.67    0.51
  -1   3   4    9.47    0.58
  -1   3   4    9.37    0.45
   0  -3  -4    0.24    0.17
   0  -3  -4   -0.05    0.15
   0  -3  -4    0.44    0.20
   0  -3  -4    0.19    0.18
   0  -3  -4    0.27    0.15
   0  -3  -4    0.30    0.21
   0   3   4    0.46    0.23
   0   3   4    0.15    0.20
   0   3   4    0.00    0.19
   0   3   4    0.25    0.15
   0   3   4    0.23    0.11
   0   3   4    0.12    0.20
   0   3   4   -0.06    0.16
  -1  -3  -4  103.91    2.01
  -1  -3  -4  101.28    2.09
  -1  -3  -4  103.25    1.89
  -1  -3  -4  101.15    2.05
  -1  -3  -4  102.25    2.00
  -1  -3  -4   97.61    2.04
   1   3   4  103.56    2.04
   1   3   4  104.07    2.21
   1   3   4  102.61    1.96
   1   3   4  103.65    1.78
   1   3   4  100.87    2.06
   1   3   4  102.67    1.88
   1   3   4   99.53    1.99
   1   3   4  103.30    2.12
  -2  -3  -4    3.63    0.25
  -2  -3  -4    4.12    0.32
  -2  -3  -4    4.38    0.28
  -2  -3  -4    3.65    0.33
  -2  -3  -4    3.83    0.25
  -2  -3  -4    3.85    0.25
  -2  -3  -4    3.60    0.18
  -2  -3  -4    3.72    0.33
  -2  -3  -4    4.38    0.29
   2   3   4    4.03    0.26
   2   3   4    3.96    0.29
   2   3   4    3.97    0.37
   2   3   4    4.24    0.45
  -3  -3  -4    6.83    0.43
  -3  -3  -4    7.07    0.31
  -3  -3  -4    6.69    0.39
  -3  -3  -4    6.99    0.29
  -3  -3  -4    7.04    0.34
  -3  -3  -4    6.77    0.31
  -3  -3  -4    7.10    0.41
  -3  -3  -4    6.32    0.42
  -3  -3  -4    6.92    0.27
   3   3   4    6.90    0.43
   3   3   4    7.56    0.45
   3   3   4    7.36    0.55
  -4  -3  -4   61.28    1.43
  -4  -3  -4   61.87    1.52
  -4  -3  -4   63.39    1.55
  -4  -3  -4   59.97    1.52
  -4  -3  -4   61.99    1.24
  -4  -3  -4   60.54    1.20
  -4  -3  -4   60.80    1.23
  -4  -3  -4   59.79    1.20
   4   3   4   60.87    1.46
   4   3   4   62.32    1.60
   4   3   4   62.09    1.70
  -5  -3  -4    5.87    0.30
  -5  -3  -4    6.03    0.29
  -5  -3  -4    6.91    0.47
  -5  -3  -4    7.37    0.52
  -5  -3  -4    6.03    0.30
  -5  -3  -4    5.90    0.52
  -5  -3  -4    6.94    0.58
   5   3   4    6.36    0.55
   5   3   4    6.79    0.62
   5   3   4    6.44    0.46
  -6  -3  -4    1.73    0.42
  -6  -3  -4    1.56    0.37
  -6  -3  -4    1.72    0.21
  -6  -3  -4    1.85    0.23
  -6  -3  -4    1.95    0.36
  -6  -3  -4    2.12    0.24
  -6  -3  -4    1.30    0.32
   6   3   4    1.65    0.42
  -7  -3  -4    9.26    0.73
  -7  -3  -4    8.69    0.85
  -7  -3  -4    8.23    0.46
   7   3   4    6.43    0.80
  -8  -3  -4    0.94    0.27
  -8  -3  -4    0.48    0.43
   8   3   4    0.39    0.50
   6  -4  -4    9.28    0.98
  -6   4   4   10.00    1.09
  -6   4   4    9.76    0.92
  -6   4   4    7.25    0.87
   5  -4  -4    0.14    0.35
  -5   4   4   -0.09    0.33
  -5   4   4    0.31    0.52
  -5   4   4   -0.09    0.36
   4  -4  -4    2.67    0.48
   4  -4  -4    2.26    0.37
   4  -4  -4    3.12    0.52
  -4   4   4    2.19    0.50
  -4   4   4    1.82    0.51
  -4   4   4    2.12    0.48
   3  -4  -4   53.44    1.33
   3  -4  -4   54.99    1.65
   3  -4  -4   53.35    1.17
   3  -4  -4   51.98    1.33
   3  -4  -4   52.60    1.51
  -3   4   4   53.67    1.68
  -3   4   4   57.09    1.71
  -3   4   4   52.27    1.57
   2  -4  -4    1.27    0.32
   2  -4  -4    0.70    0.20
   2  -4  -4    0.49    0.28
   2  -4  -4    0.74    0.19
   2  -4  -4    0.64    0.25
   2  -4  -4    1.01    0.27
  -2   4   4    0.56    0.30
  -2   4   4    0.42    0.26
  -2   4   4    0.90    0.34
  -2   4   4    0.54    0.25
   1  -4  -4    8.64    0.51
   1  -4  -4    8.97    0.54
   1  -4  -4    8.58    0.56
   1  -4  -4    9.70    0.54
   1  -4  -4    8.67    0.46
  -1   4   4    8.35    0.45
  -1   4   4    7.96    0.56
  -1   4   4    9.09    0.55
  -1   4   4    8.84    0.52
  -1   4   4    9.32    0.59
  -1   4   4    9.62    0.47
   0  -4  -4   16.76    0.74
   0  -4  -4   15.51    0.66
   0  -4  -4   16.28    0.63
   0  -4  -4   17.37    0.68
   0  -4  -4   17.72    0.60
   0  -4  -4   17.19    0.72
   0   4   4   17.99    0.60
   0   4   4   16.92    0.73
   0   4   4   18.30    0.48
   0   4   4   18.34    0.73
   0   4   4   17.98    0.56
   0   4   4   17.56    0.65
   0   4   4   17.42    0.72
  -1  -4  -4   41.85    1.00
  -1  -4  -4   40.86    1.06
  -1  -4  -4   41.26    1.04
  -1  -4  -4   41.23    1.06
  -1  -4  -4   40.15    1.10
  -1  -4  -4   40.21    0.82
  -1  -4  -4   41.05    1.09
   1   4   4   41.06    1.15
   1   4   4   40.96    0.87
   1   4   4   40.96    0.82
   1   4   4   40.25    0.99
   1   4   4   40.33    1.07
   1   4   4   42.78    1.00
   1   4   4   40.32    1.21
  -2  -4  -4   16.02    0.54
  -2  -4  -4   16.90    0.54
  -2  -4  -4   16.26    0.47
  -2  -4  -4   17.31    0.63
  -2  -4  -4   15.75    0.65
  -2  -4  -4   15.36    0.57
  -2  -4  -4   15.49    0.44
  -2  -4  -4   16.98    0.57
  -2  -4  -4   16.00    0.56
   2   4   4   17.02    0.57
   2   4   4   16.91    0.54
   2   4   4   16.49    0.68
   2   4   4   16.39    0.76
  -3  -4  -4    0.40    0.12
  -3  -4  -4    0.27    0.12
  -3  -4  -4    0.33    0.17
  -3  -4  -4    0.26    0.16
  -3  -4  -4    0.65    0.22
  -3  -4  -4    0.32    0.12
  -3  -4  -4    0.20    0.13
  -3  -4  -4    0.16    0.20
  -3  -4  -4    0.46    0.14
   3   4   4    0.41    0.06
   3   4   4    0.40    0.22
   3   4   4    0.33    0.23
   3   4   4    0.05    0.25
  -4  -4  -4   10.33    0.57
  -4  -4  -4    9.84    0.47
  -4  -4  -4    9.75    0.52
  -4  -4  -4    9.12    0.32
  -4  -4  -4    9.35    0.51
  -4  -4  -4    9.62    0.34
  -4  -4  -4   10.00    0.55
  -4  -4  -4   10.09    0.34
   4   4   4   10.11    0.53
   4   4   4   10.35    0.60
   4   4   4    9.34    0.69
  -5  -4  -4   13.22    0.36
  -5  -4  -4   14.88    0.70
  -5  -4  -4   13.36    0.64
  -5  -4  -4   12.66    0.67
  -5  -4  -4   13.34    0.38
  -5  -4  -4   13.32    0.39
  -5  -4  -4   13.60    0.71
   5   4   4   13.14    0.84
   5   4   4   13.65    0.78
   5   4   4   13.83    0.63
  -6  -4  -4    1.09    0.32
  -6  -4  -4    0.99    0.34
  -6  -4  -4    1.03    0.35
  -6  -4  -4    1.20    0.29
  -6  -4  -4    0.73    0.14
  -6  -4  -4    1.12    0.33
  -6  -4  -4    1.11    0.17
   6   4   4    1.51    0.45
   6   4   4    1.00    0.42
  -7  -4  -4   -0.11    0.31
  -7  -4  -4   -0.13    0.14
  -7  -4  -4   -0.03    0.28
   7   4   4    0.00    0.35
  -8  -4  -4    2.63    0.31
  -8  -4  -4    2.74    0.61
   8   4   4    2.18    0.67
   6  -5  -4    2.76    0.68
  -6   5   4    1.14    0.55
  -6   5   4    1.77    0.73
  -6   5   4    2.17    0.58
   5  -5  -4    0.33    0.39
   5  -5  -4    0.82    0.44
  -5   5   4    0.31    0.42
  -5   5   4    0.57    0.53
  -5   5   4    0.77    0.46
   4  -5  -4    1.15    0.41
   4  -5  -4    0.65    0.41
  -4   5   4    0.93    0.47
  -4   5   4    0.08    0.36
  -4   5   4    0.18    0.37
   3  -5  -4    1.03    0.40
   3  -5  -4    0.82    0.33
   3  -5  -4    1.11    0.27
  -3   5   4    0.93    0.37
  -3   5   4    0.85    0.46
  -3   5   4    0.57    0.37
   2  -5  -4    2.39    0.41
   2  -5  -4    2.35    0.34
   2  -5  -4    2.51    0.33
   2  -5  -4    1.66    0.40
   2  -5  -4    1.90    0.39
  -2   5   4    1.70    0.41
  -2   5   4    1.84    0.35
  -2   5   4    1.38    0.39
  -2   5   4    2.41    0.41
  -2   5   4    1.61    0.36
   1  -5  -4   11.37    0.69
   1  -5  -4   11.58    0.59
   1  -5  -4   11.70    0.64
   1  -5  -4   12.02    0.68
   1  -5  -4   13.32    0.65
  -1   5   4   12.95    0.73
  -1   5   4   12.35    0.70
  -1   5   4   12.88    0.67
  -1   5   4   11.72    0.71
  -1   5   4   12.80    0.59
   0  -5  -4    0.89    0.27
   0  -5  -4    0.21    0.23
   0  -5  -4    0.42    0.22
   0  -5  -4    0.52    0.22
   0  -5  -4    0.31    0.23
   0   5   4    0.83    0.32
   0   5   4    0.21    0.24
   0   5   4    0.22    0.29
   0   5   4    0.48    0.17
   0   5   4    0.60    0.22
   0   5   4    0.70    0.19
   0   5   4    0.42    0.10
  -1  -5  -4   35.13    1.01
  -1  -5  -4   38.59    1.06
  -1  -5  -4   36.57    1.12
  -1  -5  -4   36.47    1.10
  -1  -5  -4   35.86    1.06
  -1  -5  -4   38.00    0.95
   1   5   4   37.20    1.08
   1   5   4   37.17    0.94
   1   5   4   36.86    0.90
   1   5   4   35.89    1.22
   1   5   4   39.02    0.99
  -2  -5  -4   -0.01    0.19
  -2  -5  -4    0.04    0.10
  -2  -5  -4    0.24    0.09
  -2  -5  -4    0.19    0.17
  -2  -5  -4    0.04    0.17
  -2  -5  -4    0.08    0.15
  -2  -5  -4    0.06    0.16
  -2  -5  -4    0.26    0.15
   2   5   4    0.19    0.13
   2   5   4    0.16    0.27
   2   5   4    0.34    0.24
   2   5   4   -0.03    0.14
   2   5   4    0.36    0.15
  -3  -5  -4    1.73    0.21
  -3  -5  -4    1.95    0.30
  -3  -5  -4    1.62    0.23
  -3  -5  -4    1.70    0.33
  -3  -5  -4    2.11    0.23
  -3  -5  -4    1.73    0.22
  -3  -5  -4    1.61    0.22
  -3  -5  -4    2.07    0.26
  -3  -5  -4    1.88    0.24
   3   5   4    2.02    0.44
   3   5   4    2.04    0.33
   3   5   4    1.93    0.35
   3   5   4    2.06    0.17
  -4  -5  -4   62.80    1.31
  -4  -5  -4   63.29    1.60
  -4  -5  -4   64.72    1.55
  -4  -5  -4   61.10    1.48
  -4  -5  -4   61.86    1.64
  -4  -5  -4   62.66    1.69
  -4  -5  -4   62.61    1.30
  -4  -5  -4   64.21    1.29
  -4  -5  -4   63.05    1.47
   4   5   4   61.30    1.57
   4   5   4   64.75    1.69
   4   5   4   62.91    1.87
  -5  -5  -4    6.21    0.46
  -5  -5  -4    5.55    0.46
  -5  -5  -4    5.87    0.22
  -5  -5  -4    5.57    0.26
  -5  -5  -4    6.29    0.46
  -5  -5  -4    5.80    0.54
  -5  -5  -4    5.60    0.54
   5   5   4    6.52    0.49
   5   5   4    4.87    0.56
   5   5   4    5.61    0.65
  -6  -5  -4   -0.26    0.25
  -6  -5  -4    0.17    0.09
  -6  -5  -4    0.15    0.08
  -6  -5  -4   -0.53    0.22
  -6  -5  -4    0.09    0.22
  -6  -5  -4    0.13    0.21
   6   5   4    0.56    0.41
   6   5   4   -0.23    0.34
  -7  -5  -4   15.88    0.92
  -7  -5  -4   15.41    0.94
  -7  -5  -4   14.94    0.42
  -7  -5  -4   14.30    0.42
  -7  -5  -4   15.37    0.90
   7   5   4   12.35    0.98
   7   5   4   13.24    1.04
  -8  -5  -4    1.22    0.46
  -8  -5  -4    1.07    0.17
   8   5   4    0.86    0.49
   5  -6  -4    0.15    0.48
   5  -6  -4    0.62    0.49
  -5   6   4    0.07    0.50
  -5   6   4   -0.16    0.47
   4  -6  -4    6.21    0.82
   4  -6  -4    4.35    0.67
  -4   6   4    4.48    0.74
  -4   6   4    5.00    0.73
   3  -6  -4   27.16    1.19
   3  -6  -4   28.04    1.31
  -3   6   4   26.13    1.32
  -3   6   4   28.48    1.32
  -3   6   4   28.29    1.22
   2  -6  -4    0.07    0.32
   2  -6  -4    0.72    0.33
   2  -6  -4   -0.34    0.26
   2  -6  -4    0.41    0.25
  -2   6   4    0.84    0.34
  -2   6   4    0.52    0.35
  -2   6   4    0.20    0.36
  -2   6   4    0.02    0.33
   1  -6  -4    5.10    0.50
   1  -6  -4    4.76    0.51
   1  -6  -4    5.89    0.64
   1  -6  -4    5.72    0.59
   1  -6  -4    5.61    0.59
  -1   6   4    4.22    0.54
  -1   6   4    5.59    0.57
  -1   6   4    6.25    0.49
  -1   6   4    4.79    0.56
  -1   6   4    5.07    0.61
   0  -6  -4    5.66    0.50
   0  -6  -4    6.47    0.54
   0  -6  -4    7.53    0.57
   0  -6  -4    6.38    0.46
   0  -6  -4    6.22    0.61
   0   6   4    7.82    0.67
   0   6   4    8.43    0.61
   0   6   4    7.15    0.44
   0   6   4    6.84    0.50
   0   6   4    7.10    0.42
   0   6   4    8.47    0.65
  -1  -6  -4    0.01    0.20
  -1  -6  -4    0.06    0.24
  -1  -6  -4    0.01    0.21
  -1  -6  -4    0.18    0.21
  -1  -6  -4    0.31    0.23
  -1  -6  -4    0.37    0.30
  -1  -6  -4    0.41    0.17
   1   6   4    0.26    0.16
   1   6   4    0.43    0.34
   1   6   4    0.17    0.16
   1   6   4    0.54    0.26
  -2  -6  -4   55.18    1.40
  -2  -6  -4   55.34    1.27
  -2  -6  -4   55.20    1.29
  -2  -6  -4   54.95    1.55
  -2  -6  -4   57.27    1.43
  -2  -6  -4   55.48    1.40
  -2  -6  -4   57.55    1.48
   2   6   4   57.05    1.29
   2   6   4   55.68    1.72
   2   6   4   56.63    1.29
   2   6   4   55.45    1.39
  -3  -6  -4    7.23    0.43
  -3  -6  -4    6.59    0.54
  -3  -6  -4    7.56    0.47
  -3  -6  -4    7.34    0.31
  -3  -6  -4    7.70    0.48
  -3  -6  -4    7.43    0.42
  -3  -6  -4    7.53    0.40
  -3  -6  -4    6.59    0.44
   3   6   4    7.71    0.77
   3   6   4    7.81    0.53
  -4  -6  -4    1.59    0.31
  -4  -6  -4    1.30    0.23
  -4  -6  -4    1.45    0.27
  -4  -6  -4    1.65    0.37
  -4  -6  -4    1.94    0.26
  -4  -6  -4    1.79    0.27
  -4  -6  -4    1.61    0.34
  -4  -6  -4    1.43    0.23
  -4  -6  -4    1.60    0.23
   4   6   4    1.24    0.35
   4   6   4    1.23    0.45
  -5  -6  -4   22.60    1.01
  -5  -6  -4   19.89    0.58
  -5  -6  -4   20.49    0.60
  -5  -6  -4   21.80    0.82
  -5  -6  -4   19.72    0.81
  -5  -6  -4   19.75    0.84
  -5  -6  -4   20.32    0.55
  -5  -6  -4   19.80    0.78
   5   6   4   20.78    1.15
   5   6   4   21.49    1.02
  -6  -6  -4    2.57    0.48
  -6  -6  -4    3.49    0.49
  -6  -6  -4    3.19    0.42
  -6  -6  -4    3.96    0.50
  -6  -6  -4    3.35    0.21
  -6  -6  -4    4.04    0.23
   6   6   4    3.10    0.61
   6   6   4    2.98    0.57
  -7  -6  -4   -0.06    0.34
  -7  -6  -4    0.21    0.28
  -7  -6  -4   -0.13    0.31
  -7  -6  -4    0.23    0.29
  -7  -6  -4    0.02    0.30
   7   6   4    0.32    0.47
   7   6   4   -0.28    0.45
  -8  -6  -4   -0.28    0.33
  -8  -6  -4    0.70    0.42
  -8  -6  -4   -0.44    0.27
   8   6   4   -0.25    0.48
   8   6   4   -0.18    0.48
   4  -7  -4   15.36    1.15
   4  -7  -4   15.38    1.05
  -4   7   4   15.40    1.20
  -4   7   4   12.88    1.10
   3  -7  -4    0.07    0.46
   3  -7  -4    0.74    0.46
  -3   7   4    1.34    0.60
  -3   7   4    1.11    0.50
   2  -7  -4   -0.09    0.35
   2  -7  -4    0.06    0.27
   2  -7  -4   -0.15    0.38
  -2   7   4   -0.21    0.35
  -2   7   4    0.15    0.42
  -2   7   4   -0.26    0.36
   1  -7  -4    1.39    0.36
   1  -7  -4    1.19    0.39
   1  -7  -4    0.52    0.31
   1  -7  -4    0.97    0.39
   1  -7  -4    0.63    0.38
  -1   7   4    0.88    0.30
  -1   7   4    1.00    0.45
  -1   7   4    0.73    0.41
  -1   7   4    0.69    0.42
   0  -7  -4    0.65    0.32
   0  -7  -4    1.37    0.32
   0  -7  -4    1.46    0.40
   0  -7  -4    1.43    0.38
   0  -7  -4    0.88    0.35
   0   7   4    0.94    0.39
   0   7   4    0.78    0.26
   0   7   4    0.80    0.43
  -1  -7  -4   10.58    0.68
  -1  -7  -4   10.91    0.72
  -1  -7  -4   10.46    0.58
  -1  -7  -4   10.25    0.69
  -1  -7  -4   10.93    0.77
   1   7   4   10.32    0.55
   1   7   4   10.59    0.68
   1   7   4   10.33    0.79
   1   7   4   10.44    0.54
  -2  -7  -4   12.70    0.71
  -2  -7  -4   12.59    0.61
  -2  -7  -4   12.32    0.67
  -2  -7  -4   11.31    0.50
  -2  -7  -4   11.07    0.77
  -2  -7  -4   12.48    0.74
  -2  -7  -4   12.05    0.54
   2   7   4   11.38    0.53
   2   7   4   12.18    0.87
   2   7   4   10.31    0.60
  -3  -7  -4    2.50    0.35
  -3  -7  -4    3.20    0.53
  -3  -7  -4    2.69    0.36
  -3  -7  -4    2.52    0.46
  -3  -7  -4    2.43    0.31
  -3  -7  -4    2.51    0.36
  -3  -7  -4    2.56    0.30
   3   7   4    2.99    0.44
   3   7   4    2.58    0.56
   3   7   4    2.45    0.30
  -4  -7  -4   26.32    0.88
  -4  -7  -4   27.71    1.14
  -4  -7  -4   27.27    0.87
  -4  -7  -4   26.49    0.87
  -4  -7  -4   25.84    0.94
  -4  -7  -4   26.18    0.86
   4   7   4   27.24    1.10
   4   7   4   26.25    1.32
  -5  -7  -4    2.99    0.50
  -5  -7  -4    5.19    0.52
  -5  -7  -4    3.55    0.35
  -5  -7  -4    3.80    0.32
  -5  -7  -4    2.94    0.37
   5   7   4    3.63    0.58
   5   7   4    2.40    0.57
  -6  -7  -4    0.82    0.32
  -6  -7  -4    0.88    0.19
  -6  -7  -4    1.01    0.39
  -6  -7  -4    1.28    0.25
   6   7   4    1.30    0.55
   6   7   4    1.41    0.49
  -7  -7  -4   13.46    0.91
  -7  -7  -4   14.32    0.85
  -7  -7  -4   12.69    0.36
  -7  -7  -4   11.37    0.99
  -7  -7  -4   12.75    0.36
   7   7   4   10.64    1.05
   7   7   4   13.55    1.16
   3  -8  -4    9.65    1.01
   3  -8  -4    9.31    1.06
  -3   8   4    9.16    1.08
  -3   8   4    7.57    0.92
   2  -8  -4   -0.06    0.46
   2  -8  -4    0.16    0.38
  -2   8   4   -0.27    0.42
  -2   8   4   -0.46    0.49
  -2   8   4    0.36    0.48
   1  -8  -4    2.82    0.53
   1  -8  -4    2.38    0.53
   1  -8  -4    2.77    0.59
   1  -8  -4    3.33    0.59
  -1   8   4    1.20    0.49
  -1   8   4    1.76    0.57
   0  -8  -4    5.02    0.66
   0  -8  -4    3.71    0.58
   0  -8  -4    4.02    0.49
   0  -8  -4    3.67    0.60
   0  -8  -4    5.04    0.63
   0   8   4    3.38    0.61
   0   8   4    3.75    0.59
  -1  -8  -4    0.60    0.35
  -1  -8  -4    0.61    0.34
  -1  -8  -4    0.49    0.35
  -1  -8  -4    0.06    0.24
  -1  -8  -4    0.23    0.32
   1   8   4   -0.12    0.28
   1   8   4    0.23    0.42
  -2  -8  -4    9.39    0.72
  -2  -8  -4    9.21    0.68
  -2  -8  -4    9.02    0.56
  -2  -8  -4   10.00    0.83
  -2  -8  -4    9.74    0.84
   2   8   4    8.88    0.85
  -3  -8  -4    4.19    0.63
  -3  -8  -4    4.25    0.53
  -3  -8  -4    4.76    0.64
  -3  -8  -4    4.71    0.46
  -3  -8  -4    5.35    0.54
   3   8   4    4.12    0.73
  -4  -8  -4    3.43    0.44
  -4  -8  -4    3.10    0.42
  -4  -8  -4    3.71    0.67
  -4  -8  -4    3.34    0.42
  -4  -8  -4    2.75    0.50
   4   8   4    3.93    0.70
   4   8   4    2.51    0.48
  -5  -8  -4    2.51    0.33
  -5  -8  -4    2.68    0.62
  -5  -8  -4    2.77    0.36
  -5  -8  -4    2.31    0.38
  -5  -8  -4    2.71    0.54
   5   8   4    3.39    0.60
   5   8   4    2.81    0.65
  -6  -8  -4    0.04    0.18
  -6  -8  -4    0.19    0.38
  -6  -8  -4   -0.66    0.37
   6   8   4    0.29    0.53
   6   8   4    0.37    0.43
  -7  -8  -4    6.65    0.79
  -7  -8  -4    5.89    0.33
  -7  -8  -4    5.35    0.83
   7   8   4    6.22    0.90
   7   8   4    5.95    0.88
   2  -9  -4    4.65    0.74
   2  -9  -4    6.68    0.95
  -2   9   4    7.07    0.93
  -2   9   4    6.12    0.87
   1  -9  -4    5.48    0.85
   1  -9  -4    4.35    0.71
   1  -9  -4    4.42    0.64
  -1   9   4    4.97    0.76
  -1   9   4    4.88    0.83
   0  -9  -4    1.59    0.54
   0  -9  -4    2.00    0.51
   0  -9  -4    1.96    0.53
   0  -9  -4    2.58    0.60
   0   9   4    2.00    0.65
   0   9   4    1.40    0.49
  -1  -9  -4   19.41    1.08
  -1  -9  -4   20.65    0.87
  -1  -9  -4   19.29    1.13
  -1  -9  -4   21.93    1.12
  -1  -9  -4   20.47    1.18
   1   9   4   18.04    1.19
  -2  -9  -4    0.06    0.34
  -2  -9  -4    0.08    0.32
  -2  -9  -4    0.90    0.44
  -2  -9  -4    0.41    0.40
   2   9   4   -0.25    0.47
  -3  -9  -4    0.26    0.40
  -3  -9  -4   -0.33    0.28
  -3  -9  -4    0.50    0.33
  -3  -9  -4    0.30    0.39
   3   9   4    0.47    0.48
  -4  -9  -4    2.88    0.45
  -4  -9  -4    3.51    0.59
  -4  -9  -4    3.34    0.67
  -4  -9  -4    2.22    0.41
   4   9   4    2.57    0.65
  -5  -9  -4   -0.45    0.39
  -5  -9  -4    0.17    0.43
  -5  -9  -4    0.08    0.23
  -5  -9  -4    0.07    0.26
   5   9   4   -0.26    0.51
   5   9   4    0.30    0.45
  -6  -9  -4    0.77    0.45
  -6  -9  -4    0.46    0.50
  -6  -9  -4    0.22    0.23
   6   9   4   -0.31    0.48
   6   9   4    0.76    0.50
   1 -10  -4    2.66    0.68
   1 -10  -4    1.69    0.64
   1 -10  -4    0.66    0.49
  -1  10   4    1.27    0.66
   0 -10  -4    1.64    0.56
   0 -10  -4    0.00    0.44
   0 -10  -4    0.07    0.43
   0 -10  -4    1.01    0.53
   0  10   4    0.32    0.62
  -1 -10  -4    0.72    0.48
  -1 -10  -4    0.21    0.43
  -1 -10  -4   -0.08    0.38
  -1 -10  -4    0.40    0.46
   1  10   4    0.23    0.58
  -2 -10  -4    1.06    0.54
  -2 -10  -4   -0.01    0.36
  -2 -10  -4    1.23    0.50
  -2 -10  -4    0.84    0.48
   2  10   4    0.91    0.61
  -3 -10  -4    7.06    0.77
  -3 -10  -4    4.76    0.68
  -3 -10  -4    5.06    0.76
  -3 -10  -4    4.33    0.76
   3  10   4    2.85    0.75
  -4 -10  -4    1.38    0.51
  -4 -10  -4    2.25    0.48
  -4 -10  -4    2.05    0.45
  -4 -10  -4    1.47    0.61
   4  10   4    1.95    0.71
  -5 -10  -4    1.64    0.40
  -5 -10  -4    1.46    0.55
  -5 -10  -4    1.78    0.64
   5  10   4    1.13    0.68
  -1 -11  -4    3.80    0.76
  -1 -11  -4    4.78    0.84
  -1 -11  -4    4.48    0.78
  -1 -11  -4    3.35    0.69
   1  11   4    4.65    0.95
  -2 -11  -4   -0.22    0.47
  -2 -11  -4   -0.72    0.41
  -2 -11  -4   -0.65    0.37
  -2 -11  -4    0.36    0.46
   2  11   4    0.15    0.56
  -3 -11  -4   -0.26    0.38
  -3 -11  -4    0.82    0.45
  -3 -11  -4    0.65    0.48
  -3 -11  -4   -0.21    0.42
   3  11   4   -0.25    0.57
  -4 -11  -4    1.49    0.61
  -4 -11  -4    1.12    0.55
  -4 -11  -4    1.87    0.52
  -4 -11  -4    1.57    0.49
   4  11   4    1.01    0.66
   4  10  -5    1.49    0.67
  -4 -10   5    1.05    0.61
  -4 -10   5    1.22    0.51
  -4 -10   5    2.60    0.56
   3  10  -5    7.79    1.06
  -3 -10   5    6.92    0.85
  -3 -10   5    7.41    0.81
  -3 -10   5    7.16    0.96
   2  10  -5    0.20    0.51
  -2 -10   5    0.43    0.43
  -2 -10   5   -0.88    0.47
  -2 -10   5   -0.30    0.44
   1  10  -5    2.71    0.76
  -1 -10   5    3.21    0.76
  -1 -10   5    4.26    0.77
  -1 -10   5    5.18    0.81
  -1 -10   5    3.32    0.61
   0  10  -5    0.74    0.66
   0 -10   5    2.20    0.72
   0 -10   5    3.46    0.64
   0 -10   5    2.04    0.66
   5   9  -5    3.16    0.75
  -5  -9   5    4.69    0.77
  -5  -9   5    3.33    0.53
  -5  -9   5    4.52    0.59
   4   9  -5    0.43    0.54
  -4  -9   5   -0.12    0.35
  -4  -9   5    0.84    0.59
  -4  -9   5    0.34    0.40
   3   9  -5    0.60    0.48
  -3  -9   5    0.43    0.53
  -3  -9   5    0.28    0.38
  -3  -9   5    0.08    0.36
   2   9  -5    2.63    0.73
  -2  -9   5    3.92    0.65
  -2  -9   5    3.68    0.71
  -2  -9   5    3.32    0.59
  -2  -9   5    4.47    0.58
   1   9  -5    0.35    0.47
  -1  -9   5    0.24    0.42
  -1  -9   5   -0.06    0.31
  -1  -9   5    0.67    0.53
  -1  -9   5    0.11    0.39
   0   9  -5    1.73    0.63
   0   9  -5    1.27    0.61
   0  -9   5    1.53    0.59
   0  -9   5    1.71    0.62
   0  -9   5    0.87    0.46
   0  -9   5    0.90    0.46
  -1   9  -5    1.87    0.56
  -1   9  -5    1.46    0.62
   1  -9   5    1.14    0.50
   1  -9   5    0.74    0.58
   1  -9   5    1.99    0.64
  -2   9  -5   -0.24    0.58
  -2   9  -5    0.52    0.50
   2  -9   5   -0.52    0.43
   2  -9   5   -0.38    0.53
   2  -9   5   -0.06    0.50
   6   8  -5    4.75    0.78
  -6  -8   5    4.14    0.72
  -6  -8   5    3.89    0.52
   5   8  -5   -0.18    0.42
  -5  -8   5    0.02    0.30
  -5  -8   5    0.46    0.32
  -5  -8   5    0.24    0.47
   4   8  -5    3.37    0.70
  -4  -8   5    2.21    0.46
  -4  -8   5    2.38    0.57
  -4  -8   5    1.44    0.40
   3   8  -5    0.98    0.49
  -3  -8   5    0.25    0.36
  -3  -8   5    1.21    0.55
  -3  -8   5    1.49    0.43
   2   8  -5    4.93    0.78
  -2  -8   5    4.77    0.70
  -2  -8   5    6.12    0.68
  -2  -8   5    4.76    0.61
  -2  -8   5    5.91    0.58
   1   8  -5    1.32    0.53
   1   8  -5    1.22    0.39
  -1  -8   5    0.94    0.35
  -1  -8   5    1.38    0.46
  -1  -8   5    1.12    0.48
  -1  -8   5    0.96    0.44
   0   8  -5    1.52    0.58
   0   8  -5    1.68    0.49
   0  -8   5    1.84    0.49
   0  -8   5    0.73    0.45
   0  -8   5    1.92    0.56
   0  -8   5    1.37    0.40
  -1   8  -5    2.80    0.68
  -1   8  -5    2.97    0.60
   1  -8   5    1.84    0.49
   1  -8   5    3.07    0.62
   1  -8   5    2.81    0.65
  -2   8  -5   11.02    1.06
  -2   8  -5   10.43    1.06
   2  -8   5   12.88    1.11
   2  -8   5   13.62    1.11
   2  -8   5   11.20    1.09
  -3   8  -5    0.29    0.59
  -3   8  -5    0.47    0.49
   3  -8   5   -0.04    0.49
   3  -8   5    0.36    0.56
   7   7  -5    1.49    0.54
   7   7  -5    2.77    0.72
  -7  -7   5    2.37    0.76
  -7  -7   5    2.50    0.42
   6   7  -5    3.94    0.73
   6   7  -5    4.29    0.68
  -6  -7   5    5.00    0.53
  -6  -7   5    3.97    0.47
  -6  -7   5    4.12    0.64
   5   7  -5   11.50    0.84
   5   7  -5   10.09    0.88
  -5  -7   5   13.57    0.96
  -5  -7   5   10.73    0.69
  -5  -7   5   12.67    0.72
   4   7  -5    0.44    0.43
  -4  -7   5   -0.13    0.39
  -4  -7   5    0.20    0.29
  -4  -7   5   -0.27    0.27
   3   7  -5    3.57    0.60
  -3  -7   5    4.08    0.60
  -3  -7   5    4.57    0.53
  -3  -7   5    3.97    0.50
  -3  -7   5    4.49    0.44
   2   7  -5   15.33    1.02
  -2  -7   5   15.91    1.00
  -2  -7   5   15.92    0.89
  -2  -7   5   14.43    0.71
  -2  -7   5   14.24    0.82
   1   7  -5    0.65    0.31
   1   7  -5    0.79    0.24
   1   7  -5    0.57    0.44
  -1  -7   5    0.89    0.32
  -1  -7   5    0.60    0.39
  -1  -7   5    0.74    0.38
  -1  -7   5    0.30    0.32
   0   7  -5    8.09    0.87
   0   7  -5    8.76    0.75
   0   7  -5    7.70    0.51
   0  -7   5    8.30    0.63
   0  -7   5    7.95    0.75
   0  -7   5    8.54    0.76
   0  -7   5    9.43    0.77
  -1   7  -5    4.97    0.77
  -1   7  -5    6.92    0.78
  -1   7  -5    5.49    0.51
   1  -7   5    6.69    0.77
   1  -7   5    4.84    0.65
   1  -7   5    4.24    0.58
   1  -7   5    5.92    0.74
  -2   7  -5   -0.03    0.25
  -2   7  -5    0.77    0.50
  -2   7  -5   -0.30    0.39
   2  -7   5   -0.08    0.34
   2  -7   5   -0.58    0.36
   2  -7   5    0.55    0.41
  -3   7  -5    0.68    0.56
  -3   7  -5    1.48    0.54
  -3   7  -5    1.61    0.41
   3  -7   5    1.69    0.54
   3  -7   5    1.52    0.59
  -4   7  -5    0.37    0.56
  -4   7  -5   -0.34    0.44
   4  -7   5    0.90    0.56
   4  -7   5   -0.26    0.39
   7   6  -5   -0.09    0.37
   7   6  -5    0.34    0.52
  -7  -6   5   -0.18    0.26
  -7  -6   5    0.65    0.58
   6   6  -5    6.26    0.75
   6   6  -5    5.52    0.75
  -6  -6   5    6.60    0.55
  -6  -6   5    6.22    0.52
  -6  -6   5    6.45    0.86
   5   6  -5    2.01    0.50
   5   6  -5    2.70    0.57
   5   6  -5    2.37    0.52
  -5  -6   5    2.17    0.36
  -5  -6   5    2.84    0.40
  -5  -6   5    2.87    0.51
   4   6  -5    1.95    0.45
   4   6  -5    1.37    0.44
  -4  -6   5    1.26    0.32
  -4  -6   5    1.75    0.43
  -4  -6   5    1.97    0.36
  -4  -6   5    1.61    0.34
   3   6  -5    5.55    0.67
  -3  -6   5    5.70    0.66
  -3  -6   5    3.56    0.51
  -3  -6   5    5.07    0.46
  -3  -6   5    5.48    0.52
  -3  -6   5    4.85    0.36
  -3  -6   5    4.46    0.50
   2   6  -5   34.54    1.11
   2   6  -5   32.20    1.28
  -2  -6   5   32.49    1.21
  -2  -6   5   31.41    1.16
  -2  -6   5   33.20    0.98
  -2  -6   5   34.39    1.14
  -2  -6   5   34.21    1.30
  -2  -6   5   33.68    1.09
   1   6  -5    4.07    0.40
   1   6  -5    4.25    0.50
   1   6  -5    3.61    0.55
  -1  -6   5    4.73    0.52
  -1  -6   5    4.29    0.52
  -1  -6   5    3.85    0.54
  -1  -6   5    4.08    0.42
  -1  -6   5    4.07    0.51
  -1  -6   5    4.12    0.45
   0   6  -5    3.04    0.46
   0   6  -5    4.17    0.62
   0   6  -5    4.19    0.41
   0  -6   5    3.88    0.52
   0  -6   5    4.17    0.49
   0  -6   5    3.54    0.56
   0  -6   5    4.25    0.54
   0  -6   5    4.30    0.54
  -1   6  -5    1.30    0.19
  -1   6  -5    0.84    0.37
  -1   6  -5    1.15    0.29
   1  -6   5    1.71    0.38
   1  -6   5    0.67    0.39
   1  -6   5    1.50    0.38
   1  -6   5    1.17    0.43
  -2   6  -5    2.32    0.52
  -2   6  -5    1.52    0.41
  -2   6  -5    1.91    0.29
  -2   6  -5    2.42    0.41
   2  -6   5    2.40    0.53
   2  -6   5    1.72    0.44
   2  -6   5    2.16    0.47
  -3   6  -5   11.66    0.79
  -3   6  -5   12.58    0.97
  -3   6  -5   12.87    0.97
   3  -6   5   11.95    0.91
   3  -6   5   12.49    0.95
  -4   6  -5    2.60    0.63
  -4   6  -5    3.58    0.58
   4  -6   5    3.60    0.73
   4  -6   5    3.47    0.59
  -5   6  -5    0.83    0.50
  -5   6  -5    1.25    0.51
  -5   6  -5    0.82    0.59
   7   5  -5    0.06    0.40
   7   5  -5    0.35    0.39
  -7  -5   5   -0.39    0.46
  -7  -5   5    0.17    0.26
   6   5  -5   10.31    0.79
   6   5  -5    9.51    0.82
  -6  -5   5   10.01    0.60
  -6  -5   5    9.70    0.61
  -6  -5   5   10.26    1.00
   5   5  -5    9.42    0.67
   5   5  -5    8.34    0.83
   5   5  -5    8.46    0.68
  -5  -5   5    7.55    0.54
  -5  -5   5    7.67    0.53
  -5  -5   5    8.27    0.63
   4   5  -5    2.09    0.41
   4   5  -5    1.85    0.41
   4   5  -5    2.36    0.45
  -4  -5   5    1.79    0.27
  -4  -5   5    1.45    0.38
  -4  -5   5    2.68    0.45
  -4  -5   5    2.21    0.33
  -4  -5   5    2.36    0.36
   3   5  -5   15.02    0.81
   3   5  -5   14.68    0.61
   3   5  -5   14.61    0.78
  -3  -5   5   15.10    0.62
  -3  -5   5   14.37    0.80
  -3  -5   5   14.37    0.49
  -3  -5   5   15.16    0.69
  -3  -5   5   16.24    0.81
  -3  -5   5   15.06    0.71
  -3  -5   5   13.50    0.72
  -3  -5   5   15.96    0.51
   2   5  -5    9.81    0.60
   2   5  -5    9.12    0.54
   2   5  -5    8.47    0.63
  -2  -5   5   10.24    0.67
  -2  -5   5    9.90    0.45
  -2  -5   5    9.59    0.50
  -2  -5   5    9.54    0.61
  -2  -5   5    8.12    0.56
  -2  -5   5    9.58    0.28
  -2  -5   5    9.87    0.57
  -2  -5   5    9.54    0.55
   1   5  -5    1.67    0.28
   1   5  -5    1.63    0.38
   1   5  -5    2.36    0.38
   1   5  -5    1.77    0.33
  -1  -5   5    2.10    0.40
  -1  -5   5    1.56    0.27
  -1  -5   5    1.81    0.35
  -1  -5   5    1.75    0.32
  -1  -5   5    2.45    0.38
  -1  -5   5    1.56    0.29
  -1  -5   5    1.81    0.34
   0   5  -5   10.40    0.67
   0   5  -5   10.79    0.59
   0   5  -5   10.96    0.33
   0   5  -5   11.03    0.34
   0   5  -5   10.83    0.32
   0   5  -5   10.25    0.54
   0  -5   5   10.30    0.66
   0  -5   5   11.63    0.60
   0  -5   5   11.54    0.65
   0  -5   5   10.43    0.71
   0  -5   5   10.69    0.56
   0  -5   5   10.10    0.66
  -1   5  -5    3.97    0.47
  -1   5  -5    4.28    0.29
  -1   5  -5    4.64    0.54
  -1   5  -5    4.41    0.49
  -1   5  -5    4.62    0.44
   1  -5   5    3.70    0.43
   1  -5   5    3.48    0.50
   1  -5   5    3.91    0.50
   1  -5   5    3.02    0.42
   1  -5   5    3.94    0.49
   1  -5   5    3.99    0.49
  -2   5  -5    6.47    0.63
  -2   5  -5    5.96    0.41
  -2   5  -5    7.10    0.71
  -2   5  -5    6.51    0.55
   2  -5   5    6.28    0.62
   2  -5   5    6.65    0.68
   2  -5   5    6.76    0.70
   2  -5   5    6.27    0.60
  -3   5  -5    6.26    0.66
  -3   5  -5    4.16    0.59
  -3   5  -5    5.11    0.48
  -3   5  -5    5.39    0.57
   3  -5   5    6.85    0.76
   3  -5   5    5.87    0.66
  -4   5  -5    0.44    0.28
  -4   5  -5    0.00    0.34
  -4   5  -5   -0.45    0.32
  -4   5  -5    0.09    0.38
   4  -5   5    0.07    0.35
   4  -5   5   -0.11    0.38
  -5   5  -5    5.30    0.73
  -5   5  -5    3.33    0.63
  -5   5  -5    5.58    0.64
  -5   5  -5    6.19    0.83
   5  -5   5    3.74    0.67
  -6   5  -5   -0.06    0.44
  -6   5  -5   -0.55    0.45
  -6   5  -5   -0.32    0.42
   6  -5   5   -0.73    0.33
   7   4  -5   12.59    0.99
   7   4  -5   15.14    1.01
  -7  -4   5   13.35    0.73
  -7  -4   5   12.37    1.09
  -7  -4   5   12.74    0.78
   6   4  -5   23.18    1.13
   6   4  -5   23.13    1.18
  -6  -4   5   22.99    0.89
  -6  -4   5   24.14    1.27
  -6  -4   5   23.67    0.89
   5   4  -5    2.91    0.49
   5   4  -5    2.55    0.45
  -5  -4   5    2.79    0.37
  -5  -4   5    3.60    0.40
  -5  -4   5    2.94    0.39
  -5  -4   5    2.67    0.55
   4   4  -5   23.33    1.00
   4   4  -5   27.39    1.08
   4   4  -5   26.39    0.95
  -4  -4   5   25.54    1.06
  -4  -4   5   25.91    0.72
  -4  -4   5   25.93    0.89
  -4  -4   5   25.88    0.95
  -4  -4   5   25.38    0.85
  -4  -4   5   26.20    0.86
   3   4  -5   42.95    1.10
   3   4  -5   43.04    1.31
   3   4  -5   41.79    1.32
   3   4  -5   42.20    1.27
   3   4  -5   43.06    1.31
  -3  -4   5   43.02    0.98
  -3  -4   5   42.57    1.28
  -3  -4   5   41.39    1.02
  -3  -4   5   41.53    1.14
  -3  -4   5   43.81    1.04
  -3  -4   5   42.68    1.20
  -3  -4   5   42.46    0.87
  -3  -4   5   40.92    1.14
  -3  -4   5   43.06    1.33
   2   4  -5   22.60    0.88
   2   4  -5   23.15    0.87
   2   4  -5   22.31    0.90
   2   4  -5   23.68    0.80
   2   4  -5   22.37    0.98
  -2  -4   5   22.60    0.79
  -2  -4   5   22.00    0.79
  -2  -4   5   23.64    0.73
  -2  -4   5   23.41    0.61
  -2  -4   5   23.85    0.84
  -2  -4   5   23.18    0.60
  -2  -4   5   24.23    0.91
  -2  -4   5   23.80    0.89
   1   4  -5    2.39    0.34
   1   4  -5    2.69    0.31
   1   4  -5    2.43    0.33
  -1  -4   5    2.53    0.34
  -1  -4   5    2.43    0.30
  -1  -4   5    3.28    0.37
  -1  -4   5    2.49    0.33
  -1  -4   5    2.82    0.27
  -1  -4   5    2.90    0.40
  -1  -4   5    2.49    0.18
  -1  -4   5    1.97    0.32
   0   4  -5   21.13    0.51
   0   4  -5   20.95    0.73
   0   4  -5   21.20    0.81
   0   4  -5   20.23    0.82
   0   4  -5   20.77    0.77
   0   4  -5   20.79    0.54
   0  -4   5   21.33    0.82
   0  -4   5   20.44    0.85
   0  -4   5   22.63    0.77
   0  -4   5   20.37    0.80
   0  -4   5   21.27    0.87
   0  -4   5   22.17    0.74
  -1   4  -5    0.31    0.14
  -1   4  -5    0.20    0.23
  -1   4  -5    0.17    0.20
  -1   4  -5    0.31    0.22
  -1   4  -5    0.01    0.20
  -1   4  -5    0.15    0.20
   1  -4   5    0.22    0.25
   1  -4   5    0.18    0.25
   1  -4   5   -0.13    0.24
   1  -4   5   -0.15    0.16
   1  -4   5    0.09    0.21
   1  -4   5    0.21    0.21
  -2   4  -5    6.03    0.57
  -2   4  -5    4.84    0.46
  -2   4  -5    5.18    0.38
  -2   4  -5    4.39    0.53
  -2   4  -5    5.01    0.53
  -2   4  -5    4.82    0.48
   2  -4   5    6.19    0.52
   2  -4   5    4.68    0.53
   2  -4   5    5.47    0.56
   2  -4   5    5.10    0.50
  -3   4  -5   59.31    1.66
  -3   4  -5   60.06    1.54
  -3   4  -5   60.25    1.74
  -3   4  -5   58.18    1.66
  -3   4  -5   60.20    1.81
   3  -4   5   57.55    1.72
   3  -4   5   61.64    1.79
  -4   4  -5    0.36    0.34
  -4   4  -5    0.72    0.36
  -4   4  -5    1.09    0.41
  -4   4  -5    0.71    0.31
   4  -4   5    0.20    0.36
   4  -4   5    1.36    0.40
  -5   4  -5    0.25    0.29
  -5   4  -5    0.58    0.41
  -5   4  -5    0.57    0.41
  -5   4  -5    0.60    0.39
   5  -4   5    0.47    0.42
  -6   4  -5    5.56    0.75
  -6   4  -5    4.47    0.74
  -6   4  -5    4.95    0.76
   6  -4   5    6.06    0.84
   8   3  -5    2.48    0.62
   7   3  -5    0.96    0.45
   7   3  -5    1.08    0.45
  -7  -3   5    1.82    0.62
  -7  -3   5    1.58    0.35
  -7  -3   5    0.51    0.29
   6   3  -5   30.77    1.31
   6   3  -5   31.25    1.30
  -6  -3   5   31.37    1.06
  -6  -3   5   31.15    1.06
   5   3  -5    8.71    0.69
   5   3  -5    8.58    0.64
  -5  -3   5    9.29    0.55
  -5  -3   5    8.11    0.48
  -5  -3   5    9.16    0.57
  -5  -3   5    9.47    0.79
   4   3  -5    0.30    0.19
   4   3  -5    0.44    0.26
   4   3  -5    1.10    0.31
  -4  -3   5    0.34    0.22
  -4  -3   5    0.66    0.22
  -4  -3   5    0.30    0.11
  -4  -3   5    1.04    0.39
  -4  -3   5    0.39    0.20
  -4  -3   5    0.74    0.24
  -4  -3   5    0.69    0.30
  -4  -3   5    0.58    0.12
   3   3  -5   41.13    1.24
   3   3  -5   39.30    1.20
   3   3  -5   39.22    1.21
   3   3  -5   39.89    1.04
   3   3  -5   40.48    1.12
  -3  -3   5   40.18    1.12
  -3  -3   5   38.78    1.10
  -3  -3   5   40.40    1.07
  -3  -3   5   41.28    1.25
  -3  -3   5   40.03    1.03
  -3  -3   5   40.29    1.07
  -3  -3   5   40.06    0.89
   2   3  -5    3.10    0.37
   2   3  -5    3.05    0.28
   2   3  -5    2.57    0.33
   2   3  -5    2.48    0.29
   2   3  -5    3.23    0.40
  -2  -3   5    1.93    0.29
  -2  -3   5    2.29    0.23
  -2  -3   5    2.22    0.33
  -2  -3   5    3.30    0.25
  -2  -3   5    2.44    0.35
  -2  -3   5    2.92    0.15
  -2  -3   5    2.96    0.32
  -2  -3   5    2.71    0.30
   1   3  -5    0.60    0.19
   1   3  -5    1.03    0.14
   1   3  -5    0.66    0.20
   1   3  -5    0.66    0.22
   1   3  -5    0.74    0.10
   1   3  -5    0.77    0.22
  -1  -3   5    0.29    0.21
  -1  -3   5    0.39    0.21
  -1  -3   5    0.72    0.14
  -1  -3   5    0.50    0.22
  -1  -3   5    0.83    0.23
  -1  -3   5    0.85    0.18
  -1  -3   5    0.71    0.15
  -1  -3   5    0.79    0.23
   0   3  -5    6.33    0.45
   0   3  -5    6.17    0.41
   0   3  -5    6.93    0.30
   0   3  -5    6.79    0.42
   0   3  -5    6.61    0.38
   0   3  -5    6.95    0.26
   0   3  -5    6.15    0.40
   0  -3   5    6.43    0.44
   0  -3   5    7.11    0.44
   0  -3   5    6.34    0.37
   0  -3   5    6.43    0.48
   0  -3   5    6.62    0.40
   0  -3   5    6.47    0.48
   0  -3   5    6.66    0.30
  -1   3  -5   14.65    0.61
  -1   3  -5   14.03    0.67
  -1   3  -5   13.88    0.49
  -1   3  -5   13.83    0.61
  -1   3  -5   13.86    0.59
  -1   3  -5   13.79    0.61
   1  -3   5   13.62    0.68
   1  -3   5   13.19    0.66
   1  -3   5   13.91    0.59
   1  -3   5   13.20    0.61
   1  -3   5   14.06    0.64
  -2   3  -5   13.49    0.56
  -2   3  -5   13.48    0.71
  -2   3  -5   13.35    0.63
  -2   3  -5   13.36    0.67
  -2   3  -5   14.83    0.68
  -2   3  -5   13.04    0.63
   2  -3   5   13.08    0.62
   2  -3   5   13.42    0.70
   2  -3   5   12.65    0.63
   2  -3   5   13.88    0.70
  -3   3  -5    0.11    0.24
  -3   3  -5   -0.13    0.22
  -3   3  -5    0.12    0.26
  -3   3  -5    0.29    0.19
  -3   3  -5    0.11    0.23
  -3   3  -5   -0.07    0.20
   3  -3   5   -0.17    0.23
   3  -3   5   -0.11    0.21
   3  -3   5    0.12    0.27
   3  -3   5    0.20    0.20
  -4   3  -5    5.07    0.44
  -4   3  -5    6.07    0.56
  -4   3  -5    5.35    0.57
  -4   3  -5    4.70    0.56
  -4   3  -5    5.79    0.60
  -4   3  -5    4.78    0.56
   4  -3   5    5.20    0.57
   4  -3   5    5.46    0.60
  -5   3  -5    6.52    0.70
  -5   3  -5    8.36    0.66
  -5   3  -5    6.53    0.68
  -5   3  -5    8.29    0.81
   5  -3   5    6.50    0.72
  -6   3  -5    1.16    0.45
  -6   3  -5    0.45    0.39
  -6   3  -5    0.62    0.46
   6  -3   5    0.75    0.49
  -7   3  -5    1.07    0.54
  -7   3  -5   -0.10    0.38
  -7   3  -5    0.15    0.42
   7  -3   5    0.23    0.46
   7  -3   5    0.43    0.54
   7   2  -5    6.75    0.78
   7   2  -5    6.76    0.82
  -7  -2   5    8.19    0.64
  -7  -2   5    7.36    0.63
  -7  -2   5    6.36    0.89
   6   2  -5    6.62    0.71
   6   2  -5    7.71    0.79
  -6  -2   5    6.36    0.55
  -6  -2   5    6.31    0.81
  -6  -2   5    7.09    0.58
   5   2  -5   10.81    0.69
   5   2  -5   10.47    0.73
  -5  -2   5    9.99    0.80
  -5  -2   5   10.12    0.61
  -5  -2   5   10.44    0.60
   4   2  -5   18.37    0.80
   4   2  -5   18.27    0.64
   4   2  -5   19.00    0.85
  -4  -2   5   19.98    0.93
  -4  -2   5   18.68    0.85
  -4  -2   5   18.12    0.71
  -4  -2   5   19.30    0.62
  -4  -2   5   18.41    0.74
  -4  -2   5   19.47    0.72
   3   2  -5   12.87    0.53
   3   2  -5   12.38    0.64
   3   2  -5   12.93    0.50
   3   2  -5   13.61    0.61
  -3  -2   5   12.72    0.58
  -3  -2   5   12.70    0.31
  -3  -2   5   12.47    0.53
  -3  -2   5   13.21    0.55
  -3  -2   5   12.55    0.68
  -3  -2   5   12.92    0.55
  -3  -2   5   12.89    0.51
  -3  -2   5   13.00    0.67
   2   2  -5   87.30    1.96
   2   2  -5   90.58    1.94
   2   2  -5   91.83    1.92
   2   2  -5   88.95    1.72
   2   2  -5   83.91    1.83
   2   2  -5   88.17    1.76
  -2  -2   5   83.24    1.92
  -2  -2   5   85.43    1.83
  -2  -2   5   86.31    1.83
  -2  -2   5   89.34    1.78
  -2  -2   5   86.89    1.61
  -2  -2   5   87.55    1.85
  -2  -2   5   82.30    1.86
  -2  -2   5   87.80    1.78
   1   2  -5   28.35    0.87
   1   2  -5   29.03    0.81
   1   2  -5   28.40    0.59
   1   2  -5   26.33    0.69
   1   2  -5   26.22    0.81
   1   2  -5   28.02    0.65
   1   2  -5   27.65    0.70
   1   2  -5   29.02    0.85
   1   2  -5   26.10    0.82
  -1  -2   5   29.39    0.78
  -1  -2   5   27.08    0.84
  -1  -2   5   27.59    0.80
  -1  -2   5   29.62    0.83
  -1  -2   5   29.30    0.70
  -1  -2   5   27.58    0.84
  -1  -2   5   26.86    0.70
  -1  -2   5   27.85    0.85
   0   2  -5    2.69    0.29
   0   2  -5    3.50    0.30
   0   2  -5    3.30    0.35
   0   2  -5    3.15    0.21
   0   2  -5    3.09    0.31
   0   2  -5    3.29    0.29
   0   2  -5    3.06    0.34
   0   2  -5    3.08    0.23
   0  -2   5    3.28    0.36
   0  -2   5    3.22    0.33
   0  -2   5    3.01    0.35
   0  -2   5    2.79    0.30
   0  -2   5    3.24    0.24
   0  -2   5    3.18    0.27
  -1   2  -5   10.52    0.49
  -1   2  -5   10.77    0.48
  -1   2  -5   10.49    0.51
  -1   2  -5   10.23    0.55
  -1   2  -5   10.45    0.51
  -1   2  -5   10.05    0.42
   1  -2   5   10.74    0.42
   1  -2   5    9.50    0.49
   1  -2   5    9.27    0.48
   1  -2   5   10.15    0.55
   1  -2   5   10.90    0.49
   1  -2   5    9.88    0.54
  -2   2  -5   23.44    0.82
  -2   2  -5   23.18    0.73
  -2   2  -5   24.37    0.82
  -2   2  -5   23.66    0.81
  -2   2  -5   23.84    0.80
  -2   2  -5   24.34    0.87
   2  -2   5   23.04    0.85
   2  -2   5   22.50    0.79
   2  -2   5   22.78    0.83
  -3   2  -5    0.88    0.24
  -3   2  -5    0.21    0.22
  -3   2  -5    1.04    0.27
  -3   2  -5    0.44    0.27
  -3   2  -5    0.28    0.25
  -3   2  -5    0.87    0.23
  -3   2  -5    0.66    0.25
   3  -2   5    0.40    0.22
   3  -2   5    0.54    0.28
   3  -2   5    0.52    0.26
  -4   2  -5    0.64    0.26
  -4   2  -5    0.96    0.30
  -4   2  -5    0.24    0.26
  -4   2  -5    0.42    0.21
  -4   2  -5    0.28    0.42
  -4   2  -5    0.56    0.31
  -4   2  -5    1.16    0.35
   4  -2   5    0.67    0.30
  -5   2  -5    0.16    0.26
  -5   2  -5   -0.19    0.33
  -5   2  -5    0.04    0.27
  -5   2  -5   -0.11    0.26
   5  -2   5   -0.17    0.31
  -6   2  -5    0.15    0.35
  -6   2  -5    0.55    0.36
  -6   2  -5   -0.11    0.30
  -6   2  -5   -0.41    0.34
   6  -2   5   -0.68    0.34
   6  -2   5    0.36    0.43
  -7   2  -5    0.40    0.48
  -7   2  -5    0.72    0.43
  -7   2  -5    0.21    0.36
   7  -2   5    0.77    0.54
   7  -2   5   -0.01    0.48
   7   1  -5    3.69    0.66
   7   1  -5    3.22    0.57
  -7  -1   5    4.20    0.55
  -7  -1   5    3.16    0.71
  -7  -1   5    4.33    0.54
   6   1  -5    3.00    0.57
   6   1  -5    2.65    0.50
  -6  -1   5    2.30    0.40
  -6  -1   5    3.49    0.70
  -6  -1   5    3.68    0.48
   5   1  -5    1.55    0.39
   5   1  -5    1.52    0.35
  -5  -1   5    1.56    0.48
  -5  -1   5    2.01    0.37
   4   1  -5    1.04    0.30
   4   1  -5    0.92    0.22
   4   1  -5    1.52    0.32
  -4  -1   5    1.24    0.38
  -4  -1   5    1.08    0.14
  -4  -1   5    0.96    0.24
  -4  -1   5    0.96    0.30
  -4  -1   5    0.88    0.26
  -4  -1   5    1.13    0.30
   3   1  -5   35.54    1.12
   3   1  -5   38.63    1.01
   3   1  -5   37.18    1.04
  -3  -1   5   37.14    0.72
  -3  -1   5   36.81    0.85
  -3  -1   5   37.37    1.02
  -3  -1   5   33.70    1.14
  -3  -1   5   36.19    1.01
  -3  -1   5   35.13    1.04
  -3  -1   5   37.97    1.14
   2   1  -5   24.92    0.70
   2   1  -5   24.94    0.83
   2   1  -5   25.08    0.71
   2   1  -5   25.53    0.78
  -2  -1   5   24.81    0.76
  -2  -1   5   24.26    0.46
  -2  -1   5   23.90    0.81
  -2  -1   5   24.63    0.79
  -2  -1   5   25.50    0.76
  -2  -1   5   24.53    0.84
  -2  -1   5   24.60    0.69
  -2  -1   5   24.65    0.74
   1   1  -5   11.16    0.43
   1   1  -5   11.02    0.50
   1   1  -5   12.11    0.51
   1   1  -5   11.66    0.47
   1   1  -5   10.85    0.34
   1   1  -5   12.83    0.51
   1   1  -5   11.08    0.41
   1   1  -5   11.63    0.47
   1   1  -5   11.58    0.27
  -1  -1   5   10.96    0.35
  -1  -1   5   12.14    0.54
  -1  -1   5   11.39    0.44
  -1  -1   5   10.78    0.46
  -1  -1   5   11.24    0.44
  -1  -1   5   11.61    0.49
  -1  -1   5   12.78    0.51
  -1  -1   5   10.28    0.50
   0   1  -5   83.40    1.64
   0   1  -5   81.62    1.66
   0   1  -5   79.20    1.69
   0   1  -5   84.31    1.74
   0   1  -5   83.00    1.71
   0   1  -5   82.84    1.60
   0   1  -5   77.85    1.73
   0   1  -5   83.09    1.62
   0  -1   5   83.68    1.72
   0  -1   5   81.51    1.62
   0  -1   5   82.87    1.62
   0  -1   5   81.07    1.67
   0  -1   5   82.56    1.71
   0  -1   5   84.04    1.77
   0  -1   5   81.79    1.76
  -1   1  -5   22.98    0.71
  -1   1  -5   22.25    0.70
  -1   1  -5   22.16    0.66
  -1   1  -5   21.43    0.72
  -1   1  -5   22.66    0.65
  -1   1  -5   22.00    0.68
  -1   1  -5   20.76    0.63
  -1   1  -5   22.82    0.71
   1  -1   5   21.55    0.74
   1  -1   5   22.03    0.76
   1  -1   5   21.54    0.66
   1  -1   5   22.55    0.69
   1  -1   5   21.81    0.73
   1  -1   5   21.81    0.67
   1  -1   5   24.15    0.66
  -2   1  -5  111.28    2.25
  -2   1  -5  110.48    2.21
  -2   1  -5  111.24    2.25
  -2   1  -5  112.03    2.25
  -2   1  -5  105.46    2.29
  -2   1  -5  111.48    2.31
  -2   1  -5  110.25    2.26
   2  -1   5  110.97    1.94
   2  -1   5  109.43    2.27
   2  -1   5  104.56    2.33
   2  -1   5  110.80    2.27
  -3   1  -5    0.25    0.20
  -3   1  -5    0.27    0.20
  -3   1  -5    0.24    0.12
  -3   1  -5    0.20    0.21
  -3   1  -5    0.48    0.21
  -3   1  -5    0.41    0.20
  -3   1  -5    0.41    0.24
  -3   1  -5    0.21    0.16
   3  -1   5    0.65    0.22
   3  -1   5    0.28    0.17
   3  -1   5    0.42    0.12
   3  -1   5    0.37    0.21
  -4   1  -5   17.58    0.77
  -4   1  -5   15.66    0.80
  -4   1  -5   16.85    0.56
  -4   1  -5   18.92    0.83
  -4   1  -5   17.09    0.77
  -4   1  -5   16.47    0.84
  -4   1  -5   16.25    0.77
  -4   1  -5   18.06    0.75
   4  -1   5   17.03    0.76
   4  -1   5   17.54    0.73
   4  -1   5   15.88    0.79
  -5   1  -5   22.87    0.98
  -5   1  -5   23.40    0.93
  -5   1  -5   23.70    0.98
  -5   1  -5   22.16    0.96
  -5   1  -5   23.02    0.77
  -5   1  -5   24.83    1.09
   5  -1   5   22.83    1.07
   5  -1   5   21.55    0.99
  -6   1  -5    0.86    0.35
  -6   1  -5    1.36    0.40
  -6   1  -5    0.80    0.35
  -6   1  -5    1.60    0.47
   6  -1   5    0.97    0.46
   6  -1   5    1.22    0.45
  -7   1  -5    0.10    0.44
  -7   1  -5    0.04    0.33
  -7   1  -5    0.68    0.37
   7  -1   5    0.11    0.42
   7  -1   5    0.47    0.69
   7   0  -5    1.84    0.51
   7   0  -5    1.58    0.51
  -7   0   5    2.96    0.76
  -7   0   5    2.33    0.48
  -7   0   5    2.30    0.48
   6   0  -5    3.47    0.60
   6   0  -5    4.52    0.59
  -6   0   5    2.95    0.45
  -6   0   5    2.74    0.62
  -6   0   5    3.92    0.55
   5   0  -5   11.57    0.69
   5   0  -5   11.87    0.81
  -5   0   5   13.42    0.94
  -5   0   5   11.67    0.69
  -5   0   5   12.32    0.74
   4   0  -5   16.33    0.81
   4   0  -5   17.22    0.69
   4   0  -5   16.03    0.71
  -4   0   5   15.15    0.70
  -4   0   5   17.00    0.91
  -4   0   5   15.26    0.78
  -4   0   5   14.96    0.74
   3   0  -5    7.54    0.40
   3   0  -5    7.14    0.45
   3   0  -5    7.94    0.52
  -3   0   5    7.28    0.51
  -3   0   5    6.88    0.55
  -3   0   5    6.42    0.45
  -3   0   5    6.70    0.45
  -3   0   5    6.89    0.49
   2   0  -5   60.44    1.20
   2   0  -5   58.91    1.41
   2   0  -5   59.49    1.14
   2   0  -5   61.29    1.49
   2   0  -5   58.76    1.37
  -2   0   5   61.07    1.15
  -2   0   5   55.56    1.46
  -2   0   5   60.21    1.39
  -2   0   5   61.31    1.28
  -2   0   5   61.50    1.45
  -2   0   5   60.44    1.40
  -2   0   5   60.95    1.39
  -2   0   5   59.10    1.41
   1   0  -5  120.81    2.13
   1   0  -5  121.93    2.36
   1   0  -5  121.74    2.14
   1   0  -5  120.51    2.34
   1   0  -5  120.27    2.33
   1   0  -5  121.77    2.42
   1   0  -5  117.15    2.39
   1   0  -5  124.19    2.42
  -1   0   5  122.30    2.35
  -1   0   5  123.60    2.39
  -1   0   5  121.93    2.13
  -1   0   5  121.08    2.42
  -1   0   5  118.35    2.32
  -1   0   5  123.53    2.32
  -1   0   5  124.73    2.38
  -1   0   5  119.08    2.29
  -1   0   5  121.45    2.39
   0   0  -5   29.15    0.70
   0   0  -5   29.18    0.78
   0   0  -5   29.04    0.69
   0   0  -5   27.22    0.73
   0   0  -5   29.06    0.82
   0   0  -5   29.44    0.76
   0   0  -5   29.11    0.79
   0   0   5   29.13    0.70
   0   0   5   28.13    0.79
   0   0   5   28.10    0.82
   0   0   5   28.32    0.71
   0   0   5   29.42    0.79
   0   0   5   29.17    0.75
   0   0   5   28.34    0.70
   0   0   5   28.96    0.80
  -1   0  -5   11.73    0.49
  -1   0  -5   11.69    0.40
  -1   0  -5   11.04    0.44
  -1   0  -5   11.71    0.46
  -1   0  -5   11.68    0.47
  -1   0  -5   11.66    0.48
  -1   0  -5   12.19    0.47
  -1   0  -5   11.70    0.47
   1   0   5   11.48    0.45
   1   0   5   11.22    0.40
   1   0   5   11.75    0.50
   1   0   5   11.67    0.46
   1   0   5   11.16    0.44
   1   0   5   11.35    0.29
   1   0   5   11.35    0.50
  -2   0  -5   50.14    1.26
  -2   0  -5   52.77    1.21
  -2   0  -5   50.40    1.23
  -2   0  -5   51.51    1.24
  -2   0  -5   51.97    1.20
  -2   0  -5   52.73    1.24
  -2   0  -5   53.54    1.18
   2   0   5   51.35    1.23
   2   0   5   51.74    1.28
   2   0   5   52.44    1.15
   2   0   5   53.53    1.25
   2   0   5   51.59    1.22
  -3   0  -5   19.25    0.71
  -3   0  -5   19.08    0.74
  -3   0  -5   18.23    0.68
  -3   0  -5   18.99    0.65
  -3   0  -5   18.96    0.42
  -3   0  -5   18.95    0.72
  -3   0  -5   18.35    0.63
  -3   0  -5   20.21    0.70
   3   0   5   19.26    0.75
   3   0   5   19.19    0.73
   3   0   5   18.68    0.70
   3   0   5   17.78    0.64
  -4   0  -5    7.23    0.49
  -4   0  -5    6.66    0.59
  -4   0  -5    6.77    0.45
  -4   0  -5    6.67    0.47
  -4   0  -5    6.67    0.52
  -4   0  -5    7.18    0.43
  -4   0  -5    6.52    0.31
   4   0   5    6.53    0.52
   4   0   5    6.48    0.60
   4   0   5    6.55    0.42
   4   0   5    6.65    0.48
  -5   0  -5    2.37    0.30
  -5   0  -5    2.33    0.36
  -5   0  -5    2.07    0.33
  -5   0  -5    2.52    0.45
  -5   0  -5    2.35    0.40
  -5   0  -5    2.65    0.43
   5   0   5    2.47    0.42
   5   0   5    1.67    0.43
  -6   0  -5   -0.05    0.24
  -6   0  -5    0.10    0.29
  -6   0  -5    0.39    0.27
  -6   0  -5    0.53    0.40
   6   0   5    0.12    0.38
   6   0   5    0.26    0.32
  -7   0  -5    5.96    0.61
  -7   0  -5    6.49    0.64
  -7   0  -5    6.56    0.83
   7   0   5    5.70    0.79
  -8   0  -5    1.37    0.42
  -8   0  -5    2.86    0.73
  -8   0  -5    1.54    0.41
   8   0   5    1.86    0.66
   7  -1  -5    4.01    0.70
   7  -1  -5    4.03    0.61
  -7   1   5    3.23    0.75
  -7   1   5    4.20    0.61
  -7   1   5    4.20    0.63
   6  -1  -5    1.59    0.41
   6  -1  -5    1.37    0.46
  -6   1   5    1.34    0.41
  -6   1   5    1.35    0.56
  -6   1   5    1.54    0.40
   5  -1  -5    2.72    0.53
   5  -1  -5    2.15    0.39
  -5   1   5    2.79    0.45
  -5   1   5    1.81    0.52
  -5   1   5    2.41    0.47
   4  -1  -5   13.14    0.62
   4  -1  -5   13.19    0.31
   4  -1  -5   12.94    0.76
   4  -1  -5   12.87    0.68
  -4   1   5   12.64    0.80
  -4   1   5   14.26    0.71
  -4   1   5   12.27    0.73
   3  -1  -5   62.09    1.65
   3  -1  -5   62.70    1.10
   3  -1  -5   62.48    1.57
   3  -1  -5   61.35    1.36
   3  -1  -5   61.28    1.47
  -3   1   5   58.56    1.58
  -3   1   5   62.85    1.67
  -3   1   5   60.60    1.53
  -3   1   5   60.93    1.55
   2  -1  -5    0.20    0.17
   2  -1  -5    0.20    0.18
   2  -1  -5    0.12    0.16
   2  -1  -5   -0.05    0.17
   2  -1  -5    0.14    0.09
   2  -1  -5    0.26    0.13
   2  -1  -5    0.12    0.07
  -2   1   5    0.12    0.22
  -2   1   5    0.33    0.19
  -2   1   5    0.03    0.18
  -2   1   5    0.15    0.23
  -2   1   5   -0.03    0.16
   1  -1  -5   15.68    0.58
   1  -1  -5   14.93    0.55
   1  -1  -5   14.82    0.59
   1  -1  -5   14.04    0.54
   1  -1  -5   14.44    0.55
   1  -1  -5   14.18    0.45
   1  -1  -5   15.53    0.40
  -1   1   5   14.28    0.58
  -1   1   5   15.16    0.56
  -1   1   5   15.57    0.56
  -1   1   5   14.89    0.50
  -1   1   5   14.78    0.61
  -1   1   5   14.79    0.57
   0  -1  -5  140.27    2.67
   0  -1  -5  144.89    2.67
   0  -1  -5  140.31    2.67
   0  -1  -5  143.28    2.73
   0  -1  -5  141.97    2.58
   0  -1  -5  141.24    2.56
   0  -1  -5  142.10    2.66
   0  -1  -5  138.35    2.66
   0   1   5  140.18    2.66
   0   1   5  143.01    2.70
   0   1   5  138.16    2.61
   0   1   5  138.82    2.49
   0   1   5  137.32    2.71
   0   1   5  143.45    2.68
  -1  -1  -5   40.04    1.01
  -1  -1  -5   42.09    0.85
  -1  -1  -5   39.80    0.98
  -1  -1  -5   43.59    1.00
  -1  -1  -5   40.90    1.00
  -1  -1  -5   41.86    1.01
  -1  -1  -5   41.19    0.99
  -1  -1  -5   42.47    1.03
  -1  -1  -5   41.46    0.82
   1   1   5   41.35    0.82
   1   1   5   43.15    1.01
   1   1   5   42.26    0.85
   1   1   5   43.00    1.03
   1   1   5   41.47    1.06
   1   1   5   41.82    0.99
  -2  -1  -5  167.54    3.20
  -2  -1  -5  172.16    2.85
  -2  -1  -5  167.39    3.16
  -2  -1  -5  164.28    3.21
  -2  -1  -5  171.63    3.24
  -2  -1  -5  171.63    3.21
  -2  -1  -5  170.62    3.04
  -2  -1  -5  171.29    3.12
  -2  -1  -5  170.90    3.12
   2   1   5  170.83    3.14
   2   1   5  170.89    3.04
   2   1   5  169.43    3.20
   2   1   5  168.96    3.20
   2   1   5  171.99    3.26
  -3  -1  -5    2.78    0.27
  -3  -1  -5    2.24    0.30
  -3  -1  -5    2.18    0.30
  -3  -1  -5    2.38    0.25
  -3  -1  -5    2.23    0.15
  -3  -1  -5    2.01    0.30
  -3  -1  -5    3.10    0.30
  -3  -1  -5    2.21    0.25
   3   1   5    2.04    0.28
   3   1   5    2.16    0.32
   3   1   5    2.67    0.36
   3   1   5    2.38    0.24
  -4  -1  -5    7.54    0.43
  -4  -1  -5    8.16    0.45
  -4  -1  -5    7.20    0.40
  -4  -1  -5    7.55    0.50
  -4  -1  -5    7.15    0.32
  -4  -1  -5    8.61    0.53
  -4  -1  -5    8.69    0.57
  -4  -1  -5    8.09    0.43
   4   1   5    8.53    0.52
   4   1   5    8.05    0.55
   4   1   5    8.07    0.53
   4   1   5    7.38    0.49
  -5  -1  -5   59.50    1.44
  -5  -1  -5   58.61    1.71
  -5  -1  -5   59.96    1.48
  -5  -1  -5   60.84    1.67
  -5  -1  -5   58.73    1.43
  -5  -1  -5   58.34    1.34
  -5  -1  -5   59.26    1.63
   5   1   5   59.57    1.73
   5   1   5   60.20    1.59
   5   1   5   57.20    1.78
  -6  -1  -5    2.95    0.52
  -6  -1  -5    3.46    0.41
  -6  -1  -5    3.31    0.40
  -6  -1  -5    2.34    0.44
   6   1   5    2.86    0.55
   6   1   5    2.96    0.45
  -7  -1  -5    0.17    0.25
  -7  -1  -5    0.07    0.24
  -7  -1  -5    0.11    0.38
   7   1   5    0.32    0.43
  -8  -1  -5    2.60    0.64
  -8  -1  -5    1.90    0.41
   8   1   5    2.49    0.65
   7  -2  -5   -0.01    0.31
   7  -2  -5    0.16    0.40
  -7   2   5   -0.53    0.52
  -7   2   5    0.42    0.40
  -7   2   5    0.08    0.40
   6  -2  -5    4.91    0.73
   6  -2  -5    5.44    0.64
  -6   2   5    4.88    0.66
  -6   2   5    4.71    0.62
  -6   2   5    5.36    0.81
   5  -2  -5    3.53    0.48
   5  -2  -5    3.22    0.56
  -5   2   5    3.65    0.64
  -5   2   5    3.79    0.53
  -5   2   5    3.62    0.55
   4  -2  -5    8.77    0.66
   4  -2  -5    8.41    0.53
   4  -2  -5    9.25    0.40
   4  -2  -5   10.62    0.68
   4  -2  -5    9.32    0.54
  -4   2   5    7.56    0.62
  -4   2   5    9.11    0.67
  -4   2   5    8.59    0.79
   3  -2  -5    3.24    0.36
   3  -2  -5    3.12    0.22
   3  -2  -5    3.08    0.43
   3  -2  -5    3.57    0.45
  -3   2   5    2.67    0.42
  -3   2   5    2.09    0.35
  -3   2   5    2.98    0.47
   2  -2  -5   13.36    0.61
   2  -2  -5   13.98    0.67
   2  -2  -5   14.43    0.55
   2  -2  -5   14.79    0.67
   2  -2  -5   14.77    0.41
   2  -2  -5   13.71    0.60
   2  -2  -5   13.79    0.43
  -2   2   5   13.55    0.68
  -2   2   5   12.41    0.66
  -2   2   5   13.80    0.62
   1  -2  -5   22.76    0.75
   1  -2  -5   21.58    0.73
   1  -2  -5   22.27    0.71
   1  -2  -5   23.35    0.80
   1  -2  -5   22.52    0.67
   1  -2  -5   21.41    0.73
  -1   2   5   21.68    0.71
  -1   2   5   23.41    0.74
  -1   2   5   20.08    0.72
  -1   2   5   21.68    0.65
  -1   2   5   20.35    0.75
   0  -2  -5    0.75    0.20
   0  -2  -5    1.44    0.22
   0  -2  -5    1.31    0.22
   0  -2  -5    1.06    0.25
   0  -2  -5    1.15    0.21
   0  -2  -5    0.91    0.21
   0  -2  -5    1.65    0.25
   0  -2  -5    0.92    0.18
   0   2   5    1.32    0.27
   0   2   5    1.13    0.26
   0   2   5    0.98    0.22
   0   2   5    0.97    0.13
   0   2   5    1.17    0.20
   0   2   5    0.83    0.24
   0   2   5    0.88    0.24
  -1  -2  -5   50.78    1.17
  -1  -2  -5   52.05    1.18
  -1  -2  -5   50.36    1.18
  -1  -2  -5   50.34    1.21
  -1  -2  -5   51.51    1.22
  -1  -2  -5   51.56    1.15
  -1  -2  -5   52.89    1.18
   1   2   5   52.83    1.19
   1   2   5   53.86    1.32
   1   2   5   51.38    1.20
   1   2   5   52.52    1.26
   1   2   5   52.32    1.13
   1   2   5   52.05    1.18
  -2  -2  -5   25.24    0.78
  -2  -2  -5   24.22    0.68
  -2  -2  -5   26.28    0.78
  -2  -2  -5   25.71    0.69
  -2  -2  -5   24.54    0.75
  -2  -2  -5   26.43    0.73
  -2  -2  -5   25.60    0.73
  -2  -2  -5   26.03    0.63
  -2  -2  -5   26.54    0.76
   2   2   5   25.52    0.76
   2   2   5   25.42    0.69
   2   2   5   26.43    0.90
   2   2   5   26.87    0.83
  -3  -2  -5    6.62    0.35
  -3  -2  -5    6.36    0.33
  -3  -2  -5    6.42    0.43
  -3  -2  -5    6.29    0.41
  -3  -2  -5    6.28    0.42
  -3  -2  -5    6.82    0.35
  -3  -2  -5    6.51    0.45
  -3  -2  -5    6.74    0.32
   3   2   5    6.62    0.43
   3   2   5    7.24    0.45
   3   2   5    6.13    0.45
   3   2   5    6.69    0.51
  -4  -2  -5   85.84    1.74
  -4  -2  -5   87.41    2.00
  -4  -2  -5   86.14    1.99
  -4  -2  -5   86.56    2.02
  -4  -2  -5   86.66    1.73
  -4  -2  -5   86.93    1.72
  -4  -2  -5   84.51    1.77
  -4  -2  -5   86.91    1.78
   4   2   5   86.28    1.56
   4   2   5   87.02    1.95
   4   2   5   85.41    2.04
   4   2   5   81.99    1.96
  -5  -2  -5   24.99    0.98
  -5  -2  -5   25.17    0.77
  -5  -2  -5   24.67    1.03
  -5  -2  -5   24.66    0.76
  -5  -2  -5   24.51    0.97
  -5  -2  -5   24.36    0.74
  -5  -2  -5   25.15    0.76
   5   2   5   25.51    1.05
   5   2   5   25.95    0.92
   5   2   5   24.31    0.94
  -6  -2  -5    0.72    0.32
  -6  -2  -5    0.61    0.34
  -6  -2  -5    0.86    0.23
  -6  -2  -5    0.92    0.24
   6   2   5    1.29    0.44
   6   2   5    0.59    0.32
  -7  -2  -5   21.65    0.85
  -7  -2  -5   22.98    0.82
  -7  -2  -5   23.32    1.25
   7   2   5   21.15    1.18
  -8  -2  -5    2.27    0.40
  -8  -2  -5    2.17    0.64
   8   2   5    1.59    0.56
   6  -3  -5    5.95    0.79
  -6   3   5    6.16    0.89
  -6   3   5    4.97    0.69
  -6   3   5    5.18    0.69
   5  -3  -5    1.13    0.42
  -5   3   5    1.42    0.46
  -5   3   5    2.02    0.52
  -5   3   5    0.98    0.53
   4  -3  -5   55.44    1.78
   4  -3  -5   60.05    1.61
   4  -3  -5   57.37    1.73
   4  -3  -5   59.19    1.52
  -4   3   5   56.97    1.71
  -4   3   5   59.22    1.86
  -4   3   5   56.83    1.79
   3  -3  -5   16.77    0.85
   3  -3  -5   16.72    0.75
   3  -3  -5   17.45    0.73
   3  -3  -5   16.71    0.56
   3  -3  -5   15.80    0.82
  -3   3   5   17.38    0.89
  -3   3   5   16.24    0.79
  -3   3   5   15.63    0.87
   2  -3  -5    3.71    0.44
   2  -3  -5    3.19    0.40
   2  -3  -5    4.56    0.45
   2  -3  -5    3.88    0.39
   2  -3  -5    4.54    0.27
   2  -3  -5    4.12    0.44
   2  -3  -5    3.86    0.28
  -2   3   5    4.05    0.48
  -2   3   5    3.80    0.43
  -2   3   5    4.41    0.50
  -2   3   5    3.81    0.32
   1  -3  -5   46.79    1.19
   1  -3  -5   47.58    1.30
   1  -3  -5   44.68    1.22
   1  -3  -5   46.27    1.24
  -1   3   5   46.90    1.21
  -1   3   5   47.28    1.30
  -1   3   5   47.24    1.24
  -1   3   5   47.43    1.32
  -1   3   5   48.53    1.19
   0  -3  -5   35.66    1.06
   0  -3  -5   36.06    0.96
   0  -3  -5   36.63    1.00
   0  -3  -5   36.67    0.99
   0  -3  -5   36.06    1.01
   0  -3  -5   35.92    1.05
   0   3   5   37.54    1.06
   0   3   5   36.99    0.98
   0   3   5   35.98    1.04
   0   3   5   34.67    1.01
   0   3   5   36.55    1.02
   0   3   5   35.66    0.95
  -1  -3  -5    6.51    0.32
  -1  -3  -5    6.21    0.40
  -1  -3  -5    6.40    0.37
  -1  -3  -5    6.00    0.37
  -1  -3  -5    6.08    0.39
  -1  -3  -5    6.67    0.37
  -1  -3  -5    6.21    0.41
   1   3   5    6.08    0.35
   1   3   5    6.05    0.37
   1   3   5    6.29    0.44
   1   3   5    6.94    0.48
   1   3   5    6.60    0.42
   1   3   5    5.53    0.34
  -2  -3  -5  206.22    3.77
  -2  -3  -5  199.51    3.73
  -2  -3  -5  196.96    3.67
  -2  -3  -5  204.04    3.69
  -2  -3  -5  203.13    3.81
  -2  -3  -5  210.83    3.74
  -2  -3  -5  204.09    3.82
  -2  -3  -5  206.92    3.67
  -2  -3  -5  204.07    3.43
   2   3   5  199.01    4.00
   2   3   5  199.41    3.76
   2   3   5  206.78    3.68
   2   3   5  202.43    3.86
  -3  -3  -5    1.43    0.19
  -3  -3  -5    1.87    0.22
  -3  -3  -5    1.72    0.22
  -3  -3  -5    1.97    0.29
  -3  -3  -5    2.32    0.34
  -3  -3  -5    1.83    0.19
  -3  -3  -5    1.56    0.26
  -3  -3  -5    2.09    0.21
  -3  -3  -5    1.53    0.23
   3   3   5    1.55    0.29
   3   3   5    1.86    0.21
   3   3   5    1.80    0.29
   3   3   5    1.51    0.37
  -4  -3  -5    0.24    0.13
  -4  -3  -5    0.26    0.11
  -4  -3  -5    0.45    0.24
  -4  -3  -5    0.03    0.19
  -4  -3  -5    0.07    0.21
  -4  -3  -5    0.26    0.13
  -4  -3  -5    0.07    0.12
  -4  -3  -5    0.35    0.21
   4   3   5    0.24    0.25
   4   3   5    0.22    0.24
   4   3   5    0.30    0.28
  -5  -3  -5  103.35    2.44
  -5  -3  -5  104.25    2.41
  -5  -3  -5  105.13    2.03
  -5  -3  -5  104.72    2.41
  -5  -3  -5  106.11    2.03
  -5  -3  -5  105.09    2.19
  -5  -3  -5  103.16    2.03
   5   3   5  100.20    2.48
   5   3   5  104.10    2.30
   5   3   5  101.11    2.58
  -6  -3  -5    0.12    0.16
  -6  -3  -5   -0.08    0.27
  -6  -3  -5    0.17    0.15
  -6  -3  -5    0.26    0.16
  -6  -3  -5    0.16    0.31
  -6  -3  -5    0.11    0.35
   6   3   5   -0.45    0.33
   6   3   5   -0.32    0.23
  -7  -3  -5    1.90    0.48
  -7  -3  -5    0.69    0.42
  -7  -3  -5    0.94    0.25
   7   3   5    1.08    0.51
  -8  -3  -5    6.90    0.53
  -8  -3  -5    7.00    0.86
   8   3   5    6.86    0.92
   6  -4  -5    6.84    0.92
  -6   4   5    5.65    0.82
  -6   4   5    5.23    0.73
  -6   4   5    8.54    1.01
   5  -4  -5    1.09    0.45
  -5   4   5    0.41    0.51
  -5   4   5    1.18    0.44
  -5   4   5    1.55    0.47
   4  -4  -5   18.17    0.99
   4  -4  -5   21.19    0.96
  -4   4   5   17.84    1.13
  -4   4   5   19.44    1.00
  -4   4   5   16.82    1.00
   3  -4  -5    4.16    0.37
   3  -4  -5    3.69    0.48
   3  -4  -5    4.01    0.55
  -3   4   5    4.20    0.58
  -3   4   5    4.95    0.60
  -3   4   5    3.71    0.56
   2  -4  -5    6.95    0.43
   2  -4  -5    7.42    0.55
   2  -4  -5    6.70    0.49
   2  -4  -5    7.22    0.62
   2  -4  -5    7.11    0.39
   2  -4  -5    6.22    0.50
  -2   4   5    5.82    0.59
  -2   4   5    7.30    0.48
  -2   4   5    6.33    0.65
  -2   4   5    6.73    0.54
   1  -4  -5   23.48    0.94
   1  -4  -5   25.43    0.89
   1  -4  -5   25.35    0.88
   1  -4  -5   25.98    0.92
  -1   4   5   24.90    0.90
  -1   4   5   25.07    0.87
  -1   4   5   23.95    0.95
  -1   4   5   25.80    0.96
   0  -4  -5    0.93    0.24
   0  -4  -5    1.47    0.28
   0  -4  -5    1.21    0.29
   0  -4  -5    1.29    0.27
   0  -4  -5    0.94    0.21
   0   4   5    1.03    0.30
   0   4   5    1.12    0.31
   0   4   5    1.05    0.29
   0   4   5    1.02    0.25
   0   4   5    1.14    0.29
   0   4   5    1.14    0.22
   0   4   5    1.18    0.18
  -1  -4  -5   27.88    0.87
  -1  -4  -5   26.22    0.89
  -1  -4  -5   27.82    0.85
  -1  -4  -5   28.75    0.81
  -1  -4  -5   27.52    0.67
  -1  -4  -5   27.69    0.83
  -1  -4  -5   27.88    0.89
   1   4   5   28.06    0.93
   1   4   5   27.46    0.98
   1   4   5   26.88    0.89
   1   4   5   28.62    0.80
   1   4   5   27.24    0.80
   1   4   5   27.47    0.60
   1   4   5   27.19    0.88
  -2  -4  -5    1.82    0.20
  -2  -4  -5    1.47    0.12
  -2  -4  -5    2.09    0.28
  -2  -4  -5    1.70    0.24
  -2  -4  -5    1.73    0.25
  -2  -4  -5    1.93    0.28
  -2  -4  -5    2.12    0.25
  -2  -4  -5    2.29    0.33
   2   4   5    2.07    0.25
   2   4   5    1.77    0.39
   2   4   5    2.11    0.34
   2   4   5    1.58    0.23
  -3  -4  -5    4.05    0.40
  -3  -4  -5    4.65    0.44
  -3  -4  -5    4.24    0.31
  -3  -4  -5    4.21    0.29
  -3  -4  -5    4.43    0.39
  -3  -4  -5    3.83    0.30
  -3  -4  -5    4.44    0.25
  -3  -4  -5    4.36    0.31
   3   4   5    4.30    0.23
   3   4   5    3.62    0.50
   3   4   5    4.62    0.44
   3   4   5    4.96    0.39
  -4  -4  -5   46.45    1.06
  -4  -4  -5   47.96    1.15
  -4  -4  -5   48.27    1.07
  -4  -4  -5   47.80    1.27
  -4  -4  -5   49.37    1.31
  -4  -4  -5   45.71    1.33
  -4  -4  -5   46.40    1.04
  -4  -4  -5   45.65    1.02
  -4  -4  -5   46.19    1.34
   4   4   5   46.27    1.30
   4   4   5   45.21    1.33
   4   4   5   47.57    1.54
  -5  -4  -5   -0.05    0.23
  -5  -4  -5    0.45    0.28
  -5  -4  -5    0.21    0.12
  -5  -4  -5    0.22    0.11
  -5  -4  -5   -0.09    0.18
  -5  -4  -5    0.14    0.12
  -5  -4  -5   -0.14    0.21
  -5  -4  -5    0.37    0.28
   5   4   5    0.42    0.32
   5   4   5    0.05    0.35
   5   4   5    0.25    0.26
  -6  -4  -5    1.09    0.37
  -6  -4  -5    0.34    0.24
  -6  -4  -5    0.38    0.15
  -6  -4  -5    0.62    0.15
  -6  -4  -5    0.78    0.36
  -6  -4  -5    0.19    0.24
   6   4   5    0.34    0.34
   6   4   5    0.41    0.35
  -7  -4  -5   13.69    0.94
  -7  -4  -5   13.44    0.86
  -7  -4  -5   13.35    0.53
   7   4   5   14.10    1.01
  -8  -4  -5    0.25    0.19
  -8  -4  -5   -0.22    0.34
   8   4   5   -0.11    0.45
   5  -5  -5    1.16    0.43
   5  -5  -5    0.32    0.43
  -5   5   5    1.62    0.64
  -5   5   5    1.12    0.49
  -5   5   5    0.71    0.46
   4  -5  -5    4.99    0.65
   4  -5  -5    4.27    0.64
   4  -5  -5    5.07    0.71
  -4   5   5    3.78    0.62
  -4   5   5    4.31    0.71
  -4   5   5    4.85    0.68
   3  -5  -5   22.37    1.10
   3  -5  -5   19.18    0.96
   3  -5  -5   20.53    0.81
  -3   5   5   21.44    1.05
  -3   5   5   23.24    1.16
  -3   5   5   20.78    1.14
   2  -5  -5    1.05    0.32
   2  -5  -5    1.52    0.41
   2  -5  -5    0.74    0.30
   2  -5  -5    0.84    0.31
   2  -5  -5    0.91    0.24
   2  -5  -5    0.67    0.22
  -2   5   5    1.36    0.42
  -2   5   5    1.32    0.37
  -2   5   5    1.02    0.39
  -2   5   5    0.90    0.31
  -2   5   5    1.30    0.32
   1  -5  -5   -0.07    0.22
   1  -5  -5   -0.04    0.24
   1  -5  -5    0.10    0.19
   1  -5  -5   -0.16    0.25
   1  -5  -5    0.05    0.25
  -1   5   5   -0.02    0.19
  -1   5   5    0.27    0.30
  -1   5   5   -0.09    0.28
  -1   5   5    0.12    0.27
  -1   5   5   -0.35    0.22
   0  -5  -5   51.54    1.39
   0  -5  -5   53.55    1.32
   0  -5  -5   54.39    1.47
   0  -5  -5   52.95    1.50
   0  -5  -5   53.31    1.46
   0   5   5   54.36    1.55
   0   5   5   53.57    1.33
   0   5   5   54.12    1.51
   0   5   5   54.32    1.53
   0   5   5   55.02    1.41
   0   5   5   53.31    1.24
  -1  -5  -5   29.88    0.87
  -1  -5  -5   29.96    0.95
  -1  -5  -5   28.65    0.99
  -1  -5  -5   29.39    0.96
  -1  -5  -5   30.07    1.00
  -1  -5  -5   30.66    0.94
   1   5   5   28.48    0.96
   1   5   5   29.18    0.63
   1   5   5   28.87    0.85
   1   5   5   30.13    0.86
   1   5   5   29.47    0.73
   1   5   5   29.29    1.11
  -2  -5  -5   21.20    0.71
  -2  -5  -5   20.18    0.54
  -2  -5  -5   20.85    0.71
  -2  -5  -5   20.15    0.75
  -2  -5  -5   21.20    0.53
  -2  -5  -5   21.18    0.77
  -2  -5  -5   20.54    0.73
  -2  -5  -5   20.38    0.82
   2   5   5   21.04    0.54
   2   5   5   21.12    0.70
   2   5   5   20.15    0.96
   2   5   5   20.74    0.71
   2   5   5   20.26    0.83
  -3  -5  -5    9.55    0.46
  -3  -5  -5    9.37    0.42
  -3  -5  -5    9.40    0.48
  -3  -5  -5    8.80    0.44
  -3  -5  -5   10.39    0.55
  -3  -5  -5    9.54    0.44
  -3  -5  -5    9.09    0.59
  -3  -5  -5    9.59    0.37
  -3  -5  -5   10.32    0.51
  -3  -5  -5   10.43    0.60
   3   5   5   10.46    0.60
   3   5   5    9.73    0.54
   3   5   5    9.95    0.74
  -4  -5  -5    4.39    0.42
  -4  -5  -5    2.84    0.43
  -4  -5  -5    3.62    0.29
  -4  -5  -5    3.56    0.36
  -4  -5  -5    3.51    0.30
  -4  -5  -5    4.06    0.44
  -4  -5  -5    3.48    0.29
  -4  -5  -5    3.86    0.45
   4   5   5    3.71    0.48
   4   5   5    3.38    0.45
   4   5   5    3.53    0.59
  -5  -5  -5   14.30    0.46
  -5  -5  -5   15.19    0.72
  -5  -5  -5   15.39    0.80
  -5  -5  -5   15.96    0.79
  -5  -5  -5   13.99    0.70
  -5  -5  -5   14.19    0.47
  -5  -5  -5   14.66    0.49
  -5  -5  -5   15.23    0.65
   5   5   5   14.50    0.96
   5   5   5   16.11    0.85
   5   5   5   14.32    0.71
  -6  -5  -5    0.19    0.33
  -6  -5  -5    0.43    0.13
  -6  -5  -5    0.89    0.32
  -6  -5  -5    0.19    0.28
  -6  -5  -5    0.61    0.15
   6   5   5    0.35    0.44
   6   5   5    0.15    0.31
  -7  -5  -5    1.71    0.41
  -7  -5  -5    0.97    0.39
  -7  -5  -5    1.42    0.20
  -7  -5  -5    1.59    0.49
   7   5   5    0.99    0.50
   7   5   5    1.46    0.57
  -8  -5  -5    4.14    0.69
  -8  -5  -5    4.71    0.32
  -8  -5  -5    5.97    0.78
   8   5   5    3.20    0.69
   5  -6  -5    0.65    0.46
   5  -6  -5    1.18    0.50
  -5   6   5    1.47    0.55
  -5   6   5    0.73    0.63
   4  -6  -5    2.71    0.67
   4  -6  -5    2.95    0.58
  -4   6   5    3.99    0.79
  -4   6   5    3.73    0.71
   3  -6  -5    1.43    0.42
   3  -6  -5    0.40    0.44
  -3   6   5    0.54    0.44
  -3   6   5    0.57    0.47
   2  -6  -5    3.55    0.52
   2  -6  -5    5.03    0.67
   2  -6  -5    4.58    0.56
   2  -6  -5    5.15    0.50
  -2   6   5    4.32    0.64
  -2   6   5    3.56    0.58
  -2   6   5    5.00    0.67
  -2   6   5    4.79    0.56
   1  -6  -5   10.61    0.80
   1  -6  -5   12.88    0.69
   1  -6  -5   12.09    0.76
   1  -6  -5   12.25    0.73
   1  -6  -5   13.24    0.70
  -1   6   5   11.92    0.63
  -1   6   5   12.40    0.81
  -1   6   5   11.98    0.81
  -1   6   5   13.01    0.79
   0  -6  -5    4.54    0.53
   0  -6  -5    3.65    0.49
   0  -6  -5    4.58    0.51
   0  -6  -5    4.89    0.49
   0  -6  -5    4.07    0.50
   0   6   5    4.25    0.38
   0   6   5    4.14    0.57
   0   6   5    3.07    0.46
   0   6   5    3.74    0.53
  -1  -6  -5   28.87    1.05
  -1  -6  -5   27.01    0.84
  -1  -6  -5   26.61    0.98
  -1  -6  -5   26.77    0.95
  -1  -6  -5   26.12    1.01
   1   6   5   27.37    0.84
   1   6   5   27.10    0.99
   1   6   5   28.32    1.17
   1   6   5   26.92    0.77
  -2  -6  -5   -0.09    0.20
  -2  -6  -5    0.28    0.18
  -2  -6  -5   -0.06    0.21
  -2  -6  -5    0.09    0.22
  -2  -6  -5    0.00    0.17
  -2  -6  -5    0.40    0.14
  -2  -6  -5    0.06    0.24
   2   6   5   -0.29    0.15
   2   6   5   -0.16    0.14
   2   6   5    0.03    0.32
   2   6   5   -0.06    0.11
  -3  -6  -5    0.33    0.18
  -3  -6  -5    0.06    0.12
  -3  -6  -5    0.15    0.26
  -3  -6  -5    0.05    0.20
  -3  -6  -5    0.19    0.13
  -3  -6  -5    0.67    0.25
  -3  -6  -5    0.40    0.19
  -3  -6  -5    0.55    0.22
   3   6   5    0.45    0.36
   3   6   5    0.22    0.29
   3   6   5    0.16    0.25
  -4  -6  -5   29.73    0.87
  -4  -6  -5   30.63    0.98
  -4  -6  -5   32.82    1.20
  -4  -6  -5   30.97    1.05
  -4  -6  -5   31.53    0.87
  -4  -6  -5   29.85    0.87
  -4  -6  -5   30.29    0.86
  -4  -6  -5   28.43    0.87
  -4  -6  -5   29.04    1.09
   4   6   5   28.70    1.32
   4   6   5   29.87    1.08
   4   6   5   29.74    1.10
  -5  -6  -5    3.79    0.55
  -5  -6  -5    3.76    0.44
  -5  -6  -5    3.91    0.43
  -5  -6  -5    4.52    0.33
  -5  -6  -5    3.75    0.29
  -5  -6  -5    3.87    0.47
   5   6   5    4.08    0.49
   5   6   5    3.70    0.64
   5   6   5    4.05    0.58
  -6  -6  -5    3.17    0.44
  -6  -6  -5    3.45    0.47
  -6  -6  -5    3.20    0.25
  -6  -6  -5    2.92    0.45
  -6  -6  -5    3.73    0.57
  -6  -6  -5    3.18    0.26
   6   6   5    3.12    0.66
   6   6   5    3.14    0.57
  -7  -6  -5    7.49    0.71
  -7  -6  -5    7.38    0.71
  -7  -6  -5    7.24    0.30
  -7  -6  -5    6.93    0.73
  -7  -6  -5    6.28    0.29
   7   6   5    6.95    0.87
   7   6   5    5.67    0.84
  -8  -6  -5   -0.05    0.32
  -8  -6  -5    0.08    0.39
   8   6   5   -0.19    0.47
   4  -7  -5   -0.02    0.54
   4  -7  -5    0.19    0.38
  -4   7   5    0.64    0.54
  -4   7   5    1.04    0.59
   3  -7  -5   15.12    1.10
   3  -7  -5   15.34    0.98
  -3   7   5   15.57    1.22
  -3   7   5   15.85    1.16
   2  -7  -5    1.29    0.36
   2  -7  -5    1.91    0.49
   2  -7  -5    2.10    0.59
  -2   7   5    1.44    0.47
  -2   7   5    1.91    0.63
  -2   7   5    1.77    0.51
   1  -7  -5    0.58    0.35
   1  -7  -5    1.08    0.43
   1  -7  -5    0.14    0.32
   1  -7  -5    0.42    0.31
   1  -7  -5    0.51    0.30
  -1   7   5    0.34    0.43
  -1   7   5    0.48    0.41
  -1   7   5    0.30    0.25
  -1   7   5    0.19    0.35
   0  -7  -5   11.61    0.74
   0  -7  -5   11.53    0.76
   0  -7  -5   12.20    0.80
   0  -7  -5   12.58    0.82
   0  -7  -5   10.10    0.66
   0   7   5   11.29    0.59
   0   7   5   11.82    0.83
   0   7   5   11.26    0.86
  -1  -7  -5    5.45    0.63
  -1  -7  -5    5.37    0.61
  -1  -7  -5    5.79    0.62
  -1  -7  -5    5.23    0.51
  -1  -7  -5    6.63    0.64
   1   7   5    5.50    0.72
   1   7   5    5.79    0.39
   1   7   5    5.49    0.57
  -2  -7  -5    0.31    0.26
  -2  -7  -5    0.31    0.18
  -2  -7  -5    0.52    0.24
  -2  -7  -5    0.40    0.35
  -2  -7  -5    0.41    0.28
   2   7   5    0.03    0.34
   2   7   5    0.60    0.17
   2   7   5    0.30    0.38
  -3  -7  -5    3.56    0.36
  -3  -7  -5    3.62    0.44
  -3  -7  -5    3.76    0.44
  -3  -7  -5    2.89    0.47
  -3  -7  -5    3.82    0.42
   3   7   5    3.46    0.60
   3   7   5    3.96    0.48
  -4  -7  -5    0.85    0.30
  -4  -7  -5    0.56    0.23
  -4  -7  -5    0.28    0.22
  -4  -7  -5    0.53    0.22
  -4  -7  -5    0.75    0.37
   4   7   5    0.58    0.46
   4   7   5   -0.16    0.31
  -5  -7  -5    0.39    0.28
  -5  -7  -5    0.07    0.19
  -5  -7  -5    0.74    0.37
  -5  -7  -5    0.62    0.19
  -5  -7  -5    0.24    0.22
   5   7   5    0.03    0.36
   5   7   5    0.83    0.49
  -6  -7  -5    2.25    0.26
  -6  -7  -5    2.68    0.56
  -6  -7  -5    3.35    0.50
   6   7   5    2.87    0.67
   6   7   5    2.25    0.54
  -7  -7  -5    0.02    0.30
  -7  -7  -5   -0.23    0.12
  -7  -7  -5   -0.03    0.33
   7   7   5    0.20    0.48
   7   7   5   -0.22    0.51
   3  -8  -5    2.37    0.69
   3  -8  -5    2.26    0.60
  -3   8   5    2.36    0.75
  -3   8   5    1.79    0.63
   2  -8  -5    0.68    0.49
   2  -8  -5    0.12    0.40
  -2   8   5    0.05    0.50
  -2   8   5    0.19    0.46
  -2   8   5    0.54    0.46
   1  -8  -5    5.15    0.75
   1  -8  -5    5.61    0.72
   1  -8  -5    4.90    0.63
   1  -8  -5    4.67    0.68
   1  -8  -5    5.59    0.62
  -1   8   5    5.53    0.78
  -1   8   5    4.52    0.66
   0  -8  -5   -0.12    0.26
   0  -8  -5   -0.20    0.33
   0  -8  -5   -0.02    0.34
   0  -8  -5    0.37    0.35
   0  -8  -5    0.24    0.36
   0   8   5    0.34    0.47
   0   8   5    0.44    0.36
  -1  -8  -5    7.02    0.75
  -1  -8  -5    6.66    0.59
  -1  -8  -5    5.65    0.63
  -1  -8  -5    6.99    0.72
  -1  -8  -5    7.09    0.74
   1   8   5    6.70    0.82
   1   8   5    5.23    0.60
  -2  -8  -5    0.48    0.31
  -2  -8  -5    0.66    0.37
  -2  -8  -5    0.19    0.38
  -2  -8  -5    0.61    0.35
  -2  -8  -5    0.38    0.27
   2   8   5    0.15    0.45
  -3  -8  -5    0.73    0.39
  -3  -8  -5    0.10    0.25
  -3  -8  -5    0.19    0.34
  -3  -8  -5    0.63    0.29
  -3  -8  -5    0.17    0.29
   3   8   5    0.07    0.46
  -4  -8  -5   19.37    1.17
  -4  -8  -5   18.03    0.99
  -4  -8  -5   17.25    0.79
  -4  -8  -5   18.35    0.83
  -4  -8  -5   17.61    0.82
   4   8   5   18.58    1.22
   4   8   5   18.10    0.93
  -5  -8  -5    1.45    0.52
  -5  -8  -5    1.07    0.27
  -5  -8  -5    1.79    0.51
  -5  -8  -5    1.85    0.32
  -5  -8  -5    1.16    0.34
   5   8   5    1.50    0.62
   5   8   5    2.18    0.50
  -6  -8  -5    1.34    0.37
  -6  -8  -5    2.27    0.52
  -6  -8  -5    1.48    0.27
  -6  -8  -5    1.27    0.59
   6   8   5    0.24    0.58
   6   8   5    0.83    0.49
  -7  -8  -5    1.97    0.53
  -7  -8  -5    2.46    0.66
  -7  -8  -5    1.68    0.24
   7   8   5    2.71    0.75
   7   8   5    1.88    0.61
   2  -9  -5    0.47    0.58
   2  -9  -5    0.36    0.48
  -2   9   5    0.35    0.46
   1  -9  -5    3.81    0.63
   1  -9  -5    1.83    0.55
   1  -9  -5    2.75    0.68
  -1   9   5    3.47    0.71
  -1   9   5    2.40    0.60
   0  -9  -5    1.10    0.46
   0  -9  -5    1.50    0.51
   0  -9  -5    0.92    0.49
   0  -9  -5    1.57    0.52
   0  -9  -5    1.91    0.42
   0   9   5    1.73    0.63
   0   9   5    1.59    0.78
  -1  -9  -5    1.88    0.39
  -1  -9  -5    2.21    0.54
  -1  -9  -5    1.64    0.50
  -1  -9  -5    2.65    0.57
  -1  -9  -5    2.12    0.52
   1   9   5    1.40    0.57
  -2  -9  -5    3.68    0.57
  -2  -9  -5    3.36    0.65
  -2  -9  -5    3.47    0.46
  -2  -9  -5    3.19    0.59
  -2  -9  -5    3.04    0.56
   2   9   5    2.60    0.69
  -3  -9  -5   12.28    0.90
  -3  -9  -5   12.46    0.84
  -3  -9  -5   13.23    0.83
  -3  -9  -5   12.37    0.97
   3   9   5   11.80    1.08
  -4  -9  -5    0.28    0.32
  -4  -9  -5   -0.17    0.46
  -4  -9  -5    0.10    0.28
  -4  -9  -5    0.39    0.43
   4   9   5    1.08    0.56
  -5  -9  -5    0.20    0.38
  -5  -9  -5   -0.49    0.40
  -5  -9  -5    0.22    0.27
  -5  -9  -5   -0.06    0.23
   5   9   5   -0.56    0.36
   5   9   5    0.02    0.54
  -6  -9  -5   14.84    0.71
  -6  -9  -5   16.98    1.09
  -6  -9  -5   14.14    1.24
   6   9   5   12.91    1.02
   6   9   5   13.45    1.29
   1 -10  -5    0.41    0.59
   1 -10  -5    0.23    0.46
  -1  10   5    0.25    0.57
   0 -10  -5   -0.26    0.42
   0 -10  -5    0.73    0.45
   0 -10  -5   -0.01    0.42
   0 -10  -5    0.23    0.48
   0  10   5    0.17    0.56
  -1 -10  -5   -0.58    0.38
  -1 -10  -5    0.57    0.44
  -1 -10  -5   -0.10    0.43
  -1 -10  -5   -0.06    0.40
   1  10   5   -0.55    0.50
  -2 -10  -5    0.15    0.43
  -2 -10  -5   -0.22    0.42
  -2 -10  -5    0.30    0.49
  -2 -10  -5   -0.10    0.39
   2  10   5   -0.37    0.47
  -3 -10  -5    0.42    0.42
  -3 -10  -5    0.48    0.47
  -3 -10  -5    0.67    0.42
  -3 -10  -5    0.13    0.39
   3  10   5    0.40    0.57
  -4 -10  -5   13.96    1.13
  -4 -10  -5   11.07    0.82
  -4 -10  -5   12.69    0.86
  -4 -10  -5   12.10    0.97
   4  10   5   11.49    1.24
  -5 -10  -5    0.36    0.47
  -5 -10  -5   -0.37    0.52
  -5 -10  -5   -0.20    0.29
   5  10   5   -0.26    0.51
  -1 -11  -5    0.72    0.51
  -2 -11  -5    1.71    0.58
  -2 -11  -5    0.92    0.53
  -2 -11  -5    1.14    0.57
  -2 -11  -5    1.68    0.56
   2  11   5    0.59    0.57
  -3 -11  -5    5.38    0.74
  -3 -11  -5    4.74    0.68
  -3 -11  -5    3.30    0.69
  -3 -11  -5    5.06    0.84
   3  11   5    2.86    0.81
   4  10  -6    0.72    0.59
  -4 -10   6    0.41    0.48
   3  10  -6    0.16    0.56
  -3 -10   6    0.00    0.57
  -3 -10   6    0.35    0.46
  -3 -10   6   -0.39    0.41
   2  10  -6   12.35    1.35
  -2 -10   6   17.32    1.17
  -2 -10   6   15.35    1.31
  -2 -10   6   13.86    1.14
   1  10  -6    1.34    0.69
  -1 -10   6    0.77    0.60
  -1 -10   6    1.19    0.61
  -1 -10   6    1.49    0.56
  -1 -10   6    1.41    0.54
   0  10  -6    4.79    0.95
   0 -10   6    5.27    0.88
   0 -10   6    7.01    0.86
   0 -10   6    8.47    1.09
   5   9  -6    0.39    0.55
  -5  -9   6    0.96    0.42
  -5  -9   6    1.07    0.59
  -5  -9   6    0.49    0.41
   4   9  -6    4.85    0.86
  -4  -9   6    3.37    0.75
  -4  -9   6    3.41    0.61
  -4  -9   6    5.04    0.69
   3   9  -6    5.45    0.91
  -3  -9   6    3.74    0.77
  -3  -9   6    5.23    0.72
  -3  -9   6    5.11    0.65
   2   9  -6    3.74    0.78
  -2  -9   6    4.71    0.83
  -2  -9   6    4.69    0.73
  -2  -9   6    5.13    0.70
   1   9  -6    1.27    0.62
  -1  -9   6    0.49    0.50
  -1  -9   6    1.16    0.54
  -1  -9   6    2.41    0.57
  -1  -9   6    1.67    0.43
   0   9  -6    2.21    0.68
   0  -9   6    1.04    0.59
   0  -9   6    1.36    0.60
   0  -9   6    2.04    0.59
   0  -9   6    0.85    0.48
  -1   9  -6    0.62    0.62
  -1   9  -6    1.39    0.58
   1  -9   6    0.80    0.45
   1  -9   6    1.07    0.56
   1  -9   6    0.00    0.51
  -2   9  -6    2.98    0.78
  -2   9  -6    3.89    0.80
   2  -9   6    4.02    0.82
   2  -9   6    3.90    0.85
  -6  -8   6   -0.14    0.31
  -6  -8   6    0.49    0.47
   5   8  -6    9.44    1.02
  -5  -8   6   10.83    0.78
  -5  -8   6   10.07    0.77
  -5  -8   6    8.60    0.94
   4   8  -6    1.22    0.55
  -4  -8   6    1.69    0.44
  -4  -8   6    1.54    0.56
  -4  -8   6    1.10    0.42
   3   8  -6    3.65    0.68
  -3  -8   6    3.69    0.57
  -3  -8   6    3.25    0.54
  -3  -8   6    3.39    0.66
   2   8  -6   11.92    1.00
  -2  -8   6   13.96    1.01
  -2  -8   6   14.10    0.91
  -2  -8   6   13.52    0.75
  -2  -8   6   11.74    0.90
   1   8  -6   -0.46    0.37
  -1  -8   6    0.32    0.41
  -1  -8   6   -0.02    0.30
  -1  -8   6    0.57    0.47
  -1  -8   6   -0.02    0.38
   0   8  -6    0.60    0.51
   0   8  -6    0.27    0.37
   0  -8   6    0.10    0.43
   0  -8   6    0.15    0.37
   0  -8   6    0.72    0.44
   0  -8   6    1.28    0.49
  -1   8  -6    0.67    0.55
  -1   8  -6    0.53    0.44
   1  -8   6   -0.11    0.38
   1  -8   6   -0.50    0.30
   1  -8   6   -1.00    0.39
  -2   8  -6    7.72    1.01
  -2   8  -6    8.21    0.97
   2  -8   6    7.27    0.95
   2  -8   6    7.63    0.92
  -3   8  -6    4.66    0.81
  -3   8  -6    3.21    0.84
   3  -8   6    3.05    0.79
   3  -8   6    4.75    0.78
   6   7  -6   25.78    1.47
   6   7  -6   26.71    1.38
  -6  -7   6   30.95    1.15
  -6  -7   6   31.49    1.62
  -6  -7   6   30.55    1.13
   5   7  -6    3.79    0.64
   5   7  -6    4.42    0.69
  -5  -7   6    3.83    0.51
  -5  -7   6    3.23    0.59
  -5  -7   6    3.64    0.51
   4   7  -6   19.94    1.16
  -4  -7   6   20.97    1.16
  -4  -7   6   21.13    0.99
  -4  -7   6   20.97    0.96
   3   7  -6   39.73    1.59
  -3  -7   6   41.24    1.39
  -3  -7   6   41.65    1.57
  -3  -7   6   42.35    1.44
   2   7  -6   10.04    0.88
  -2  -7   6    8.49    0.71
  -2  -7   6    9.61    0.75
  -2  -7   6   10.66    0.60
  -2  -7   6    8.21    0.82
   1   7  -6    4.76    0.57
   1   7  -6    4.00    0.69
   1   7  -6    4.26    0.45
  -1  -7   6    4.09    0.59
  -1  -7   6    3.89    0.47
  -1  -7   6    4.39    0.58
  -1  -7   6    4.62    0.66
   0   7  -6    3.57    0.58
   0   7  -6    2.25    0.36
   0   7  -6    1.66    0.52
   0  -7   6    2.61    0.47
   0  -7   6    2.00    0.45
   0  -7   6    3.54    0.64
   0  -7   6    3.37    0.59
  -1   7  -6    2.66    0.62
  -1   7  -6    2.55    0.54
  -1   7  -6    1.86    0.37
   1  -7   6    2.04    0.54
   1  -7   6    2.22    0.51
   1  -7   6    2.71    0.60
   1  -7   6    1.53    0.43
  -2   7  -6    2.41    0.61
  -2   7  -6    0.64    0.34
  -2   7  -6    1.70    0.49
   2  -7   6    2.53    0.64
   2  -7   6    2.59    0.61
  -3   7  -6    2.50    0.62
  -3   7  -6    3.23    0.71
  -3   7  -6    4.43    0.61
   3  -7   6    2.18    0.56
   3  -7   6    2.61    0.71
  -4   7  -6    1.04    0.66
  -4   7  -6    0.39    0.45
   4  -7   6    0.12    0.45
   4  -7   6   -0.80    0.50
   7   6  -6    0.16    0.44
   7   6  -6    0.75    0.53
  -7  -6   6    0.91    0.61
  -7  -6   6    0.47    0.31
   6   6  -6    2.18    0.53
   6   6  -6    2.12    0.56
  -6  -6   6    1.92    0.39
  -6  -6   6    2.71    0.42
  -6  -6   6    3.84    0.78
   5   6  -6    4.56    0.63
   5   6  -6    4.11    0.61
   5   6  -6    3.73    0.65
  -5  -6   6    4.84    0.52
  -5  -6   6    4.60    0.61
  -5  -6   6    4.13    0.49
   4   6  -6    0.45    0.33
   4   6  -6    0.24    0.36
  -4  -6   6    0.38    0.29
  -4  -6   6    0.12    0.27
  -4  -6   6    0.47    0.38
   3   6  -6    0.31    0.30
   3   6  -6    0.86    0.38
  -3  -6   6    0.95    0.33
  -3  -6   6    0.76    0.27
  -3  -6   6    0.75    0.36
  -3  -6   6    1.43    0.38
   2   6  -6    4.39    0.48
   2   6  -6    4.10    0.62
  -2  -6   6    5.54    0.50
  -2  -6   6    5.13    0.56
  -2  -6   6    4.80    0.52
  -2  -6   6    4.68    0.56
  -2  -6   6    5.93    0.42
  -2  -6   6    3.57    0.54
   1   6  -6    1.94    0.34
   1   6  -6    1.59    0.38
   1   6  -6    1.67    0.44
  -1  -6   6    2.14    0.45
  -1  -6   6    1.64    0.40
  -1  -6   6    1.56    0.37
  -1  -6   6    2.10    0.34
  -1  -6   6    2.17    0.45
   0   6  -6    6.72    0.76
   0   6  -6    6.84    0.50
   0   6  -6    5.84    0.64
   0  -6   6    6.78    0.69
   0  -6   6    5.52    0.64
   0  -6   6    6.91    0.69
   0  -6   6    6.34    0.58
   0  -6   6    6.28    0.70
  -1   6  -6    2.15    0.39
  -1   6  -6    1.42    0.44
   1  -6   6    2.82    0.57
   1  -6   6    1.84    0.40
   1  -6   6    2.13    0.49
   1  -6   6    1.97    0.44
  -2   6  -6    0.00    0.31
  -2   6  -6   -0.10    0.29
   2  -6   6    0.84    0.43
   2  -6   6    1.09    0.48
  -3   6  -6    0.61    0.48
  -3   6  -6    0.46    0.36
   3  -6   6    0.63    0.51
   3  -6   6    0.34    0.41
  -4   6  -6    5.51    0.83
  -4   6  -6    4.93    0.69
   4  -6   6    3.63    0.66
   4  -6   6    7.09    0.95
  -5   6  -6    2.44    0.65
  -5   6  -6    2.10    0.59
   7   5  -6    0.46    0.47
   7   5  -6    0.61    0.47
  -7  -5   6    0.49    0.63
  -7  -5   6    0.85    0.33
   6   5  -6   10.21    0.87
   6   5  -6   11.14    0.90
  -6  -5   6   12.15    0.71
  -6  -5   6   11.84    1.02
  -6  -5   6   12.01    0.71
   5   5  -6    5.94    0.71
   5   5  -6    8.02    0.70
  -5  -5   6    6.61    0.55
  -5  -5   6    6.77    0.57
  -5  -5   6    6.74    0.80
  -5  -5   6    5.85    0.59
   4   5  -6    0.25    0.35
   4   5  -6   -0.34    0.28
   4   5  -6    0.21    0.31
  -4  -5   6    0.31    0.31
  -4  -5   6    0.01    0.24
  -4  -5   6    0.12    0.23
   3   5  -6   19.14    0.75
   3   5  -6   20.27    0.94
   3   5  -6   18.40    0.93
  -3  -5   6   19.01    0.59
  -3  -5   6   20.68    0.95
  -3  -5   6   19.95    0.72
  -3  -5   6   18.83    0.85
  -3  -5   6   19.10    0.81
  -3  -5   6   20.17    0.94
   2   5  -6   40.95    1.39
   2   5  -6   38.96    1.88
   2   5  -6   42.45    1.24
   2   5  -6   42.13    1.37
  -2  -5   6   41.93    1.37
  -2  -5   6   40.56    1.25
  -2  -5   6   40.86    0.88
  -2  -5   6   42.30    1.02
  -2  -5   6   40.58    1.34
  -2  -5   6   41.78    1.16
  -2  -5   6   40.95    1.28
   1   5  -6    5.77    0.49
   1   5  -6    5.72    0.44
   1   5  -6    5.46    0.54
   1   5  -6    5.88    0.64
  -1  -5   6    6.76    0.54
  -1  -5   6    5.37    0.56
  -1  -5   6    4.95    0.40
  -1  -5   6    5.57    0.60
  -1  -5   6    6.28    0.48
  -1  -5   6    6.26    0.56
   0   5  -6    4.57    0.53
   0   5  -6    4.32    0.25
   0   5  -6    3.90    0.19
   0   5  -6    3.68    0.43
   0   5  -6    4.04    0.44
   0   5  -6    3.82    0.49
   0  -5   6    4.19    0.43
   0  -5   6    3.82    0.49
   0  -5   6    3.69    0.49
   0  -5   6    3.91    0.42
   0  -5   6    5.24    0.55
   0  -5   6    4.39    0.55
  -1   5  -6   12.41    0.66
  -1   5  -6   11.62    0.78
  -1   5  -6   12.12    0.47
  -1   5  -6   12.19    0.68
   1  -5   6   12.65    0.74
   1  -5   6   11.79    0.69
   1  -5   6   12.38    0.79
   1  -5   6   11.38    0.70
   1  -5   6   11.83    0.80
  -2   5  -6   15.39    0.64
  -2   5  -6   15.12    0.84
  -2   5  -6   14.82    0.78
  -2   5  -6   14.95    0.90
   2  -5   6   15.43    0.94
   2  -5   6   16.98    0.95
   2  -5   6   15.97    0.86
  -3   5  -6    1.04    0.39
  -3   5  -6    0.68    0.39
  -3   5  -6    0.77    0.27
  -3   5  -6    0.49    0.33
   3  -5   6    1.34    0.49
   3  -5   6    0.67    0.40
  -4   5  -6   -0.55    0.38
  -4   5  -6   -0.19    0.31
  -4   5  -6   -0.01    0.36
  -4   5  -6    0.39    0.29
   4  -5   6   -0.26    0.36
   4  -5   6    0.66    0.47
  -5   5  -6    0.90    0.51
  -5   5  -6    0.55    0.37
  -5   5  -6    0.46    0.42
  -5   5  -6    0.69    0.50
   5  -5   6    0.29    0.40
   7   4  -6    3.27    0.68
   7   4  -6    2.43    0.55
  -7  -4   6    3.53    0.49
  -7  -4   6    4.18    0.83
  -7  -4   6    2.11    0.39
   6   4  -6    7.13    0.80
   6   4  -6    8.72    0.87
  -6  -4   6    8.09    0.61
  -6  -4   6    8.01    0.60
  -6  -4   6    8.42    0.97
   5   4  -6    3.71    0.57
   5   4  -6    2.40    0.47
  -5  -4   6    2.97    0.40
  -5  -4   6    2.42    0.55
  -5  -4   6    2.45    0.39
  -5  -4   6    2.79    0.40
   4   4  -6    0.75    0.31
   4   4  -6    0.42    0.31
   4   4  -6    0.80    0.29
  -4  -4   6    1.18    0.29
  -4  -4   6    0.60    0.27
  -4  -4   6    0.66    0.28
  -4  -4   6    0.66    0.39
  -4  -4   6    0.41    0.30
   3   4  -6   31.03    0.96
   3   4  -6   31.08    1.14
   3   4  -6   32.43    1.14
   3   4  -6   31.40    1.09
  -3  -4   6   32.27    0.88
  -3  -4   6   31.83    1.01
  -3  -4   6   30.88    1.08
  -3  -4   6   32.46    0.83
  -3  -4   6   31.47    1.01
  -3  -4   6   34.27    0.87
  -3  -4   6   33.58    1.17
  -3  -4   6   29.87    1.03
   2   4  -6    2.16    0.38
   2   4  -6    2.33    0.33
   2   4  -6    2.78    0.29
   2   4  -6    2.45    0.36
   2   4  -6    2.46    0.40
  -2  -4   6    2.55    0.37
  -2  -4   6    2.27    0.33
  -2  -4   6    3.20    0.31
  -2  -4   6    3.06    0.22
  -2  -4   6    2.73    0.36
  -2  -4   6    2.91    0.25
  -2  -4   6    2.69    0.38
  -2  -4   6    2.86    0.15
  -2  -4   6    1.99    0.35
   1   4  -6    0.10    0.21
   1   4  -6    0.47    0.22
   1   4  -6    0.69    0.24
   1   4  -6    0.39    0.11
   1   4  -6    0.15    0.20
  -1  -4   6    0.21    0.12
  -1  -4   6    0.57    0.25
  -1  -4   6    0.13    0.16
  -1  -4   6    0.46    0.24
  -1  -4   6    0.26    0.16
  -1  -4   6    0.47    0.26
  -1  -4   6    0.55    0.27
  -1  -4   6    0.21    0.25
   0   4  -6    6.76    0.32
   0   4  -6    6.36    0.45
   0   4  -6    6.98    0.28
   0   4  -6    7.90    0.51
   0   4  -6    6.98    0.47
   0   4  -6    6.47    0.51
   0  -4   6    7.16    0.50
   0  -4   6    8.23    0.50
   0  -4   6    7.63    0.57
   0  -4   6    7.42    0.45
   0  -4   6    5.99    0.52
   0  -4   6    7.23    0.55
  -1   4  -6    0.89    0.31
  -1   4  -6    1.70    0.32
  -1   4  -6    1.29    0.28
  -1   4  -6    1.00    0.29
  -1   4  -6    1.14    0.29
  -1   4  -6    1.91    0.24
   1  -4   6    0.48    0.29
   1  -4   6    1.17    0.35
   1  -4   6    1.55    0.35
   1  -4   6    1.20    0.27
   1  -4   6    1.30    0.33
  -2   4  -6    1.46    0.37
  -2   4  -6    1.85    0.33
  -2   4  -6    1.22    0.34
  -2   4  -6    0.69    0.27
  -2   4  -6    1.15    0.25
  -2   4  -6    1.32    0.38
   2  -4   6    1.19    0.33
   2  -4   6    1.26    0.36
   2  -4   6    1.10    0.37
  -3   4  -6    9.10    0.57
  -3   4  -6    6.67    0.64
  -3   4  -6    9.28    0.68
  -3   4  -6    8.83    0.73
   3  -4   6    8.54    0.75
   3  -4   6    9.72    0.71
  -4   4  -6    9.86    0.75
  -4   4  -6    9.20    0.78
  -4   4  -6    8.05    0.79
  -4   4  -6    9.79    0.67
   4  -4   6    9.13    0.80
   4  -4   6    9.13    0.76
  -5   4  -6    2.26    0.45
  -5   4  -6    2.28    0.53
  -5   4  -6    1.80    0.48
  -5   4  -6    1.70    0.50
   5  -4   6    1.64    0.51
  -6   4  -6    3.13    0.67
  -6   4  -6    1.63    0.53
  -6   4  -6    2.56    0.64
   6  -4   6    1.62    0.60
   7   3  -6   -0.04    0.36
   7   3  -6    0.50    0.47
  -7  -3   6    0.21    0.28
  -7  -3   6    0.43    0.61
  -7  -3   6    0.09    0.30
   6   3  -6    0.69    0.40
   6   3  -6    0.86    0.40
  -6  -3   6    0.74    0.50
  -6  -3   6    0.61    0.30
   5   3  -6   32.85    1.29
   5   3  -6   33.21    1.27
  -5  -3   6   34.70    1.41
  -5  -3   6   34.19    1.13
  -5  -3   6   33.52    1.10
   4   3  -6    8.10    0.47
   4   3  -6    8.58    0.59
   4   3  -6    7.88    0.61
  -4  -3   6    7.97    0.26
  -4  -3   6    8.89    0.52
  -4  -3   6    8.15    0.69
  -4  -3   6    8.43    0.66
  -4  -3   6    6.91    0.52
  -4  -3   6    8.52    0.55
  -4  -3   6    8.21    0.27
   3   3  -6    4.46    0.49
   3   3  -6    4.31    0.37
   3   3  -6    4.44    0.40
   3   3  -6    6.07    0.56
   3   3  -6    4.94    0.50
  -3  -3   6    4.58    0.39
  -3  -3   6    5.34    0.53
  -3  -3   6    4.42    0.37
  -3  -3   6    4.65    0.42
  -3  -3   6    4.46    0.25
  -3  -3   6    2.99    0.46
  -3  -3   6    4.33    0.44
  -3  -3   6    4.95    0.42
   2   3  -6   62.14    1.50
   2   3  -6   62.92    1.59
   2   3  -6   63.07    1.41
   2   3  -6   60.04    1.61
  -2  -3   6   62.09    1.31
  -2  -3   6   61.56    1.35
  -2  -3   6   58.98    1.48
  -2  -3   6   63.85    1.51
  -2  -3   6   59.07    1.54
  -2  -3   6   59.85    1.58
  -2  -3   6   61.66    1.36
  -2  -3   6   60.43    1.54
   1   3  -6   -0.04    0.18
   1   3  -6    0.33    0.13
   1   3  -6    0.37    0.10
   1   3  -6    0.09    0.18
   1   3  -6    0.33    0.16
   1   3  -6    0.39    0.21
   1   3  -6    0.38    0.19
  -1  -3   6    0.37    0.21
  -1  -3   6    0.29    0.23
  -1  -3   6    0.14    0.13
  -1  -3   6   -0.13    0.20
  -1  -3   6    0.15    0.20
  -1  -3   6    0.17    0.18
  -1  -3   6    0.04    0.15
   0   3  -6   33.71    1.01
   0   3  -6   32.10    0.98
   0   3  -6   32.50    0.98
   0   3  -6   33.80    0.94
   0   3  -6   32.60    0.76
   0   3  -6   33.81    1.06
   0   3  -6   33.58    0.82
   0  -3   6   33.39    1.02
   0  -3   6   33.63    0.82
   0  -3   6   30.79    1.03
   0  -3   6   34.08    1.10
   0  -3   6   33.74    0.94
   0  -3   6   33.61    1.03
  -1   3  -6    2.10    0.31
  -1   3  -6    1.71    0.33
  -1   3  -6    1.75    0.29
  -1   3  -6    1.37    0.21
  -1   3  -6    1.72    0.29
  -1   3  -6    1.75    0.30
  -1   3  -6    2.24    0.25
   1  -3   6    1.69    0.32
   1  -3   6    1.58    0.38
   1  -3   6    1.42    0.29
   1  -3   6    2.32    0.33
   1  -3   6    2.33    0.35
  -2   3  -6   26.76    1.02
  -2   3  -6   23.76    0.91
  -2   3  -6   25.83    0.94
  -2   3  -6   25.16    0.80
  -2   3  -6   24.11    0.93
  -2   3  -6   24.77    0.89
   2  -3   6   24.18    0.90
   2  -3   6   23.71    0.98
   2  -3   6   22.68    0.95
   2  -3   6   25.64    0.91
  -3   3  -6    0.84    0.29
  -3   3  -6    0.94    0.28
  -3   3  -6    0.88    0.33
  -3   3  -6    1.23    0.37
  -3   3  -6    0.51    0.27
  -3   3  -6    0.39    0.30
   3  -3   6    0.65    0.34
   3  -3   6    0.71    0.33
  -4   3  -6    1.75    0.41
  -4   3  -6    0.99    0.36
  -4   3  -6    1.15    0.31
  -4   3  -6    1.24    0.41
   4  -3   6    1.15    0.39
   4  -3   6    1.50    0.42
  -5   3  -6    0.92    0.44
  -5   3  -6    1.52    0.44
  -5   3  -6    1.31    0.36
  -5   3  -6    1.88    0.47
   5  -3   6    1.75    0.54
  -6   3  -6    0.83    0.42
  -6   3  -6   -0.51    0.33
  -6   3  -6    0.27    0.46
   6  -3   6    0.38    0.46
   7   2  -6    4.39    0.70
   7   2  -6    4.46    0.69
  -7  -2   6    3.92    0.53
  -7  -2   6    5.64    0.87
  -7  -2   6    3.87    0.51
   6   2  -6    3.87    0.57
   6   2  -6    6.25    0.75
  -6  -2   6    4.54    0.53
  -6  -2   6    5.01    0.76
   5   2  -6    0.72    0.30
   5   2  -6    0.70    0.36
  -5  -2   6    0.17    0.40
  -5  -2   6    0.46    0.28
  -5  -2   6    0.80    0.32
   4   2  -6   22.42    0.77
   4   2  -6   21.38    0.88
   4   2  -6   23.30    1.00
  -4  -2   6   22.60    0.88
  -4  -2   6   21.41    0.96
  -4  -2   6   22.72    1.03
  -4  -2   6   22.20    0.84
  -4  -2   6   22.78    0.71
   3   2  -6   69.53    1.51
   3   2  -6   70.06    1.61
   3   2  -6   69.81    1.69
   3   2  -6   69.62    1.80
  -3  -2   6   69.13    1.63
  -3  -2   6   68.42    1.80
  -3  -2   6   68.99    1.76
  -3  -2   6   67.14    1.62
  -3  -2   6   64.86    1.65
  -3  -2   6   67.23    1.54
   2   2  -6    0.13    0.20
   2   2  -6    0.11    0.13
   2   2  -6    0.17    0.14
   2   2  -6   -0.06    0.17
   2   2  -6    0.03    0.16
  -2  -2   6    0.23    0.15
  -2  -2   6    0.25    0.26
  -2  -2   6    0.04    0.20
  -2  -2   6    0.37    0.16
  -2  -2   6    0.13    0.10
  -2  -2   6    0.43    0.20
  -2  -2   6    0.22    0.19
  -2  -2   6    0.05    0.17
  -2  -2   6    0.07    0.20
   1   2  -6    3.69    0.24
   1   2  -6    3.80    0.25
   1   2  -6    3.65    0.19
   1   2  -6    3.29    0.35
   1   2  -6    4.42    0.40
   1   2  -6    4.18    0.40
   1   2  -6    3.76    0.34
   1   2  -6    4.06    0.28
   1   2  -6    4.04    0.40
  -1  -2   6    3.89    0.36
  -1  -2   6    3.50    0.28
  -1  -2   6    4.19    0.39
  -1  -2   6    3.50    0.36
  -1  -2   6    3.55    0.38
  -1  -2   6    3.52    0.36
  -1  -2   6    3.70    0.27
  -1  -2   6    3.70    0.35
   0   2  -6   47.20    1.25
   0   2  -6   46.24    1.07
   0   2  -6   48.03    1.19
   0   2  -6   47.45    1.12
   0   2  -6   46.62    1.20
   0   2  -6   46.64    1.22
   0   2  -6   46.00    1.21
   0   2  -6   48.63    1.03
   0  -2   6   45.38    1.26
   0  -2   6   46.45    1.20
   0  -2   6   47.58    1.21
   0  -2   6   46.36    1.12
   0  -2   6   45.36    1.25
   0  -2   6   47.44    1.07
  -1   2  -6    0.38    0.20
  -1   2  -6    0.25    0.17
  -1   2  -6    0.08    0.14
  -1   2  -6    0.14    0.14
  -1   2  -6    0.07    0.18
  -1   2  -6    0.13    0.16
  -1   2  -6   -0.15    0.19
   1  -2   6    0.28    0.21
   1  -2   6    0.31    0.22
   1  -2   6    0.31    0.23
   1  -2   6   -0.10    0.16
   1  -2   6    0.17    0.17
   1  -2   6    0.09    0.15
  -2   2  -6   15.78    0.69
  -2   2  -6   15.15    0.72
  -2   2  -6   16.59    0.68
  -2   2  -6   17.12    0.69
  -2   2  -6   17.19    0.70
  -2   2  -6   16.78    0.63
   2  -2   6   16.00    0.77
   2  -2   6   14.83    0.65
   2  -2   6   16.25    0.73
   2  -2   6   15.93    0.67
  -3   2  -6    0.80    0.28
  -3   2  -6    0.71    0.26
  -3   2  -6    0.39    0.23
  -3   2  -6    0.57    0.29
  -3   2  -6    0.66    0.23
  -3   2  -6    0.55    0.29
   3  -2   6    0.15    0.22
   3  -2   6    0.26    0.25
   3  -2   6    0.70    0.29
  -4   2  -6   23.80    0.99
  -4   2  -6   23.32    0.93
  -4   2  -6   23.55    0.98
  -4   2  -6   21.79    0.98
  -4   2  -6   24.74    1.02
   4  -2   6   23.15    0.96
  -5   2  -6    4.93    0.62
  -5   2  -6    5.08    0.56
  -5   2  -6    4.43    0.58
  -5   2  -6    5.55    0.61
   5  -2   6    5.32    0.68
  -6   2  -6   -0.24    0.31
  -6   2  -6    0.49    0.42
  -6   2  -6    0.83    0.36
   6  -2   6   -0.05    0.39
   6  -2   6    0.38    0.44
  -7   2  -6   24.11    1.42
  -7   2  -6   20.17    1.17
  -7   2  -6   20.83    1.16
   7  -2   6   21.12    1.23
   7  -2   6   17.42    1.19
   7   1  -6    2.29    0.50
   7   1  -6    2.10    0.59
  -7  -1   6    3.35    0.80
  -7  -1   6    2.89    0.51
  -7  -1   6    2.62    0.49
   6   1  -6    2.08    0.45
   6   1  -6    1.64    0.47
  -6  -1   6    2.01    0.41
  -6  -1   6    2.43    0.46
  -6  -1   6    2.58    0.63
   5   1  -6   10.29    0.67
   5   1  -6   11.53    0.77
  -5  -1   6   11.00    0.70
  -5  -1   6    9.99    0.83
   4   1  -6   21.07    0.94
   4   1  -6   20.56    0.78
   4   1  -6   21.16    0.84
  -4  -1   6   22.62    0.85
  -4  -1   6   22.38    0.89
  -4  -1   6   20.68    0.95
  -4  -1   6   21.14    0.54
  -4  -1   6   21.43    1.00
   3   1  -6    8.13    0.54
   3   1  -6    6.84    0.43
   3   1  -6    7.49    0.47
   3   1  -6    7.00    0.39
  -3  -1   6    6.80    0.48
  -3  -1   6    7.01    0.36
  -3  -1   6    5.93    0.57
  -3  -1   6    6.02    0.47
  -3  -1   6    7.41    0.52
  -3  -1   6    6.74    0.46
  -3  -1   6    7.29    0.49
   2   1  -6    0.23    0.16
   2   1  -6    0.40    0.19
   2   1  -6    0.01    0.18
  -2  -1   6    0.26    0.18
  -2  -1   6    0.09    0.16
  -2  -1   6    0.34    0.23
  -2  -1   6    0.17    0.15
  -2  -1   6   -0.12    0.17
  -2  -1   6    0.10    0.20
  -2  -1   6    0.18    0.07
  -2  -1   6   -0.01    0.16
  -2  -1   6    0.08    0.23
   1   1  -6  176.55    3.50
   1   1  -6  183.17    3.24
   1   1  -6  185.19    3.46
   1   1  -6  185.86    3.40
   1   1  -6  181.22    3.52
   1   1  -6  182.25    3.36
   1   1  -6  183.49    3.53
   1   1  -6  184.54    3.45
  -1  -1   6  183.62    3.48
  -1  -1   6  182.23    3.24
  -1  -1   6  184.71    3.40
  -1  -1   6  185.96    3.47
  -1  -1   6  187.33    3.41
  -1  -1   6  184.59    3.47
  -1  -1   6  186.00    3.54
  -1  -1   6  184.10    3.48
  -1  -1   6  182.57    3.45
   0   1  -6    2.09    0.28
   0   1  -6    1.61    0.22
   0   1  -6    2.34    0.28
   0   1  -6    1.90    0.29
   0   1  -6    1.86    0.22
   0   1  -6    1.95    0.22
   0   1  -6    1.90    0.24
   0   1  -6    1.49    0.24
   0  -1   6    2.40    0.32
   0  -1   6    1.72    0.23
   0  -1   6    2.18    0.24
   0  -1   6    1.56    0.26
   0  -1   6    1.65    0.29
   0  -1   6    1.85    0.23
   0  -1   6    2.15    0.24
   0  -1   6    2.12    0.30
  -1   1  -6    0.09    0.16
  -1   1  -6    0.09    0.13
  -1   1  -6   -0.02    0.12
  -1   1  -6   -0.07    0.14
  -1   1  -6    0.12    0.19
  -1   1  -6   -0.02    0.19
  -1   1  -6    0.11    0.16
   1  -1   6    0.09    0.19
   1  -1   6   -0.10    0.13
   1  -1   6   -0.07    0.21
   1  -1   6    0.02    0.17
   1  -1   6    0.10    0.21
   1  -1   6    0.15    0.16
   1  -1   6    0.26    0.22
  -2   1  -6    1.44    0.28
  -2   1  -6    1.61    0.24
  -2   1  -6    1.09    0.26
  -2   1  -6    1.41    0.29
  -2   1  -6    1.57    0.26
  -2   1  -6    1.15    0.24
  -2   1  -6    1.04    0.24
   2  -1   6    1.42    0.26
   2  -1   6    1.23    0.27
   2  -1   6    1.68    0.28
   2  -1   6    1.36    0.31
   2  -1   6    1.42    0.11
   2  -1   6    1.21    0.28
  -3   1  -6    4.22    0.45
  -3   1  -6    4.99    0.46
  -3   1  -6    4.39    0.41
  -3   1  -6    4.29    0.42
  -3   1  -6    4.85    0.42
  -3   1  -6    4.39    0.44
  -3   1  -6    4.32    0.42
   3  -1   6    4.10    0.35
   3  -1   6    4.59    0.19
   3  -1   6    4.23    0.50
   3  -1   6    5.03    0.46
   3  -1   6    4.45    0.43
  -4   1  -6   26.73    0.96
  -4   1  -6   25.23    1.04
  -4   1  -6   26.24    0.99
  -4   1  -6   25.61    0.96
  -4   1  -6   24.84    0.98
  -4   1  -6   26.54    0.98
   4  -1   6   28.88    1.16
   4  -1   6   25.99    0.93
   4  -1   6   25.29    1.04
  -5   1  -6    9.49    0.69
  -5   1  -6    7.41    0.62
  -5   1  -6    6.47    0.67
  -5   1  -6    7.49    0.61
   5  -1   6    8.39    0.72
   5  -1   6    7.71    0.66
  -6   1  -6    0.38    0.33
  -6   1  -6    0.08    0.28
  -6   1  -6    0.43    0.31
  -6   1  -6    0.23    0.40
   6  -1   6    0.10    0.41
   6  -1   6    0.59    0.43
  -7   1  -6   11.30    0.83
  -7   1  -6   12.04    0.87
  -7   1  -6   15.90    1.18
   7  -1   6   11.81    1.01
   7  -1   6   11.75    1.12
   7   0  -6    0.15    0.44
   7   0  -6    0.20    0.33
  -7   0   6    0.21    0.35
  -7   0   6    0.06    0.58
  -7   0   6    0.28    0.36
   6   0  -6    8.30    0.85
   6   0  -6   10.14    0.72
  -6   0   6    8.73    0.95
  -6   0   6    9.75    0.73
  -6   0   6    9.13    0.77
   5   0  -6    3.75    0.57
   5   0  -6    4.76    0.54
  -5   0   6    4.34    0.50
  -5   0   6    3.06    0.58
  -5   0   6    3.62    0.52
   4   0  -6   58.25    1.73
   4   0  -6   61.95    1.58
   4   0  -6   60.41    1.55
  -4   0   6   60.53    1.72
  -4   0   6   59.52    1.79
   3   0  -6   83.41    2.06
   3   0  -6   85.52    1.84
   3   0  -6   84.55    1.83
   3   0  -6   83.69    1.94
   3   0  -6   85.17    1.55
  -3   0   6   84.00    1.98
  -3   0   6   84.19    2.09
  -3   0   6   81.38    1.91
  -3   0   6   82.52    1.92
  -3   0   6   86.52    2.01
   2   0  -6    1.51    0.29
   2   0  -6    1.43    0.30
   2   0  -6    1.38    0.14
   2   0  -6    1.82    0.27
  -2   0   6    1.05    0.23
  -2   0   6    1.45    0.31
  -2   0   6    0.92    0.26
  -2   0   6    1.17    0.26
  -2   0   6    1.55    0.28
  -2   0   6    1.17    0.26
  -2   0   6    1.54    0.24
   1   0  -6   52.14    1.04
   1   0  -6   56.36    1.33
   1   0  -6   53.18    1.31
   1   0  -6   53.11    1.05
   1   0  -6   53.91    1.25
   1   0  -6   53.98    1.27
   1   0  -6   53.13    1.33
   1   0  -6   54.03    1.25
  -1   0   6   54.45    1.35
  -1   0   6   52.45    1.26
  -1   0   6   54.38    1.30
  -1   0   6   52.80    1.22
  -1   0   6   50.43    1.27
  -1   0   6   53.33    1.23
  -1   0   6   50.17    1.21
  -1   0   6   53.63    1.05
   0   0  -6  114.97    2.37
   0   0  -6  125.65    2.27
   0   0  -6  118.82    2.25
   0   0  -6  121.95    2.44
   0   0  -6  122.55    2.41
   0   0  -6  121.47    2.34
   0   0  -6  119.72    2.35
   0   0  -6  123.63    2.37
   0   0   6  116.82    2.40
   0   0   6  117.86    2.26
   0   0   6  120.65    2.28
   0   0   6  117.64    2.43
   0   0   6  117.89    2.38
   0   0   6  119.90    2.34
   0   0   6  121.40    2.26
  -1   0  -6    6.09    0.37
  -1   0  -6    5.65    0.36
  -1   0  -6    5.93    0.40
  -1   0  -6    5.83    0.38
  -1   0  -6    5.59    0.36
  -1   0  -6    5.65    0.39
  -1   0  -6    5.81    0.29
  -1   0  -6    5.63    0.35
   1   0   6    5.47    0.41
   1   0   6    5.85    0.39
   1   0   6    6.13    0.36
   1   0   6    6.18    0.36
   1   0   6    6.15    0.24
   1   0   6    5.59    0.40
   1   0   6    6.19    0.31
  -2   0  -6   24.76    0.76
  -2   0  -6   23.03    0.75
  -2   0  -6   23.86    0.80
  -2   0  -6   23.92    0.77
  -2   0  -6   22.16    0.77
  -2   0  -6   23.05    0.76
  -2   0  -6   24.66    0.70
  -2   0  -6   23.40    0.76
   2   0   6   23.02    0.75
   2   0   6   23.79    0.77
   2   0   6   24.10    0.71
   2   0   6   22.66    0.77
   2   0   6   24.13    0.82
  -3   0  -6    0.28    0.17
  -3   0  -6    0.21    0.19
  -3   0  -6    0.07    0.17
  -3   0  -6    0.46    0.21
  -3   0  -6    0.43    0.23
  -3   0  -6    0.22    0.16
  -3   0  -6    0.20    0.21
   3   0   6   -0.04    0.17
   3   0   6    0.10    0.19
   3   0   6   -0.07    0.21
  -4   0  -6   10.04    0.31
  -4   0  -6   11.06    0.62
  -4   0  -6   10.33    0.64
  -4   0  -6   10.98    0.59
  -4   0  -6   11.21    0.55
  -4   0  -6   11.08    0.61
  -4   0  -6   10.29    0.60
  -4   0  -6   10.47    0.56
   4   0   6   11.62    0.55
   4   0   6   10.15    0.62
   4   0   6    9.71    0.63
   4   0   6   10.16    0.60
  -5   0  -6    9.80    0.61
  -5   0  -6   10.95    0.68
  -5   0  -6   11.29    0.69
  -5   0  -6    8.60    0.70
  -5   0  -6   11.14    0.65
   5   0   6    8.62    0.67
   5   0   6    9.81    0.65
  -6   0  -6    1.57    0.35
  -6   0  -6    2.45    0.44
  -6   0  -6    1.74    0.49
  -6   0  -6    2.03    0.38
   6   0   6    2.15    0.54
   6   0   6    1.55    0.44
  -7   0  -6    2.42    0.47
  -7   0  -6    3.04    0.66
  -7   0  -6    2.61    0.46
   7   0   6    2.15    0.64
   7   0   6    2.97    0.58
   7  -1  -6    1.86    0.45
   7  -1  -6    1.96    0.58
  -7   1   6    1.35    0.74
  -7   1   6    1.21    0.49
  -7   1   6    0.32    0.38
   6  -1  -6    3.84    0.54
   6  -1  -6    4.15    0.69
  -6   1   6    3.21    0.57
  -6   1   6    3.72    0.72
  -6   1   6    3.43    0.54
   5  -1  -6    7.60    0.55
   5  -1  -6    6.90    0.73
  -5   1   6    6.16    0.61
  -5   1   6    7.18    0.70
  -5   1   6    8.84    0.87
   4  -1  -6    0.17    0.27
   4  -1  -6    0.78    0.25
   4  -1  -6    0.57    0.24
  -4   1   6    0.65    0.33
  -4   1   6    0.78    0.32
  -4   1   6    0.24    0.36
   3  -1  -6    0.96    0.28
   3  -1  -6    0.64    0.17
   3  -1  -6    0.60    0.26
  -3   1   6    1.28    0.31
  -3   1   6    0.95    0.26
  -3   1   6    1.03    0.35
   2  -1  -6   23.33    0.86
   2  -1  -6   24.43    0.66
   2  -1  -6   24.05    0.51
   2  -1  -6   25.28    0.85
   2  -1  -6   25.10    0.87
   2  -1  -6   24.36    0.80
  -2   1   6   23.90    0.80
  -2   1   6   23.45    0.89
  -2   1   6   24.22    0.76
  -2   1   6   24.67    0.88
  -2   1   6   23.64    0.82
   1  -1  -6    8.62    0.46
   1  -1  -6    7.75    0.34
   1  -1  -6    7.52    0.29
   1  -1  -6    8.40    0.44
   1  -1  -6    7.34    0.48
   1  -1  -6    7.57    0.42
   1  -1  -6    7.68    0.42
  -1   1   6    7.71    0.43
  -1   1   6    7.96    0.49
  -1   1   6    7.69    0.38
  -1   1   6    8.04    0.49
  -1   1   6    8.90    0.44
  -1   1   6    7.77    0.46
   0  -1  -6    4.00    0.32
   0  -1  -6    4.30    0.38
   0  -1  -6    4.06    0.32
   0  -1  -6    3.61    0.27
   0  -1  -6    4.76    0.38
   0  -1  -6    3.83    0.32
   0  -1  -6    3.59    0.26
   0  -1  -6    4.57    0.31
   0   1   6    4.24    0.33
   0   1   6    4.39    0.37
   0   1   6    3.86    0.24
   0   1   6    4.43    0.37
   0   1   6    4.21    0.39
   0   1   6    5.03    0.34
  -1  -1  -6   20.45    0.49
  -1  -1  -6   20.35    0.66
  -1  -1  -6   19.88    0.66
  -1  -1  -6   20.64    0.52
  -1  -1  -6   19.33    0.66
  -1  -1  -6   19.66    0.66
  -1  -1  -6   21.15    0.65
  -1  -1  -6   20.09    0.65
  -1  -1  -6   18.82    0.67
   1   1   6   19.18    0.63
   1   1   6   20.66    0.64
   1   1   6   19.89    0.52
   1   1   6   20.50    0.69
   1   1   6   19.88    0.66
   1   1   6   19.68    0.49
   1   1   6   20.43    0.72
  -2  -1  -6   17.27    0.64
  -2  -1  -6   16.14    0.62
  -2  -1  -6   17.53    0.66
  -2  -1  -6   17.40    0.50
  -2  -1  -6   16.64    0.62
  -2  -1  -6   16.91    0.64
  -2  -1  -6   17.45    0.60
  -2  -1  -6   17.54    0.60
   2   1   6   18.21    0.56
   2   1   6   16.15    0.61
   2   1   6   17.14    0.68
   2   1   6   17.31    0.65
   2   1   6   16.72    0.62
  -3  -1  -6    0.78    0.19
  -3  -1  -6    0.62    0.18
  -3  -1  -6    0.59    0.20
  -3  -1  -6    0.27    0.20
  -3  -1  -6    0.78    0.24
  -3  -1  -6    0.42    0.17
  -3  -1  -6    1.03    0.26
   3   1   6    0.88    0.28
   3   1   6    0.40    0.25
   3   1   6    0.52    0.18
   3   1   6    0.38    0.22
  -4  -1  -6   12.24    0.56
  -4  -1  -6   12.93    0.68
  -4  -1  -6   11.83    0.33
  -4  -1  -6   12.64    0.54
  -4  -1  -6   12.92    0.65
  -4  -1  -6   10.93    0.62
  -4  -1  -6   11.67    0.57
   4   1   6   11.38    0.65
   4   1   6   12.36    0.64
   4   1   6   12.00    0.68
   4   1   6   12.88    0.51
  -5  -1  -6   -0.16    0.22
  -5  -1  -6   -0.07    0.19
  -5  -1  -6   -0.07    0.23
  -5  -1  -6    0.46    0.21
  -5  -1  -6   -0.20    0.28
   5   1   6    0.38    0.33
   5   1   6    0.18    0.29
  -6  -1  -6   -0.02    0.29
  -6  -1  -6    0.06    0.38
  -6  -1  -6    0.08    0.23
  -6  -1  -6    0.04    0.22
   6   1   6   -0.07    0.29
   6   1   6    0.35    0.40
  -7  -1  -6    5.07    0.55
  -7  -1  -6    5.23    0.54
  -7  -1  -6    5.08    0.74
   7   1   6    5.02    0.77
  -8  -1  -6   -0.19    0.28
  -8  -1  -6   -0.33    0.45
   8   1   6    1.07    0.58
   7  -2  -6    0.35    0.46
  -7   2   6   -0.16    0.36
  -7   2   6   -1.58    0.57
  -7   2   6   -0.37    0.39
   6  -2  -6    2.61    0.58
  -6   2   6    2.48    0.53
  -6   2   6    2.16    0.72
  -6   2   6    2.63    0.55
   5  -2  -6    1.09    0.31
   5  -2  -6    0.84    0.40
  -5   2   6    1.75    0.47
  -5   2   6    0.95    0.38
  -5   2   6   -0.31    0.40
   4  -2  -6    7.99    0.69
   4  -2  -6    9.23    0.53
   4  -2  -6    9.13    0.53
   4  -2  -6    9.73    0.68
  -4   2   6    9.44    0.73
  -4   2   6    8.04    0.64
  -4   2   6    6.96    0.72
   3  -2  -6   75.21    1.96
   3  -2  -6   80.58    1.77
   3  -2  -6   78.21    2.04
   3  -2  -6   80.78    1.50
   3  -2  -6   80.21    1.89
  -3   2   6   78.00    1.94
  -3   2   6   78.44    2.04
  -3   2   6   77.88    2.07
   2  -2  -6    3.23    0.40
   2  -2  -6    3.75    0.41
   2  -2  -6    3.99    0.42
   2  -2  -6    3.09    0.31
   2  -2  -6    4.01    0.45
  -2   2   6    2.88    0.40
  -2   2   6    3.12    0.41
  -2   2   6    3.77    0.41
   1  -2  -6    2.19    0.35
   1  -2  -6    1.79    0.29
   1  -2  -6    2.27    0.26
   1  -2  -6    2.08    0.29
   1  -2  -6    3.12    0.36
   1  -2  -6    1.99    0.29
  -1   2   6    1.87    0.32
  -1   2   6    1.74    0.27
  -1   2   6    2.73    0.37
  -1   2   6    2.42    0.29
  -1   2   6    2.06    0.29
  -1   2   6    2.11    0.32
   0  -2  -6  152.84    2.95
   0  -2  -6  149.30    2.91
   0  -2  -6  150.66    2.80
   0  -2  -6  151.55    2.86
   0  -2  -6  147.93    2.86
   0  -2  -6  149.23    2.99
   0  -2  -6  156.08    2.89
   0  -2  -6  150.22    2.94
   0   2   6  151.87    2.92
   0   2   6  150.88    2.92
   0   2   6  154.69    2.97
   0   2   6  147.89    2.66
   0   2   6  148.95    2.98
   0   2   6  149.45    2.91
   0   2   6  149.77    2.98
  -1  -2  -6    7.74    0.41
  -1  -2  -6    6.54    0.38
  -1  -2  -6    6.88    0.37
  -1  -2  -6    6.86    0.41
  -1  -2  -6    7.41    0.44
  -1  -2  -6    6.90    0.39
  -1  -2  -6    6.81    0.41
   1   2   6    7.00    0.40
   1   2   6    6.69    0.34
   1   2   6    6.10    0.43
   1   2   6    7.22    0.44
   1   2   6    6.93    0.48
  -2  -2  -6   22.13    0.74
  -2  -2  -6   23.57    0.51
  -2  -2  -6   22.59    0.75
  -2  -2  -6   23.10    0.70
  -2  -2  -6   22.95    0.73
  -2  -2  -6   23.94    0.71
  -2  -2  -6   23.72    0.78
  -2  -2  -6   24.13    0.78
  -2  -2  -6   22.97    0.58
   2   2   6   23.39    0.72
   2   2   6   24.21    0.76
   2   2   6   23.28    0.89
   2   2   6   24.69    0.84
   2   2   6   23.10    0.62
  -3  -2  -6    1.95    0.29
  -3  -2  -6    2.87    0.30
  -3  -2  -6    2.06    0.33
  -3  -2  -6    2.56    0.33
  -3  -2  -6    2.04    0.24
  -3  -2  -6    2.48    0.18
  -3  -2  -6    2.32    0.26
  -3  -2  -6    3.10    0.36
  -3  -2  -6    1.68    0.24
   3   2   6    3.20    0.37
   3   2   6    2.37    0.42
   3   2   6    2.64    0.33
   3   2   6    2.06    0.23
   3   2   6    2.71    0.39
  -4  -2  -6    1.80    0.19
  -4  -2  -6    1.94    0.27
  -4  -2  -6    1.93    0.24
  -4  -2  -6    1.50    0.23
  -4  -2  -6    1.58    0.31
  -4  -2  -6    1.75    0.32
  -4  -2  -6    1.38    0.24
  -4  -2  -6    1.69    0.32
   4   2   6    1.23    0.29
   4   2   6    1.59    0.36
   4   2   6    1.24    0.30
  -5  -2  -6   14.98    0.59
  -5  -2  -6   15.34    0.78
  -5  -2  -6   14.93    0.77
  -5  -2  -6   14.62    0.60
  -5  -2  -6   15.16    0.62
  -5  -2  -6   16.06    0.86
  -5  -2  -6   14.34    0.53
   5   2   6   15.17    0.84
   5   2   6   15.10    0.76
  -6  -2  -6   -0.19    0.18
  -6  -2  -6    0.01    0.18
  -6  -2  -6    0.25    0.29
  -6  -2  -6   -0.20    0.29
   6   2   6   -0.02    0.29
   6   2   6    0.13    0.37
  -7  -2  -6    0.71    0.26
  -7  -2  -6    0.40    0.25
  -7  -2  -6    0.41    0.43
   7   2   6    0.69    0.43
  -8  -2  -6    1.43    0.59
  -8  -2  -6    2.35    0.41
   8   2   6    2.07    0.62
   6  -3  -6    2.53    0.64
  -6   3   6    4.12    0.84
  -6   3   6    2.59    0.61
  -6   3   6    2.38    0.58
   5  -3  -6    6.32    0.76
  -5   3   6    5.08    0.70
  -5   3   6    5.86    0.67
  -5   3   6    3.85    0.75
   4  -3  -6   24.92    0.96
   4  -3  -6   24.83    1.16
   4  -3  -6   25.85    1.14
  -4   3   6   25.60    1.23
  -4   3   6   23.76    1.09
  -4   3   6   24.43    1.17
   3  -3  -6    4.92    0.30
   3  -3  -6    4.20    0.42
   3  -3  -6    4.27    0.54
   3  -3  -6    3.97    0.54
  -3   3   6    4.18    0.55
  -3   3   6    4.09    0.49
  -3   3   6    3.38    0.52
   2  -3  -6   14.43    0.69
   2  -3  -6   15.40    0.64
   2  -3  -6   14.86    0.74
   2  -3  -6   14.73    0.76
   2  -3  -6   16.62    0.73
  -2   3   6   14.86    0.74
  -2   3   6   14.21    0.76
  -2   3   6   14.99    0.79
  -2   3   6   14.20    0.54
   1  -3  -6   55.21    1.44
   1  -3  -6   56.67    1.46
   1  -3  -6   55.81    1.50
   1  -3  -6   54.28    1.42
   1  -3  -6   55.10    1.35
  -1   3   6   57.62    1.37
  -1   3   6   56.05    1.44
  -1   3   6   57.09    1.51
  -1   3   6   54.69    1.44
  -1   3   6   52.34    1.49
   0  -3  -6    9.70    0.51
   0  -3  -6    9.75    0.43
   0  -3  -6   10.76    0.50
   0  -3  -6   10.52    0.50
   0  -3  -6   10.15    0.56
   0  -3  -6    9.35    0.52
   0  -3  -6    9.62    0.48
   0   3   6   10.58    0.52
   0   3   6    9.51    0.55
   0   3   6   10.69    0.60
   0   3   6   10.33    0.56
   0   3   6    9.47    0.51
   0   3   6   10.27    0.49
  -1  -3  -6   16.01    0.62
  -1  -3  -6   17.61    0.62
  -1  -3  -6   16.78    0.67
  -1  -3  -6   16.01    0.63
  -1  -3  -6   16.71    0.56
  -1  -3  -6   15.37    0.63
  -1  -3  -6   16.06    0.61
  -1  -3  -6   16.60    0.62
   1   3   6   17.04    0.61
   1   3   6   16.17    0.69
   1   3   6   16.93    0.61
   1   3   6   15.70    0.65
   1   3   6   17.14    0.73
  -2  -3  -6    0.63    0.20
  -2  -3  -6    0.62    0.22
  -2  -3  -6    0.39    0.19
  -2  -3  -6    0.68    0.18
  -2  -3  -6    0.54    0.19
  -2  -3  -6    0.57    0.16
  -2  -3  -6    0.64    0.18
   2   3   6    0.66    0.19
   2   3   6    0.58    0.25
   2   3   6    0.58    0.28
  -3  -3  -6    2.27    0.25
  -3  -3  -6    2.41    0.28
  -3  -3  -6    2.05    0.31
  -3  -3  -6    2.54    0.20
  -3  -3  -6    2.31    0.31
  -3  -3  -6    2.86    0.36
  -3  -3  -6    2.63    0.28
  -3  -3  -6    2.74    0.27
  -3  -3  -6    2.28    0.31
   3   3   6    2.08    0.39
   3   3   6    3.04    0.35
   3   3   6    2.28    0.34
  -4  -3  -6    7.47    0.47
  -4  -3  -6    7.81    0.55
  -4  -3  -6    7.89    0.38
  -4  -3  -6    7.65    0.39
  -4  -3  -6    7.07    0.40
  -4  -3  -6    7.32    0.52
  -4  -3  -6    7.68    0.53
  -4  -3  -6    7.30    0.51
   4   3   6    6.90    0.55
   4   3   6    7.25    0.55
   4   3   6    7.47    0.63
  -5  -3  -6   12.21    0.51
  -5  -3  -6   12.30    0.70
  -5  -3  -6   10.95    0.67
  -5  -3  -6   10.72    0.69
  -5  -3  -6   12.63    0.53
  -5  -3  -6   11.64    0.51
  -5  -3  -6   11.56    0.49
  -5  -3  -6   12.04    0.71
   5   3   6   12.54    0.77
   5   3   6   12.86    0.70
  -6  -3  -6    5.95    0.41
  -6  -3  -6    6.15    0.62
  -6  -3  -6    6.40    0.68
  -6  -3  -6    6.23    0.40
   6   3   6    4.68    0.62
   6   3   6    5.71    0.60
  -7  -3  -6    1.87    0.52
  -7  -3  -6    1.55    0.29
   7   3   6    1.38    0.53
  -8  -3  -6    0.63    0.50
  -8  -3  -6    1.43    0.33
   8   3   6    1.16    0.58
   6  -4  -6    6.10    0.87
  -6   4   6    4.17    0.68
  -6   4   6    4.03    0.70
  -6   4   6    6.26    0.95
   5  -4  -6    2.08    0.46
   5  -4  -6    0.91    0.49
  -5   4   6    1.52    0.51
  -5   4   6    1.21    0.50
  -5   4   6    1.35    0.60
   4  -4  -6    3.05    0.47
   4  -4  -6    3.24    0.57
   4  -4  -6    2.15    0.49
  -4   4   6    2.63    0.55
  -4   4   6    2.50    0.53
  -4   4   6    2.98    0.63
   3  -4  -6   67.10    1.77
   3  -4  -6   67.89    1.53
   3  -4  -6   64.26    1.93
   3  -4  -6   60.18    1.89
  -3   4   6   65.13    1.98
  -3   4   6   66.14    1.88
  -3   4   6   64.88    1.98
   2  -4  -6    5.15    0.52
   2  -4  -6    4.24    0.47
   2  -4  -6    5.13    0.37
   2  -4  -6    5.11    0.59
   2  -4  -6    4.45    0.34
   2  -4  -6    4.85    0.51
   2  -4  -6    3.39    0.47
  -2   4   6    5.31    0.55
  -2   4   6    4.73    0.41
  -2   4   6    4.24    0.53
  -2   4   6    4.79    0.57
   1  -4  -6    7.32    0.51
   1  -4  -6    6.68    0.54
   1  -4  -6    6.94    0.50
   1  -4  -6    7.05    0.59
  -1   4   6    6.59    0.52
  -1   4   6    6.94    0.50
  -1   4   6    8.05    0.60
  -1   4   6    7.03    0.57
   0  -4  -6   52.11    1.39
   0  -4  -6   52.42    1.44
   0  -4  -6   51.44    1.36
   0  -4  -6   50.45    1.37
   0  -4  -6   50.49    1.30
   0   4   6   51.67    1.44
   0   4   6   52.64    1.11
   0   4   6   51.21    1.33
   0   4   6   49.84    1.39
   0   4   6   53.85    1.46
   0   4   6   52.61    1.43
  -1  -4  -6    3.39    0.35
  -1  -4  -6    3.91    0.38
  -1  -4  -6    3.95    0.38
  -1  -4  -6    3.76    0.27
  -1  -4  -6    3.47    0.38
  -1  -4  -6    3.26    0.38
  -1  -4  -6    3.53    0.38
   1   4   6    2.89    0.31
   1   4   6    3.49    0.40
   1   4   6    2.82    0.36
   1   4   6    3.97    0.33
   1   4   6    3.29    0.42
   1   4   6    4.27    0.50
  -2  -4  -6    8.18    0.45
  -2  -4  -6    8.35    0.43
  -2  -4  -6    7.74    0.48
  -2  -4  -6    7.74    0.53
  -2  -4  -6    8.09    0.45
  -2  -4  -6    7.89    0.47
  -2  -4  -6    7.12    0.47
  -2  -4  -6    8.30    0.39
   2   4   6    8.73    0.62
   2   4   6    8.85    0.56
   2   4   6    7.22    0.44
  -3  -4  -6    5.86    0.37
  -3  -4  -6    5.09    0.36
  -3  -4  -6    4.73    0.37
  -3  -4  -6    4.89    0.35
  -3  -4  -6    4.56    0.33
  -3  -4  -6    5.30    0.23
  -3  -4  -6    5.27    0.43
  -3  -4  -6    5.82    0.49
  -3  -4  -6    4.83    0.43
   3   4   6    5.04    0.58
   3   4   6    5.13    0.41
   3   4   6    5.31    0.50
  -4  -4  -6    0.28    0.16
  -4  -4  -6    0.01    0.14
  -4  -4  -6    0.32    0.24
  -4  -4  -6   -0.22    0.20
  -4  -4  -6    0.23    0.14
  -4  -4  -6   -0.12    0.13
  -4  -4  -6   -0.10    0.20
  -4  -4  -6    0.09    0.18
   4   4   6    0.30    0.29
   4   4   6   -0.02    0.23
   4   4   6    0.23    0.35
  -5  -4  -6    4.18    0.50
  -5  -4  -6    4.10    0.47
  -5  -4  -6    2.74    0.44
  -5  -4  -6    3.20    0.44
  -5  -4  -6    3.51    0.28
  -5  -4  -6    3.79    0.31
  -5  -4  -6    3.35    0.29
  -5  -4  -6    3.82    0.38
   5   4   6    4.11    0.55
   5   4   6    3.97    0.63
   5   4   6    3.16    0.46
  -6  -4  -6    1.93    0.42
  -6  -4  -6    1.84    0.25
  -6  -4  -6    1.80    0.26
  -6  -4  -6    2.67    0.47
  -6  -4  -6    1.83    0.22
  -6  -4  -6    2.69    0.53
   6   4   6    1.51    0.47
   6   4   6    1.80    0.41
   6   4   6    0.75    0.46
  -7  -4  -6    1.20    0.43
  -7  -4  -6    1.34    0.47
  -7  -4  -6    1.05    0.24
   7   4   6    1.45    0.52
  -8  -4  -6    0.08    0.40
  -8  -4  -6    0.76    0.25
  -8  -4  -6    0.47    0.42
   8   4   6    0.57    0.54
   5  -5  -6   -0.10    0.36
   5  -5  -6    0.20    0.39
  -5   5   6    0.37    0.42
  -5   5   6    0.45    0.62
  -5   5   6    0.00    0.41
   4  -5  -6   19.01    1.12
   4  -5  -6   15.93    1.08
   4  -5  -6   17.77    0.95
  -4   5   6   17.32    1.15
  -4   5   6   18.41    1.05
  -4   5   6   20.78    1.24
   3  -5  -6    0.38    0.37
   3  -5  -6    0.61    0.40
   3  -5  -6    0.14    0.32
  -3   5   6    0.72    0.45
  -3   5   6    0.83    0.43
  -3   5   6    0.75    0.37
   2  -5  -6    1.42    0.27
   2  -5  -6    1.28    0.37
   2  -5  -6    1.34    0.27
   2  -5  -6    1.83    0.40
   2  -5  -6    1.53    0.36
   2  -5  -6    1.35    0.42
  -2   5   6    1.17    0.43
  -2   5   6    1.52    0.39
  -2   5   6    1.31    0.46
  -2   5   6    1.09    0.34
   1  -5  -6   38.62    1.16
   1  -5  -6   40.00    1.29
   1  -5  -6   39.23    1.26
   1  -5  -6   38.52    1.34
   1  -5  -6   38.22    1.24
  -1   5   6   39.55    1.38
  -1   5   6   40.74    1.39
  -1   5   6   39.81    1.28
  -1   5   6   40.84    1.11
  -1   5   6   38.87    1.25
   0  -5  -6    3.55    0.46
   0  -5  -6    2.70    0.40
   0  -5  -6    2.64    0.37
   0  -5  -6    3.26    0.37
   0  -5  -6    3.55    0.44
   0   5   6    2.59    0.42
   0   5   6    3.33    0.47
   0   5   6    3.34    0.28
   0   5   6    3.43    0.48
   0   5   6    3.12    0.38
  -1  -5  -6   59.42    1.53
  -1  -5  -6   58.72    1.51
  -1  -5  -6   59.75    1.45
  -1  -5  -6   63.64    1.61
  -1  -5  -6   58.47    1.53
  -1  -5  -6   58.10    1.58
   1   5   6   59.97    1.64
   1   5   6   57.35    1.69
   1   5   6   57.73    1.57
   1   5   6   59.34    1.17
   1   5   6   59.53    1.42
   1   5   6   56.23    1.54
  -2  -5  -6    5.30    0.30
  -2  -5  -6    4.75    0.44
  -2  -5  -6    5.40    0.42
  -2  -5  -6    5.23    0.39
  -2  -5  -6    5.00    0.50
  -2  -5  -6    4.42    0.39
  -2  -5  -6    4.90    0.46
   2   5   6    5.10    0.42
   2   5   6    4.59    0.52
   2   5   6    5.05    0.58
  -3  -5  -6    3.74    0.47
  -3  -5  -6    3.27    0.19
  -3  -5  -6    3.62    0.35
  -3  -5  -6    3.57    0.31
  -3  -5  -6    3.99    0.40
  -3  -5  -6    3.31    0.41
  -3  -5  -6    2.82    0.33
  -3  -5  -6    3.35    0.42
   3   5   6    3.95    0.42
   3   5   6    3.58    0.48
   3   5   6    3.91    0.59
  -4  -5  -6   31.47    0.89
  -4  -5  -6   31.45    1.16
  -4  -5  -6   31.47    1.03
  -4  -5  -6   33.67    1.14
  -4  -5  -6   30.66    0.86
  -4  -5  -6   30.72    1.10
  -4  -5  -6   30.41    0.86
  -4  -5  -6   31.72    0.82
  -4  -5  -6   32.94    0.99
   4   5   6   32.55    1.34
   4   5   6   30.64    1.11
   4   5   6   30.99    1.07
  -5  -5  -6    0.16    0.13
  -5  -5  -6    0.20    0.24
  -5  -5  -6   -0.01    0.14
  -5  -5  -6    0.02    0.14
  -5  -5  -6    0.00    0.21
  -5  -5  -6   -0.19    0.27
   5   5   6   -0.13    0.40
   5   5   6   -0.16    0.25
   5   5   6   -0.18    0.28
  -6  -5  -6    0.13    0.30
  -6  -5  -6    0.04    0.15
  -6  -5  -6    0.16    0.29
  -6  -5  -6   -0.06    0.13
  -6  -5  -6   -0.34    0.27
   6   5   6   -0.17    0.41
   6   5   6    0.13    0.31
   6   5   6   -0.05    0.35
  -7  -5  -6    0.11    0.16
  -7  -5  -6    0.24    0.38
  -7  -5  -6    0.14    0.32
  -7  -5  -6    0.01    0.37
   7   5   6   -0.04    0.43
  -8  -5  -6    0.54    0.43
  -8  -5  -6    0.35    0.18
  -8  -5  -6   -0.34    0.38
   8   5   6    0.11    0.49
   5  -6  -6    1.37    0.53
   5  -6  -6    1.56    0.54
  -5   6   6    2.08    0.73
  -5   6   6    1.37    0.56
   4  -6  -6    0.88    0.51
   4  -6  -6    0.45    0.38
   4  -6  -6    0.85    0.46
  -4   6   6    0.75    0.48
  -4   6   6    0.52    0.55
   3  -6  -6    5.89    0.71
   3  -6  -6    5.89    0.76
  -3   6   6    6.11    0.79
  -3   6   6    4.66    0.68
   2  -6  -6    9.46    0.70
   2  -6  -6    9.75    0.57
   2  -6  -6    9.69    0.81
   2  -6  -6    9.33    0.70
  -2   6   6    9.85    0.83
  -2   6   6    7.96    0.82
  -2   6   6    8.42    0.63
  -2   6   6   10.21    0.72
   1  -6  -6    8.82    0.71
   1  -6  -6    7.45    0.74
   1  -6  -6    6.52    0.53
   1  -6  -6    7.36    0.68
   1  -6  -6    7.10    0.57
  -1   6   6    6.55    0.71
  -1   6   6    6.20    0.71
  -1   6   6    6.67    0.68
  -1   6   6    6.76    0.50
   0  -6  -6    2.98    0.44
   0  -6  -6    3.05    0.47
   0  -6  -6    2.38    0.41
   0  -6  -6    2.57    0.43
   0  -6  -6    2.31    0.42
   0   6   6    1.20    0.39
   0   6   6    2.18    0.29
   0   6   6    2.05    0.47
   0   6   6    2.33    0.43
  -1  -6  -6   41.88    1.32
  -1  -6  -6   38.85    1.22
  -1  -6  -6   39.69    1.12
  -1  -6  -6   39.72    1.31
  -1  -6  -6   39.06    1.26
   1   6   6   40.36    1.28
   1   6   6   41.16    1.46
   1   6   6   40.25    0.96
  -2  -6  -6   15.07    0.77
  -2  -6  -6   15.65    0.65
  -2  -6  -6   14.37    0.70
  -2  -6  -6   15.53    0.41
  -2  -6  -6   15.82    0.75
  -2  -6  -6   15.27    0.70
   2   6   6   14.66    0.85
   2   6   6   15.07    0.68
   2   6   6   15.48    0.45
   2   6   6   13.66    0.87
  -3  -6  -6    7.33    0.49
  -3  -6  -6    7.64    0.53
  -3  -6  -6    8.17    0.51
  -3  -6  -6    7.00    0.66
  -3  -6  -6    8.22    0.53
  -3  -6  -6    7.70    0.32
  -3  -6  -6    7.78    0.37
   3   6   6    6.91    0.50
   3   6   6    7.54    0.69
   3   6   6    6.37    0.72
  -4  -6  -6    2.39    0.31
  -4  -6  -6    2.90    0.37
  -4  -6  -6    2.83    0.48
  -4  -6  -6    3.69    0.47
  -4  -6  -6    2.95    0.33
  -4  -6  -6    3.14    0.35
   4   6   6    2.31    0.58
   4   6   6    2.93    0.48
   4   6   6    3.46    0.47
  -5  -6  -6    7.24    0.67
  -5  -6  -6    6.78    0.39
  -5  -6  -6    7.01    0.72
  -5  -6  -6    7.28    0.43
  -5  -6  -6    6.82    0.49
  -5  -6  -6    7.76    0.57
   5   6   6    7.48    0.68
   5   6   6    7.14    0.71
   5   6   6    7.72    0.86
  -6  -6  -6    9.98    0.71
  -6  -6  -6   10.02    0.46
  -6  -6  -6   10.73    0.74
  -6  -6  -6   10.11    0.80
  -6  -6  -6   10.31    0.66
   6   6   6   10.90    0.85
   6   6   6    8.47    0.93
  -7  -6  -6    0.16    0.15
  -7  -6  -6    0.45    0.35
  -7  -6  -6   -0.46    0.26
  -7  -6  -6    0.34    0.35
   7   6   6   -0.12    0.46
   7   6   6    0.52    0.47
  -8  -6  -6    3.56    0.64
  -8  -6  -6    2.76    0.24
  -8  -6  -6    2.90    0.57
   8   6   6    1.16    0.58
   4  -7  -6    8.77    1.04
   4  -7  -6    8.64    1.00
   4  -7  -6    9.18    0.97
  -4   7   6    9.72    1.17
  -4   7   6    8.09    1.01
   3  -7  -6    1.92    0.51
   3  -7  -6    3.72    0.74
  -3   7   6    3.47    0.73
  -3   7   6    3.46    0.70
   2  -7  -6    0.49    0.46
   2  -7  -6    0.70    0.38
  -2   7   6    0.33    0.42
  -2   7   6    0.37    0.45
  -2   7   6    0.35    0.46
   1  -7  -6   25.02    1.20
   1  -7  -6   23.56    1.02
   1  -7  -6   21.70    1.06
   1  -7  -6   21.83    1.09
   1  -7  -6   22.18    0.99
  -1   7   6   21.88    1.21
  -1   7   6   20.90    1.10
  -1   7   6   21.36    1.15
   0  -7  -6    1.77    0.46
   0  -7  -6    1.69    0.43
   0  -7  -6    1.29    0.37
   0  -7  -6    1.31    0.39
   0  -7  -6    1.44    0.42
   0   7   6    1.97    0.50
   0   7   6    2.05    0.46
   0   7   6    0.76    0.47
  -1  -7  -6   15.11    0.78
  -1  -7  -6   16.64    0.69
  -1  -7  -6   14.81    0.87
  -1  -7  -6   16.02    0.86
  -1  -7  -6   15.41    0.90
  -1  -7  -6   14.75    0.84
   1   7   6   14.23    0.92
   1   7   6   16.81    0.86
  -2  -7  -6    7.90    0.60
  -2  -7  -6    8.68    0.77
  -2  -7  -6    6.90    0.57
  -2  -7  -6    8.46    0.65
  -2  -7  -6    8.51    0.52
   2   7   6    6.46    0.75
  -3  -7  -6    0.27    0.26
  -3  -7  -6    0.42    0.30
  -3  -7  -6    0.64    0.33
  -3  -7  -6    0.04    0.20
  -3  -7  -6    0.65    0.27
   3   7   6    0.68    0.30
   3   7   6   -0.38    0.35
  -4  -7  -6   15.59    0.80
  -4  -7  -6   15.54    0.70
  -4  -7  -6   16.13    0.72
  -4  -7  -6   14.91    0.89
  -4  -7  -6   16.77    0.74
   4   7   6   15.23    1.06
   4   7   6   15.36    0.83
  -5  -7  -6    0.06    0.34
  -5  -7  -6    0.20    0.20
  -5  -7  -6    0.24    0.25
  -5  -7  -6    0.02    0.18
  -5  -7  -6    0.36    0.31
   5   7   6   -0.06    0.34
   5   7   6   -0.25    0.31
   5   7   6    0.54    0.47
  -6  -7  -6    1.11    0.33
  -6  -7  -6    1.39    0.51
  -6  -7  -6    0.84    0.37
  -6  -7  -6    1.12    0.23
   6   7   6    0.74    0.55
   6   7   6    0.59    0.44
  -7  -7  -6    0.61    0.44
  -7  -7  -6    1.53    0.23
  -7  -7  -6    0.62    0.38
   7   7   6    0.32    0.56
   7   7   6    0.49    0.48
   3  -8  -6    4.17    0.71
   3  -8  -6    3.27    0.76
  -3   8   6    4.74    0.87
  -3   8   6    2.13    0.65
   2  -8  -6   -0.05    0.50
   2  -8  -6    0.06    0.36
  -2   8   6    0.27    0.55
  -2   8   6   -0.07    0.41
   1  -8  -6    4.34    0.70
   1  -8  -6    2.89    0.58
   1  -8  -6    2.97    0.57
   1  -8  -6    2.86    0.49
   1  -8  -6    1.84    0.44
  -1   8   6    2.72    0.66
  -1   8   6    2.12    0.54
  -1   8   6    4.17    0.72
   0  -8  -6    9.17    0.87
   0  -8  -6    9.34    0.69
   0  -8  -6    9.05    0.85
   0  -8  -6    8.07    0.84
   0  -8  -6    7.07    0.76
   0   8   6    8.03    0.91
   0   8   6    7.75    0.80
  -1  -8  -6    2.61    0.44
  -1  -8  -6    1.34    0.45
  -1  -8  -6    2.75    0.52
  -1  -8  -6    2.13    0.49
  -1  -8  -6    1.98    0.49
   1   8   6    2.73    0.64
  -2  -8  -6    0.55    0.32
  -2  -8  -6    0.14    0.30
  -2  -8  -6    0.20    0.35
  -2  -8  -6    0.32    0.33
  -2  -8  -6    0.40    0.39
   2   8   6    0.00    0.40
  -3  -8  -6    5.33    0.56
  -3  -8  -6    4.89    0.66
  -3  -8  -6    4.53    0.54
  -3  -8  -6    4.93    0.53
   3   8   6    4.78    0.78
  -4  -8  -6    1.13    0.32
  -4  -8  -6    1.45    0.35
  -4  -8  -6    1.41    0.44
  -4  -8  -6    1.35    0.37
   4   8   6    1.94    0.46
   4   8   6    0.49    0.47
  -5  -8  -6    1.76    0.50
  -5  -8  -6    1.93    0.32
  -5  -8  -6    2.26    0.43
  -5  -8  -6    2.28    0.37
   5   8   6    1.08    0.62
   5   8   6    2.24    0.52
  -6  -8  -6    2.07    0.57
  -6  -8  -6    3.18    0.54
  -6  -8  -6    2.05    0.32
   6   8   6    2.24    0.72
   6   8   6    2.50    0.59
  -7  -8  -6    1.24    0.54
  -7  -8  -6    1.37    0.25
   7   8   6    1.49    0.68
   7   8   6    0.92    0.53
   2  -9  -6    0.37    0.62
   2  -9  -6    0.55    0.44
  -2   9   6    0.16    0.50
   1  -9  -6    7.76    0.97
   1  -9  -6    7.14    0.86
   1  -9  -6    6.63    0.88
  -1   9   6    6.33    0.84
  -1   9   6    6.56    0.90
   0  -9  -6    1.28    0.47
   0  -9  -6    1.56    0.43
   0  -9  -6    0.84    0.49
   0  -9  -6    1.71    0.55
   0  -9  -6    1.84    0.55
   0   9   6    0.87    0.51
  -1  -9  -6    1.74    0.52
  -1  -9  -6    1.12    0.49
  -1  -9  -6    1.81    0.42
  -1  -9  -6    1.41    0.50
  -1  -9  -6    1.59    0.53
   1   9   6    2.13    0.68
  -2  -9  -6    3.40    0.54
  -2  -9  -6    2.95    0.58
  -2  -9  -6    3.42    0.50
  -2  -9  -6    2.69    0.59
  -2  -9  -6    2.81    0.57
   2   9   6    2.03    0.64
  -3  -9  -6    1.51    0.44
  -3  -9  -6    1.59    0.49
  -3  -9  -6    1.11    0.39
  -3  -9  -6    1.73    0.54
  -3  -9  -6    1.94    0.43
   3   9   6    2.02    0.67
  -4  -9  -6   12.35    0.79
  -4  -9  -6   11.87    0.92
  -4  -9  -6   11.68    0.77
  -4  -9  -6   11.95    1.01
  -4  -9  -6   10.98    0.83
   4   9   6    7.96    0.99
  -5  -9  -6   -0.23    0.27
  -5  -9  -6    0.98    0.53
  -5  -9  -6    0.34    0.28
  -5  -9  -6   -0.60    0.38
   5   9   6    0.46    0.43
   5   9   6   -0.20    0.52
  -6  -9  -6    2.48    0.59
  -6  -9  -6    2.50    0.69
  -6  -9  -6    2.75    0.42
   6   9   6    2.62    0.74
   6   9   6    2.06    0.58
   1 -10  -6    2.31    0.74
   1 -10  -6    3.19    0.74
  -1  10   6    2.69    0.75
   0 -10  -6    5.25    0.89
   0 -10  -6    4.62    0.78
   0 -10  -6    3.85    0.77
   0 -10  -6    2.97    0.64
   0  10   6    3.06    0.77
  -1 -10  -6    1.13    0.56
  -1 -10  -6    1.61    0.55
  -1 -10  -6    0.35    0.46
  -1 -10  -6    1.54    0.57
   1  10   6    0.23    0.57
  -2 -10  -6    0.75    0.47
  -2 -10  -6    1.30    0.47
  -2 -10  -6    1.31    0.54
  -2 -10  -6    0.98    0.50
   2  10   6    0.95    0.63
  -3 -10  -6    4.10    0.64
  -3 -10  -6    3.59    0.71
  -3 -10  -6    3.96    0.74
  -3 -10  -6    2.53    0.54
   3  10   6    2.23    0.71
  -4 -10  -6    1.20    0.52
  -4 -10  -6    2.48    0.50
  -4 -10  -6    1.17    0.57
  -4 -10  -6    1.96    0.46
   4  10   6    1.26    0.68
  -5 -10  -6    4.24    0.57
  -5 -10  -6    4.39    0.79
  -5 -10  -6    4.34    0.82
   5  10   6    5.41    1.01
  -2 -11  -6    4.07    0.76
  -2 -11  -6    3.07    0.69
  -2 -11  -6    2.09    0.60
   2  11   6    2.41    0.76
  -3 -11  -6    1.98    0.57
  -3 -11  -6    1.34    0.56
  -3 -11  -6    1.89    0.68
   3  11   6    1.52    0.73
  -3 -10   7    0.86    0.54
   2  10  -7    2.68    0.79
  -2 -10   7    2.26    0.69
  -2 -10   7    0.48    0.56
  -2 -10   7    1.63    0.57
   1  10  -7    0.16    0.62
  -1 -10   7   -0.38    0.46
  -1 -10   7   -0.36    0.49
  -1 -10   7   -0.16    0.47
   5   9  -7    7.47    1.02
  -5  -9   7    6.01    0.71
  -5  -9   7    6.85    0.95
  -5  -9   7    6.41    0.72
   4   9  -7    0.61    0.60
  -4  -9   7    0.82    0.46
  -4  -9   7    0.84    0.46
  -4  -9   7    0.55    0.53
   3   9  -7    1.43    0.67
  -3  -9   7    1.56    0.67
  -3  -9   7    1.68    0.53
  -3  -9   7    1.14    0.50
   2   9  -7    1.64    0.60
  -2  -9   7    2.60    0.65
  -2  -9   7    3.24    0.67
  -2  -9   7    2.63    0.60
   1   9  -7    3.62    0.76
  -1  -9   7    4.28    0.71
  -1  -9   7    3.12    0.70
  -1  -9   7    2.99    0.71
  -1  -9   7    3.18    0.83
   0   9  -7    1.51    0.68
   0  -9   7    2.39    0.67
   0  -9   7    2.78    0.58
   0  -9   7    2.49    0.69
  -1   9  -7    0.86    0.67
  -1   9  -7    0.78    0.55
   1  -9   7    1.20    0.65
   1  -9   7    0.23    0.53
  -6  -8   7    3.94    0.57
   5   8  -7    1.99    0.64
  -5  -8   7    1.54    0.52
  -5  -8   7    1.47    0.47
  -5  -8   7    1.01    0.42
   4   8  -7    4.55    0.80
  -4  -8   7    6.08    0.68
  -4  -8   7    5.07    0.76
  -4  -8   7    4.89    0.66
   3   8  -7    7.93    0.96
  -3  -8   7    7.58    0.90
  -3  -8   7    8.88    0.83
  -3  -8   7    9.55    0.88
   2   8  -7    9.59    1.05
  -2  -8   7    8.75    0.94
  -2  -8   7   10.29    0.87
  -2  -8   7   10.64    0.96
   1   8  -7    1.93    0.63
  -1  -8   7    2.81    0.59
  -1  -8   7    2.08    0.44
  -1  -8   7    3.16    0.65
  -1  -8   7    2.41    0.58
   0   8  -7    3.24    0.72
   0   8  -7    3.47    0.62
   0  -8   7    3.10    0.62
   0  -8   7    3.23    0.68
   0  -8   7    3.03    0.54
   0  -8   7    4.47    0.75
  -1   8  -7    3.98    0.78
  -1   8  -7    3.56    0.68
   1  -8   7    4.46    0.79
   1  -8   7    3.93    0.78
  -2   8  -7    0.38    0.50
  -2   8  -7    0.35    0.54
   2  -8   7    0.31    0.48
   2  -8   7   -0.57    0.49
  -3   8  -7    2.78    0.83
  -3   8  -7    5.19    0.86
   3  -8   7    6.61    0.97
   3  -8   7    7.14    1.03
   6   7  -7    2.65    0.63
  -6  -7   7    3.61    0.86
  -6  -7   7    3.69    0.52
  -6  -7   7    2.62    0.50
   5   7  -7    7.09    0.83
   5   7  -7    9.28    0.94
  -5  -7   7    8.87    0.88
  -5  -7   7    8.20    0.73
  -5  -7   7    8.60    0.72
   4   7  -7    6.59    0.82
  -4  -7   7    7.22    0.81
  -4  -7   7    6.67    0.65
  -4  -7   7    6.36    0.67
   3   7  -7   24.83    1.30
  -3  -7   7   25.01    1.24
  -3  -7   7   26.05    1.18
  -3  -7   7   25.49    1.12
   2   7  -7    4.08    0.67
  -2  -7   7    6.75    0.70
  -2  -7   7    4.78    0.71
  -2  -7   7    3.95    0.58
   1   7  -7    3.59    0.45
   1   7  -7    2.68    0.63
   1   7  -7    2.38    0.47
  -1  -7   7    3.07    0.57
  -1  -7   7    2.31    0.57
  -1  -7   7    3.10    0.45
  -1  -7   7    2.17    0.49
   0   7  -7    7.86    0.93
   0   7  -7    7.58    0.59
   0   7  -7    8.38    0.82
   0  -7   7    7.53    0.77
   0  -7   7    7.97    0.87
   0  -7   7    8.54    0.65
   0  -7   7    6.76    0.76
  -1   7  -7    0.41    0.52
  -1   7  -7    0.45    0.31
  -1   7  -7    0.82    0.46
   1  -7   7    0.38    0.48
   1  -7   7    0.32    0.49
  -2   7  -7    0.55    0.46
  -2   7  -7   -0.17    0.30
  -2   7  -7   -0.70    0.38
   2  -7   7    0.45    0.47
   2  -7   7    0.12    0.44
  -3   7  -7    0.76    0.55
  -3   7  -7    0.17    0.39
  -3   7  -7    1.30    0.56
   3  -7   7    0.72    0.56
   3  -7   7    0.23    0.44
  -4   7  -7    0.87    0.65
  -4   7  -7   -0.25    0.44
   4  -7   7    0.22    0.52
   4  -7   7    0.41    0.61
   7   6  -7    3.57    0.72
   7   6  -7    2.57    0.67
  -7  -6   7    2.53    0.75
  -7  -6   7    3.99    0.55
   6   6  -7    3.77    0.74
   6   6  -7    2.78    0.60
  -6  -6   7    2.80    0.71
  -6  -6   7    3.21    0.47
  -6  -6   7    3.39    0.50
   5   6  -7   12.31    0.96
   5   6  -7   12.81    0.92
  -5  -6   7   12.45    1.03
  -5  -6   7   13.96    0.90
  -5  -6   7   13.24    0.78
  -5  -6   7   13.47    0.82
   4   6  -7    1.59    0.46
   4   6  -7    1.57    0.48
  -4  -6   7    1.61    0.40
  -4  -6   7    1.91    0.43
  -4  -6   7    1.54    0.47
   3   6  -7    8.35    0.70
   3   6  -7    6.14    0.71
  -3  -6   7    8.43    0.54
  -3  -6   7    9.39    0.85
  -3  -6   7    8.22    0.67
  -3  -6   7    6.56    0.64
   2   6  -7   29.99    1.31
   2   6  -7   32.56    1.16
  -2  -6   7   33.66    1.11
  -2  -6   7   30.96    1.24
  -2  -6   7   32.37    0.94
  -2  -6   7   31.45    1.30
  -2  -6   7   31.71    1.19
   1   6  -7    0.46    0.40
   1   6  -7    0.89    0.30
   1   6  -7    0.73    0.31
  -1  -6   7    0.66    0.38
  -1  -6   7    0.79    0.29
  -1  -6   7    0.13    0.33
  -1  -6   7   -0.24    0.31
   0   6  -7    1.83    0.36
   0   6  -7    1.45    0.40
   0  -6   7    2.38    0.47
   0  -6   7    2.18    0.50
   0  -6   7    2.16    0.50
   0  -6   7    2.03    0.39
  -1   6  -7   14.19    0.78
  -1   6  -7   13.32    0.94
   1  -6   7   14.33    0.98
   1  -6   7   14.66    0.99
   1  -6   7   14.28    0.88
  -2   6  -7    1.06    0.46
  -2   6  -7    1.47    0.40
   2  -6   7    1.20    0.46
   2  -6   7    1.53    0.54
  -3   6  -7    2.32    0.61
  -3   6  -7    2.57    0.53
   3  -6   7    3.11    0.66
   3  -6   7    2.24    0.56
  -4   6  -7    0.36    0.43
  -4   6  -7   -0.35    0.42
   4  -6   7    0.42    0.55
   4  -6   7   -0.01    0.40
   7   5  -7    3.18    0.69
   7   5  -7    3.21    0.70
  -7  -5   7    4.88    0.91
  -7  -5   7    3.64    0.50
   6   5  -7    0.80    0.48
   6   5  -7    0.35    0.45
  -6  -5   7    0.31    0.32
  -6  -5   7    1.04    0.36
  -6  -5   7    2.39    0.70
   5   5  -7   13.09    0.89
   5   5  -7   13.57    0.94
  -5  -5   7   15.22    0.83
  -5  -5   7   15.47    1.07
  -5  -5   7   13.92    0.80
  -5  -5   7   14.25    0.78
   4   5  -7    0.58    0.34
   4   5  -7    0.55    0.36
  -4  -5   7    0.83    0.36
  -4  -5   7    0.83    0.31
  -4  -5   7    0.18    0.29
   3   5  -7    5.84    0.64
   3   5  -7    4.50    0.57
  -3  -5   7    4.11    0.51
  -3  -5   7    4.22    0.39
  -3  -5   7    4.92    0.60
  -3  -5   7    4.52    0.50
  -3  -5   7    5.11    0.59
   2   5  -7    0.84    0.35
   2   5  -7    1.11    0.37
   2   5  -7    1.11    0.30
  -2  -5   7    0.86    0.25
  -2  -5   7    0.86    0.34
  -2  -5   7    1.16    0.34
  -2  -5   7    1.08    0.33
  -2  -5   7    1.62    0.40
   1   5  -7    2.12    0.38
   1   5  -7    2.19    0.36
  -1  -5   7    2.14    0.20
  -1  -5   7    2.56    0.43
  -1  -5   7    2.23    0.42
  -1  -5   7    2.43    0.36
  -1  -5   7    2.23    0.45
  -1  -5   7    1.71    0.36
   0   5  -7    6.28    0.32
   0   5  -7    6.77    0.65
   0   5  -7    6.19    0.51
   0   5  -7    6.20    0.50
   0   5  -7    5.86    0.35
   0  -5   7    6.89    0.64
   0  -5   7    5.95    0.59
   0  -5   7    6.79    0.65
   0  -5   7    6.63    0.51
   0  -5   7    6.94    0.71
  -1   5  -7    9.94    0.46
  -1   5  -7   11.52    0.78
  -1   5  -7    9.75    0.66
  -1   5  -7    9.64    0.64
  -1   5  -7    9.84    0.44
   1  -5   7   10.39    0.80
   1  -5   7    8.69    0.73
   1  -5   7   11.45    0.76
   1  -5   7   10.12    0.72
  -2   5  -7   21.04    0.76
  -2   5  -7   20.91    0.96
  -2   5  -7   20.23    1.06
  -2   5  -7   20.26    0.98
   2  -5   7   19.07    1.05
   2  -5   7   18.96    1.07
  -3   5  -7    1.82    0.44
  -3   5  -7    1.85    0.46
  -3   5  -7    1.79    0.34
  -3   5  -7    1.85    0.51
   3  -5   7    1.39    0.50
   3  -5   7    1.92    0.54
  -4   5  -7   -0.06    0.34
  -4   5  -7    0.49    0.40
  -4   5  -7    0.70    0.43
  -4   5  -7    0.11    0.28
   4  -5   7    0.06    0.45
   4  -5   7    0.48    0.43
  -5   5  -7   15.28    1.15
  -5   5  -7   18.68    1.18
  -5   5  -7   16.06    1.13
   7   4  -7   10.96    0.93
   7   4  -7   10.96    0.92
  -7  -4   7   11.51    1.16
  -7  -4   7   12.30    0.78
  -7  -4   7   12.31    0.80
   6   4  -7   16.66    1.04
   6   4  -7   17.51    1.09
  -6  -4   7   15.57    0.84
  -6  -4   7   17.32    0.89
  -6  -4   7   16.51    1.24
   5   4  -7   16.06    0.95
   5   4  -7   16.11    0.98
  -5  -4   7   17.21    0.83
  -5  -4   7   17.02    1.07
  -5  -4   7   15.11    0.81
   4   4  -7    1.05    0.37
   4   4  -7    1.00    0.31
   4   4  -7    0.97    0.35
  -4  -4   7    0.98    0.42
  -4  -4   7    1.07    0.30
  -4  -4   7    0.40    0.30
  -4  -4   7    0.88    0.33
   3   4  -7   35.98    1.23
   3   4  -7   37.40    1.14
   3   4  -7   40.05    1.36
  -3  -4   7   37.12    1.31
  -3  -4   7   35.05    1.21
  -3  -4   7   39.15    1.27
  -3  -4   7   38.99    0.97
  -3  -4   7   37.09    1.18
  -3  -4   7   39.62    1.05
  -3  -4   7   40.46    1.02
   2   4  -7   27.14    1.03
   2   4  -7   23.66    1.00
   2   4  -7   26.50    1.04
   2   4  -7   27.51    0.96
  -2  -4   7   26.24    1.04
  -2  -4   7   26.48    0.75
  -2  -4   7   26.07    1.00
  -2  -4   7   25.12    1.00
  -2  -4   7   26.83    0.87
  -2  -4   7   27.71    0.97
  -2  -4   7   27.34    0.81
   1   4  -7    0.66    0.10
   1   4  -7    0.47    0.19
   1   4  -7    0.87    0.29
   1   4  -7    0.50    0.24
   1   4  -7    0.73    0.27
   1   4  -7    0.25    0.14
   1   4  -7    0.35    0.24
  -1  -4   7    0.22    0.25
  -1  -4   7    0.66    0.30
  -1  -4   7    0.55    0.28
  -1  -4   7    0.70    0.17
  -1  -4   7    0.37    0.21
  -1  -4   7    0.52    0.31
   0   4  -7    5.06    0.44
   0   4  -7    6.27    0.58
   0   4  -7    6.14    0.44
   0   4  -7    6.27    0.51
   0   4  -7    6.18    0.28
   0   4  -7    6.23    0.34
   0   4  -7    6.13    0.49
   0  -4   7    5.38    0.55
   0  -4   7    4.41    0.49
   0  -4   7    5.93    0.44
   0  -4   7    5.42    0.52
   0  -4   7    5.80    0.33
   0  -4   7    5.89    0.60
  -1   4  -7   13.67    0.69
  -1   4  -7   15.57    0.76
  -1   4  -7   16.14    0.85
  -1   4  -7   15.29    0.77
  -1   4  -7   15.39    0.55
  -1   4  -7   14.37    0.70
  -1   4  -7   14.67    0.56
   1  -4   7   13.46    0.79
   1  -4   7   14.78    0.71
   1  -4   7   15.52    0.79
   1  -4   7   14.82    0.83
   1  -4   7   15.18    0.76
  -2   4  -7    1.18    0.36
  -2   4  -7    1.21    0.39
  -2   4  -7    1.44    0.33
  -2   4  -7    1.05    0.25
  -2   4  -7    1.52    0.36
   2  -4   7    1.95    0.38
   2  -4   7    1.12    0.38
   2  -4   7    1.36    0.42
  -3   4  -7   -0.09    0.30
  -3   4  -7   -0.61    0.24
  -3   4  -7    0.47    0.32
  -3   4  -7    0.19    0.23
   3  -4   7   -0.03    0.29
   3  -4   7   -0.88    0.28
  -4   4  -7   -0.09    0.32
  -4   4  -7    0.03    0.27
  -4   4  -7   -0.29    0.30
  -4   4  -7   -0.19    0.32
   4  -4   7   -0.32    0.32
   4  -4   7    0.19    0.37
  -5   4  -7    4.71    0.72
  -5   4  -7    3.52    0.55
  -5   4  -7    3.87    0.62
  -5   4  -7    4.17    0.67
  -6   4  -7    0.05    0.40
  -6   4  -7    0.29    0.45
  -6   4  -7   -1.21    0.40
   6  -4   7    0.18    0.49
   7   3  -7    0.98    0.45
   7   3  -7    1.56    0.53
  -7  -3   7    1.16    0.38
  -7  -3   7    0.94    0.63
  -7  -3   7    1.40    0.41
   6   3  -7    0.89    0.42
   6   3  -7    1.32    0.48
  -6  -3   7    1.56    0.64
  -6  -3   7    0.86    0.37
  -6  -3   7    0.66    0.34
   5   3  -7    5.44    0.62
   5   3  -7    7.04    0.75
  -5  -3   7    7.36    0.81
  -5  -3   7    5.96    0.56
  -5  -3   7    7.55    0.63
   4   3  -7   -0.16    0.25
   4   3  -7    0.55    0.33
  -4  -3   7    0.69    0.27
  -4  -3   7    0.28    0.26
  -4  -3   7    0.43    0.37
  -4  -3   7    0.12    0.26
  -4  -3   7    0.31    0.30
   3   3  -7    8.27    0.60
   3   3  -7    8.51    0.57
   3   3  -7    8.67    0.53
   3   3  -7    8.60    0.52
   3   3  -7    8.07    0.61
  -3  -3   7    9.13    0.41
  -3  -3   7    7.80    0.55
  -3  -3   7    8.73    0.58
  -3  -3   7    8.65    0.61
  -3  -3   7    7.80    0.59
  -3  -3   7    8.73    0.67
  -3  -3   7    9.05    0.35
   2   3  -7    0.31    0.14
   2   3  -7    0.31    0.20
   2   3  -7    0.45    0.23
   2   3  -7    0.68    0.26
   2   3  -7    0.24    0.15
  -2  -3   7    0.53    0.21
  -2  -3   7    0.36    0.23
  -2  -3   7    0.03    0.23
  -2  -3   7    0.34    0.26
  -2  -3   7    0.30    0.15
  -2  -3   7   -0.02    0.19
  -2  -3   7    0.36    0.24
  -2  -3   7    0.36    0.17
   1   3  -7   -0.07    0.10
   1   3  -7   -0.19    0.17
   1   3  -7   -0.02    0.14
   1   3  -7   -0.08    0.19
   1   3  -7    0.17    0.21
   1   3  -7    0.07    0.13
   1   3  -7   -0.21    0.14
  -1  -3   7    0.28    0.23
  -1  -3   7    0.06    0.13
  -1  -3   7    0.10    0.22
  -1  -3   7    0.16    0.24
  -1  -3   7    0.31    0.17
  -1  -3   7   -0.20    0.21
  -1  -3   7    0.08    0.21
   0   3  -7   32.60    1.02
   0   3  -7   31.71    1.01
   0   3  -7   33.01    0.95
   0   3  -7   31.97    0.78
   0   3  -7   32.26    0.84
   0   3  -7   32.13    1.08
   0   3  -7   31.92    1.02
   0  -3   7   31.53    0.83
   0  -3   7   32.47    1.03
   0  -3   7   28.80    1.04
   0  -3   7   31.60    0.94
   0  -3   7   30.27    1.03
   0  -3   7   30.96    1.11
  -1   3  -7    0.37    0.21
  -1   3  -7    0.56    0.24
  -1   3  -7    0.79    0.29
  -1   3  -7    0.66    0.23
  -1   3  -7    0.76    0.18
  -1   3  -7    0.69    0.18
  -1   3  -7    0.44    0.25
   1  -3   7    0.73    0.24
   1  -3   7    0.53    0.26
   1  -3   7    0.21    0.25
   1  -3   7    0.62    0.25
   1  -3   7    0.60    0.29
  -2   3  -7    5.36    0.52
  -2   3  -7    5.33    0.58
  -2   3  -7    5.66    0.53
  -2   3  -7    5.79    0.54
  -2   3  -7    5.34    0.42
  -2   3  -7    5.13    0.52
   2  -3   7    5.06    0.55
   2  -3   7    5.43    0.56
   2  -3   7    5.97    0.51
   2  -3   7    5.42    0.52
  -3   3  -7    7.00    0.61
  -3   3  -7    6.01    0.62
  -3   3  -7    5.75    0.51
  -3   3  -7    6.87    0.58
  -3   3  -7    5.99    0.61
   3  -3   7    5.00    0.59
   3  -3   7    6.38    0.62
  -4   3  -7    4.46    0.51
  -4   3  -7    4.12    0.61
  -4   3  -7    4.77    0.62
  -4   3  -7    3.96    0.56
   4  -3   7    4.53    0.60
   4  -3   7    5.12    0.61
  -5   3  -7   22.23    1.17
  -5   3  -7   22.25    1.17
  -5   3  -7   22.17    1.04
  -5   3  -7   23.29    1.14
   5  -3   7   19.04    1.11
  -6   3  -7    2.06    0.62
  -6   3  -7    0.53    0.41
  -6   3  -7    2.33    0.56
   6  -3   7    3.20    0.71
   6  -3   7    1.17    0.57
   7   2  -7    1.07    0.43
   7   2  -7    0.85    0.44
  -7  -2   7    0.38    0.36
  -7  -2   7    0.51    0.34
  -7  -2   7    0.88    0.63
   6   2  -7   13.37    0.87
   6   2  -7   14.00    0.99
  -6  -2   7   15.67    1.12
  -6  -2   7   14.97    0.86
   5   2  -7    5.07    0.64
   5   2  -7    3.31    0.48
  -5  -2   7    3.54    0.49
  -5  -2   7    4.64    0.70
  -5  -2   7    2.86    0.47
   4   2  -7    0.51    0.28
   4   2  -7    0.83    0.26
   4   2  -7    0.79    0.32
  -4  -2   7    0.54    0.27
  -4  -2   7    0.32    0.21
  -4  -2   7    0.12    0.36
  -4  -2   7    0.36    0.29
  -4  -2   7    0.87    0.34
   3   2  -7   49.26    1.48
   3   2  -7   49.72    1.22
   3   2  -7   46.73    1.34
   3   2  -7   48.30    1.32
  -3  -2   7   47.16    1.43
  -3  -2   7   47.94    1.49
  -3  -2   7   48.69    1.34
  -3  -2   7   49.09    1.26
  -3  -2   7   48.87    1.34
  -3  -2   7   49.44    1.09
  -3  -2   7   50.46    1.41
   2   2  -7   46.79    1.29
   2   2  -7   46.32    1.36
   2   2  -7   46.19    1.11
   2   2  -7   45.50    1.28
   2   2  -7   47.82    1.19
  -2  -2   7   45.82    1.32
  -2  -2   7   46.92    1.25
  -2  -2   7   45.27    1.25
  -2  -2   7   47.03    1.32
  -2  -2   7   47.63    0.99
  -2  -2   7   45.10    1.32
  -2  -2   7   48.48    1.28
  -2  -2   7   46.95    1.14
  -2  -2   7   43.71    1.16
   1   2  -7    8.61    0.48
   1   2  -7    8.05    0.38
   1   2  -7    8.31    0.52
   1   2  -7    8.14    0.51
   1   2  -7    7.68    0.40
   1   2  -7    8.06    0.37
   1   2  -7    8.78    0.29
   1   2  -7    8.94    0.52
   1   2  -7    7.92    0.46
  -1  -2   7    9.36    0.40
  -1  -2   7    8.78    0.51
  -1  -2   7    7.41    0.53
  -1  -2   7    8.04    0.51
  -1  -2   7    7.25    0.48
  -1  -2   7    8.48    0.45
  -1  -2   7    8.65    0.42
   0   2  -7   12.33    0.60
   0   2  -7   13.91    0.54
   0   2  -7   14.57    0.62
   0   2  -7   15.03    0.62
   0   2  -7   14.64    0.50
   0   2  -7   14.53    0.67
   0   2  -7   15.59    0.65
   0   2  -7   14.89    0.53
   0  -2   7   13.60    0.67
   0  -2   7   14.66    0.54
   0  -2   7   13.85    0.60
   0  -2   7   14.00    0.68
   0  -2   7   14.72    0.65
   0  -2   7   14.90    0.56
   0  -2   7   14.68    0.67
  -1   2  -7   40.48    1.12
  -1   2  -7   39.82    1.10
  -1   2  -7   38.45    1.15
  -1   2  -7   40.84    1.23
  -1   2  -7   40.85    1.05
  -1   2  -7   40.48    1.16
  -1   2  -7   40.07    1.02
   1  -2   7   40.17    1.16
   1  -2   7   40.63    1.04
   1  -2   7   41.31    1.14
   1  -2   7   40.98    1.24
   1  -2   7   38.45    1.23
   1  -2   7   41.32    1.21
   1  -2   7   40.88    1.11
  -2   2  -7    6.18    0.49
  -2   2  -7    6.68    0.55
  -2   2  -7    7.41    0.50
  -2   2  -7    6.63    0.47
  -2   2  -7    7.10    0.45
  -2   2  -7    6.51    0.48
   2  -2   7    6.88    0.48
   2  -2   7    6.50    0.56
   2  -2   7    8.10    0.51
   2  -2   7    6.65    0.62
  -3   2  -7   -0.05    0.18
  -3   2  -7    0.38    0.25
  -3   2  -7    0.28    0.26
  -3   2  -7    0.06    0.22
  -3   2  -7    0.02    0.24
  -3   2  -7    0.10    0.21
   3  -2   7    0.02    0.26
   3  -2   7   -0.19    0.24
   3  -2   7   -0.12    0.21
  -4   2  -7    3.69    0.45
  -4   2  -7    4.89    0.58
  -4   2  -7    3.86    0.48
  -4   2  -7    3.26    0.49
   4  -2   7    4.08    0.51
  -5   2  -7    0.85    0.37
  -5   2  -7    0.63    0.32
  -5   2  -7    0.82    0.44
  -5   2  -7    0.80    0.36
   5  -2   7    0.98    0.44
   5  -2   7    1.49    0.47
  -6   2  -7    0.24    0.42
  -6   2  -7    0.17    0.34
  -6   2  -7   -0.13    0.34
   6  -2   7    0.72    0.50
   6  -2   7    0.47    0.49
  -7   2  -7    1.80    0.51
  -7   2  -7    2.40    0.56
  -7   2  -7    1.83    0.61
   7  -2   7    1.26    0.62
   7  -2   7    2.12    0.63
   7   1  -7    0.59    0.47
   7   1  -7    0.48    0.38
  -7  -1   7   -0.87    0.48
  -7  -1   7    0.45    0.37
  -7  -1   7    0.06    0.35
   6   1  -7    6.95    0.72
   6   1  -7    6.41    0.79
  -6  -1   7    5.79    0.82
  -6  -1   7    6.55    0.64
  -6  -1   7    5.51    0.62
   5   1  -7    8.86    0.76
   5   1  -7   10.47    0.66
  -5  -1   7   11.67    1.01
   4   1  -7    0.98    0.29
   4   1  -7    0.93    0.26
   4   1  -7    0.43    0.30
  -4  -1   7    0.35    0.29
  -4  -1   7    0.59    0.29
  -4  -1   7    1.02    0.41
  -4  -1   7    0.51    0.31
   3   1  -7   37.97    1.27
   3   1  -7   38.27    1.07
   3   1  -7   39.05    1.13
   3   1  -7   39.65    1.17
  -3  -1   7   37.14    1.15
  -3  -1   7   41.22    1.20
  -3  -1   7   39.72    1.23
  -3  -1   7   39.02    1.33
  -3  -1   7   40.67    0.96
  -3  -1   7   41.96    1.26
  -3  -1   7   39.51    1.00
   2   1  -7   16.57    0.61
   2   1  -7   16.48    0.71
   2   1  -7   16.90    0.74
  -2  -1   7   16.51    0.70
  -2  -1   7   16.24    0.58
  -2  -1   7   15.04    0.72
  -2  -1   7   18.20    0.72
  -2  -1   7   15.70    0.62
  -2  -1   7   16.51    0.39
  -2  -1   7   16.53    0.75
  -2  -1   7   14.57    0.66
   1   1  -7   35.74    1.06
   1   1  -7   36.70    1.07
   1   1  -7   35.37    0.82
   1   1  -7   34.28    1.01
   1   1  -7   35.27    0.99
   1   1  -7   35.77    0.94
   1   1  -7   37.23    0.98
   1   1  -7   35.44    1.06
  -1  -1   7   36.77    0.99
  -1  -1   7   35.51    1.03
  -1  -1   7   35.28    1.03
  -1  -1   7   35.20    0.97
  -1  -1   7   36.51    1.01
  -1  -1   7   36.57    1.11
  -1  -1   7   35.96    1.04
  -1  -1   7   35.89    0.83
   0   1  -7   22.12    0.70
   0   1  -7   20.60    0.63
   0   1  -7   21.42    0.74
   0   1  -7   22.31    0.67
   0   1  -7   20.77    0.68
   0   1  -7   19.93    0.74
   0   1  -7   20.79    0.74
   0   1  -7   20.43    0.77
   0  -1   7   21.15    0.76
   0  -1   7   20.56    0.66
   0  -1   7   21.76    0.69
   0  -1   7   22.18    0.71
   0  -1   7   21.68    0.81
   0  -1   7   22.09    0.66
   0  -1   7   21.93    0.77
  -1   1  -7   25.11    0.79
  -1   1  -7   25.90    0.79
  -1   1  -7   24.84    0.83
  -1   1  -7   26.45    0.80
  -1   1  -7   25.06    0.88
  -1   1  -7   23.75    0.84
  -1   1  -7   26.00    0.77
  -1   1  -7   27.38    0.79
   1  -1   7   25.83    0.78
   1  -1   7   24.92    0.78
   1  -1   7   24.33    0.90
   1  -1   7   26.83    0.85
   1  -1   7   25.22    0.87
   1  -1   7   27.77    0.93
   1  -1   7   25.44    0.63
   1  -1   7   26.07    0.81
  -2   1  -7    3.96    0.38
  -2   1  -7    3.44    0.39
  -2   1  -7    3.14    0.38
  -2   1  -7    3.34    0.35
  -2   1  -7    3.68    0.40
  -2   1  -7    3.69    0.42
  -2   1  -7    3.06    0.37
  -2   1  -7    3.52    0.37
   2  -1   7    3.25    0.38
   2  -1   7    3.16    0.39
   2  -1   7    3.14    0.41
   2  -1   7    4.34    0.39
   2  -1   7    4.44    0.47
  -3   1  -7    1.38    0.30
  -3   1  -7    1.72    0.29
  -3   1  -7    1.35    0.32
  -3   1  -7    2.07    0.34
  -3   1  -7    1.78    0.33
  -3   1  -7    1.63    0.30
  -3   1  -7    2.00    0.32
   3  -1   7    1.35    0.35
   3  -1   7    1.79    0.33
   3  -1   7    1.58    0.32
   3  -1   7    1.47    0.26
  -4   1  -7    1.84    0.36
  -4   1  -7    1.51    0.35
  -4   1  -7    1.84    0.38
  -4   1  -7    1.75    0.38
  -4   1  -7    1.90    0.35
  -4   1  -7    2.51    0.39
   4  -1   7    1.36    0.40
   4  -1   7    2.21    0.38
  -5   1  -7   28.20    1.16
  -5   1  -7   30.29    1.25
  -5   1  -7   28.70    1.16
  -5   1  -7   29.35    1.13
   5  -1   7   26.84    1.22
   5  -1   7   27.79    1.19
  -6   1  -7   -0.42    0.30
  -6   1  -7    0.54    0.33
  -6   1  -7    0.02    0.39
  -6   1  -7   -0.15    0.29
   6  -1   7   -0.13    0.33
   6  -1   7   -0.36    0.40
  -7   1  -7    2.75    0.56
  -7   1  -7    2.19    0.49
  -7   1  -7    1.68    0.56
   7  -1   7    2.07    0.60
   7  -1   7    2.94    0.72
   7   0  -7    0.91    0.40
   7   0  -7    1.66    0.58
  -7   0   7    1.76    0.48
  -7   0   7    1.08    0.44
  -7   0   7    0.60    0.64
   6   0  -7    1.49    0.46
   6   0  -7    1.12    0.36
  -6   0   7    1.00    0.61
  -6   0   7    1.40    0.41
  -6   0   7    1.61    0.46
   5   0  -7    4.33    0.61
   5   0  -7    4.07    0.50
  -5   0   7    4.16    0.54
  -5   0   7    4.34    0.53
  -5   0   7    4.45    0.70
   4   0  -7    5.10    0.44
   4   0  -7    4.69    0.51
   4   0  -7    5.40    0.59
  -4   0   7    3.63    0.51
  -4   0   7    5.07    0.63
   3   0  -7   61.34    1.47
   3   0  -7   61.51    1.62
   3   0  -7   62.94    1.72
   3   0  -7   64.72    1.53
   3   0  -7   61.83    1.60
  -3   0   7   61.72    1.67
  -3   0   7   62.46    1.65
  -3   0   7   62.27    1.76
  -3   0   7   62.22    1.63
  -3   0   7   58.60    1.59
  -3   0   7   64.10    1.41
   2   0  -7   35.93    1.10
   2   0  -7   35.83    1.05
   2   0  -7   36.26    1.04
   2   0  -7   37.23    0.76
   2   0  -7   36.31    1.13
  -2   0   7   35.66    1.13
  -2   0   7   36.16    1.09
  -2   0   7   35.79    1.06
  -2   0   7   37.59    0.98
  -2   0   7   37.49    1.18
   1   0  -7  114.89    2.42
   1   0  -7  113.11    2.33
   1   0  -7  109.41    2.36
   1   0  -7  111.55    2.06
   1   0  -7  114.21    2.39
   1   0  -7  108.19    2.27
   1   0  -7  114.72    2.31
   1   0  -7  111.94    2.06
  -1   0   7  111.32    2.33
  -1   0   7  111.48    2.26
  -1   0   7  112.30    2.35
  -1   0   7  107.71    2.39
  -1   0   7  112.29    2.31
  -1   0   7  113.44    2.07
  -1   0   7  115.02    2.30
   0   0  -7   48.65    1.30
   0   0  -7   51.40    1.29
   0   0  -7   51.48    1.24
   0   0  -7   50.42    1.14
   0   0  -7   48.16    1.25
   0   0  -7   50.32    1.22
   0   0  -7   50.50    1.21
   0   0  -7   50.53    1.13
   0   0   7   48.63    1.21
   0   0   7   47.85    1.30
   0   0   7   51.87    1.13
   0   0   7   50.76    1.28
   0   0   7   48.80    1.15
   0   0   7   48.81    1.25
   0   0   7   48.93    1.13
  -1   0  -7   50.89    1.30
  -1   0  -7   52.52    1.27
  -1   0  -7   52.44    1.27
  -1   0  -7   52.05    1.25
  -1   0  -7   54.80    1.34
  -1   0  -7   53.03    1.22
  -1   0  -7   55.19    1.18
  -1   0  -7   51.00    1.35
   1   0   7   52.94    1.30
   1   0   7   51.52    1.35
   1   0   7   53.38    1.28
   1   0   7   53.16    1.06
   1   0   7   54.02    1.38
   1   0   7   52.71    1.26
   1   0   7   52.90    1.18
  -2   0  -7   15.39    0.67
  -2   0  -7   16.56    0.57
  -2   0  -7   15.71    0.63
  -2   0  -7   16.24    0.64
  -2   0  -7   14.69    0.65
  -2   0  -7   15.52    0.62
  -2   0  -7   15.69    0.64
  -2   0  -7   15.65    0.63
   2   0   7   15.90    0.64
   2   0   7   15.10    0.69
   2   0   7   16.51    0.68
  -3   0  -7    0.10    0.20
  -3   0  -7    0.20    0.22
  -3   0  -7   -0.07    0.21
  -3   0  -7   -0.02    0.17
  -3   0  -7    0.02    0.18
  -3   0  -7    0.12    0.20
  -3   0  -7    0.01    0.16
   3   0   7    0.17    0.25
   3   0   7   -0.19    0.19
   3   0   7    0.02    0.16
   3   0   7    0.01    0.22
  -4   0  -7   20.15    0.85
  -4   0  -7   20.66    0.87
  -4   0  -7   20.79    0.82
  -4   0  -7   21.37    0.82
  -4   0  -7   19.78    0.93
  -4   0  -7   20.50    0.84
   4   0   7   19.02    0.89
   4   0   7   19.99    0.78
   4   0   7   19.64    0.89
  -5   0  -7    0.70    0.29
  -5   0  -7    1.14    0.33
  -5   0  -7    0.98    0.37
  -5   0  -7    1.20    0.35
   5   0   7    1.21    0.41
   5   0   7    0.93    0.37
  -6   0  -7    0.92    0.41
  -6   0  -7    1.36    0.44
  -6   0  -7    0.71    0.32
  -6   0  -7    1.15    0.33
   6   0   7    1.01    0.44
   6   0   7    0.44    0.41
  -7   0  -7    1.22    0.39
  -7   0  -7    1.71    0.55
  -7   0  -7    2.70    0.49
   7   0   7    1.45    0.57
   7   0   7    1.11    0.52
   7  -1  -7    1.10    0.57
  -7   1   7    1.15    0.46
  -7   1   7    1.13    0.47
  -7   1   7    0.81    0.72
   6  -1  -7    4.31    0.69
   6  -1  -7    5.40    0.81
  -6   1   7    4.36    0.63
  -6   1   7    4.47    0.62
  -6   1   7    4.47    0.79
   5  -1  -7    2.58    0.53
   5  -1  -7    4.25    0.50
  -5   1   7    3.88    0.56
  -5   1   7    3.72    0.68
  -5   1   7    4.71    0.59
   4  -1  -7   -0.35    0.24
   4  -1  -7    0.19    0.25
   4  -1  -7    0.05    0.19
  -4   1   7   -0.02    0.37
  -4   1   7    0.55    0.32
  -4   1   7    0.30    0.32
  -4   1   7    0.75    0.32
   3  -1  -7   48.44    1.12
   3  -1  -7   47.19    1.41
   3  -1  -7   47.37    1.40
   3  -1  -7   46.00    1.46
  -3   1   7   46.58    1.38
  -3   1   7   50.04    1.55
  -3   1   7   50.56    1.42
   2  -1  -7    0.12    0.22
   2  -1  -7   -0.01    0.13
   2  -1  -7    0.17    0.07
   2  -1  -7    0.28    0.17
   2  -1  -7   -0.04    0.22
   2  -1  -7   -0.02    0.18
  -2   1   7    0.05    0.25
  -2   1   7    0.28    0.25
  -2   1   7    0.39    0.22
  -2   1   7    0.09    0.23
  -2   1   7    0.12    0.20
   1  -1  -7    0.77    0.22
   1  -1  -7    0.43    0.19
   1  -1  -7    0.67    0.13
   1  -1  -7    0.59    0.23
   1  -1  -7    0.59    0.16
   1  -1  -7    0.84    0.23
   1  -1  -7    0.49    0.21
  -1   1   7    0.36    0.24
  -1   1   7    0.75    0.28
  -1   1   7    0.55    0.25
  -1   1   7    0.66    0.18
  -1   1   7    0.36    0.24
   0  -1  -7   46.86    1.08
   0  -1  -7   46.13    1.20
   0  -1  -7   47.35    1.16
   0  -1  -7   44.48    1.24
   0  -1  -7   46.14    1.19
   0  -1  -7   45.24    1.18
   0  -1  -7   46.97    1.07
   0  -1  -7   46.98    1.18
   0   1   7   46.06    1.18
   0   1   7   45.95    1.22
   0   1   7   47.51    1.21
   0   1   7   48.10    1.27
   0   1   7   45.83    1.13
   0   1   7   47.10    1.02
  -1  -1  -7   13.81    0.40
  -1  -1  -7   12.65    0.59
  -1  -1  -7   14.48    0.59
  -1  -1  -7   13.35    0.53
  -1  -1  -7   13.77    0.59
  -1  -1  -7   13.43    0.57
  -1  -1  -7   13.70    0.56
  -1  -1  -7   13.37    0.56
   1   1   7   13.43    0.40
   1   1   7   13.02    0.62
   1   1   7   13.96    0.57
   1   1   7   13.94    0.44
   1   1   7   13.46    0.55
   1   1   7   13.33    0.54
   1   1   7   13.56    0.62
  -2  -1  -7    6.36    0.41
  -2  -1  -7    6.37    0.42
  -2  -1  -7    6.04    0.41
  -2  -1  -7    6.49    0.42
  -2  -1  -7    6.04    0.39
  -2  -1  -7    6.03    0.43
  -2  -1  -7    5.91    0.42
  -2  -1  -7    6.11    0.30
   2   1   7    5.84    0.36
   2   1   7    6.50    0.42
   2   1   7    5.73    0.43
   2   1   7    5.82    0.49
  -3  -1  -7   38.03    1.07
  -3  -1  -7   39.37    1.16
  -3  -1  -7   41.39    1.01
  -3  -1  -7   38.16    1.18
  -3  -1  -7   39.06    1.06
  -3  -1  -7   38.92    1.18
  -3  -1  -7   37.72    1.14
   3   1   7   41.20    1.17
   3   1   7   38.74    1.07
   3   1   7   38.25    1.19
   3   1   7   39.90    1.16
  -4  -1  -7   14.00    0.62
  -4  -1  -7   13.77    0.64
  -4  -1  -7   13.24    0.61
  -4  -1  -7   13.09    0.60
  -4  -1  -7   13.08    0.68
  -4  -1  -7   12.95    0.71
  -4  -1  -7   12.46    0.68
   4   1   7   12.69    0.70
   4   1   7   11.92    0.55
   4   1   7   13.02    0.73
   4   1   7   13.45    0.72
  -5  -1  -7    2.53    0.43
  -5  -1  -7    2.52    0.44
  -5  -1  -7    2.38    0.42
  -5  -1  -7    2.88    0.39
  -5  -1  -7    2.95    0.37
   5   1   7    2.60    0.47
   5   1   7    2.63    0.47
  -6  -1  -7    6.54    0.72
  -6  -1  -7    6.58    0.55
  -6  -1  -7    6.22    0.56
  -6  -1  -7    6.03    0.66
   6   1   7    6.91    0.72
   6   1   7    6.70    0.80
  -7  -1  -7    1.41    0.37
  -7  -1  -7    1.71    0.53
  -7  -1  -7    1.70    0.37
   7   1   7    1.64    0.53
   7   1   7    1.41    0.57
  -8  -1  -7    0.62    0.35
  -8  -1  -7    0.17    0.45
   6  -2  -7    3.93    0.70
  -6   2   7    4.20    0.63
  -6   2   7    4.59    0.87
  -6   2   7    4.11    0.66
   5  -2  -7    3.73    0.62
  -5   2   7    1.99    0.48
  -5   2   7    2.71    0.64
  -5   2   7    2.52    0.51
   4  -2  -7    0.33    0.31
   4  -2  -7    0.51    0.29
   4  -2  -7    0.66    0.24
  -4   2   7    0.51    0.32
  -4   2   7    0.50    0.42
  -4   2   7    0.80    0.37
   3  -2  -7   14.66    0.76
   3  -2  -7   14.70    0.60
   3  -2  -7   14.89    0.39
   3  -2  -7   15.29    0.80
   3  -2  -7   13.99    0.78
  -3   2   7   15.92    0.86
  -3   2   7   14.98    0.79
  -3   2   7   14.27    0.85
   2  -2  -7    0.13    0.10
   2  -2  -7    0.20    0.25
   2  -2  -7    0.32    0.20
   2  -2  -7   -0.05    0.19
   2  -2  -7    0.02    0.20
   2  -2  -7    0.04    0.16
  -2   2   7    0.01    0.22
  -2   2   7    0.01    0.26
  -2   2   7    0.12    0.22
   1  -2  -7   11.84    0.58
   1  -2  -7   11.53    0.42
   1  -2  -7   11.18    0.57
   1  -2  -7   11.93    0.63
   1  -2  -7   11.90    0.58
   1  -2  -7   11.89    0.49
   1  -2  -7   12.40    0.58
  -1   2   7   12.18    0.60
  -1   2   7   12.17    0.64
  -1   2   7   12.03    0.61
  -1   2   7   11.67    0.47
  -1   2   7   11.99    0.65
   0  -2  -7    1.88    0.29
   0  -2  -7    2.13    0.27
   0  -2  -7    2.27    0.25
   0  -2  -7    1.61    0.27
   0  -2  -7    2.65    0.33
   0  -2  -7    1.90    0.27
   0  -2  -7    2.14    0.29
   0  -2  -7    1.83    0.31
   0   2   7    2.55    0.36
   0   2   7    1.70    0.29
   0   2   7    1.76    0.18
   0   2   7    2.70    0.37
   0   2   7    2.18    0.36
  -1  -2  -7   95.01    1.99
  -1  -2  -7   94.86    2.01
  -1  -2  -7   95.44    2.04
  -1  -2  -7   97.81    2.05
  -1  -2  -7   96.54    2.08
  -1  -2  -7   95.65    2.04
  -1  -2  -7   92.19    2.08
   1   2   7   96.72    2.19
   1   2   7   95.75    1.91
   1   2   7   97.75    2.13
   1   2   7   95.61    2.08
   1   2   7   96.65    2.05
  -2  -2  -7    9.27    0.48
  -2  -2  -7    9.56    0.50
  -2  -2  -7    9.63    0.28
  -2  -2  -7    8.78    0.49
  -2  -2  -7    8.61    0.50
  -2  -2  -7    8.70    0.46
  -2  -2  -7    9.67    0.50
  -2  -2  -7    9.44    0.46
   2   2   7    9.77    0.58
   2   2   7   10.22    0.66
   2   2   7    8.81    0.49
  -3  -2  -7   10.46    0.30
  -3  -2  -7    8.70    0.54
  -3  -2  -7   11.03    0.58
  -3  -2  -7   10.66    0.53
  -3  -2  -7   11.31    0.58
  -3  -2  -7   10.75    0.59
  -3  -2  -7    9.20    0.48
  -3  -2  -7   11.25    0.41
  -3  -2  -7   10.07    0.48
   3   2   7   10.88    0.49
   3   2   7   10.77    0.58
   3   2   7   11.02    0.55
   3   2   7   10.88    0.62
  -4  -2  -7   73.34    1.70
  -4  -2  -7   75.45    1.86
  -4  -2  -7   75.06    1.87
  -4  -2  -7   70.41    1.87
  -4  -2  -7   71.93    1.64
  -4  -2  -7   74.87    1.34
  -4  -2  -7   73.20    1.66
  -4  -2  -7   71.21    1.86
   4   2   7   73.48    1.86
   4   2   7   72.60    1.86
   4   2   7   72.40    1.85
   4   2   7   76.24    1.75
  -5  -2  -7    0.07    0.25
  -5  -2  -7    0.19    0.20
  -5  -2  -7    0.03    0.18
  -5  -2  -7   -0.22    0.26
  -5  -2  -7    0.21    0.27
   5   2   7    0.78    0.37
   5   2   7    0.04    0.31
  -6  -2  -7    2.45    0.52
  -6  -2  -7    1.74    0.31
  -6  -2  -7    1.60    0.30
  -6  -2  -7    1.70    0.43
   6   2   7    1.43    0.48
   6   2   7    2.65    0.49
  -7  -2  -7    6.67    0.56
  -7  -2  -7    7.15    0.54
  -7  -2  -7    7.77    0.86
   7   2   7    7.00    0.86
  -8  -2  -7    0.21    0.45
  -8  -2  -7    0.63    0.31
   8   2   7   -0.36    0.48
   6  -3  -7    4.07    0.71
  -6   3   7    2.93    0.60
  -6   3   7    5.92    0.99
  -6   3   7    4.01    0.67
   5  -3  -7    5.49    0.77
  -5   3   7    4.11    0.61
  -5   3   7    4.70    0.68
  -5   3   7    4.94    0.81
   4  -3  -7    3.06    0.57
   4  -3  -7    3.97    0.47
   4  -3  -7    4.41    0.61
  -4   3   7    2.87    0.53
  -4   3   7    3.17    0.55
  -4   3   7    4.67    0.74
   3  -3  -7   30.17    0.84
   3  -3  -7   30.79    1.01
   3  -3  -7   31.33    1.22
   3  -3  -7   29.67    1.20
   3  -3  -7   31.58    1.17
  -3   3   7   31.47    1.27
  -3   3   7   28.92    1.23
  -3   3   7   31.59    1.19
   2  -3  -7    0.31    0.26
   2  -3  -7   -0.03    0.18
   2  -3  -7   -0.11    0.21
   2  -3  -7    0.23    0.21
   2  -3  -7    0.04    0.22
  -2   3   7   -0.27    0.26
  -2   3   7    0.07    0.19
  -2   3   7   -0.02    0.28
  -2   3   7   -0.06    0.29
   1  -3  -7    1.50    0.28
   1  -3  -7    1.39    0.31
   1  -3  -7    0.96    0.27
   1  -3  -7    1.47    0.31
   1  -3  -7    1.77    0.36
   1  -3  -7    1.32    0.26
  -1   3   7    1.46    0.29
  -1   3   7    1.03    0.28
  -1   3   7    1.20    0.35
  -1   3   7    1.40    0.34
  -1   3   7    1.51    0.35
   0  -3  -7   30.89    0.93
   0  -3  -7   32.23    0.88
   0  -3  -7   30.57    0.98
   0  -3  -7   31.03    0.96
   0  -3  -7   31.30    0.88
   0  -3  -7   30.22    0.97
   0  -3  -7   30.15    1.03
   0  -3  -7   31.04    0.92
   0   3   7   30.33    0.70
   0   3   7   29.04    0.96
   0   3   7   30.68    1.01
   0   3   7   29.87    1.03
   0   3   7   31.78    0.96
  -1  -3  -7    2.25    0.31
  -1  -3  -7    2.48    0.30
  -1  -3  -7    2.85    0.36
  -1  -3  -7    2.02    0.29
  -1  -3  -7    2.06    0.32
  -1  -3  -7    2.40    0.26
  -1  -3  -7    1.53    0.26
  -1  -3  -7    1.84    0.25
  -1  -3  -7    2.33    0.35
   1   3   7    2.32    0.31
   1   3   7    1.98    0.36
   1   3   7    2.08    0.39
   1   3   7    1.84    0.31
  -2  -3  -7    3.50    0.37
  -2  -3  -7    3.03    0.33
  -2  -3  -7    3.56    0.37
  -2  -3  -7    4.47    0.44
  -2  -3  -7    3.58    0.34
  -2  -3  -7    3.66    0.35
  -2  -3  -7    3.80    0.39
   2   3   7    3.11    0.44
   2   3   7    2.98    0.31
   2   3   7    3.60    0.43
  -3  -3  -7   21.45    0.51
  -3  -3  -7   21.86    0.74
  -3  -3  -7   19.81    0.69
  -3  -3  -7   20.93    0.81
  -3  -3  -7   18.95    0.79
  -3  -3  -7   21.06    0.51
  -3  -3  -7   20.65    0.80
  -3  -3  -7   19.58    0.74
  -3  -3  -7   20.53    0.69
   3   3   7   19.78    0.65
   3   3   7   19.54    0.94
   3   3   7   21.36    0.76
   3   3   7   20.58    0.86
  -4  -3  -7    0.34    0.24
  -4  -3  -7    1.09    0.31
  -4  -3  -7    0.46    0.17
  -4  -3  -7    0.58    0.29
  -4  -3  -7    0.71    0.29
  -4  -3  -7    0.95    0.22
  -4  -3  -7    0.70    0.20
   4   3   7    0.20    0.32
   4   3   7    0.31    0.32
   4   3   7    0.66    0.29
  -5  -3  -7    0.63    0.29
  -5  -3  -7    0.25    0.26
  -5  -3  -7    0.21    0.18
  -5  -3  -7    0.05    0.15
  -5  -3  -7   -0.02    0.16
  -5  -3  -7   -0.01    0.25
  -5  -3  -7    0.13    0.26
   5   3   7    0.48    0.34
   5   3   7    0.42    0.31
  -6  -3  -7    4.50    0.39
  -6  -3  -7    4.29    0.41
  -6  -3  -7    4.51    0.63
  -6  -3  -7    4.51    0.58
  -6  -3  -7    3.37    0.54
   6   3   7    3.17    0.55
   6   3   7    4.09    0.56
  -7  -3  -7    0.34    0.39
  -7  -3  -7    0.22    0.22
   7   3   7    0.35    0.45
  -8  -3  -7    0.37    0.50
  -8  -3  -7    0.09    0.24
   8   3   7   -0.30    0.43
   6  -4  -7   -0.45    0.41
  -6   4   7    0.17    0.68
  -6   4   7    1.25    0.54
  -6   4   7    0.05    0.42
   5  -4  -7    0.19    0.31
   5  -4  -7    0.04    0.41
  -5   4   7   -0.11    0.42
  -5   4   7    0.28    0.60
  -5   4   7    0.53    0.45
   4  -4  -7    1.03    0.41
   4  -4  -7    1.27    0.45
   4  -4  -7    1.25    0.36
  -4   4   7    1.55    0.49
  -4   4   7    1.55    0.62
  -4   4   7    1.01    0.46
   3  -4  -7    2.53    0.51
   3  -4  -7    2.20    0.50
   3  -4  -7    2.13    0.38
  -3   4   7    2.21    0.50
  -3   4   7    1.70    0.45
  -3   4   7    2.72    0.55
   2  -4  -7    3.92    0.35
   2  -4  -7    4.48    0.49
   2  -4  -7    4.32    0.51
   2  -4  -7    3.95    0.54
   2  -4  -7    3.88    0.54
   2  -4  -7    4.27    0.52
  -2   4   7    3.68    0.58
  -2   4   7    4.30    0.42
  -2   4   7    3.26    0.46
  -2   4   7    3.08    0.51
   1  -4  -7   10.07    0.63
   1  -4  -7    8.73    0.64
   1  -4  -7   11.64    0.61
   1  -4  -7    9.55    0.63
   1  -4  -7   10.61    0.62
  -1   4   7    8.91    0.69
  -1   4   7   10.69    0.63
  -1   4   7    9.98    0.59
  -1   4   7    8.64    0.66
   0  -4  -7    3.67    0.40
   0  -4  -7    2.95    0.42
   0  -4  -7    2.70    0.38
   0  -4  -7    3.85    0.44
   0  -4  -7    3.03    0.36
   0  -4  -7    3.06    0.39
   0   4   7    3.53    0.47
   0   4   7    3.42    0.23
   0   4   7    3.16    0.37
   0   4   7    3.50    0.44
   0   4   7    3.73    0.45
   0   4   7    3.62    0.43
  -1  -4  -7   30.85    1.00
  -1  -4  -7   30.21    0.86
  -1  -4  -7   29.62    0.82
  -1  -4  -7   29.90    0.93
  -1  -4  -7   29.62    1.01
  -1  -4  -7   30.08    0.99
  -1  -4  -7   29.10    0.96
  -1  -4  -7   30.09    0.96
   1   4   7   28.85    1.04
   1   4   7   28.84    1.00
   1   4   7   28.83    0.97
   1   4   7   30.51    0.91
   1   4   7   30.74    1.12
  -2  -4  -7    4.14    0.45
  -2  -4  -7    4.51    0.46
  -2  -4  -7    4.15    0.42
  -2  -4  -7    3.64    0.38
  -2  -4  -7    4.03    0.38
  -2  -4  -7    4.40    0.34
  -2  -4  -7    4.20    0.42
  -2  -4  -7    4.69    0.37
   2   4   7    3.58    0.53
   2   4   7    3.88    0.47
   2   4   7    4.35    0.40
  -3  -4  -7   -0.13    0.14
  -3  -4  -7    0.01    0.16
  -3  -4  -7   -0.03    0.18
  -3  -4  -7    0.40    0.20
  -3  -4  -7   -0.12    0.19
  -3  -4  -7    0.33    0.23
  -3  -4  -7    0.04    0.17
   3   4   7    0.01    0.20
   3   4   7    0.06    0.30
   3   4   7   -0.15    0.14
   3   4   7   -0.18    0.28
  -4  -4  -7   20.36    0.84
  -4  -4  -7   19.24    0.67
  -4  -4  -7   20.59    0.81
  -4  -4  -7   19.66    0.59
  -4  -4  -7   19.54    0.70
  -4  -4  -7   18.57    0.68
  -4  -4  -7   20.93    0.89
  -4  -4  -7   20.38    0.87
   4   4   7   19.60    1.02
   4   4   7   19.30    0.88
   4   4   7   19.95    0.85
  -5  -4  -7   -0.37    0.22
  -5  -4  -7    0.07    0.14
  -5  -4  -7    0.03    0.27
  -5  -4  -7    0.23    0.25
  -5  -4  -7   -0.08    0.20
  -5  -4  -7    0.17    0.18
  -5  -4  -7   -0.14    0.15
   5   4   7   -0.08    0.33
   5   4   7   -0.15    0.30
   5   4   7    0.57    0.33
  -6  -4  -7    1.01    0.21
  -6  -4  -7    1.00    0.43
  -6  -4  -7    0.77    0.23
  -6  -4  -7    0.82    0.38
  -6  -4  -7    0.24    0.31
   6   4   7    0.61    0.37
   6   4   7    0.97    0.44
  -7  -4  -7    7.88    0.50
  -7  -4  -7    7.55    0.82
  -7  -4  -7    8.70    0.84
   7   4   7    6.65    0.83
  -8  -4  -7    1.35    0.49
  -8  -4  -7    0.93    0.45
  -8  -4  -7    0.35    0.24
   8   4   7   -0.53    0.39
   5  -5  -7    0.20    0.36
   5  -5  -7    0.52    0.48
  -5   5   7    0.39    0.67
  -5   5   7   -0.31    0.39
   4  -5  -7    0.83    0.37
   4  -5  -7    1.14    0.54
   4  -5  -7    0.70    0.41
  -4   5   7    1.77    0.63
  -4   5   7    0.13    0.42
  -4   5   7    1.27    0.48
   3  -5  -7   10.07    0.87
   3  -5  -7    9.41    0.82
   3  -5  -7    9.71    0.69
  -3   5   7   11.13    0.92
  -3   5   7    9.47    0.81
  -3   5   7    9.87    0.85
   2  -5  -7    0.85    0.34
   2  -5  -7    0.61    0.22
   2  -5  -7    0.25    0.31
   2  -5  -7    0.84    0.33
   2  -5  -7    0.13    0.33
   2  -5  -7    1.21    0.36
   2  -5  -7    0.32    0.21
  -2   5   7    0.92    0.43
  -2   5   7    0.61    0.37
  -2   5   7    0.86    0.41
  -2   5   7    0.52    0.47
   1  -5  -7    1.49    0.35
   1  -5  -7    0.78    0.30
   1  -5  -7    1.04    0.38
   1  -5  -7    1.53    0.35
  -1   5   7    1.37    0.41
  -1   5   7    0.66    0.31
  -1   5   7    1.38    0.37
  -1   5   7    0.70    0.22
  -1   5   7    1.55    0.41
   0  -5  -7   14.90    0.74
   0  -5  -7   15.13    0.74
   0  -5  -7   13.96    0.77
   0  -5  -7   15.06    0.69
   0  -5  -7   15.89    0.77
   0   5   7   15.83    0.73
   0   5   7   15.29    0.80
   0   5   7   14.88    0.81
   0   5   7   14.99    0.51
   0   5   7   14.67    0.82
  -1  -5  -7    0.05    0.20
  -1  -5  -7    0.17    0.25
  -1  -5  -7    0.09    0.22
  -1  -5  -7    0.06    0.19
  -1  -5  -7    0.29    0.25
   1   5   7   -0.02    0.06
   1   5   7    0.20    0.30
   1   5   7   -0.12    0.25
   1   5   7    0.14    0.29
   1   5   7    0.16    0.25
  -2  -5  -7    3.13    0.29
  -2  -5  -7    2.80    0.34
  -2  -5  -7    2.00    0.31
  -2  -5  -7    2.60    0.42
  -2  -5  -7    3.11    0.29
  -2  -5  -7    2.36    0.36
  -2  -5  -7    2.37    0.36
  -2  -5  -7    2.42    0.39
  -2  -5  -7    2.37    0.32
   2   5   7    1.77    0.43
   2   5   7    2.04    0.42
   2   5   7    3.23    0.38
  -3  -5  -7   15.14    0.64
  -3  -5  -7   13.94    0.71
  -3  -5  -7   14.42    0.58
  -3  -5  -7   14.15    0.72
  -3  -5  -7   15.29    0.77
  -3  -5  -7   14.05    0.65
  -3  -5  -7   14.50    0.68
  -3  -5  -7   14.14    0.61
   3   5   7   14.76    0.89
   3   5   7   15.58    0.65
   3   5   7   14.48    0.77
  -4  -5  -7    5.31    0.56
  -4  -5  -7    5.07    0.51
  -4  -5  -7    4.66    0.41
  -4  -5  -7    5.09    0.39
  -4  -5  -7    5.92    0.62
  -4  -5  -7    4.09    0.35
  -4  -5  -7    4.07    0.48
  -4  -5  -7    5.34    0.43
   4   5   7    4.28    0.53
   4   5   7    5.63    0.55
   4   5   7    4.42    0.65
  -5  -5  -7    4.60    0.50
  -5  -5  -7    3.99    0.50
  -5  -5  -7    4.80    0.56
  -5  -5  -7    4.05    0.36
  -5  -5  -7    3.85    0.35
   5   5   7    3.91    0.52
   5   5   7    3.66    0.66
   5   5   7    4.33    0.56
  -6  -5  -7    7.88    0.65
  -6  -5  -7    7.65    0.45
  -6  -5  -7    8.30    0.81
  -6  -5  -7    7.26    0.68
   6   5   7    6.35    0.80
   6   5   7    7.96    0.72
   6   5   7    5.19    0.64
  -7  -5  -7    0.33    0.20
  -7  -5  -7    0.43    0.37
  -7  -5  -7    0.07    0.35
   7   5   7    0.18    0.45
  -8  -5  -7    0.81    0.51
  -8  -5  -7    1.41    0.53
  -8  -5  -7    0.75    0.24
   8   5   7    0.54    0.55
   4  -6  -7   14.30    1.14
   4  -6  -7   11.57    0.86
   4  -6  -7   12.20    1.03
  -4   6   7   14.02    1.17
  -4   6   7    8.69    0.94
   3  -6  -7    0.61    0.40
   3  -6  -7   -0.02    0.33
   3  -6  -7    0.29    0.45
  -3   6   7   -0.06    0.43
  -3   6   7    0.61    0.52
   2  -6  -7    0.88    0.46
   2  -6  -7    0.81    0.36
   2  -6  -7    1.06    0.40
  -2   6   7    1.17    0.46
  -2   6   7    1.41    0.49
   1  -6  -7    5.82    0.57
   1  -6  -7    5.40    0.59
   1  -6  -7    6.11    0.70
   1  -6  -7    4.72    0.56
   1  -6  -7    5.23    0.62
  -1   6   7    4.60    0.45
  -1   6   7    5.32    0.66
  -1   6   7    5.09    0.62
  -1   6   7    6.42    0.72
   0  -6  -7    0.25    0.30
   0  -6  -7    0.57    0.29
   0  -6  -7    0.37    0.33
   0  -6  -7    0.18    0.26
   0   6   7    0.41    0.32
   0   6   7    0.01    0.32
   0   6   7    0.27    0.17
   0   6   7   -0.10    0.34
  -1  -6  -7    0.16    0.25
  -1  -6  -7    0.10    0.27
  -1  -6  -7    0.37    0.22
  -1  -6  -7    0.45    0.28
  -1  -6  -7    0.02    0.25
   1   6   7    0.28    0.11
   1   6   7    0.46    0.31
   1   6   7    0.41    0.39
  -2  -6  -7    7.07    0.58
  -2  -6  -7    8.33    0.34
  -2  -6  -7    8.16    0.53
  -2  -6  -7    7.79    0.58
  -2  -6  -7    7.77    0.63
  -2  -6  -7    6.55    0.56
   2   6   7    7.25    0.80
   2   6   7    8.06    0.56
   2   6   7    6.84    0.68
  -3  -6  -7    0.38    0.17
  -3  -6  -7   -0.12    0.26
  -3  -6  -7    0.10    0.23
  -3  -6  -7   -0.02    0.20
  -3  -6  -7    0.21    0.22
  -3  -6  -7    0.22    0.32
  -3  -6  -7   -0.03    0.19
   3   6   7    0.60    0.38
   3   6   7   -0.42    0.40
   3   6   7    0.31    0.23
  -4  -6  -7    0.68    0.30
  -4  -6  -7    0.10    0.34
  -4  -6  -7   -0.19    0.16
  -4  -6  -7    0.60    0.27
  -4  -6  -7    0.14    0.21
  -4  -6  -7    0.45    0.22
   4   6   7    0.64    0.32
   4   6   7    0.57    0.36
   4   6   7    0.22    0.44
  -5  -6  -7    0.05    0.22
  -5  -6  -7    0.14    0.18
  -5  -6  -7    0.29    0.33
  -5  -6  -7   -0.10    0.17
  -5  -6  -7    0.47    0.28
  -5  -6  -7    0.06    0.32
   5   6   7   -0.12    0.34
   5   6   7    1.07    0.50
   5   6   7   -0.27    0.31
  -6  -6  -7    1.95    0.42
  -6  -6  -7    1.68    0.37
  -6  -6  -7    1.40    0.25
  -6  -6  -7    1.57    0.42
  -6  -6  -7    1.50    0.45
   6   6   7    0.77    0.42
   6   6   7    1.38    0.60
   6   6   7    1.47    0.48
  -7  -6  -7    8.80    0.47
  -7  -6  -7    8.51    0.85
  -7  -6  -7   10.86    0.81
   7   6   7    7.05    0.83
   7   6   7    9.46    1.08
   4  -7  -7    0.07    0.40
   4  -7  -7    0.81    0.46
   4  -7  -7   -0.44    0.47
  -4   7   7    0.28    0.59
  -4   7   7    1.09    0.58
   3  -7  -7    3.54    0.74
   3  -7  -7    3.74    0.67
   3  -7  -7    4.06    0.64
  -3   7   7    3.37    0.73
  -3   7   7    5.59    0.91
   2  -7  -7   -0.07    0.31
   2  -7  -7   -0.27    0.39
   2  -7  -7   -0.01    0.32
  -2   7   7    0.15    0.42
  -2   7   7    0.25    0.49
   1  -7  -7    6.93    0.80
   1  -7  -7    6.82    0.71
   1  -7  -7    9.54    0.78
   1  -7  -7    8.58    0.79
   1  -7  -7    7.01    0.61
  -1   7   7    7.80    0.84
  -1   7   7    8.20    0.83
  -1   7   7    7.88    0.81
   0  -7  -7   11.40    0.72
   0  -7  -7   12.40    0.82
   0  -7  -7    9.60    0.74
   0  -7  -7   12.07    0.79
   0  -7  -7   11.82    0.87
   0   7   7   11.37    0.91
   0   7   7    9.83    0.86
   0   7   7    9.45    0.81
  -1  -7  -7    2.26    0.34
  -1  -7  -7    2.97    0.50
  -1  -7  -7    2.66    0.43
  -1  -7  -7    1.90    0.44
  -1  -7  -7    2.03    0.45
   1   7   7    2.74    0.60
   1   7   7    1.95    0.43
  -2  -7  -7    1.02    0.28
  -2  -7  -7    1.34    0.38
  -2  -7  -7    1.13    0.33
  -2  -7  -7    1.12    0.39
  -2  -7  -7    0.89    0.33
   2   7   7    1.09    0.46
  -3  -7  -7   18.92    0.88
  -3  -7  -7   18.91    0.86
  -3  -7  -7   19.16    0.80
  -3  -7  -7   16.56    0.91
  -3  -7  -7   16.99    0.81
   3   7   7   16.64    1.07
  -4  -7  -7    0.78    0.29
  -4  -7  -7    1.34    0.38
  -4  -7  -7    0.09    0.35
  -4  -7  -7    1.08    0.31
  -4  -7  -7    1.01    0.31
   4   7   7    1.10    0.46
   4   7   7    0.18    0.45
   4   7   7    0.68    0.34
  -5  -7  -7    3.65    0.54
  -5  -7  -7    3.86    0.41
  -5  -7  -7    3.99    0.62
  -5  -7  -7    3.52    0.47
  -5  -7  -7    3.22    0.36
   5   7   7    2.86    0.66
   5   7   7    3.42    0.58
   5   7   7    3.52    0.55
  -6  -7  -7    3.23    0.47
  -6  -7  -7    2.10    0.32
  -6  -7  -7    1.48    0.50
  -6  -7  -7    1.90    0.49
   6   7   7    1.19    0.48
   6   7   7    1.90    0.69
   6   7   7    2.49    0.54
  -7  -7  -7    3.36    0.64
  -7  -7  -7    2.64    0.57
  -7  -7  -7    1.60    0.27
   7   7   7    2.39    0.75
   7   7   7    2.09    0.61
   3  -8  -7    0.26    0.54
   3  -8  -7    1.27    0.57
   3  -8  -7    0.61    0.44
  -3   8   7    1.08    0.70
  -3   8   7    0.32    0.56
   2  -8  -7    1.86    0.57
   2  -8  -7    2.21    0.65
  -2   8   7    1.39    0.53
  -2   8   7    1.21    0.59
   1  -8  -7    1.23    0.39
   1  -8  -7    1.18    0.53
   1  -8  -7    2.18    0.55
   1  -8  -7    1.38    0.41
  -1   8   7    1.69    0.56
  -1   8   7    2.79    0.64
  -1   8   7    1.93    0.57
   0  -8  -7    3.24    0.52
   0  -8  -7    1.69    0.47
   0  -8  -7    3.04    0.51
   0  -8  -7    3.07    0.56
   0  -8  -7    2.58    0.58
   0   8   7    3.41    0.68
   0   8   7    2.49    0.58
  -1  -8  -7    7.98    0.71
  -1  -8  -7    8.97    0.83
  -1  -8  -7    7.50    0.78
  -1  -8  -7    8.70    0.86
  -1  -8  -7    7.64    0.81
   1   8   7    8.69    0.95
  -2  -8  -7    0.09    0.27
  -2  -8  -7   -0.02    0.34
  -2  -8  -7   -0.22    0.31
  -2  -8  -7   -0.46    0.26
  -2  -8  -7    0.40    0.37
  -2  -8  -7   -0.14    0.21
   2   8   7    0.12    0.46
  -3  -8  -7    0.35    0.32
  -3  -8  -7   -0.01    0.29
  -3  -8  -7   -0.03    0.28
  -3  -8  -7   -0.10    0.32
   3   8   7   -0.42    0.40
  -4  -8  -7    0.57    0.30
  -4  -8  -7    0.71    0.31
  -4  -8  -7    0.68    0.34
  -4  -8  -7    0.45    0.37
   4   8   7    1.06    0.61
  -5  -8  -7    4.36    0.48
  -5  -8  -7    4.72    0.60
  -5  -8  -7    5.04    0.49
  -5  -8  -7    5.93    0.76
   5   8   7    3.50    0.81
   5   8   7    3.93    0.61
  -6  -8  -7    1.07    0.51
  -6  -8  -7    1.07    0.30
  -6  -8  -7    1.28    0.46
   6   8   7    0.67    0.62
   6   8   7    1.01    0.52
  -7  -8  -7    0.53    0.23
  -7  -8  -7    0.56    0.51
  -7  -8  -7    0.26    0.41
   7   8   7   -0.05    0.57
   7   8   7    0.05    0.45
   2  -9  -7    2.24    0.62
   2  -9  -7    2.70    0.78
  -2   9   7    2.80    0.82
  -2   9   7    2.43    0.68
   1  -9  -7    1.39    0.57
   1  -9  -7    0.82    0.41
   1  -9  -7    0.42    0.49
  -1   9   7    0.19    0.48
  -1   9   7    1.01    0.60
   0  -9  -7    4.42    0.62
   0  -9  -7    5.40    0.79
   0  -9  -7    4.34    0.70
   0  -9  -7    4.25    0.69
   0  -9  -7    4.42    0.70
   0   9   7    4.23    0.78
  -1  -9  -7    1.04    0.47
  -1  -9  -7    0.55    0.48
  -1  -9  -7    0.92    0.46
  -1  -9  -7    0.82    0.38
  -1  -9  -7    1.05    0.50
   1   9   7    1.42    0.58
  -2  -9  -7    0.29    0.41
  -2  -9  -7    0.16    0.31
  -2  -9  -7    1.00    0.45
  -2  -9  -7   -0.14    0.36
  -2  -9  -7   -0.17    0.35
   2   9   7    0.67    0.60
  -3  -9  -7   22.99    1.22
  -3  -9  -7   23.85    1.12
  -3  -9  -7   23.21    1.14
  -3  -9  -7   23.05    1.30
  -3  -9  -7   23.59    1.06
   3   9   7   20.36    1.33
  -4  -9  -7    0.42    0.47
  -4  -9  -7    0.47    0.43
  -4  -9  -7    0.75    0.35
  -4  -9  -7   -0.05    0.31
  -4  -9  -7   -0.23    0.29
   4   9   7    0.45    0.59
  -5  -9  -7    8.61    0.67
  -5  -9  -7    8.26    0.89
  -5  -9  -7    7.98    0.99
  -5  -9  -7    6.82    0.60
   5   9   7    6.88    1.01
  -6  -9  -7    4.38    0.50
  -6  -9  -7    3.74    0.71
  -6  -9  -7    4.22    0.80
   6   9   7    3.71    0.68
   6   9   7    3.50    0.85
   0 -10  -7    0.77    0.45
   0 -10  -7    0.31    0.47
   0 -10  -7    0.12    0.48
   0  10   7    0.96    0.63
  -1 -10  -7    7.09    0.86
  -1 -10  -7    8.06    0.96
  -1 -10  -7    7.61    0.94
  -1 -10  -7    8.86    1.01
   1  10   7    5.91    0.94
  -2 -10  -7    3.01    0.59
  -2 -10  -7    3.56    0.69
  -2 -10  -7    4.76    0.80
  -2 -10  -7    3.58    0.66
   2  10   7    2.99    0.77
  -3 -10  -7    0.53    0.40
  -3 -10  -7    0.61    0.48
  -3 -10  -7   -0.05    0.41
  -3 -10  -7    0.53    0.41
   3  10   7    0.45    0.60
  -4 -10  -7    0.54    0.40
  -4 -10  -7    0.63    0.53
  -4 -10  -7    0.57    0.38
  -4 -10  -7    0.45    0.52
   4  10   7    0.92    0.67
  -5 -10  -7    0.40    0.60
  -5 -10  -7    0.48    0.46
  -5 -10  -7    0.50    0.35
   5  10   7    1.43    0.74
   4   9  -8    0.30    0.57
  -4  -9   8    0.22    0.45
  -4  -9   8    0.11    0.43
  -4  -9   8   -0.35    0.52
   3   9  -8    5.42    0.94
  -3  -9   8    5.94    0.81
  -3  -9   8    6.13    0.91
  -3  -9   8    5.46    0.81
   2   9  -8    5.85    0.95
  -2  -9   8    5.08    0.77
  -2  -9   8    6.65    1.00
  -2  -9   8    4.97    0.80
   1   9  -8    2.86    0.76
  -1  -9   8    2.20    0.73
  -1  -9   8    2.03    0.62
  -1  -9   8    2.47    0.70
   0   9  -8    0.91    0.58
   0  -9   8    0.85    0.58
   0  -9   8    1.85    0.67
  -1   9  -8    6.97    0.93
  -1   9  -8    5.82    1.04
   1  -9   8    6.67    1.02
   1  -9   8    4.67    0.85
   5   8  -8   11.73    1.06
  -5  -8   8   13.63    0.96
  -5  -8   8   15.59    1.15
  -5  -8   8   15.31    0.99
   4   8  -8    3.24    0.74
  -4  -8   8    3.80    0.62
  -4  -8   8    4.48    0.78
  -4  -8   8    3.84    0.63
   3   8  -8    0.56    0.51
  -3  -8   8    0.72    0.44
  -3  -8   8    0.66    0.55
  -3  -8   8    0.58    0.45
   2   8  -8    5.29    0.85
  -2  -8   8    7.59    0.80
  -2  -8   8    6.39    0.86
  -2  -8   8    5.20    0.72
   1   8  -8   -0.19    0.45
  -1  -8   8    0.75    0.49
  -1  -8   8    0.25    0.51
  -1  -8   8   -0.05    0.41
   0   8  -8    1.59    0.51
   0   8  -8    1.41    0.62
   0  -8   8    1.39    0.52
   0  -8   8    2.04    0.68
   0  -8   8    2.75    0.71
  -1   8  -8    0.22    0.41
  -1   8  -8   -0.23    0.54
   1  -8   8    0.00    0.54
   1  -8   8   -0.46    0.45
  -2   8  -8    1.28    0.64
  -2   8  -8    0.80    0.53
   2  -8   8    1.94    0.72
   2  -8   8    1.09    0.61
   6   7  -8    0.51    0.51
  -6  -7   8    0.96    0.66
  -6  -7   8    0.61    0.40
  -6  -7   8    0.54    0.38
   5   7  -8    3.84    0.67
   5   7  -8    3.78    0.71
  -5  -7   8    4.34    0.59
  -5  -7   8    3.85    0.61
  -5  -7   8    4.16    0.68
   4   7  -8    0.94    0.49
  -4  -7   8    0.35    0.38
  -4  -7   8    0.04    0.43
  -4  -7   8    0.58    0.39
   3   7  -8    0.18    0.38
  -3  -7   8    0.45    0.48
  -3  -7   8    0.29    0.40
  -3  -7   8   -0.17    0.35
   2   7  -8   26.18    1.41
  -2  -7   8   29.93    1.28
  -2  -7   8   30.17    1.42
  -2  -7   8   31.54    1.36
   1   7  -8   10.80    1.00
   1   7  -8   10.29    0.68
   1   7  -8   11.74    0.84
  -1  -7   8   10.68    1.03
  -1  -7   8   11.45    0.92
  -1  -7   8   11.65    0.88
   0   7  -8    0.14    0.45
   0   7  -8    0.22    0.36
   0   7  -8   -0.09    0.27
   0  -7   8    0.40    0.41
   0  -7   8    0.30    0.48
   0  -7   8    0.22    0.45
  -1   7  -8    5.86    0.64
  -1   7  -8    6.04    0.80
   1  -7   8    6.47    0.85
   1  -7   8    5.41    0.78
  -2   7  -8   -0.25    0.33
  -2   7  -8   -0.09    0.40
   2  -7   8   -0.10    0.46
   2  -7   8    0.68    0.54
  -3   7  -8    2.27    0.54
  -3   7  -8    2.51    0.69
   3  -7   8    2.09    0.71
   3  -7   8    1.66    0.62
   6   6  -8    0.09    0.38
  -6  -6   8    0.23    0.34
  -6  -6   8    0.23    0.33
  -6  -6   8    0.40    0.57
   5   6  -8    6.44    0.80
  -5  -6   8    6.34    0.73
  -5  -6   8    4.86    0.57
  -5  -6   8    5.03    0.62
  -5  -6   8    5.96    0.86
   4   6  -8    0.32    0.40
   4   6  -8    0.78    0.39
  -4  -6   8    0.37    0.35
  -4  -6   8    1.74    0.45
  -4  -6   8    1.00    0.44
   3   6  -8   -0.14    0.35
   3   6  -8   -0.03    0.30
  -3  -6   8    0.20    0.41
  -3  -6   8   -0.46    0.31
  -3  -6   8    0.40    0.35
   2   6  -8    5.44    0.58
   2   6  -8    7.24    0.84
  -2  -6   8    6.07    0.64
  -2  -6   8    5.58    0.65
  -2  -6   8    5.86    0.62
  -2  -6   8    7.86    0.80
   1   6  -8    1.96    0.38
   1   6  -8    2.18    0.44
   1   6  -8    2.48    0.54
  -1  -6   8    1.97    0.46
  -1  -6   8    2.60    0.59
  -1  -6   8    2.62    0.51
   0   6  -8    7.93    0.79
   0   6  -8    8.69    0.64
   0  -6   8    9.47    0.88
   0  -6   8    8.69    0.89
   0  -6   8    8.44    0.77
  -1   6  -8    5.30    0.68
  -1   6  -8    4.04    0.52
   1  -6   8    6.64    0.81
   1  -6   8    5.89    0.68
   1  -6   8    5.85    0.75
  -2   6  -8    0.20    0.30
  -2   6  -8    0.14    0.37
   2  -6   8   -0.52    0.38
   2  -6   8    0.19    0.41
  -3   6  -8    0.63    0.46
  -3   6  -8    1.00    0.45
   3  -6   8    0.39    0.50
   3  -6   8    0.07    0.44
  -4   6  -8   -0.31    0.42
  -4   6  -8    0.22    0.46
   4  -6   8   -0.15    0.53
   4  -6   8   -0.62    0.42
   7   5  -8    3.98    0.79
   7   5  -8    4.26    0.76
  -7  -5   8    4.88    0.69
  -7  -5   8    4.91    0.62
  -7  -5   8    5.58    0.99
   6   5  -8    2.79    0.62
   6   5  -8    2.73    0.64
  -6  -5   8    2.35    0.48
  -6  -5   8    1.67    0.42
  -6  -5   8    3.47    0.78
   5   5  -8    3.40    0.63
  -5  -5   8    3.41    0.54
  -5  -5   8    4.19    0.81
  -5  -5   8    3.75    0.52
  -5  -5   8    3.98    0.71
   4   5  -8    3.37    0.54
   4   5  -8    1.94    0.46
  -4  -5   8    2.37    0.44
  -4  -5   8    3.92    0.68
  -4  -5   8    2.60    0.47
  -4  -5   8    2.45    0.48
   3   5  -8    3.85    0.57
   3   5  -8    3.91    0.58
  -3  -5   8    3.82    0.56
  -3  -5   8    4.25    0.54
  -3  -5   8    4.52    0.54
   2   5  -8   15.26    0.88
   2   5  -8   16.82    0.84
   2   5  -8   15.89    0.93
  -2  -5   8   16.90    0.92
  -2  -5   8   17.33    0.93
  -2  -5   8   16.55    0.85
  -2  -5   8   16.98    0.77
  -2  -5   8   17.34    0.72
  -2  -5   8   15.12    0.97
   1   5  -8   11.49    0.71
   1   5  -8   12.64    0.75
   1   5  -8   12.61    0.45
  -1  -5   8   13.95    0.79
  -1  -5   8   11.73    0.65
  -1  -5   8   12.41    0.82
  -1  -5   8   11.78    0.76
  -1  -5   8   12.17    0.79
   0   5  -8    2.55    0.25
   0   5  -8    2.45    0.45
   0   5  -8    2.50    0.39
   0  -5   8    2.64    0.53
   0  -5   8    3.11    0.49
   0  -5   8    2.94    0.50
   0  -5   8    2.36    0.43
  -1   5  -8    0.31    0.17
  -1   5  -8   -0.13    0.22
  -1   5  -8    0.08    0.15
  -1   5  -8    0.27    0.34
  -1   5  -8    0.48    0.29
   1  -5   8    0.12    0.34
   1  -5   8    0.34    0.37
   1  -5   8   -0.49    0.27
  -2   5  -8   14.24    0.94
  -2   5  -8   13.35    0.84
  -2   5  -8   12.28    0.81
  -2   5  -8   14.54    0.64
  -2   5  -8   13.44    0.63
   2  -5   8   13.16    0.92
   2  -5   8   13.22    0.92
  -3   5  -8   -0.40    0.30
  -3   5  -8    0.06    0.29
  -3   5  -8   -0.01    0.24
  -3   5  -8    0.07    0.37
   3  -5   8    0.00    0.43
   3  -5   8   -0.52    0.33
  -4   5  -8    1.38    0.50
  -4   5  -8    0.59    0.48
  -4   5  -8    1.37    0.55
   4  -5   8    1.49    0.54
   4  -5   8    0.79    0.50
  -5   5  -8   -0.68    0.43
  -5   5  -8   -0.19    0.37
  -5   5  -8   -0.44    0.35
   7   4  -8    9.38    1.02
   7   4  -8    8.78    0.98
  -7  -4   8    8.93    0.76
  -7  -4   8   10.01    1.16
  -7  -4   8    7.36    0.71
   6   4  -8    5.86    0.80
   6   4  -8    6.33    0.80
  -6  -4   8    6.64    0.92
  -6  -4   8    5.29    0.59
  -6  -4   8    5.70    0.64
   5   4  -8    2.40    0.52
   5   4  -8    3.97    0.63
  -5  -4   8    3.03    0.50
  -5  -4   8    3.29    0.72
  -5  -4   8    2.48    0.44
   4   4  -8    4.56    0.60
   4   4  -8    6.40    0.61
  -4  -4   8    5.91    0.60
  -4  -4   8    4.27    0.50
  -4  -4   8    5.07    0.56
  -4  -4   8    5.56    0.69
   3   4  -8   10.16    0.68
   3   4  -8    9.34    0.70
   3   4  -8    9.77    0.60
  -3  -4   8    8.70    0.62
  -3  -4   8   10.30    0.70
  -3  -4   8    8.90    0.67
  -3  -4   8    8.78    0.64
  -3  -4   8    8.91    0.67
   2   4  -8   18.01    0.82
   2   4  -8   18.11    0.90
  -2  -4   8   18.21    0.83
  -2  -4   8   16.91    0.62
  -2  -4   8   16.67    0.85
  -2  -4   8   17.98    0.74
  -2  -4   8   15.96    0.83
  -2  -4   8   18.05    0.67
  -2  -4   8   17.28    0.87
   1   4  -8   26.56    1.02
   1   4  -8   21.49    1.25
   1   4  -8   23.94    0.99
   1   4  -8   26.42    0.62
   1   4  -8   24.66    0.97
   1   4  -8   24.99    1.03
   1   4  -8   26.18    0.74
  -1  -4   8   25.83    0.74
  -1  -4   8   24.13    0.84
  -1  -4   8   24.88    0.99
  -1  -4   8   25.55    1.04
  -1  -4   8   25.49    1.02
  -1  -4   8   25.82    1.10
   0   4  -8   11.98    0.62
   0   4  -8   10.91    0.63
   0   4  -8   10.79    0.70
   0   4  -8   12.33    0.69
   0   4  -8   11.76    0.42
   0   4  -8   10.56    0.62
   0   4  -8   11.97    0.49
   0  -4   8   11.23    0.49
   0  -4   8   11.72    0.75
   0  -4   8   11.77    0.72
   0  -4   8   10.64    0.66
   0  -4   8   12.09    0.64
  -1   4  -8   20.95    1.00
  -1   4  -8   19.85    0.65
  -1   4  -8   18.48    0.84
  -1   4  -8   20.43    0.90
  -1   4  -8   19.73    0.84
  -1   4  -8   18.86    0.67
   1  -4   8   17.71    0.93
   1  -4   8   19.49    0.98
   1  -4   8   18.77    0.90
   1  -4   8   19.97    0.90
  -2   4  -8    4.11    0.50
  -2   4  -8    3.59    0.39
  -2   4  -8    3.75    0.54
  -2   4  -8    3.70    0.39
  -2   4  -8    2.37    0.43
  -2   4  -8    3.46    0.50
   2  -4   8    4.49    0.59
   2  -4   8    3.33    0.56
  -3   4  -8    0.02    0.29
  -3   4  -8    0.64    0.39
  -3   4  -8    0.37    0.32
  -3   4  -8    0.40    0.26
   3  -4   8   -0.10    0.37
   3  -4   8    0.83    0.43
  -4   4  -8    2.09    0.50
  -4   4  -8    0.86    0.41
  -4   4  -8    2.60    0.53
  -4   4  -8    1.58    0.39
   4  -4   8    1.16    0.48
   4  -4   8    2.57    0.59
  -5   4  -8    0.83    0.39
  -5   4  -8    0.87    0.48
  -5   4  -8    0.39    0.43
  -5   4  -8    0.58    0.43
  -6   4  -8    0.11    0.49
  -6   4  -8   -0.08    0.42
  -6   4  -8   -0.45    0.33
   6  -4   8   -0.05    0.51
   6  -4   8   -0.45    0.57
   7   3  -8    0.26    0.47
   7   3  -8    0.64    0.46
  -7  -3   8    0.20    0.33
  -7  -3   8    0.84    0.66
   6   3  -8    2.62    0.54
   6   3  -8    1.11    0.45
  -6  -3   8    1.54    0.68
  -6  -3   8    1.51    0.43
  -6  -3   8    1.53    0.41
   5   3  -8    0.47    0.36
   5   3  -8    0.79    0.40
  -5  -3   8    0.35    0.46
  -5  -3   8    0.15    0.34
  -5  -3   8    0.50    0.32
   4   3  -8    9.13    0.67
   4   3  -8    9.00    0.71
  -4  -3   8    9.84    0.61
  -4  -3   8    8.10    0.64
  -4  -3   8    9.37    0.70
  -4  -3   8    8.73    0.82
   3   3  -8    7.06    0.52
   3   3  -8    7.68    0.53
   3   3  -8    7.41    0.61
  -3  -3   8    7.72    0.66
  -3  -3   8    8.17    0.59
  -3  -3   8    6.57    0.55
  -3  -3   8    7.94    0.60
  -3  -3   8    7.57    0.63
  -3  -3   8    7.75    0.32
  -3  -3   8    7.68    0.61
   2   3  -8   10.64    0.67
   2   3  -8   10.72    0.44
   2   3  -8   11.13    0.65
   2   3  -8   11.68    0.64
  -2  -3   8   10.62    0.51
  -2  -3   8   10.89    0.67
  -2  -3   8   11.33    0.69
  -2  -3   8   12.54    0.48
  -2  -3   8   10.16    0.54
  -2  -3   8   11.02    0.68
  -2  -3   8    9.78    0.64
  -2  -3   8   11.54    0.68
   1   3  -8    2.20    0.38
   1   3  -8    2.03    0.32
   1   3  -8    1.90    0.38
   1   3  -8    2.10    0.22
   1   3  -8    1.71    0.30
   1   3  -8    2.42    0.27
   1   3  -8    1.45    0.25
   1   3  -8    1.89    0.35
  -1  -3   8    2.23    0.27
  -1  -3   8    1.40    0.32
  -1  -3   8    1.67    0.35
  -1  -3   8    2.12    0.36
  -1  -3   8    1.64    0.26
  -1  -3   8    1.62    0.37
  -1  -3   8    1.95    0.33
   0   3  -8    0.25    0.25
   0   3  -8    0.76    0.24
   0   3  -8    0.92    0.24
   0   3  -8    0.97    0.20
   0   3  -8    0.65    0.25
   0   3  -8    0.79    0.18
   0   3  -8    0.63    0.24
   0  -3   8    0.61    0.26
   0  -3   8    0.60    0.32
   0  -3   8    0.63    0.19
   0  -3   8    0.83    0.24
   0  -3   8    0.89    0.32
   0  -3   8    0.74    0.30
   0  -3   8    0.49    0.27
  -1   3  -8    8.01    0.61
  -1   3  -8    7.72    0.41
  -1   3  -8    8.69    0.56
  -1   3  -8    7.38    0.44
  -1   3  -8    7.81    0.50
  -1   3  -8    7.86    0.56
  -1   3  -8    7.67    0.54
   1  -3   8    7.95    0.45
   1  -3   8    8.08    0.63
   1  -3   8    7.98    0.52
   1  -3   8    7.61    0.58
   1  -3   8    7.81    0.56
   1  -3   8    7.37    0.65
  -2   3  -8    0.59    0.30
  -2   3  -8    0.33    0.23
  -2   3  -8    0.19    0.20
  -2   3  -8    0.26    0.22
  -2   3  -8   -0.07    0.24
  -2   3  -8   -0.25    0.17
  -2   3  -8    0.09    0.25
   2  -3   8    0.52    0.36
   2  -3   8    0.07    0.31
   2  -3   8   -0.04    0.23
  -3   3  -8    0.28    0.28
  -3   3  -8    0.08    0.24
  -3   3  -8    1.06    0.35
  -3   3  -8    0.33    0.31
   3  -3   8    0.44    0.38
   3  -3   8    0.09    0.31
  -4   3  -8    1.17    0.40
  -4   3  -8    1.62    0.41
  -4   3  -8    1.48    0.44
  -4   3  -8    1.43    0.37
   4  -3   8    1.66    0.48
   4  -3   8    1.92    0.50
  -5   3  -8    1.93    0.51
  -5   3  -8    0.21    0.33
  -5   3  -8    0.63    0.43
  -5   3  -8    0.36    0.36
   5  -3   8    0.13    0.49
   5  -3   8    0.27    0.41
  -6   3  -8   -0.21    0.36
  -6   3  -8    0.09    0.36
  -6   3  -8    0.85    0.52
   6  -3   8    1.06    0.56
   6  -3   8    0.15    0.48
   7   2  -8    1.30    0.47
   7   2  -8    0.06    0.43
  -7  -2   8    0.35    0.35
  -7  -2   8    0.60    0.65
  -7  -2   8    0.79    0.40
   6   2  -8    0.82    0.38
   6   2  -8    1.55    0.50
  -6  -2   8    1.67    0.62
  -6  -2   8    1.34    0.41
   5   2  -8    1.94    0.48
   5   2  -8    2.22    0.44
  -5  -2   8    1.81    0.41
  -5  -2   8    2.41    0.45
  -5  -2   8    2.92    0.67
   4   2  -8    2.66    0.48
   4   2  -8    2.60    0.43
  -4  -2   8    2.64    0.41
  -4  -2   8    2.49    0.33
  -4  -2   8    3.12    0.59
  -4  -2   8    2.10    0.44
  -4  -2   8    2.51    0.45
   3   2  -8    1.71    0.28
   3   2  -8    1.49    0.31
   3   2  -8    1.28    0.36
  -3  -2   8    1.04    0.38
  -3  -2   8    1.77    0.26
  -3  -2   8    1.05    0.33
  -3  -2   8    1.06    0.34
  -3  -2   8    0.84    0.28
  -3  -2   8    1.15    0.33
   2   2  -8    4.62    0.47
   2   2  -8    4.72    0.50
   2   2  -8    5.52    0.44
   2   2  -8    4.89    0.36
  -2  -2   8    4.32    0.49
  -2  -2   8    5.16    0.38
  -2  -2   8    4.88    0.28
  -2  -2   8    4.89    0.48
  -2  -2   8    4.49    0.45
  -2  -2   8    4.23    0.45
  -2  -2   8    4.37    0.49
  -2  -2   8    3.87    0.43
   1   2  -8    0.30    0.23
   1   2  -8    0.69    0.19
   1   2  -8    0.54    0.25
   1   2  -8    0.17    0.18
   1   2  -8    0.42    0.16
   1   2  -8    0.13    0.15
   1   2  -8    0.28    0.21
   1   2  -8    0.21    0.21
  -1  -2   8    0.29    0.24
  -1  -2   8    0.05    0.15
  -1  -2   8    0.20    0.20
  -1  -2   8    0.08    0.26
  -1  -2   8    0.07    0.17
  -1  -2   8    0.52    0.26
  -1  -2   8    0.63    0.26
  -1  -2   8   -0.05    0.24
   0   2  -8   18.61    0.62
   0   2  -8   19.04    0.79
   0   2  -8   19.00    0.75
   0   2  -8   17.77    0.79
   0   2  -8   19.12    0.79
   0   2  -8   19.05    0.67
   0   2  -8   18.89    0.67
   0   2  -8   19.48    0.73
   0  -2   8   19.45    0.75
   0  -2   8   19.02    0.77
   0  -2   8   18.93    0.68
   0  -2   8   18.45    0.84
   0  -2   8   18.91    0.67
   0  -2   8   17.77    0.80
   0  -2   8   19.27    0.80
  -1   2  -8    0.43    0.19
  -1   2  -8    0.35    0.21
  -1   2  -8    0.40    0.19
  -1   2  -8    0.37    0.26
  -1   2  -8    0.19    0.18
  -1   2  -8    0.34    0.26
  -1   2  -8    0.15    0.17
   1  -2   8    0.29    0.27
   1  -2   8   -0.01    0.19
   1  -2   8    0.27    0.20
   1  -2   8    0.14    0.26
   1  -2   8    0.51    0.26
   1  -2   8    0.13    0.18
   1  -2   8    0.36    0.27
  -2   2  -8   11.82    0.61
  -2   2  -8   11.63    0.69
  -2   2  -8   12.13    0.58
  -2   2  -8   11.32    0.58
  -2   2  -8   11.74    0.66
  -2   2  -8   12.25    0.65
  -2   2  -8   11.87    0.66
   2  -2   8   12.71    0.75
   2  -2   8   12.26    0.72
   2  -2   8   12.68    0.65
   2  -2   8   12.64    0.65
   2  -2   8   11.87    0.72
  -3   2  -8   10.91    0.61
  -3   2  -8   11.37    0.67
  -3   2  -8   10.79    0.70
  -3   2  -8   10.70    0.66
  -3   2  -8   11.36    0.74
  -3   2  -8   11.04    0.66
   3  -2   8   11.59    0.79
   3  -2   8   11.22    0.74
   3  -2   8   11.66    0.75
  -4   2  -8    2.09    0.42
  -4   2  -8    1.58    0.42
  -4   2  -8    3.03    0.45
  -4   2  -8    2.36    0.47
   4  -2   8    2.68    0.47
   4  -2   8    2.73    0.53
  -5   2  -8    2.28    0.45
  -5   2  -8    1.45    0.42
  -5   2  -8    1.40    0.43
  -5   2  -8    1.94    0.49
   5  -2   8    2.06    0.50
   5  -2   8    2.02    0.58
  -6   2  -8    2.21    0.52
  -6   2  -8    1.06    0.42
  -6   2  -8    1.31    0.53
   6  -2   8    1.77    0.57
   6  -2   8    2.52    0.66
  -7   2  -8    0.53    0.42
  -7   2  -8    0.79    0.59
   7  -2   8    1.19    0.60
   7  -2   8    0.03    0.55
   7   1  -8    3.90    0.63
   7   1  -8    3.61    0.68
  -7  -1   8    2.97    0.57
  -7  -1   8    4.45    0.87
  -7  -1   8    4.12    0.60
   6   1  -8    8.69    0.91
   6   1  -8   10.11    0.74
  -6  -1   8   10.40    0.83
  -6  -1   8   12.17    1.15
  -6  -1   8   11.26    0.80
   5   1  -8    0.37    0.36
   5   1  -8    0.82    0.32
  -5  -1   8    0.23    0.45
  -5  -1   8    0.15    0.31
   4   1  -8   18.33    0.83
   4   1  -8   20.37    0.84
   4   1  -8   16.75    0.92
  -4  -1   8   19.66    1.04
  -4  -1   8   18.81    0.93
  -4  -1   8   19.80    0.92
  -4  -1   8   18.30    0.96
   3   1  -8   12.41    0.67
   3   1  -8   10.82    0.59
   3   1  -8   10.49    0.56
   3   1  -8   10.72    0.68
  -3  -1   8   10.71    0.68
  -3  -1   8   10.30    0.65
  -3  -1   8   10.51    0.49
  -3  -1   8   11.21    0.53
  -3  -1   8    9.73    0.71
  -3  -1   8   10.62    0.67
   2   1  -8    1.18    0.26
   2   1  -8    1.43    0.32
   2   1  -8    1.14    0.31
   2   1  -8    0.93    0.31
  -2  -1   8    0.99    0.34
  -2  -1   8    0.86    0.25
  -2  -1   8    0.53    0.23
  -2  -1   8    0.58    0.24
  -2  -1   8    0.62    0.31
  -2  -1   8    0.90    0.12
  -2  -1   8    0.51    0.28
   1   1  -8   51.27    1.40
   1   1  -8   53.05    1.43
   1   1  -8   51.56    1.13
   1   1  -8   51.27    1.26
   1   1  -8   50.36    1.28
   1   1  -8   50.20    1.34
   1   1  -8   51.90    1.41
   1   1  -8   53.00    1.32
  -1  -1   8   51.38    1.44
  -1  -1   8   52.18    1.13
  -1  -1   8   50.45    1.34
  -1  -1   8   50.84    1.32
  -1  -1   8   51.74    1.32
  -1  -1   8   51.35    1.39
  -1  -1   8   50.91    1.37
   0   1  -8    0.06    0.19
   0   1  -8    0.22    0.17
   0   1  -8   -0.16    0.16
   0   1  -8   -0.31    0.14
   0   1  -8    0.16    0.20
   0   1  -8    0.08    0.14
   0   1  -8    0.30    0.17
   0   1  -8    0.11    0.18
   0  -1   8    0.06    0.18
   0  -1   8   -0.08    0.22
   0  -1   8    0.23    0.18
   0  -1   8    0.05    0.15
   0  -1   8    0.19    0.25
   0  -1   8    0.06    0.22
   0  -1   8    0.12    0.21
   0  -1   8    0.01    0.16
  -1   1  -8   15.07    0.61
  -1   1  -8   15.81    0.62
  -1   1  -8   15.48    0.60
  -1   1  -8   15.30    0.61
  -1   1  -8   15.00    0.72
  -1   1  -8   15.63    0.68
  -1   1  -8   15.11    0.69
  -1   1  -8   15.62    0.63
   1  -1   8   14.95    0.60
   1  -1   8   14.92    0.48
   1  -1   8   15.04    0.72
   1  -1   8   14.98    0.65
   1  -1   8   15.49    0.71
   1  -1   8   14.50    0.61
   1  -1   8   15.01    0.74
  -2   1  -8   15.81    0.71
  -2   1  -8   17.39    0.70
  -2   1  -8   16.38    0.70
  -2   1  -8   15.68    0.73
  -2   1  -8   15.72    0.76
  -2   1  -8   15.39    0.64
  -2   1  -8   15.08    0.65
   2  -1   8   17.19    0.70
   2  -1   8   15.90    0.69
   2  -1   8   17.71    0.80
   2  -1   8   15.42    0.76
   2  -1   8   15.01    0.78
  -3   1  -8    1.14    0.30
  -3   1  -8    1.00    0.28
  -3   1  -8    1.16    0.30
  -3   1  -8    0.94    0.30
  -3   1  -8    1.03    0.28
  -3   1  -8    0.91    0.25
  -3   1  -8    1.00    0.32
   3  -1   8    1.08    0.40
   3  -1   8    0.94    0.32
   3  -1   8    0.70    0.29
  -4   1  -8   10.83    0.73
  -4   1  -8    9.48    0.62
  -4   1  -8    9.40    0.67
  -4   1  -8   10.54    0.70
  -4   1  -8    9.61    0.67
  -4   1  -8    9.98    0.66
   4  -1   8   11.33    0.69
   4  -1   8    8.96    0.71
  -5   1  -8    1.00    0.39
  -5   1  -8    0.40    0.32
  -5   1  -8    0.00    0.27
  -5   1  -8    0.71    0.36
   5  -1   8    0.62    0.42
   5  -1   8    0.62    0.42
  -6   1  -8   -0.29    0.28
  -6   1  -8    0.31    0.45
  -6   1  -8    0.12    0.32
   6  -1   8    0.40    0.46
   6  -1   8   -0.55    0.41
  -7   1  -8    0.16    0.48
  -7   1  -8   -0.17    0.31
  -7   1  -8    0.25    0.35
   7  -1   8   -0.92    0.43
   7  -1   8   -0.19    0.49
   7   0  -8    0.46    0.45
  -7   0   8   -0.05    0.37
  -7   0   8    0.46    0.41
  -7   0   8    1.20    0.75
   6   0  -8   -0.10    0.24
   6   0  -8    0.00    0.35
  -6   0   8    0.16    0.36
  -6   0   8    0.05    0.33
  -6   0   8    0.04    0.57
   5   0  -8    0.99    0.44
   5   0  -8    0.27    0.25
  -5   0   8    0.46    0.48
  -5   0   8    0.69    0.35
  -5   0   8    0.56    0.38
   4   0  -8    4.42    0.57
   4   0  -8    6.10    0.60
   4   0  -8    5.37    0.51
  -4   0   8    5.52    0.62
  -4   0   8    5.53    0.69
  -4   0   8    5.05    0.59
   3   0  -8   13.69    0.76
   3   0  -8   14.36    0.69
   3   0  -8   13.99    0.74
   3   0  -8   14.73    0.62
  -3   0   8   15.63    0.61
  -3   0   8   16.11    0.78
  -3   0   8   15.25    0.78
  -3   0   8   14.15    0.80
  -3   0   8   14.77    0.84
   2   0  -8    3.97    0.20
   2   0  -8    3.07    0.42
   2   0  -8    3.37    0.38
   2   0  -8    4.48    0.47
   2   0  -8    4.23    0.42
   2   0  -8    3.72    0.15
  -2   0   8    3.24    0.41
  -2   0   8    4.89    0.43
  -2   0   8    4.06    0.42
  -2   0   8    4.95    0.52
  -2   0   8    4.23    0.49
   1   0  -8   42.23    1.22
   1   0  -8   42.21    1.16
   1   0  -8   41.97    1.15
   1   0  -8   41.72    1.26
   1   0  -8   42.50    1.19
   1   0  -8   43.14    1.23
   1   0  -8   42.63    0.94
   1   0  -8   42.08    0.95
  -1   0   8   41.57    1.16
  -1   0   8   43.87    1.20
  -1   0   8   44.26    0.97
  -1   0   8   43.10    1.12
  -1   0   8   45.40    1.25
  -1   0   8   42.64    1.27
   0   0  -8   67.29    1.59
   0   0  -8   66.06    1.67
   0   0  -8   68.68    1.58
   0   0  -8   68.44    1.65
   0   0  -8   65.27    1.61
   0   0  -8   68.36    1.47
   0   0  -8   68.20    1.56
   0   0  -8   65.97    1.45
   0   0   8   67.08    1.69
   0   0   8   66.74    1.62
   0   0   8   65.94    1.62
   0   0   8   66.37    1.47
   0   0   8   67.87    1.46
   0   0   8   67.93    1.50
  -1   0  -8    5.40    0.39
  -1   0  -8    5.05    0.31
  -1   0  -8    5.81    0.44
  -1   0  -8    5.42    0.38
  -1   0  -8    5.53    0.37
  -1   0  -8    5.35    0.45
  -1   0  -8    5.42    0.43
  -1   0  -8    5.32    0.35
   1   0   8    4.95    0.29
   1   0   8    5.23    0.38
   1   0   8    4.78    0.33
   1   0   8    5.38    0.43
   1   0   8    5.24    0.49
   1   0   8    5.26    0.46
  -2   0  -8   29.95    0.83
  -2   0  -8   28.24    0.93
  -2   0  -8   29.36    0.94
  -2   0  -8   29.63    1.00
  -2   0  -8   27.54    0.97
  -2   0  -8   28.56    0.95
  -2   0  -8   28.24    0.93
  -2   0  -8   29.82    0.94
   2   0   8   29.69    0.95
   2   0   8   28.92    0.98
   2   0   8   28.26    1.01
  -3   0  -8   11.56    0.62
  -3   0  -8   10.64    0.61
  -3   0  -8   11.84    0.65
  -3   0  -8   11.17    0.59
  -3   0  -8   11.77    0.63
  -3   0  -8   11.34    0.63
  -3   0  -8   11.52    0.55
  -3   0  -8   10.48    0.64
   3   0   8   10.88    0.64
   3   0   8   10.43    0.61
   3   0   8   10.24    0.69
  -4   0  -8    0.73    0.29
  -4   0  -8    0.26    0.22
  -4   0  -8    0.50    0.27
  -4   0  -8    0.80    0.29
  -4   0  -8    0.74    0.32
  -4   0  -8    0.54    0.28
   4   0   8    0.67    0.26
   4   0   8    0.45    0.33
   4   0   8    0.95    0.38
  -5   0  -8    0.73    0.30
  -5   0  -8    1.53    0.38
  -5   0  -8    0.72    0.31
  -5   0  -8    0.72    0.38
   5   0   8    1.11    0.40
   5   0   8    1.20    0.41
  -6   0  -8    0.45    0.39
  -6   0  -8   -0.04    0.31
  -6   0  -8    0.35    0.30
  -6   0  -8    0.39    0.31
   6   0   8    0.51    0.44
   6   0   8   -0.04    0.42
  -7   0  -8    0.08    0.31
  -7   0  -8   -0.08    0.43
  -7   0  -8    0.67    0.35
   7   0   8   -0.63    0.44
   7   0   8   -0.53    0.41
   6  -1  -8    6.37    0.82
  -6   1   8    5.72    0.72
  -6   1   8    6.42    0.73
  -6   1   8    7.04    1.00
   5  -1  -8    2.70    0.60
  -5   1   8    1.45    0.44
  -5   1   8    1.78    0.65
  -5   1   8    1.86    0.47
   4  -1  -8   21.69    0.98
   4  -1  -8   20.29    1.04
  -4   1   8   20.63    1.04
  -4   1   8   20.98    0.99
  -4   1   8   20.98    0.98
  -4   1   8   22.65    1.19
   3  -1  -8    0.01    0.23
   3  -1  -8   -0.16    0.20
   3  -1  -8    0.10    0.14
   3  -1  -8    0.14    0.27
  -3   1   8   -0.15    0.24
  -3   1   8    0.16    0.34
  -3   1   8   -0.07    0.29
   2  -1  -8    6.08    0.51
   2  -1  -8    6.71    0.56
   2  -1  -8    5.13    0.30
   2  -1  -8    5.53    0.22
   2  -1  -8    5.61    0.45
   2  -1  -8    6.48    0.59
  -2   1   8    5.70    0.44
  -2   1   8    5.52    0.56
  -2   1   8    6.18    0.57
  -2   1   8    7.03    0.54
  -2   1   8    5.73    0.44
   1  -1  -8   64.10    1.59
   1  -1  -8   62.57    1.58
   1  -1  -8   60.07    1.54
   1  -1  -8   62.14    1.35
   1  -1  -8   62.95    1.58
   1  -1  -8   61.83    1.65
   1  -1  -8   62.08    1.29
   1  -1  -8   63.04    1.55
  -1   1   8   63.35    1.56
  -1   1   8   60.93    1.64
  -1   1   8   64.83    1.60
  -1   1   8   63.21    1.43
  -1   1   8   64.88    1.61
   0  -1  -8    5.18    0.38
   0  -1  -8    4.38    0.41
   0  -1  -8    5.28    0.40
   0  -1  -8    5.19    0.46
   0  -1  -8    4.48    0.42
   0  -1  -8    4.46    0.32
   0  -1  -8    4.92    0.46
   0  -1  -8    4.23    0.30
   0   1   8    4.77    0.46
   0   1   8    4.28    0.45
   0   1   8    4.43    0.29
   0   1   8    5.06    0.44
   0   1   8    4.57    0.37
  -1  -1  -8    8.05    0.50
  -1  -1  -8    7.78    0.32
  -1  -1  -8    8.46    0.50
  -1  -1  -8    7.95    0.51
  -1  -1  -8    8.06    0.45
  -1  -1  -8    8.11    0.41
  -1  -1  -8    7.96    0.48
  -1  -1  -8    7.97    0.47
   1   1   8    7.40    0.36
   1   1   8    8.37    0.55
   1   1   8    8.69    0.56
   1   1   8    7.94    0.47
   1   1   8    7.69    0.44
   1   1   8    8.62    0.34
  -2  -1  -8   11.35    0.57
  -2  -1  -8   12.82    0.59
  -2  -1  -8   11.20    0.57
  -2  -1  -8   12.68    0.44
  -2  -1  -8   12.86    0.58
  -2  -1  -8   10.75    0.59
  -2  -1  -8   11.39    0.58
  -2  -1  -8   11.48    0.60
   2   1   8   12.08    0.60
   2   1   8   12.24    0.53
   2   1   8   12.88    0.64
   2   1   8   11.32    0.65
  -3  -1  -8    0.19    0.21
  -3  -1  -8    0.18    0.23
  -3  -1  -8    0.20    0.21
  -3  -1  -8    0.30    0.16
  -3  -1  -8    0.01    0.16
  -3  -1  -8    0.21    0.25
  -3  -1  -8    0.41    0.22
  -3  -1  -8    0.12    0.26
   3   1   8    0.16    0.21
   3   1   8    0.06    0.22
   3   1   8    0.28    0.24
   3   1   8    0.08    0.27
  -4  -1  -8   28.29    1.06
  -4  -1  -8   29.58    1.06
  -4  -1  -8   27.18    1.04
  -4  -1  -8   26.53    0.88
  -4  -1  -8   28.47    1.11
  -4  -1  -8   27.75    0.96
  -4  -1  -8   25.04    0.95
   4   1   8   25.55    1.04
   4   1   8   27.70    0.91
   4   1   8   26.79    1.05
  -5  -1  -8   -0.08    0.28
  -5  -1  -8   -0.21    0.20
  -5  -1  -8   -0.28    0.19
  -5  -1  -8    0.73    0.36
  -5  -1  -8    0.02    0.23
   5   1   8   -0.09    0.31
   5   1   8    0.06    0.37
  -6  -1  -8    1.70    0.36
  -6  -1  -8    1.48    0.37
  -6  -1  -8    1.69    0.42
  -6  -1  -8    0.96    0.46
   6   1   8    0.54    0.41
   6   1   8    1.57    0.51
  -7  -1  -8    2.03    0.42
  -7  -1  -8    2.40    0.44
  -7  -1  -8    3.70    0.67
   7   1   8    2.99    0.63
   7   1   8    2.18    0.61
   6  -2  -8    3.96    0.73
  -6   2   8    2.93    0.60
  -6   2   8    3.18    0.84
  -6   2   8    2.83    0.58
   5  -2  -8   10.26    0.97
  -5   2   8    8.42    0.81
  -5   2   8    8.84    0.95
  -5   2   8    6.96    0.76
   4  -2  -8    0.98    0.26
   4  -2  -8    0.93    0.37
   4  -2  -8    1.27    0.42
  -4   2   8    1.18    0.43
  -4   2   8    1.67    0.42
  -4   2   8    0.43    0.45
   3  -2  -8   15.29    0.81
   3  -2  -8   14.09    0.82
   3  -2  -8   14.54    0.84
   3  -2  -8   15.87    0.63
  -3   2   8   14.47    0.86
  -3   2   8   14.64    0.76
  -3   2   8   14.35    0.80
  -3   2   8   14.96    0.90
   2  -2  -8   17.73    0.84
   2  -2  -8   16.40    0.48
   2  -2  -8   17.46    0.84
   2  -2  -8   18.25    0.80
   2  -2  -8   17.24    0.62
   2  -2  -8   16.63    0.76
  -2   2   8   17.56    0.71
  -2   2   8   15.60    0.73
  -2   2   8   17.08    0.85
  -2   2   8   17.00    0.80
   1  -2  -8    0.12    0.24
   1  -2  -8   -0.09    0.18
   1  -2  -8   -0.07    0.19
   1  -2  -8    0.20    0.13
   1  -2  -8    0.27    0.19
   1  -2  -8    0.15    0.15
   1  -2  -8   -0.03    0.21
  -1   2   8   -0.02    0.15
  -1   2   8    0.04    0.26
  -1   2   8    0.35    0.28
  -1   2   8    0.10    0.26
  -1   2   8    0.16    0.23
   0  -2  -8    9.72    0.48
   0  -2  -8    8.61    0.58
   0  -2  -8    9.22    0.49
   0  -2  -8    8.94    0.51
   0  -2  -8    8.98    0.49
   0  -2  -8    9.09    0.52
   0  -2  -8    9.00    0.43
   0  -2  -8    9.40    0.53
   0   2   8    9.24    0.57
   0   2   8    9.10    0.52
   0   2   8    9.06    0.61
   0   2   8    9.13    0.35
  -1  -2  -8   17.89    0.72
  -1  -2  -8   17.98    0.67
  -1  -2  -8   19.10    0.61
  -1  -2  -8   17.86    0.75
  -1  -2  -8   18.71    0.72
  -1  -2  -8   17.97    0.71
  -1  -2  -8   18.25    0.72
  -1  -2  -8   19.30    0.73
   1   2   8   18.12    0.61
   1   2   8   18.38    0.41
   1   2   8   17.89    0.76
   1   2   8   18.24    0.68
   1   2   8   18.57    0.78
  -2  -2  -8   21.58    0.79
  -2  -2  -8   21.19    0.81
  -2  -2  -8   21.59    0.76
  -2  -2  -8   22.26    0.81
  -2  -2  -8   22.66    0.50
  -2  -2  -8   22.76    0.82
  -2  -2  -8   22.41    0.79
  -2  -2  -8   21.33    0.81
   2   2   8   21.93    0.81
   2   2   8   21.52    0.88
  -3  -2  -8    0.00    0.19
  -3  -2  -8    0.49    0.25
  -3  -2  -8    0.42    0.13
  -3  -2  -8    0.05    0.21
  -3  -2  -8    0.11    0.25
  -3  -2  -8    0.05    0.15
  -3  -2  -8    0.02    0.16
  -3  -2  -8    0.18    0.21
   3   2   8    0.38    0.29
   3   2   8    0.07    0.22
   3   2   8    0.34    0.19
   3   2   8    0.31    0.23
  -4  -2  -8   43.57    1.35
  -4  -2  -8   43.88    1.26
  -4  -2  -8   43.19    1.37
  -4  -2  -8   45.22    1.14
  -4  -2  -8   42.55    1.38
  -4  -2  -8   50.44    1.73
  -4  -2  -8   43.80    1.22
  -4  -2  -8   43.25    1.38
   4   2   8   42.72    1.38
   4   2   8   44.47    1.35
  -5  -2  -8   12.72    0.77
  -5  -2  -8   13.55    0.68
  -5  -2  -8   14.34    0.86
  -5  -2  -8   12.82    0.66
  -5  -2  -8   12.40    0.78
  -5  -2  -8   13.37    0.68
   5   2   8   12.50    0.81
   5   2   8   14.51    0.85
  -6  -2  -8    0.72    0.39
  -6  -2  -8    0.75    0.27
  -6  -2  -8    1.00    0.41
  -6  -2  -8    0.95    0.38
  -6  -2  -8    0.52    0.28
   6   2   8    1.73    0.51
   6   2   8    0.56    0.42
  -7  -2  -8    4.37    0.73
  -7  -2  -8    4.21    0.49
  -7  -2  -8    4.27    0.51
   7   2   8    3.74    0.67
   7   2   8    5.33    0.71
   6  -3  -8    0.52    0.49
  -6   3   8    0.36    0.47
  -6   3   8    0.12    0.69
  -6   3   8    0.59    0.48
   5  -3  -8   22.52    1.29
  -5   3   8   23.73    1.23
  -5   3   8   23.69    1.33
  -5   3   8   25.65    1.43
   4  -3  -8   40.62    1.52
   4  -3  -8   39.98    1.23
   4  -3  -8   36.47    1.51
  -4   3   8   40.27    1.51
  -4   3   8   39.04    1.60
  -4   3   8   38.23    1.53
   3  -3  -8    0.45    0.24
   3  -3  -8    0.61    0.32
   3  -3  -8   -0.05    0.25
   3  -3  -8    0.30    0.31
  -3   3   8   -0.52    0.30
  -3   3   8   -0.02    0.36
  -3   3   8    0.63    0.42
   2  -3  -8   22.54    1.03
   2  -3  -8   22.22    0.94
   2  -3  -8   23.84    0.83
   2  -3  -8   23.74    0.96
   2  -3  -8   22.05    0.97
  -2   3   8   24.40    1.06
  -2   3   8   22.51    1.02
  -2   3   8   21.82    0.97
   1  -3  -8   36.31    1.24
   1  -3  -8   36.32    1.17
   1  -3  -8   35.33    1.15
   1  -3  -8   35.92    1.16
   1  -3  -8   36.81    0.95
   1  -3  -8   35.61    1.12
   1  -3  -8   33.77    1.03
  -1   3   8   35.99    0.96
  -1   3   8   36.99    1.10
  -1   3   8   37.79    1.28
  -1   3   8   36.02    1.17
  -1   3   8   34.99    1.21
  -1   3   8   37.19    1.17
   0  -3  -8    3.27    0.45
   0  -3  -8    2.59    0.32
   0  -3  -8    3.72    0.41
   0  -3  -8    2.36    0.35
   0  -3  -8    2.68    0.36
   0  -3  -8    2.74    0.32
   0  -3  -8    3.24    0.31
   0  -3  -8    2.89    0.36
   0   3   8    2.74    0.41
   0   3   8    2.51    0.39
   0   3   8    3.05    0.44
   0   3   8    2.93    0.36
   0   3   8    3.19    0.21
   0   3   8    3.39    0.42
  -1  -3  -8    0.64    0.21
  -1  -3  -8    0.90    0.25
  -1  -3  -8    0.89    0.20
  -1  -3  -8    0.72    0.24
  -1  -3  -8    0.89    0.28
  -1  -3  -8    1.13    0.23
  -1  -3  -8    0.88    0.24
  -1  -3  -8    0.82    0.26
  -1  -3  -8    1.13    0.26
   1   3   8    0.93    0.30
   1   3   8    0.55    0.29
   1   3   8    1.06    0.35
   1   3   8    0.99    0.25
  -2  -3  -8    1.59    0.28
  -2  -3  -8    2.09    0.33
  -2  -3  -8    2.01    0.29
  -2  -3  -8    1.49    0.29
  -2  -3  -8    2.11    0.34
  -2  -3  -8    1.26    0.30
  -2  -3  -8    1.99    0.31
   2   3   8    1.75    0.32
   2   3   8    1.41    0.37
   2   3   8    1.76    0.36
   2   3   8    1.56    0.23
  -3  -3  -8   -0.03    0.24
  -3  -3  -8    0.17    0.26
  -3  -3  -8    0.00    0.19
  -3  -3  -8    0.15    0.08
  -3  -3  -8    0.03    0.15
  -3  -3  -8   -0.01    0.21
  -3  -3  -8    0.19    0.07
  -3  -3  -8    0.21    0.20
  -3  -3  -8   -0.16    0.18
   3   3   8    0.39    0.29
   3   3   8    0.43    0.34
   3   3   8   -0.29    0.15
   3   3   8    0.12    0.23
  -4  -3  -8    8.42    0.57
  -4  -3  -8    8.22    0.52
  -4  -3  -8    7.45    0.57
  -4  -3  -8    8.60    0.50
  -4  -3  -8    8.43    0.39
  -4  -3  -8    8.23    0.58
  -4  -3  -8    8.57    0.48
  -4  -3  -8    8.95    0.64
   4   3   8    8.56    0.68
   4   3   8    8.15    0.59
  -5  -3  -8   -0.27    0.25
  -5  -3  -8    0.44    0.22
  -5  -3  -8    0.02    0.25
  -5  -3  -8    0.45    0.30
  -5  -3  -8    0.06    0.19
   5   3   8    0.29    0.31
   5   3   8    0.68    0.36
  -6  -3  -8    1.11    0.38
  -6  -3  -8    0.44    0.34
  -6  -3  -8    1.06    0.28
  -6  -3  -8    0.64    0.37
  -6  -3  -8    0.40    0.24
   6   3   8    0.20    0.40
   6   3   8    0.76    0.43
  -7  -3  -8    1.02    0.32
  -7  -3  -8    0.59    0.41
  -7  -3  -8    0.38    0.44
   7   3   8    0.24    0.48
  -8  -3  -8    0.02    0.27
  -8  -3  -8   -0.74    0.42
  -8  -3  -8   -0.22    0.38
   8   3   8   -0.24    0.48
   5  -4  -8    2.36    0.62
  -5   4   8    2.22    0.72
  -5   4   8    1.08    0.49
  -5   4   8    2.09    0.61
   4  -4  -8    0.86    0.34
   4  -4  -8    0.55    0.39
   4  -4  -8    1.42    0.49
  -4   4   8    1.86    0.54
  -4   4   8    0.81    0.55
  -4   4   8    1.25    0.46
   3  -4  -8    4.98    0.65
   3  -4  -8    4.08    0.60
   3  -4  -8    4.62    0.53
   3  -4  -8    4.67    0.59
  -3   4   8    4.87    0.63
  -3   4   8    5.67    0.76
  -3   4   8    4.18    0.64
   2  -4  -8   11.29    0.79
   2  -4  -8   11.99    0.78
   2  -4  -8   11.68    0.72
   2  -4  -8   13.19    0.76
   2  -4  -8   11.57    0.66
  -2   4   8   12.86    0.85
  -2   4   8   12.07    0.76
  -2   4   8   11.28    0.83
   1  -4  -8    1.54    0.32
   1  -4  -8    0.89    0.36
   1  -4  -8    1.74    0.36
   1  -4  -8    1.55    0.34
   1  -4  -8    1.52    0.34
  -1   4   8    1.93    0.39
  -1   4   8    1.57    0.43
  -1   4   8    1.74    0.41
  -1   4   8    1.77    0.35
  -1   4   8    1.64    0.43
   0  -4  -8   20.77    0.87
   0  -4  -8   22.26    0.85
   0  -4  -8   20.62    0.82
   0  -4  -8   21.35    0.94
   0  -4  -8   20.70    0.87
   0  -4  -8   22.72    0.83
   0   4   8   20.58    0.56
   0   4   8   19.43    0.81
   0   4   8   21.60    0.88
   0   4   8   20.57    0.91
   0   4   8   20.50    0.91
   0   4   8   20.98    0.91
   0   4   8   21.03    0.56
  -1  -4  -8    1.27    0.28
  -1  -4  -8    1.64    0.25
  -1  -4  -8    0.90    0.29
  -1  -4  -8    1.33    0.25
  -1  -4  -8    0.73    0.21
  -1  -4  -8    0.62    0.28
  -1  -4  -8    1.41    0.28
  -1  -4  -8    1.38    0.31
  -1  -4  -8    1.68    0.32
   1   4   8    0.80    0.26
   1   4   8    1.31    0.40
   1   4   8    0.66    0.31
   1   4   8    0.97    0.35
  -2  -4  -8   12.90    0.57
  -2  -4  -8   11.69    0.60
  -2  -4  -8   12.21    0.59
  -2  -4  -8   12.68    0.63
  -2  -4  -8   11.62    0.65
  -2  -4  -8   12.38    0.63
  -2  -4  -8   12.44    0.65
  -2  -4  -8   12.23    0.65
   2   4   8   11.59    0.80
   2   4   8   11.27    0.70
   2   4   8   11.97    0.62
  -3  -4  -8   15.51    0.71
  -3  -4  -8   15.67    0.66
  -3  -4  -8   16.23    0.69
  -3  -4  -8   15.61    0.74
  -3  -4  -8   17.07    0.79
  -3  -4  -8   16.14    0.76
  -3  -4  -8   15.38    0.67
   3   4   8   16.42    0.93
   3   4   8   16.48    0.68
   3   4   8   17.21    0.84
   3   4   8   17.15    0.65
  -4  -4  -8    5.26    0.44
  -4  -4  -8    5.86    0.49
  -4  -4  -8    5.31    0.56
  -4  -4  -8    4.45    0.41
  -4  -4  -8    4.62    0.51
  -4  -4  -8    5.95    0.58
   4   4   8    4.61    0.55
   4   4   8    4.51    0.66
   4   4   8    5.43    0.53
  -5  -4  -8    0.86    0.37
  -5  -4  -8    0.82    0.24
  -5  -4  -8    1.55    0.38
  -5  -4  -8    0.71    0.23
  -5  -4  -8    1.47    0.37
   5   4   8    1.42    0.41
   5   4   8    0.62    0.34
   5   4   8    1.01    0.48
  -6  -4  -8    0.92    0.35
  -6  -4  -8    0.36    0.38
  -6  -4  -8    0.80    0.24
  -6  -4  -8    0.71    0.26
  -6  -4  -8    0.92    0.42
   6   4   8    0.45    0.40
   6   4   8    0.61    0.41
  -7  -4  -8    1.82    0.34
  -7  -4  -8    2.32    0.56
  -7  -4  -8    1.43    0.51
   7   4   8    1.30    0.55
  -8  -4  -8    0.78    0.46
  -8  -4  -8    0.32    0.27
   5  -5  -8    1.61    0.61
  -5   5   8    2.00    0.60
  -5   5   8    3.07    0.81
   4  -5  -8    2.24    0.48
   4  -5  -8    1.73    0.52
   4  -5  -8    3.51    0.71
  -4   5   8    2.22    0.59
  -4   5   8    2.12    0.66
   3  -5  -8    1.38    0.48
   3  -5  -8    0.86    0.43
   3  -5  -8    1.42    0.38
  -3   5   8    0.52    0.43
  -3   5   8    1.64    0.60
  -3   5   8    1.27    0.48
   2  -5  -8   15.13    0.94
   2  -5  -8   12.85    0.86
   2  -5  -8   16.03    0.87
   2  -5  -8   14.50    0.78
  -2   5   8   14.07    0.93
  -2   5   8   14.95    1.00
  -2   5   8   13.74    0.93
   1  -5  -8    0.36    0.30
   1  -5  -8    0.22    0.31
   1  -5  -8    0.20    0.27
   1  -5  -8   -0.05    0.23
   1  -5  -8    0.04    0.27
  -1   5   8   -0.45    0.36
  -1   5   8    0.51    0.34
  -1   5   8    0.43    0.31
  -1   5   8    0.22    0.36
  -1   5   8    0.18    0.19
   0  -5  -8    9.40    0.59
   0  -5  -8    9.85    0.59
   0  -5  -8    9.18    0.71
   0  -5  -8    9.78    0.62
   0  -5  -8    9.67    0.67
   0  -5  -8    9.85    0.67
   0   5   8    8.80    0.69
   0   5   8    8.86    0.68
   0   5   8   10.04    0.74
   0   5   8    9.92    0.39
   0   5   8    8.91    0.71
  -1  -5  -8   21.31    0.89
  -1  -5  -8   20.49    0.82
  -1  -5  -8   20.47    0.88
  -1  -5  -8   19.80    0.89
  -1  -5  -8   20.51    0.76
  -1  -5  -8   20.71    0.68
  -1  -5  -8   20.53    0.91
   1   5   8   21.06    0.92
   1   5   8   20.17    0.98
   1   5   8   19.13    0.93
   1   5   8   20.86    0.90
  -2  -5  -8    1.27    0.29
  -2  -5  -8    1.52    0.32
  -2  -5  -8    1.56    0.32
  -2  -5  -8    1.44    0.24
  -2  -5  -8    1.02    0.28
  -2  -5  -8    1.99    0.38
  -2  -5  -8    1.15    0.32
   2   5   8    1.24    0.41
   2   5   8    1.42    0.32
   2   5   8    1.31    0.44
  -3  -5  -8    0.15    0.28
  -3  -5  -8    0.48    0.23
  -3  -5  -8    0.33    0.24
  -3  -5  -8    0.62    0.31
  -3  -5  -8    0.42    0.26
  -3  -5  -8    0.79    0.24
  -3  -5  -8    0.59    0.27
   3   5   8    0.33    0.41
   3   5   8    0.94    0.26
   3   5   8    1.31    0.39
  -4  -5  -8   13.21    0.65
  -4  -5  -8   12.74    0.78
  -4  -5  -8   11.74    0.60
  -4  -5  -8   11.84    0.61
  -4  -5  -8   11.73    0.72
  -4  -5  -8   14.08    0.75
   4   5   8   11.09    0.74
   4   5   8   12.03    0.90
   4   5   8   12.35    0.69
  -5  -5  -8    3.22    0.36
  -5  -5  -8    2.95    0.35
  -5  -5  -8    2.59    0.43
  -5  -5  -8    2.13    0.45
  -5  -5  -8    3.01    0.43
   5   5   8    2.91    0.52
   5   5   8    2.62    0.47
   5   5   8    2.28    0.56
  -6  -5  -8    1.41    0.28
  -6  -5  -8    1.83    0.45
  -6  -5  -8    1.15    0.41
  -6  -5  -8    1.64    0.43
  -6  -5  -8    1.43    0.25
   6   5   8    1.14    0.44
   6   5   8    1.17    0.47
   6   5   8    1.26    0.58
  -7  -5  -8    1.25    0.51
  -7  -5  -8    1.32    0.29
  -7  -5  -8    1.94    0.50
   7   5   8    0.81    0.50
   4  -6  -8   -0.07    0.36
   4  -6  -8   -0.24    0.41
   4  -6  -8    1.02    0.52
  -4   6   8    0.00    0.54
  -4   6   8    0.35    0.50
   3  -6  -8    1.57    0.51
   3  -6  -8    2.15    0.49
   3  -6  -8    3.00    0.67
  -3   6   8    2.30    0.59
  -3   6   8    1.42    0.59
   2  -6  -8   11.14    0.77
   2  -6  -8    9.83    0.79
   2  -6  -8   10.30    0.89
   2  -6  -8   11.84    0.85
  -2   6   8   11.37    0.97
  -2   6   8   10.99    0.92
   1  -6  -8    0.78    0.36
   1  -6  -8    0.03    0.32
   1  -6  -8    0.60    0.35
   1  -6  -8    0.44    0.28
   1  -6  -8    0.47    0.39
   1  -6  -8    0.58    0.33
  -1   6   8   -0.09    0.36
  -1   6   8    0.31    0.35
  -1   6   8    0.87    0.41
   0  -6  -8   18.46    0.97
   0  -6  -8   17.85    0.91
   0  -6  -8   16.91    0.92
   0  -6  -8   17.97    0.82
   0  -6  -8   18.54    0.90
   0   6   8   17.80    0.96
   0   6   8   17.29    0.97
   0   6   8   17.84    1.00
  -1  -6  -8   20.18    0.91
  -1  -6  -8   18.33    0.92
  -1  -6  -8   17.79    0.77
  -1  -6  -8   17.62    0.86
  -1  -6  -8   18.66    0.90
  -1  -6  -8   17.93    0.78
   1   6   8   15.60    0.98
   1   6   8   17.26    1.01
   1   6   8   19.24    0.92
   1   6   8   18.62    0.92
  -2  -6  -8    0.47    0.27
  -2  -6  -8   -0.24    0.24
  -2  -6  -8   -0.01    0.14
  -2  -6  -8    0.28    0.27
  -2  -6  -8    0.07    0.25
  -2  -6  -8   -0.28    0.24
  -2  -6  -8    0.21    0.24
   2   6   8    0.18    0.36
   2   6   8    0.13    0.24
   2   6   8    0.02    0.43
  -3  -6  -8   18.82    0.67
  -3  -6  -8   18.57    0.80
  -3  -6  -8   18.13    0.81
  -3  -6  -8   19.53    0.85
  -3  -6  -8   18.08    0.88
  -3  -6  -8   18.05    0.93
   3   6   8   18.10    1.08
   3   6   8   18.64    0.97
  -4  -6  -8    0.01    0.33
  -4  -6  -8    0.43    0.22
  -4  -6  -8    0.20    0.23
  -4  -6  -8    0.55    0.31
  -4  -6  -8    0.15    0.23
  -4  -6  -8   -0.02    0.21
   4   6   8   -0.29    0.26
   4   6   8    0.28    0.35
   4   6   8   -0.14    0.42
  -5  -6  -8    0.18    0.20
  -5  -6  -8    0.03    0.21
  -5  -6  -8   -0.46    0.24
  -5  -6  -8   -0.17    0.35
  -5  -6  -8   -0.04    0.20
  -5  -6  -8   -0.22    0.32
   5   6   8    0.60    0.48
   5   6   8    0.55    0.37
   5   6   8    0.00    0.31
  -6  -6  -8    1.53    0.45
  -6  -6  -8    1.59    0.38
  -6  -6  -8    1.24    0.49
  -6  -6  -8    1.63    0.29
  -6  -6  -8    0.74    0.37
   6   6   8    1.28    0.57
   6   6   8    2.10    0.51
   6   6   8    0.45    0.44
  -7  -6  -8    1.66    0.47
  -7  -6  -8    1.36    0.28
  -7  -6  -8    1.89    0.51
   7   6   8    0.99    0.48
   7   6   8    1.50    0.67
   3  -7  -8    0.04    0.36
   3  -7  -8    0.41    0.45
   3  -7  -8   -0.30    0.50
  -3   7   8    1.05    0.66
  -3   7   8    1.49    0.54
   2  -7  -8   12.37    0.93
   2  -7  -8   13.21    0.94
   2  -7  -8   13.14    1.04
   2  -7  -8   11.08    0.84
  -2   7   8   12.85    1.07
  -2   7   8   13.26    1.09
   1  -7  -8   -0.03    0.26
   1  -7  -8    0.70    0.39
   1  -7  -8    0.37    0.36
   1  -7  -8   -0.08    0.39
   1  -7  -8    0.17    0.32
  -1   7   8    0.62    0.44
  -1   7   8    0.08    0.42
  -1   7   8    0.72    0.51
   0  -7  -8    0.48    0.42
   0  -7  -8    0.08    0.33
   0  -7  -8    0.67    0.38
   0  -7  -8    0.38    0.33
   0  -7  -8    0.49    0.35
   0   7   8   -0.01    0.42
   0   7   8    0.76    0.45
   0   7   8    0.49    0.41
  -1  -7  -8   27.23    1.12
  -1  -7  -8   28.84    1.04
  -1  -7  -8   27.11    1.20
  -1  -7  -8   25.27    1.16
  -1  -7  -8   28.32    1.18
   1   7   8   28.94    1.35
   1   7   8   28.99    1.18
  -2  -7  -8    3.08    0.47
  -2  -7  -8    2.96    0.42
  -2  -7  -8    3.89    0.56
  -2  -7  -8    4.30    0.54
  -2  -7  -8    3.42    0.50
   2   7   8    2.57    0.63
  -3  -7  -8    0.09    0.26
  -3  -7  -8    0.29    0.31
  -3  -7  -8    0.11    0.28
  -3  -7  -8    0.34    0.27
  -3  -7  -8    0.59    0.32
   3   7   8    0.22    0.43
   3   7   8   -0.44    0.49
  -4  -7  -8   11.79    0.69
  -4  -7  -8   11.69    0.76
  -4  -7  -8   13.03    0.88
  -4  -7  -8   11.02    0.68
  -4  -7  -8   11.36    0.69
   4   7   8   11.70    1.04
   4   7   8   10.82    0.88
  -5  -7  -8    4.45    0.46
  -5  -7  -8    3.73    0.57
  -5  -7  -8    3.47    0.63
  -5  -7  -8    3.74    0.43
  -5  -7  -8    3.79    0.51
   5   7   8    4.10    0.76
   5   7   8    3.72    0.64
   5   7   8    2.68    0.51
  -6  -7  -8    5.15    0.68
  -6  -7  -8    5.74    0.63
  -6  -7  -8    5.08    0.71
  -6  -7  -8    5.77    0.50
   6   7   8    4.25    0.81
   6   7   8    4.61    0.70
   6   7   8    5.67    0.71
  -7  -7  -8    2.04    0.33
  -7  -7  -8    1.39    0.51
  -7  -7  -8    1.79    0.54
   7   7   8    1.29    0.55
   7   7   8    1.12    0.67
   3  -8  -8   -0.19    0.44
   2  -8  -8    4.56    0.71
   2  -8  -8    5.01    0.75
   2  -8  -8    5.57    0.89
  -2   8   8    6.91    0.95
  -2   8   8    4.13    0.73
   1  -8  -8    0.61    0.40
   1  -8  -8    1.41    0.48
   1  -8  -8    0.56    0.52
  -1   8   8    0.70    0.50
  -1   8   8   -0.10    0.45
  -1   8   8    0.87    0.54
   0  -8  -8    8.93    0.81
   0  -8  -8    8.78    0.90
   0  -8  -8    8.59    0.90
   0  -8  -8    9.52    0.98
   0  -8  -8    8.02    0.80
   0   8   8    7.08    0.78
   0   8   8    8.97    0.97
  -1  -8  -8    1.91    0.53
  -1  -8  -8    2.56    0.54
  -1  -8  -8    2.14    0.51
  -1  -8  -8    2.30    0.48
  -1  -8  -8    2.38    0.51
   1   8   8    2.51    0.64
  -2  -8  -8    2.94    0.54
  -2  -8  -8    2.09    0.46
  -2  -8  -8    3.47    0.44
  -2  -8  -8    4.40    0.58
  -2  -8  -8    3.33    0.61
   2   8   8    4.00    0.71
  -3  -8  -8   16.19    0.92
  -3  -8  -8   16.17    0.85
  -3  -8  -8   18.93    1.06
  -3  -8  -8   17.57    0.93
  -3  -8  -8   16.67    0.93
   3   8   8   16.07    1.22
  -4  -8  -8   -0.05    0.30
  -4  -8  -8    0.20    0.29
  -4  -8  -8    0.65    0.40
  -4  -8  -8    0.13    0.29
   4   8   8    0.04    0.47
  -5  -8  -8    4.26    0.49
  -5  -8  -8    3.76    0.59
  -5  -8  -8    3.64    0.66
  -5  -8  -8    4.75    0.52
   5   8   8    4.71    0.89
  -6  -8  -8    9.88    0.99
  -6  -8  -8   11.10    0.97
  -6  -8  -8   10.86    0.65
   6   8   8   10.28    0.87
   6   8   8    8.73    1.12
   1  -9  -8    0.99    0.50
   1  -9  -8    1.02    0.47
   1  -9  -8    1.69    0.61
  -1   9   8    1.02    0.56
  -1   9   8    0.90    0.61
   0  -9  -8    9.51    0.96
   0  -9  -8   10.87    0.91
   0  -9  -8   10.47    0.84
   0  -9  -8    9.05    0.99
   0  -9  -8    8.50    0.89
   0   9   8   10.34    1.08
  -1  -9  -8    4.63    0.69
  -1  -9  -8    4.29    0.70
  -1  -9  -8    3.63    0.67
  -1  -9  -8    3.58    0.58
  -1  -9  -8    3.86    0.67
   1   9   8    3.61    0.79
  -2  -9  -8    0.44    0.42
  -2  -9  -8   -0.03    0.42
  -2  -9  -8    0.48    0.46
  -2  -9  -8    0.09    0.33
  -2  -9  -8    0.50    0.40
   2   9   8    0.97    0.59
  -3  -9  -8    2.86    0.64
  -3  -9  -8    3.58    0.58
  -3  -9  -8    2.47    0.57
  -3  -9  -8    2.95    0.54
  -3  -9  -8    2.54    0.55
   3   9   8    2.16    0.71
  -4  -9  -8    9.70    0.79
  -4  -9  -8   12.57    0.83
  -4  -9  -8    9.78    0.79
  -4  -9  -8   11.37    1.06
   4   9   8    9.92    1.14
  -5  -9  -8    0.56    0.34
  -5  -9  -8    0.74    0.47
  -5  -9  -8    0.40    0.30
  -5  -9  -8    1.16    0.46
   5   9   8    0.65    0.59
  -6  -9  -8   19.60    1.24
  -6  -9  -8   17.08    0.87
   6   9   8   17.56    1.48
   0 -10  -8    6.98    0.93
   0 -10  -8    6.19    0.86
   0 -10  -8    8.21    1.02
   0 -10  -8    6.48    0.77
   0  10   8    6.56    0.97
  -1 -10  -8   -0.06    0.46
  -1 -10  -8   -0.48    0.37
  -1 -10  -8    0.65    0.39
  -1 -10  -8    0.10    0.43
  -1 -10  -8   -0.28    0.39
   1  10   8    0.68    0.67
  -2 -10  -8    2.84    0.67
  -2 -10  -8    2.12    0.59
  -2 -10  -8    4.01    0.68
  -2 -10  -8    3.07    0.64
   2  10   8    2.26    0.70
  -3 -10  -8    4.15    0.81
  -3 -10  -8    4.59    0.70
  -3 -10  -8    6.15    0.76
  -3 -10  -8    4.34    0.77
   3  10   8    4.63    0.91
  -4 -10  -8    0.38    0.48
  -4 -10  -8    0.19    0.36
  -4 -10  -8    0.80    0.42
  -4 -10  -8    0.60    0.54
   4  10   8    0.21    0.68
   3   9  -9   -0.09    0.53
  -3  -9   9    0.06    0.42
  -3  -9   9   -0.16    0.46
  -3  -9   9   -0.36    0.51
   2   9  -9    6.40    0.98
  -2  -9   9    6.95    0.99
  -2  -9   9    8.92    1.00
  -2  -9   9    8.67    1.03
   1   9  -9    2.21    0.73
  -1  -9   9    2.78    0.65
  -1  -9   9    2.21    0.71
  -1  -9   9    2.83    0.80
   0   9  -9   -0.24    0.57
   0  -9   9   -0.31    0.53
   0  -9   9   -0.43    0.53
   5   8  -9    6.53    0.98
  -5  -8   9    6.05    0.78
  -5  -8   9    4.15    0.65
  -5  -8   9    4.42    0.81
   4   8  -9   12.46    1.11
  -4  -8   9   13.13    1.00
  -4  -8   9   13.22    1.01
  -4  -8   9   13.12    1.24
   3   8  -9    4.92    0.82
  -3  -8   9    7.81    0.99
  -3  -8   9    5.51    0.73
  -3  -8   9    6.26    0.82
   2   8  -9    3.86    0.76
  -2  -8   9    2.97    0.69
  -2  -8   9    4.03    0.70
  -2  -8   9    3.95    0.66
   1   8  -9    0.57    0.58
  -1  -8   9    2.28    0.64
  -1  -8   9    0.90    0.55
  -1  -8   9    1.03    0.52
   0   8  -9    5.10    0.78
   0   8  -9    4.39    0.88
   0  -8   9    3.82    0.81
   0  -8   9    4.46    0.80
  -1   8  -9    0.25    0.51
  -1   8  -9   -0.35    0.41
   1  -8   9    0.31    0.59
   1  -8   9   -0.34    0.47
  -2   8  -9    0.19    0.61
  -2   8  -9   -0.21    0.46
   2  -8   9    0.69    0.67
   2  -8   9   -0.30    0.55
   5   7  -9    5.56    0.86
  -5  -7   9    6.59    0.85
  -5  -7   9    6.06    0.74
  -5  -7   9    6.56    0.96
  -5  -7   9    4.99    0.65
   4   7  -9    2.79    0.65
  -4  -7   9    3.24    0.56
  -4  -7   9    3.15    0.60
  -4  -7   9    2.44    0.63
   3   7  -9    2.02    0.60
  -3  -7   9    1.64    0.54
  -3  -7   9    1.69    0.51
  -3  -7   9    2.09    0.51
   2   7  -9    8.72    0.97
  -2  -7   9    7.02    0.83
  -2  -7   9    8.20    0.91
  -2  -7   9    9.01    0.86
   1   7  -9    5.81    0.62
   1   7  -9    7.68    0.83
   1   7  -9    7.36    0.97
  -1  -7   9    6.65    0.78
  -1  -7   9    7.41    0.91
  -1  -7   9    6.69    0.78
   0   7  -9   -0.38    0.37
   0   7  -9    0.01    0.35
   0   7  -9    0.25    0.30
   0  -7   9    0.67    0.49
   0  -7   9    0.39    0.42
   0  -7   9    0.20    0.44
  -1   7  -9   -0.08    0.42
  -1   7  -9    0.01    0.32
   1  -7   9    0.20    0.48
   1  -7   9   -0.13    0.47
  -2   7  -9    1.81    0.58
  -2   7  -9    1.85    0.50
   2  -7   9    1.66    0.58
   2  -7   9    2.14    0.66
  -3   7  -9    0.22    0.39
  -3   7  -9   -1.17    0.40
   3  -7   9   -1.20    0.43
   3  -7   9    0.63    0.57
   6   6  -9    1.08    0.54
  -6  -6   9    1.40    0.45
  -6  -6   9    2.13    0.50
  -6  -6   9    1.22    0.72
   5   6  -9   -0.15    0.37
  -5  -6   9   -0.15    0.32
  -5  -6   9    0.71    0.41
  -5  -6   9    0.71    0.54
   4   6  -9    2.66    0.57
   4   6  -9    1.09    0.46
  -4  -6   9    1.00    0.43
  -4  -6   9    2.21    0.49
  -4  -6   9    1.41    0.51
   3   6  -9    4.27    0.64
   3   6  -9    5.01    0.71
  -3  -6   9    6.29    0.80
  -3  -6   9    5.25    0.67
  -3  -6   9    5.95    0.69
   2   6  -9    0.02    0.41
  -2  -6   9    0.22    0.44
  -2  -6   9    0.15    0.34
  -2  -6   9    0.59    0.42
  -2  -6   9    0.27    0.35
   1   6  -9    0.91    0.35
   1   6  -9    1.30    0.40
  -1  -6   9    0.90    0.43
  -1  -6   9    0.90    0.49
  -1  -6   9    0.86    0.42
   0   6  -9    2.13    0.52
   0   6  -9    2.00    0.42
   0  -6   9    1.42    0.52
   0  -6   9    1.70    0.48
   0  -6   9    1.33    0.46
  -1   6  -9    4.06    0.67
  -1   6  -9    3.02    0.50
   1  -6   9    4.95    0.73
   1  -6   9    4.96    0.77
  -2   6  -9    6.99    0.73
  -2   6  -9    7.74    0.87
   2  -6   9    7.71    0.88
   2  -6   9    7.87    0.89
  -3   6  -9   -0.67    0.31
  -3   6  -9   -0.24    0.39
   3  -6   9    0.76    0.53
   3  -6   9    0.66    0.49
  -4   6  -9    5.59    0.81
  -4   6  -9    3.44    0.76
   4  -6   9    4.28    0.79
   6   5  -9    0.63    0.43
  -6  -5   9    0.94    0.42
  -6  -5   9    0.85    0.66
  -6  -5   9    0.82    0.41
   5   5  -9   10.75    1.03
  -5  -5   9   13.71    1.10
  -5  -5   9   13.60    0.92
  -5  -5   9   13.48    0.88
   4   5  -9    0.22    0.38
   4   5  -9    0.41    0.36
  -4  -5   9    0.09    0.33
  -4  -5   9    0.52    0.48
  -4  -5   9    0.11    0.34
  -4  -5   9    0.26    0.36
   3   5  -9    4.45    0.61
   3   5  -9    5.06    0.67
  -3  -5   9    3.75    0.53
  -3  -5   9    4.72    0.63
  -3  -5   9    5.86    0.71
   2   5  -9    8.63    0.76
   2   5  -9    7.37    0.63
   2   5  -9    9.06    0.76
  -2  -5   9    7.05    0.72
  -2  -5   9    7.32    0.58
  -2  -5   9    8.08    0.78
  -2  -5   9    8.55    0.74
  -2  -5   9    7.57    0.52
   1   5  -9    4.60    0.55
   1   5  -9    5.19    0.63
  -1  -5   9    5.44    0.66
  -1  -5   9    4.36    0.48
  -1  -5   9    4.17    0.55
  -1  -5   9    4.28    0.62
   0   5  -9    3.94    0.55
   0   5  -9    4.63    0.54
   0   5  -9    4.16    0.35
   0  -5   9    5.04    0.67
   0  -5   9    3.54    0.61
   0  -5   9    3.82    0.53
  -1   5  -9    2.89    0.53
  -1   5  -9    3.30    0.52
  -1   5  -9    3.00    0.33
   1  -5   9    3.20    0.54
   1  -5   9    2.31    0.52
   1  -5   9    1.87    0.53
  -2   5  -9    0.57    0.27
  -2   5  -9    1.19    0.44
  -2   5  -9    1.05    0.36
  -2   5  -9    1.07    0.29
   2  -5   9    1.52    0.53
   2  -5   9    0.76    0.47
  -3   5  -9    0.09    0.41
  -3   5  -9    0.37    0.26
  -3   5  -9    0.29    0.41
   3  -5   9    0.34    0.43
   3  -5   9   -0.40    0.35
  -4   5  -9    2.06    0.55
  -4   5  -9    1.74    0.59
   4  -5   9    1.72    0.60
   4  -5   9    3.89    0.72
  -5   5  -9    0.08    0.45
  -5   5  -9    0.04    0.44
   6   4  -9   -0.69    0.30
   6   4  -9    0.32    0.40
  -6  -4   9   -0.26    0.51
  -6  -4   9    0.18    0.38
  -6  -4   9   -0.28    0.31
   5   4  -9   -0.25    0.37
  -5  -4   9   -0.33    0.32
  -5  -4   9   -0.17    0.34
  -5  -4   9    0.28    0.51
   4   4  -9   -0.05    0.31
  -4  -4   9    0.02    0.30
  -4  -4   9   -0.02    0.46
  -4  -4   9    0.07    0.33
  -4  -4   9    0.26    0.34
   3   4  -9   -0.01    0.28
   3   4  -9   -0.17    0.21
   3   4  -9   -0.17    0.31
  -3  -4   9   -0.44    0.37
  -3  -4   9   -0.06    0.30
  -3  -4   9   -0.21    0.30
  -3  -4   9    0.12    0.33
   2   4  -9    2.21    0.40
   2   4  -9    1.55    0.38
  -2  -4   9    2.85    0.50
  -2  -4   9    1.53    0.43
  -2  -4   9    2.05    0.29
  -2  -4   9    1.81    0.39
  -2  -4   9    1.67    0.42
  -2  -4   9    2.47    0.39
   1   4  -9   21.07    0.58
   1   4  -9   20.77    0.70
   1   4  -9   20.01    0.92
   1   4  -9   20.79    0.97
   1   4  -9   21.57    0.97
  -1  -4   9   20.23    0.80
  -1  -4   9   19.15    0.91
  -1  -4   9   21.49    0.71
  -1  -4   9   20.70    0.88
  -1  -4   9   21.55    0.97
  -1  -4   9   20.34    1.01
  -1  -4   9   19.98    0.99
   0   4  -9    6.98    0.64
   0   4  -9    6.34    0.35
   0   4  -9    6.56    0.41
   0   4  -9    7.64    0.64
   0   4  -9    7.10    0.55
   0   4  -9    5.78    0.53
   0  -4   9    6.71    0.63
   0  -4   9    7.18    0.43
   0  -4   9    7.60    0.55
   0  -4   9    7.42    0.72
   0  -4   9    5.61    0.63
   0  -4   9    7.63    0.62
   0  -4   9    8.29    0.70
  -1   4  -9    9.11    0.65
  -1   4  -9   10.56    0.54
  -1   4  -9    9.53    0.73
  -1   4  -9    8.52    0.58
  -1   4  -9    9.00    0.66
  -1   4  -9   10.44    0.49
   1  -4   9    9.61    0.81
   1  -4   9    9.69    0.76
   1  -4   9   10.60    0.72
   1  -4   9    9.14    0.70
  -2   4  -9   46.96    1.30
  -2   4  -9   47.67    1.32
  -2   4  -9   46.63    1.54
  -2   4  -9   45.49    1.64
  -2   4  -9   47.20    1.56
   2  -4   9   44.19    1.60
   2  -4   9   47.00    1.67
  -3   4  -9    1.37    0.35
  -3   4  -9    1.43    0.41
  -3   4  -9    1.61    0.47
  -3   4  -9    2.04    0.39
  -3   4  -9    1.53    0.44
   3  -4   9    1.64    0.48
   3  -4   9    1.24    0.49
  -4   4  -9   11.55    0.90
  -4   4  -9    9.82    0.73
  -4   4  -9   10.44    0.96
  -4   4  -9   12.31    0.92
   4  -4   9   11.56    0.95
   4  -4   9   10.10    0.98
  -5   4  -9    0.75    0.42
  -5   4  -9    2.06    0.60
  -5   4  -9    1.24    0.53
   5  -4   9    0.31    0.60
   7   3  -9    6.91    0.91
   6   3  -9    1.46    0.46
   6   3  -9    2.48    0.59
  -6  -3   9    1.94    0.48
  -6  -3   9    1.77    0.50
  -6  -3   9    2.40    0.74
   5   3  -9    9.47    0.82
   5   3  -9   10.61    0.77
  -5  -3   9   11.13    0.84
  -5  -3   9   12.31    1.01
  -5  -3   9    9.58    0.76
   4   3  -9    6.59    0.71
  -4  -3   9    7.66    0.82
  -4  -3   9    8.43    0.61
  -4  -3   9    8.18    0.67
  -4  -3   9    7.23    0.68
   3   3  -9    8.85    0.60
   3   3  -9    9.04    0.73
   3   3  -9    9.52    0.64
  -3  -3   9   10.66    0.74
  -3  -3   9   10.71    0.70
  -3  -3   9    9.70    0.74
  -3  -3   9    9.65    0.80
  -3  -3   9    9.01    0.65
   2   3  -9    9.88    0.65
   2   3  -9    9.33    0.66
   2   3  -9    9.68    0.44
   2   3  -9    8.79    0.61
  -2  -3   9    8.60    0.65
  -2  -3   9    9.22    0.63
  -2  -3   9    9.38    0.54
  -2  -3   9   10.18    0.46
  -2  -3   9    9.53    0.65
  -2  -3   9   10.44    0.68
  -2  -3   9    8.52    0.68
   1   3  -9    1.39    0.37
   1   3  -9    1.03    0.28
   1   3  -9    1.06    0.32
   1   3  -9    1.08    0.22
   1   3  -9    0.99    0.23
   1   3  -9    0.83    0.26
   1   3  -9    1.39    0.21
   1   3  -9    0.58    0.31
  -1  -3   9    0.59    0.31
  -1  -3   9    1.70    0.39
  -1  -3   9    0.91    0.28
  -1  -3   9    1.04    0.35
  -1  -3   9    1.44    0.33
  -1  -3   9    1.03    0.25
   0   3  -9   21.53    0.81
   0   3  -9   22.71    0.70
   0   3  -9   23.59    0.90
   0   3  -9   21.10    0.87
   0   3  -9   23.04    0.98
   0   3  -9   22.29    0.94
   0   3  -9   21.83    0.75
   0   3  -9   21.09    0.89
   0  -3   9   22.42    0.82
   0  -3   9   22.46    0.92
   0  -3   9   21.59    1.02
   0  -3   9   22.83    0.96
   0  -3   9   21.92    0.94
   0  -3   9   22.67    1.02
  -1   3  -9    2.85    0.40
  -1   3  -9    3.07    0.43
  -1   3  -9    2.99    0.35
  -1   3  -9    3.21    0.34
  -1   3  -9    3.58    0.44
  -1   3  -9    2.56    0.40
  -1   3  -9    3.54    0.51
   1  -3   9    3.42    0.46
   1  -3   9    3.81    0.54
   1  -3   9    2.79    0.48
   1  -3   9    3.51    0.45
   1  -3   9    3.32    0.51
   1  -3   9    3.26    0.40
  -2   3  -9    7.61    0.50
  -2   3  -9    7.53    0.69
  -2   3  -9    6.59    0.49
  -2   3  -9    7.74    0.97
  -2   3  -9    5.97    0.63
  -2   3  -9    6.15    0.58
  -2   3  -9    6.24    0.60
   2  -3   9    6.49    0.70
   2  -3   9    5.33    0.64
   2  -3   9    6.30    0.66
  -3   3  -9    2.12    0.43
  -3   3  -9    2.68    0.41
  -3   3  -9    1.54    0.40
  -3   3  -9    2.03    0.46
  -3   3  -9    2.03    0.39
   3  -3   9    2.01    0.51
   3  -3   9    1.47    0.49
   3  -3   9    2.44    0.51
  -4   3  -9    1.27    0.44
  -4   3  -9    1.06    0.37
  -4   3  -9    1.40    0.45
  -4   3  -9    0.61    0.34
   4  -3   9    0.72    0.42
   4  -3   9    0.35    0.49
  -5   3  -9    0.45    0.34
  -5   3  -9    0.58    0.42
  -5   3  -9    0.94    0.41
  -5   3  -9    0.21    0.40
   5  -3   9    1.60    0.59
  -6   3  -9    3.35    0.61
  -6   3  -9    3.15    0.64
  -6   3  -9    3.67    0.79
   6  -3   9    3.84    0.79
   6  -3   9    4.48    0.80
   7   2  -9    3.17    0.61
   7   2  -9    2.70    0.65
  -7  -2   9    3.18    0.57
  -7  -2   9    3.21    0.59
  -7  -2   9    3.29    0.90
   6   2  -9    2.35    0.58
   6   2  -9    3.10    0.54
  -6  -2   9    1.76    0.74
   5   2  -9    0.04    0.37
   5   2  -9    0.05    0.29
  -5  -2   9   -0.15    0.33
  -5  -2   9   -0.16    0.33
  -5  -2   9    1.02    0.54
   4   2  -9    9.21    0.65
   4   2  -9   11.08    0.82
  -4  -2   9   11.11    0.80
  -4  -2   9    8.45    0.83
  -4  -2   9    9.59    0.71
   3   2  -9    3.72    0.49
   3   2  -9    3.56    0.52
  -3  -2   9    4.11    0.45
  -3  -2   9    2.72    0.47
  -3  -2   9    3.14    0.46
  -3  -2   9    2.81    0.55
  -3  -2   9    2.69    0.43
  -3  -2   9    4.00    0.38
   2   2  -9    3.22    0.46
   2   2  -9    3.26    0.40
   2   2  -9    2.68    0.40
   2   2  -9    3.72    0.38
  -2  -2   9    3.43    0.49
  -2  -2   9    3.52    0.40
  -2  -2   9    2.44    0.38
  -2  -2   9    3.57    0.49
  -2  -2   9    2.32    0.39
  -2  -2   9    2.94    0.25
  -2  -2   9    4.38    0.49
   1   2  -9   13.29    0.65
   1   2  -9   14.01    0.58
   1   2  -9   13.06    0.52
   1   2  -9   13.46    0.61
   1   2  -9   14.90    0.76
   1   2  -9   15.13    0.68
   1   2  -9   13.32    0.71
   1   2  -9   14.79    0.75
  -1  -2   9   14.16    0.70
  -1  -2   9   13.07    0.68
  -1  -2   9   14.04    0.76
  -1  -2   9   13.83    0.54
  -1  -2   9   14.05    0.66
  -1  -2   9   14.03    0.78
  -1  -2   9   13.66    0.73
   0   2  -9    2.63    0.37
   0   2  -9    2.38    0.32
   0   2  -9    2.73    0.31
   0   2  -9    3.66    0.41
   0   2  -9    3.10    0.44
   0   2  -9    3.17    0.42
   0   2  -9    2.80    0.33
   0   2  -9    2.56    0.38
   0  -2   9    3.12    0.45
   0  -2   9    2.55    0.39
   0  -2   9    3.47    0.36
   0  -2   9    2.00    0.40
   0  -2   9    2.65    0.35
   0  -2   9    2.96    0.36
   0  -2   9    3.11    0.43
  -1   2  -9    0.54    0.27
  -1   2  -9    0.22    0.21
  -1   2  -9    0.09    0.18
  -1   2  -9    0.22    0.20
  -1   2  -9    0.12    0.23
  -1   2  -9    0.22    0.22
  -1   2  -9    0.71    0.22
   1  -2   9    0.22    0.25
   1  -2   9    0.38    0.18
   1  -2   9    0.53    0.33
   1  -2   9    0.32    0.29
   1  -2   9    0.40    0.34
   1  -2   9    0.10    0.20
   1  -2   9    0.52    0.22
  -2   2  -9    4.74    0.53
  -2   2  -9    5.00    0.49
  -2   2  -9    3.89    0.50
  -2   2  -9    5.74    0.55
  -2   2  -9    5.05    0.46
  -2   2  -9    5.24    0.47
  -2   2  -9    5.07    0.50
   2  -2   9    4.56    0.47
   2  -2   9    3.81    0.44
   2  -2   9    3.82    0.52
   2  -2   9    6.18    0.62
   2  -2   9    3.94    0.54
  -3   2  -9    3.55    0.47
  -3   2  -9    3.95    0.46
  -3   2  -9    3.78    0.48
  -3   2  -9    3.65    0.52
  -3   2  -9    3.79    0.44
  -3   2  -9    4.38    0.54
  -3   2  -9    3.28    0.49
   3  -2   9    3.75    0.57
   3  -2   9    3.19    0.52
   3  -2   9    3.66    0.53
  -4   2  -9   23.17    1.02
  -4   2  -9   26.49    1.12
  -4   2  -9   24.43    1.14
  -4   2  -9   23.91    1.14
   4  -2   9   22.92    1.15
   4  -2   9   25.36    1.12
  -5   2  -9    0.27    0.35
  -5   2  -9    0.10    0.34
  -5   2  -9    0.30    0.31
  -5   2  -9   -0.35    0.33
   5  -2   9   -0.05    0.44
   5  -2   9    0.10    0.40
  -6   2  -9    5.17    0.70
  -6   2  -9    4.19    0.78
  -6   2  -9    4.48    0.65
   6  -2   9    5.42    0.81
   6  -2   9    4.10    0.74
   6   1  -9    1.87    0.53
   6   1  -9    2.02    0.47
  -6  -1   9    1.63    0.47
  -6  -1   9    2.15    0.68
  -6  -1   9    1.71    0.48
   5   1  -9   23.65    1.22
   5   1  -9   24.80    1.05
  -5  -1   9   26.90    1.38
  -5  -1   9   24.30    1.18
  -5  -1   9   26.33    1.14
   4   1  -9    9.92    0.76
   4   1  -9   10.87    0.65
  -4  -1   9   11.68    0.79
  -4  -1   9   10.60    0.86
  -4  -1   9   10.25    0.77
   3   1  -9   28.91    1.17
   3   1  -9   29.29    1.00
   3   1  -9   30.05    1.10
  -3  -1   9   30.14    1.23
  -3  -1   9   29.59    1.12
  -3  -1   9   29.65    0.90
  -3  -1   9   30.64    0.95
  -3  -1   9   27.14    1.14
  -3  -1   9   29.45    1.11
   2   1  -9   56.99    1.66
   2   1  -9   57.86    1.47
   2   1  -9   56.64    1.62
   2   1  -9   59.06    1.53
  -2  -1   9   57.81    1.58
  -2  -1   9   59.04    1.57
  -2  -1   9   58.79    1.45
  -2  -1   9   60.06    1.65
  -2  -1   9   58.08    1.66
  -2  -1   9   59.22    1.52
   1   1  -9   19.59    0.71
   1   1  -9   18.36    0.80
   1   1  -9   18.81    0.77
   1   1  -9   18.31    0.83
   1   1  -9   18.13    0.58
   1   1  -9   19.48    0.74
   1   1  -9   18.86    0.73
   1   1  -9   19.29    0.51
   1   1  -9   19.76    0.83
  -1  -1   9   18.64    0.60
  -1  -1   9   17.88    0.75
  -1  -1   9   18.86    0.83
  -1  -1   9   17.75    0.78
  -1  -1   9   19.31    0.76
  -1  -1   9   17.54    0.75
  -1  -1   9   17.96    0.87
   0   1  -9   21.25    0.73
   0   1  -9   19.75    0.73
   0   1  -9   19.53    0.72
   0   1  -9   20.22    0.82
   0   1  -9   19.21    0.67
   0   1  -9   18.88    0.85
   0   1  -9   19.97    0.82
   0   1  -9   20.30    0.79
   0  -1   9   20.43    0.70
   0  -1   9   20.76    0.74
   0  -1   9   18.59    0.80
   0  -1   9   19.04    0.86
   0  -1   9   19.76    0.70
   0  -1   9   20.40    0.89
   0  -1   9   19.40    0.81
  -1   1  -9    9.97    0.59
  -1   1  -9    9.37    0.50
  -1   1  -9   10.80    0.54
  -1   1  -9    9.73    0.59
  -1   1  -9   10.48    0.55
  -1   1  -9   11.21    0.52
  -1   1  -9   10.20    0.63
  -1   1  -9   10.93    0.54
   1  -1   9    9.83    0.53
   1  -1   9   10.69    0.61
   1  -1   9   10.23    0.68
   1  -1   9    8.64    0.60
   1  -1   9    9.54    0.41
   1  -1   9   10.27    0.54
   1  -1   9    9.88    0.65
  -2   1  -9    0.54    0.29
  -2   1  -9    0.75    0.25
  -2   1  -9    0.49    0.25
  -2   1  -9    0.76    0.29
  -2   1  -9    0.53    0.24
  -2   1  -9    0.27    0.23
  -2   1  -9    0.77    0.23
   2  -1   9    0.37    0.24
   2  -1   9    0.98    0.27
   2  -1   9    0.12    0.28
   2  -1   9    0.29    0.33
   2  -1   9    0.56    0.32
  -3   1  -9    1.48    0.38
  -3   1  -9    1.86    0.34
  -3   1  -9    2.07    0.38
  -3   1  -9    1.01    0.31
  -3   1  -9    1.11    0.32
  -3   1  -9    1.58    0.37
  -3   1  -9    1.41    0.31
   3  -1   9    2.06    0.47
   3  -1   9    2.04    0.40
  -4   1  -9    0.65    0.33
  -4   1  -9    0.71    0.30
  -4   1  -9    0.16    0.27
  -4   1  -9   -0.16    0.22
  -4   1  -9   -0.04    0.27
  -4   1  -9    0.00    0.24
   4  -1   9   -0.42    0.35
   4  -1   9   -0.02    0.26
  -5   1  -9    1.70    0.40
  -5   1  -9    1.62    0.41
  -5   1  -9    1.50    0.48
  -5   1  -9    1.62    0.40
   5  -1   9    1.69    0.50
   5  -1   9    0.95    0.45
  -6   1  -9    1.86    0.47
  -6   1  -9    2.33    0.47
  -6   1  -9    2.62    0.66
   6  -1   9    2.05    0.62
   6  -1   9    1.55    0.60
  -7   1  -9    2.24    0.52
  -7   1  -9    2.09    0.53
  -7   1  -9    1.74    0.68
   7  -1   9    1.81    0.67
   7  -1   9    2.37    0.66
   6   0  -9    2.39    0.58
  -6   0   9    2.08    0.50
  -6   0   9    3.61    0.84
  -6   0   9    2.17    0.56
   5   0  -9    2.55    0.54
  -5   0   9    2.07    0.62
  -5   0   9    1.71    0.43
  -5   0   9    2.19    0.51
   4   0  -9   14.56    0.72
   4   0  -9   13.60    0.88
   4   0  -9   15.88    0.84
  -4   0   9   15.24    0.93
  -4   0   9   14.54    0.97
  -4   0   9   16.27    0.89
   3   0  -9   -0.11    0.21
   3   0  -9   -0.15    0.23
   3   0  -9   -0.21    0.25
  -3   0   9    0.43    0.24
  -3   0   9    0.30    0.32
  -3   0   9    0.00    0.23
  -3   0   9    0.41    0.32
  -3   0   9    0.25    0.38
   2   0  -9    1.24    0.33
   2   0  -9    1.02    0.14
   2   0  -9    1.12    0.34
   2   0  -9    1.40    0.30
   2   0  -9    1.27    0.12
   2   0  -9    0.75    0.25
  -2   0   9    1.13    0.33
  -2   0   9    0.63    0.34
  -2   0   9    1.08    0.27
  -2   0   9    0.89    0.34
  -2   0   9    1.52    0.33
   1   0  -9   16.21    0.68
   1   0  -9   18.35    0.75
   1   0  -9   16.41    0.75
   1   0  -9   15.61    0.51
   1   0  -9   16.24    0.69
   1   0  -9   16.28    0.50
   1   0  -9   16.79    0.75
   1   0  -9   15.65    0.77
  -1   0   9   16.09    0.74
  -1   0   9   16.07    0.70
  -1   0   9   16.81    0.67
  -1   0   9   16.24    0.80
  -1   0   9   15.22    0.72
   0   0  -9    4.72    0.34
   0   0  -9    5.41    0.35
   0   0  -9    5.65    0.46
   0   0  -9    4.68    0.42
   0   0  -9    4.72    0.41
   0   0  -9    4.21    0.44
   0   0  -9    5.10    0.40
   0   0  -9    4.06    0.46
   0   0   9    5.10    0.49
   0   0   9    4.92    0.36
   0   0   9    5.64    0.53
   0   0   9    5.67    0.50
   0   0   9    5.04    0.42
   0   0   9    5.28    0.37
  -1   0  -9   17.03    0.69
  -1   0  -9   17.06    0.65
  -1   0  -9   16.75    0.78
  -1   0  -9   16.38    0.67
  -1   0  -9   16.41    0.74
  -1   0  -9   17.15    0.59
  -1   0  -9   14.90    0.70
  -1   0  -9   16.35    0.66
   1   0   9   16.09    0.78
   1   0   9   16.49    0.65
   1   0   9   16.63    0.70
   1   0   9   15.67    0.51
   1   0   9   16.73    0.60
   1   0   9   15.27    0.75
  -2   0  -9    2.48    0.37
  -2   0  -9    1.96    0.31
  -2   0  -9    2.38    0.29
  -2   0  -9    2.07    0.35
  -2   0  -9    2.31    0.37
  -2   0  -9    1.97    0.35
  -2   0  -9    2.11    0.35
   2   0   9    2.23    0.35
   2   0   9    2.41    0.40
   2   0   9    1.64    0.38
  -3   0  -9    1.47    0.28
  -3   0  -9    1.06    0.34
  -3   0  -9    1.08    0.29
  -3   0  -9    1.26    0.31
  -3   0  -9    1.44    0.31
  -3   0  -9    1.78    0.33
  -3   0  -9    1.62    0.34
   3   0   9    1.39    0.40
   3   0   9    1.02    0.31
  -4   0  -9   12.56    0.74
  -4   0  -9   11.51    0.70
  -4   0  -9   13.56    0.76
  -4   0  -9   11.34    0.70
  -4   0  -9   13.08    0.66
  -4   0  -9   12.77    0.78
   4   0   9   12.74    0.72
   4   0   9   12.42    0.78
   4   0   9   10.73    0.76
  -5   0  -9    0.05    0.32
  -5   0  -9   -0.04    0.25
  -5   0  -9    0.13    0.27
  -5   0  -9   -0.31    0.30
   5   0   9   -0.57    0.36
   5   0   9    0.08    0.34
  -6   0  -9   -0.05    0.39
  -6   0  -9   -0.18    0.27
  -6   0  -9    0.14    0.30
   6   0   9    0.26    0.46
   6   0   9   -0.11    0.42
  -7   0  -9    1.17    0.54
  -7   0  -9    1.00    0.40
  -7   0  -9    1.36    0.44
   7   0   9    2.03    0.66
   7   0   9    2.14    0.66
   6  -1  -9    1.79    0.53
  -6   1   9    1.18    0.65
  -6   1   9    1.67    0.54
  -6   1   9    1.10    0.49
   5  -1  -9    4.39    0.65
  -5   1   9    5.59    0.71
  -5   1   9    6.73    0.90
  -5   1   9    5.21    0.65
   4  -1  -9    0.19    0.27
   4  -1  -9    1.26    0.40
  -4   1   9    1.02    0.42
  -4   1   9    1.22    0.54
  -4   1   9    0.65    0.38
   3  -1  -9    5.19    0.32
   3  -1  -9    5.53    0.55
   3  -1  -9    5.25    0.61
   3  -1  -9    6.45    0.66
  -3   1   9    5.77    0.69
  -3   1   9    5.53    0.55
  -3   1   9    6.22    0.54
  -3   1   9    4.68    0.61
   2  -1  -9    5.45    0.31
   2  -1  -9    5.56    0.47
   2  -1  -9    4.80    0.49
   2  -1  -9    5.55    0.58
   2  -1  -9    4.85    0.52
   2  -1  -9    5.20    0.22
  -2   1   9    5.32    0.51
  -2   1   9    4.67    0.46
  -2   1   9    5.11    0.56
  -2   1   9    4.86    0.51
  -2   1   9    5.99    0.62
   1  -1  -9    0.56    0.25
   1  -1  -9    0.33    0.14
   1  -1  -9    0.50    0.17
   1  -1  -9    0.58    0.23
   1  -1  -9    0.45    0.26
   1  -1  -9    0.27    0.22
   1  -1  -9    0.32    0.21
   1  -1  -9    0.30    0.22
  -1   1   9    0.19    0.25
  -1   1   9    0.37    0.19
  -1   1   9    0.51    0.29
  -1   1   9    0.58    0.31
  -1   1   9    0.79    0.28
   0  -1  -9   12.64    0.65
   0  -1  -9   12.91    0.53
   0  -1  -9   12.97    0.62
   0  -1  -9   13.20    0.60
   0  -1  -9   13.16    0.53
   0  -1  -9   11.92    0.62
   0  -1  -9   13.51    0.63
   0  -1  -9   13.73    0.70
   0   1   9   13.43    0.73
   0   1   9   13.19    0.66
   0   1   9   12.92    0.49
   0   1   9   13.29    0.68
   0   1   9   13.56    0.60
  -1  -1  -9    6.18    0.51
  -1  -1  -9    6.19    0.46
  -1  -1  -9    7.04    0.45
  -1  -1  -9    6.92    0.50
  -1  -1  -9    6.45    0.46
  -1  -1  -9    5.75    0.45
  -1  -1  -9    6.42    0.32
  -1  -1  -9    6.46    0.39
   1   1   9    6.38    0.36
   1   1   9    6.52    0.43
   1   1   9    6.85    0.33
   1   1   9    7.23    0.56
   1   1   9    6.67    0.55
   1   1   9    6.60    0.47
  -2  -1  -9    1.97    0.31
  -2  -1  -9    2.23    0.35
  -2  -1  -9    2.28    0.36
  -2  -1  -9    2.24    0.33
  -2  -1  -9    2.02    0.33
  -2  -1  -9    2.47    0.24
  -2  -1  -9    2.38    0.35
  -2  -1  -9    2.06    0.33
  -2  -1  -9    2.79    0.28
   2   1   9    1.60    0.37
   2   1   9    2.28    0.38
   2   1   9    1.45    0.30
   2   1   9    2.88    0.47
  -3  -1  -9   11.98    0.67
  -3  -1  -9   13.58    0.72
  -3  -1  -9   11.34    0.66
  -3  -1  -9   13.54    0.69
  -3  -1  -9   13.09    0.67
  -3  -1  -9   13.26    0.53
  -3  -1  -9   12.96    0.67
   3   1   9   13.23    0.68
   3   1   9   12.03    0.65
   3   1   9   12.53    0.68
   3   1   9   13.00    0.75
  -4  -1  -9    2.28    0.36
  -4  -1  -9    2.55    0.34
  -4  -1  -9    2.71    0.44
  -4  -1  -9    2.27    0.45
  -4  -1  -9    2.75    0.42
  -4  -1  -9    2.37    0.39
  -4  -1  -9    2.19    0.42
   4   1   9    2.16    0.43
   4   1   9    2.72    0.54
  -5  -1  -9    0.22    0.25
  -5  -1  -9    0.43    0.32
  -5  -1  -9    0.60    0.30
  -5  -1  -9    0.85    0.39
  -5  -1  -9    0.88    0.36
   5   1   9    0.49    0.38
   5   1   9    0.95    0.44
  -6  -1  -9    7.47    0.64
  -6  -1  -9    7.31    0.63
  -6  -1  -9    7.57    0.84
  -6  -1  -9    7.38    0.78
   6   1   9    4.45    0.68
   6   1   9    7.22    0.81
  -7  -1  -9    2.40    0.48
  -7  -1  -9    3.30    0.72
  -7  -1  -9    2.53    0.47
   7   1   9    2.20    0.60
   7   1   9    2.37    0.63
   6  -2  -9    2.09    0.59
  -6   2   9    1.49    0.53
  -6   2   9    3.06    0.65
  -6   2   9    0.63    0.70
   5  -2  -9    1.13    0.46
  -5   2   9    1.18    0.62
  -5   2   9    1.61    0.49
  -5   2   9    1.53    0.51
   4  -2  -9    7.30    0.79
   4  -2  -9    7.94    0.78
  -4   2   9    7.17    0.77
  -4   2   9    7.78    0.86
  -4   2   9    8.99    0.75
   3  -2  -9    0.15    0.27
   3  -2  -9    0.31    0.31
   3  -2  -9    0.27    0.19
   3  -2  -9   -0.14    0.29
  -3   2   9    0.03    0.34
  -3   2   9    0.12    0.28
  -3   2   9    0.46    0.39
  -3   2   9    0.07    0.34
   2  -2  -9    6.82    0.54
   2  -2  -9    6.30    0.29
   2  -2  -9    7.37    0.69
   2  -2  -9    6.30    0.41
   2  -2  -9    6.64    0.53
   2  -2  -9    6.23    0.62
  -2   2   9    6.67    0.68
  -2   2   9    6.55    0.64
  -2   2   9    7.61    0.67
  -2   2   9    6.65    0.48
  -2   2   9    6.68    0.60
   1  -2  -9   23.81    0.92
   1  -2  -9   26.09    0.94
   1  -2  -9   24.14    1.00
   1  -2  -9   25.69    0.71
   1  -2  -9   27.39    0.97
   1  -2  -9   24.28    0.78
   1  -2  -9   24.47    0.94
  -1   2   9   24.79    0.96
  -1   2   9   24.00    0.95
  -1   2   9   23.22    0.76
  -1   2   9   25.06    1.02
   0  -2  -9    0.36    0.22
   0  -2  -9    0.63    0.26
   0  -2  -9    0.07    0.19
   0  -2  -9    0.02    0.21
   0  -2  -9    0.15    0.21
   0  -2  -9    0.16    0.15
   0  -2  -9    0.06    0.18
   0  -2  -9    0.25    0.22
   0   2   9    0.18    0.27
   0   2   9    0.11    0.12
   0   2   9    0.32    0.29
   0   2   9   -0.04    0.21
   0   2   9    0.35    0.25
  -1  -2  -9   18.45    0.81
  -1  -2  -9   18.19    0.69
  -1  -2  -9   19.09    0.66
  -1  -2  -9   17.62    0.73
  -1  -2  -9   20.51    0.81
  -1  -2  -9   18.86    0.77
  -1  -2  -9   18.97    0.78
   1   2   9   18.84    0.65
   1   2   9   18.66    0.83
   1   2   9   18.43    0.73
   1   2   9   18.26    0.45
   1   2   9   18.21    0.82
  -2  -2  -9   -0.03    0.19
  -2  -2  -9    0.20    0.23
  -2  -2  -9    0.09    0.21
  -2  -2  -9    0.11    0.08
  -2  -2  -9   -0.04    0.20
  -2  -2  -9    0.26    0.21
  -2  -2  -9    0.22    0.18
  -2  -2  -9   -0.22    0.19
   2   2   9   -0.02    0.22
   2   2   9    0.34    0.31
   2   2   9    0.04    0.18
  -3  -2  -9    1.27    0.18
  -3  -2  -9    1.40    0.31
  -3  -2  -9    1.67    0.33
  -3  -2  -9    1.08    0.30
  -3  -2  -9    0.75    0.28
  -3  -2  -9    1.06    0.27
  -3  -2  -9    1.33    0.33
   3   2   9    0.94    0.30
   3   2   9    0.91    0.38
   3   2   9    1.09    0.31
   3   2   9    0.60    0.24
  -4  -2  -9   -0.18    0.23
  -4  -2  -9    0.09    0.22
  -4  -2  -9   -0.01    0.21
  -4  -2  -9    0.20    0.18
  -4  -2  -9    0.33    0.28
  -4  -2  -9   -0.08    0.23
  -4  -2  -9    0.44    0.29
   4   2   9   -0.19    0.31
   4   2   9    0.07    0.26
  -5  -2  -9    4.84    0.52
  -5  -2  -9    4.26    0.47
  -5  -2  -9    5.28    0.59
  -5  -2  -9    5.17    0.62
  -5  -2  -9    5.49    0.66
   5   2   9    5.17    0.66
   5   2   9    5.16    0.65
  -6  -2  -9    0.13    0.25
  -6  -2  -9   -0.10    0.31
  -6  -2  -9   -0.50    0.30
  -6  -2  -9   -0.03    0.23
  -6  -2  -9    0.15    0.36
   6   2   9    0.15    0.44
   6   2   9    0.35    0.40
  -7  -2  -9    2.08    0.40
  -7  -2  -9    2.37    0.45
  -7  -2  -9    0.85    0.49
  -7  -2  -9    1.77    0.56
   7   2   9    1.98    0.62
   7   2   9    1.95    0.62
   5  -3  -9    0.84    0.49
  -5   3   9    0.32    0.44
  -5   3   9    0.74    0.45
  -5   3   9   -0.36    0.55
   4  -3  -9   16.02    1.01
   4  -3  -9   16.19    1.03
  -4   3   9   15.25    1.01
  -4   3   9   18.07    1.13
  -4   3   9   18.17    1.23
   3  -3  -9    5.70    0.62
   3  -3  -9    5.22    0.63
   3  -3  -9    6.73    0.49
   3  -3  -9    6.65    0.71
  -3   3   9    6.02    0.72
  -3   3   9    6.31    0.60
  -3   3   9    6.66    0.71
  -3   3   9    5.28    0.69
   2  -3  -9    0.08    0.12
   2  -3  -9    0.46    0.23
   2  -3  -9   -0.21    0.20
   2  -3  -9    0.05    0.32
   2  -3  -9    0.16    0.25
   2  -3  -9    0.02    0.25
  -2   3   9    0.30    0.35
  -2   3   9    0.21    0.30
  -2   3   9    0.13    0.23
  -2   3   9    0.14    0.34
  -2   3   9    0.06    0.35
   1  -3  -9   34.16    1.13
   1  -3  -9   36.30    1.25
   1  -3  -9   34.14    1.16
   1  -3  -9   32.64    1.02
   1  -3  -9   34.85    1.18
   1  -3  -9   32.41    1.14
   1  -3  -9   32.26    0.90
  -1   3   9   33.02    1.15
  -1   3   9   33.19    1.19
  -1   3   9   33.54    0.92
  -1   3   9   30.52    1.13
   0  -3  -9    5.21    0.52
   0  -3  -9    5.97    0.45
   0  -3  -9    6.03    0.59
   0  -3  -9    6.64    0.46
   0  -3  -9    6.48    0.41
   0  -3  -9    6.74    0.50
   0  -3  -9    6.40    0.46
   0  -3  -9    6.13    0.52
   0   3   9    6.12    0.54
   0   3   9    6.70    0.61
   0   3   9    6.76    0.63
   0   3   9    5.98    0.28
   0   3   9    5.82    0.50
   0   3   9    6.32    0.56
  -1  -3  -9   15.31    0.72
  -1  -3  -9   14.69    0.58
  -1  -3  -9   16.35    0.79
  -1  -3  -9   14.76    0.72
  -1  -3  -9   15.90    0.73
  -1  -3  -9   15.61    0.67
  -1  -3  -9   15.85    0.71
  -1  -3  -9   16.49    0.66
   1   3   9   15.15    0.83
   1   3   9   14.86    0.64
   1   3   9   14.44    0.77
   1   3   9   15.32    0.77
  -2  -3  -9    0.31    0.22
  -2  -3  -9    0.48    0.25
  -2  -3  -9    0.27    0.24
  -2  -3  -9    0.64    0.22
  -2  -3  -9    0.64    0.24
  -2  -3  -9    0.70    0.28
  -2  -3  -9    0.78    0.27
   2   3   9    0.83    0.36
   2   3   9    0.51    0.26
   2   3   9    0.75    0.40
  -3  -3  -9   10.74    0.59
  -3  -3  -9   11.29    0.65
  -3  -3  -9   11.59    0.65
  -3  -3  -9   11.74    0.64
  -3  -3  -9   12.04    0.70
  -3  -3  -9   12.04    0.66
   3   3   9   10.10    0.69
   3   3   9   11.06    0.58
   3   3   9   11.76    0.59
  -4  -3  -9    8.70    0.62
  -4  -3  -9    8.79    0.62
  -4  -3  -9    8.14    0.56
  -4  -3  -9    8.66    0.54
  -4  -3  -9    7.72    0.62
  -4  -3  -9    8.42    0.64
   4   3   9    9.74    0.65
   4   3   9   10.07    0.76
  -5  -3  -9    1.01    0.27
  -5  -3  -9    1.02    0.29
  -5  -3  -9    0.42    0.33
  -5  -3  -9    0.54    0.33
  -5  -3  -9    0.83    0.34
   5   3   9    0.92    0.40
   5   3   9    0.84    0.39
  -6  -3  -9    9.56    0.63
  -6  -3  -9   10.42    0.63
  -6  -3  -9    8.22    0.83
  -6  -3  -9    9.19    0.82
  -6  -3  -9    9.14    0.88
   6   3   9    9.74    0.83
   6   3   9    9.87    0.89
  -7  -3  -9    0.30    0.28
  -7  -3  -9   -0.10    0.23
  -7  -3  -9    0.07    0.43
  -7  -3  -9   -0.10    0.39
   7   3   9    0.33    0.47
   7   3   9   -0.31    0.44
   5  -4  -9    0.09    0.46
  -5   4   9   -0.59    0.35
  -5   4   9   -0.70    0.37
  -5   4   9    0.03    0.58
   4  -4  -9   -0.18    0.33
   4  -4  -9   -0.50    0.25
   4  -4  -9    0.46    0.42
  -4   4   9   -0.08    0.43
  -4   4   9   -0.29    0.47
  -4   4   9   -0.46    0.36
   3  -4  -9    0.09    0.31
   3  -4  -9    0.64    0.38
   3  -4  -9    0.45    0.40
   3  -4  -9    0.37    0.28
  -3   4   9    0.07    0.46
  -3   4   9    0.07    0.36
  -3   4   9    0.18    0.37
   2  -4  -9   -0.04    0.25
   2  -4  -9   -0.22    0.31
   2  -4  -9    0.23    0.29
   2  -4  -9    0.42    0.30
  -2   4   9    0.20    0.39
  -2   4   9   -0.10    0.34
  -2   4   9   -0.28    0.34
   1  -4  -9    4.64    0.55
   1  -4  -9    3.60    0.49
   1  -4  -9    3.09    0.46
   1  -4  -9    3.46    0.35
   1  -4  -9    4.38    0.50
   1  -4  -9    4.12    0.55
  -1   4   9    3.49    0.47
  -1   4   9    3.91    0.35
  -1   4   9    4.26    0.51
  -1   4   9    3.98    0.55
  -1   4   9    4.04    0.60
  -1   4   9    3.60    0.53
   0  -4  -9    2.71    0.38
   0  -4  -9    2.79    0.45
   0  -4  -9    3.00    0.42
   0  -4  -9    3.12    0.34
   0  -4  -9    2.45    0.38
   0  -4  -9    2.97    0.45
   0  -4  -9    3.31    0.46
   0   4   9    3.25    0.45
   0   4   9    2.97    0.21
   0   4   9    3.17    0.50
   0   4   9    3.12    0.41
   0   4   9    2.52    0.44
   0   4   9    3.03    0.47
  -1  -4  -9   20.81    0.90
  -1  -4  -9   21.25    0.93
  -1  -4  -9   20.90    0.81
  -1  -4  -9   20.79    0.88
  -1  -4  -9   20.12    0.84
  -1  -4  -9   21.64    0.87
  -1  -4  -9   20.80    0.77
  -1  -4  -9   22.04    0.75
   1   4   9   20.37    0.99
   1   4   9   20.15    0.92
   1   4   9   20.90    0.96
   1   4   9   21.20    0.85
  -2  -4  -9    0.30    0.22
  -2  -4  -9    0.05    0.23
  -2  -4  -9    0.37    0.24
  -2  -4  -9    0.45    0.21
  -2  -4  -9    0.41    0.27
  -2  -4  -9    0.15    0.22
  -2  -4  -9    0.24    0.25
   2   4   9   -0.16    0.35
   2   4   9   -0.02    0.23
   2   4   9    0.52    0.35
  -3  -4  -9    0.16    0.21
  -3  -4  -9    0.00    0.21
  -3  -4  -9    0.07    0.22
  -3  -4  -9   -0.08    0.22
  -3  -4  -9    0.00    0.23
  -3  -4  -9    0.18    0.26
   3   4   9   -0.11    0.20
   3   4   9    0.04    0.21
   3   4   9    0.04    0.33
   3   4   9    0.33    0.38
  -4  -4  -9   12.70    0.67
  -4  -4  -9   14.22    0.75
  -4  -4  -9   13.98    0.79
  -4  -4  -9   13.59    0.76
  -4  -4  -9   13.11    0.66
   4   4   9   13.29    0.81
   4   4   9   14.57    0.73
   4   4   9   12.51    0.96
  -5  -4  -9   -0.06    0.29
  -5  -4  -9    0.32    0.33
  -5  -4  -9    0.64    0.25
  -5  -4  -9    0.22    0.22
  -5  -4  -9    0.44    0.32
   5   4   9    0.16    0.38
   5   4   9   -0.03    0.31
  -6  -4  -9    0.68    0.34
  -6  -4  -9    0.11    0.23
  -6  -4  -9    0.30    0.37
  -6  -4  -9    0.39    0.37
  -6  -4  -9    0.37    0.24
   6   4   9    0.00    0.41
   6   4   9    0.35    0.40
  -7  -4  -9    0.65    0.40
  -7  -4  -9    0.67    0.28
  -7  -4  -9    0.66    0.45
   7   4   9   -0.30    0.42
   7   4   9    0.02    0.46
   5  -5  -9    1.45    0.59
   4  -5  -9    3.09    0.53
   4  -5  -9    3.25    0.68
   4  -5  -9    3.66    0.74
  -4   5   9    1.80    0.69
  -4   5   9    1.66    0.58
   3  -5  -9    0.59    0.41
   3  -5  -9    1.35    0.48
   3  -5  -9    0.77    0.47
   3  -5  -9    0.19    0.33
  -3   5   9    0.50    0.48
  -3   5   9    0.10    0.47
   2  -5  -9    3.32    0.60
   2  -5  -9    4.52    0.54
   2  -5  -9    4.77    0.61
   2  -5  -9    4.20    0.58
  -2   5   9    5.62    0.72
  -2   5   9    4.08    0.67
   1  -5  -9   18.33    1.01
   1  -5  -9   20.19    0.99
   1  -5  -9   18.73    0.94
   1  -5  -9   21.17    0.94
   1  -5  -9   20.46    1.00
  -1   5   9   19.05    1.01
  -1   5   9   19.08    0.92
  -1   5   9   20.30    1.09
   0  -5  -9    5.72    0.56
   0  -5  -9    5.60    0.59
   0  -5  -9    5.87    0.60
   0  -5  -9    6.11    0.52
   0  -5  -9    5.52    0.60
   0  -5  -9    5.79    0.65
   0   5   9    5.62    0.66
   0   5   9    5.63    0.62
   0   5   9    6.06    0.64
   0   5   9    6.79    0.70
  -1  -5  -9    1.39    0.36
  -1  -5  -9    1.53    0.36
  -1  -5  -9    1.14    0.35
  -1  -5  -9    1.04    0.31
  -1  -5  -9    0.91    0.27
  -1  -5  -9    1.22    0.25
  -1  -5  -9    1.42    0.28
  -1  -5  -9    1.18    0.33
   1   5   9    1.12    0.38
   1   5   9    1.10    0.43
   1   5   9    1.90    0.40
   1   5   9    0.95    0.44
  -2  -5  -9    5.80    0.55
  -2  -5  -9    5.90    0.55
  -2  -5  -9    6.03    0.42
  -2  -5  -9    6.11    0.59
  -2  -5  -9    5.80    0.59
  -2  -5  -9    5.75    0.60
  -2  -5  -9    6.73    0.53
   2   5   9    5.11    0.66
   2   5   9    5.21    0.65
   2   5   9    4.75    0.50
  -3  -5  -9    3.35    0.40
  -3  -5  -9    3.15    0.43
  -3  -5  -9    2.80    0.43
  -3  -5  -9    2.75    0.39
  -3  -5  -9    3.14    0.48
  -3  -5  -9    2.82    0.47
  -3  -5  -9    3.29    0.45
   3   5   9    2.59    0.50
   3   5   9    3.14    0.63
  -4  -5  -9    1.20    0.36
  -4  -5  -9    1.59    0.32
  -4  -5  -9    1.94    0.34
  -4  -5  -9    1.08    0.27
  -4  -5  -9    2.30    0.47
  -4  -5  -9    1.88    0.42
   4   5   9    1.40    0.36
   4   5   9    0.83    0.52
   4   5   9    2.01    0.47
  -5  -5  -9    5.14    0.60
  -5  -5  -9    4.27    0.59
  -5  -5  -9    4.08    0.52
  -5  -5  -9    4.40    0.45
  -5  -5  -9    4.52    0.46
   5   5   9    3.30    0.67
   5   5   9    3.51    0.53
   5   5   9    4.13    0.63
  -6  -5  -9   14.82    0.99
  -6  -5  -9   16.51    0.71
  -6  -5  -9   18.25    1.01
  -6  -5  -9   15.47    0.92
  -6  -5  -9   17.07    0.76
   6   5   9   14.39    0.99
   6   5   9   15.38    0.97
  -7  -5  -9    0.35    0.41
  -7  -5  -9   -0.08    0.35
  -7  -5  -9    0.20    0.25
   7   5   9   -0.07    0.44
   4  -6  -9    0.24    0.37
   4  -6  -9    0.78    0.48
   4  -6  -9    0.12    0.50
  -4   6   9   -0.06    0.48
  -4   6   9    0.81    0.73
   3  -6  -9    5.67    0.85
   3  -6  -9    3.97    0.64
   3  -6  -9    3.03    0.63
  -3   6   9    3.81    0.70
  -3   6   9    2.68    0.75
   2  -6  -9    0.68    0.37
   2  -6  -9    0.30    0.32
   2  -6  -9    0.02    0.43
   2  -6  -9    0.14    0.37
  -2   6   9    0.43    0.46
  -2   6   9    0.53    0.46
   1  -6  -9    0.63    0.44
   1  -6  -9    1.19    0.39
   1  -6  -9    2.18    0.47
   1  -6  -9    0.54    0.35
   1  -6  -9    1.16    0.42
   1  -6  -9    0.96    0.31
  -1   6   9    2.27    0.50
  -1   6   9    1.09    0.50
  -1   6   9    0.99    0.46
   0  -6  -9   18.91    0.94
   0  -6  -9   20.45    1.06
   0  -6  -9   20.34    0.93
   0  -6  -9   19.67    1.01
   0  -6  -9   20.87    0.89
   0  -6  -9   19.11    0.95
   0   6   9   20.68    1.10
   0   6   9   20.07    1.06
   0   6   9   20.11    1.08
  -1  -6  -9    6.88    0.67
  -1  -6  -9    4.93    0.59
  -1  -6  -9    6.50    0.66
  -1  -6  -9    6.26    0.67
  -1  -6  -9    7.04    0.51
  -1  -6  -9    5.59    0.53
   1   6   9    6.24    0.69
   1   6   9    5.96    0.71
   1   6   9    6.33    0.73
   1   6   9    6.31    0.65
  -2  -6  -9    2.12    0.43
  -2  -6  -9    1.68    0.36
  -2  -6  -9    2.02    0.42
  -2  -6  -9    1.62    0.37
  -2  -6  -9    1.97    0.41
   2   6   9    1.81    0.63
   2   6   9    1.49    0.53
   2   6   9    1.43    0.50
  -3  -6  -9    1.12    0.32
  -3  -6  -9    1.02    0.39
  -3  -6  -9    1.61    0.41
  -3  -6  -9    0.91    0.34
  -3  -6  -9    1.34    0.27
  -3  -6  -9    0.17    0.25
   3   6   9    1.51    0.51
   3   6   9    0.07    0.40
  -4  -6  -9   12.26    0.73
  -4  -6  -9   10.94    0.66
  -4  -6  -9   13.47    0.85
  -4  -6  -9   11.93    0.63
  -4  -6  -9   12.84    0.70
  -4  -6  -9   11.73    0.82
   4   6   9   13.97    1.08
   4   6   9   10.27    0.81
  -5  -6  -9    1.43    0.32
  -5  -6  -9    2.06    0.50
  -5  -6  -9    1.54    0.32
  -5  -6  -9    0.81    0.35
  -5  -6  -9    1.40    0.47
  -5  -6  -9    1.83    0.37
   5   6   9    1.11    0.54
   5   6   9    1.57    0.47
   5   6   9    1.42    0.42
  -6  -6  -9    3.35    0.60
  -6  -6  -9    4.07    0.67
  -6  -6  -9    2.81    0.54
  -6  -6  -9    3.67    0.57
  -6  -6  -9    3.78    0.43
   6   6   9    3.06    0.77
   6   6   9    3.70    0.62
   6   6   9    3.47    0.60
  -7  -6  -9   -0.14    0.22
  -7  -6  -9    0.27    0.40
   7   6   9   -0.04    0.42
   3  -7  -9    0.11    0.51
   3  -7  -9    0.36    0.43
   3  -7  -9    0.10    0.44
  -3   7   9   -0.36    0.54
  -3   7   9   -0.39    0.47
   2  -7  -9    5.01    0.80
   2  -7  -9    4.29    0.66
   2  -7  -9    5.13    0.69
   2  -7  -9    3.66    0.62
  -2   7   9    4.85    0.82
  -2   7   9    4.40    0.73
   1  -7  -9   21.07    1.10
   1  -7  -9   24.34    1.29
   1  -7  -9   23.74    1.04
   1  -7  -9   22.70    1.17
   1  -7  -9   23.15    1.13
  -1   7   9   25.19    1.23
  -1   7   9   24.10    1.35
  -1   7   9   23.91    1.32
   0  -7  -9   -0.89    0.21
   0  -7  -9    0.25    0.36
   0  -7  -9    0.24    0.33
   0  -7  -9    0.12    0.42
   0  -7  -9    0.20    0.35
   0   7   9   -0.21    0.37
   0   7   9   -0.17    0.36
   0   7   9    0.38    0.45
  -1  -7  -9   -0.02    0.25
  -1  -7  -9    0.49    0.39
  -1  -7  -9    0.28    0.36
  -1  -7  -9   -0.18    0.28
  -1  -7  -9   -0.39    0.21
  -1  -7  -9    0.06    0.34
   1   7   9   -0.57    0.36
   1   7   9    0.30    0.36
  -2  -7  -9   19.12    0.98
  -2  -7  -9   18.58    0.87
  -2  -7  -9   17.94    0.98
  -2  -7  -9   17.51    0.97
  -2  -7  -9   19.04    0.96
   2   7   9   16.61    1.05
   2   7   9   17.52    1.12
  -3  -7  -9    6.29    0.67
  -3  -7  -9    4.64    0.63
  -3  -7  -9    5.01    0.54
  -3  -7  -9    5.99    0.60
  -3  -7  -9    5.68    0.65
   3   7   9    5.31    0.71
   3   7   9    5.15    0.83
  -4  -7  -9    1.87    0.40
  -4  -7  -9    1.66    0.40
  -4  -7  -9    1.33    0.37
  -4  -7  -9    1.14    0.43
  -4  -7  -9    1.86    0.49
   4   7   9    1.28    0.48
   4   7   9    0.84    0.55
  -5  -7  -9    3.87    0.59
  -5  -7  -9    2.71    0.57
  -5  -7  -9    2.86    0.49
  -5  -7  -9    3.27    0.44
  -5  -7  -9    2.47    0.40
   5   7   9    1.78    0.65
   5   7   9    3.37    0.61
  -6  -7  -9    1.33    0.52
  -6  -7  -9    2.09    0.37
  -6  -7  -9    2.18    0.55
   6   7   9    2.09    0.74
   6   7   9    1.22    0.53
   6   7   9    0.92    0.46
  -7  -7  -9    0.23    0.25
  -7  -7  -9    0.08    0.38
  -7  -7  -9    0.83    0.48
   7   7   9   -0.06    0.46
   7   7   9   -0.26    0.58
   2  -8  -9    1.98    0.59
   2  -8  -9    1.86    0.58
   2  -8  -9    1.79    0.65
  -2   8   9    2.47    0.69
  -2   8   9    2.42    0.76
   1  -8  -9   -0.10    0.40
   1  -8  -9   -0.22    0.35
   1  -8  -9    0.21    0.39
   1  -8  -9   -0.32    0.46
  -1   8   9    0.49    0.50
  -1   8   9   -0.25    0.49
  -1   8   9    0.12    0.47
   0  -8  -9    2.92    0.59
   0  -8  -9    3.94    0.63
   0  -8  -9    3.36    0.57
   0  -8  -9    2.88    0.61
   0  -8  -9    4.58    0.75
   0  -8  -9    3.34    0.56
   0   8   9    3.91    0.73
   0   8   9    2.77    0.58
  -1  -8  -9   10.75    0.83
  -1  -8  -9   10.68    0.90
  -1  -8  -9   13.43    1.00
  -1  -8  -9   12.06    0.89
  -1  -8  -9   11.45    0.75
  -1  -8  -9   11.69    0.88
   1   8   9   12.93    1.10
  -2  -8  -9    5.12    0.69
  -2  -8  -9    3.70    0.56
  -2  -8  -9    2.66    0.43
  -2  -8  -9    3.24    0.57
  -2  -8  -9    3.28    0.59
   2   8   9    2.49    0.71
  -3  -8  -9    0.26    0.28
  -3  -8  -9    0.24    0.37
  -3  -8  -9    0.03    0.32
  -3  -8  -9   -0.64    0.27
  -3  -8  -9   -0.12    0.32
   3   8   9    0.24    0.54
  -4  -8  -9    7.43    0.76
  -4  -8  -9    6.74    0.80
  -4  -8  -9    7.98    0.69
  -4  -8  -9    8.29    0.69
   4   8   9    6.91    1.00
  -5  -8  -9    2.41    0.41
  -5  -8  -9    2.13    0.43
  -5  -8  -9    1.63    0.51
  -5  -8  -9    1.67    0.59
   5   8   9    2.07    0.61
   5   8   9    1.23    0.71
  -6  -8  -9    5.86    0.57
  -6  -8  -9    4.74    0.72
  -6  -8  -9    6.03    0.84
   6   8   9    4.03    0.90
   6   8   9    4.95    0.77
   1  -9  -9    4.93    0.85
   1  -9  -9    3.71    0.71
   1  -9  -9    5.11    0.73
   1  -9  -9    4.57    0.72
   0  -9  -9    3.49    0.66
   0  -9  -9    3.98    0.73
   0  -9  -9    2.91    0.56
   0  -9  -9    5.02    0.81
   0  -9  -9    3.33    0.62
   0   9   9    2.84    0.72
  -1  -9  -9    4.60    0.77
  -1  -9  -9    4.51    0.75
  -1  -9  -9    3.85    0.63
  -1  -9  -9    3.17    0.70
  -1  -9  -9    4.17    0.70
   1   9   9    3.55    0.74
  -2  -9  -9    2.84    0.53
  -2  -9  -9    2.50    0.63
  -2  -9  -9    2.77    0.61
  -2  -9  -9    2.36    0.54
  -2  -9  -9    3.30    0.64
   2   9   9    3.66    0.84
  -3  -9  -9    1.93    0.53
  -3  -9  -9    0.68    0.41
  -3  -9  -9    1.26    0.50
  -3  -9  -9    1.61    0.50
   3   9   9    1.50    0.70
  -4  -9  -9    3.70    0.58
  -4  -9  -9    2.37    0.50
  -4  -9  -9    1.90    0.58
  -4  -9  -9    2.40    0.55
   4   9   9    2.34    0.71
  -5  -9  -9    1.65    0.59
  -5  -9  -9    3.43    0.54
  -5  -9  -9    2.50    0.57
  -5  -9  -9    2.21    0.48
   5   9   9    2.27    0.74
  -1 -10  -9   15.46    1.03
  -1 -10  -9   16.44    1.16
  -1 -10  -9   15.06    1.15
  -1 -10  -9   17.39    1.22
  -1 -10  -9   19.67    1.34
   1  10   9   16.05    1.38
  -2 -10  -9    1.99    0.50
  -2 -10  -9    0.90    0.53
  -2 -10  -9    1.58    0.61
  -2 -10  -9    1.65    0.56
  -2 -10  -9    2.03    0.61
   2  10   9    1.24    0.69
  -3 -10  -9    0.84    0.53
  -3 -10  -9    0.87    0.46
  -3 -10  -9    0.13    0.42
  -3 -10  -9    0.76    0.52
   3  10   9   -0.68    0.60
  -4 -10  -9    1.15    0.49
  -4 -10  -9    2.05    0.66
  -4 -10  -9    1.30    0.60
  -4 -10  -9    2.72    0.56
   4  10   9    0.93    0.73
   4   8 -10    9.41    1.07
  -4  -8  10   10.03    1.01
  -4  -8  10    9.02    1.03
  -4  -8  10    9.59    0.93
   3   8 -10    2.65    0.74
  -3  -8  10    3.04    0.80
  -3  -8  10    2.36    0.65
  -3  -8  10    2.48    0.59
   2   8 -10    0.37    0.56
  -2  -8  10    0.14    0.46
  -2  -8  10   -0.72    0.52
  -2  -8  10    0.50    0.51
   1   8 -10    2.89    0.75
  -1  -8  10    1.76    0.57
  -1  -8  10    3.03    0.73
  -1  -8  10    3.58    0.85
   0   8 -10    1.60    0.69
   0  -8  10    1.45    0.63
   0  -8  10    1.69    0.69
  -1   8 -10    0.47    0.53
  -1   8 -10    0.72    0.62
   1  -8  10    0.29    0.55
   1  -8  10    1.38    0.64
   5   7 -10    1.48    0.55
  -5  -7  10    1.49    0.50
  -5  -7  10    1.09    0.50
  -5  -7  10    2.62    0.74
   4   7 -10   -0.71    0.43
  -4  -7  10   -0.12    0.46
  -4  -7  10   -0.17    0.40
  -4  -7  10    0.29    0.45
   3   7 -10    0.30    0.48
  -3  -7  10    0.02    0.44
  -3  -7  10   -0.23    0.49
  -3  -7  10   -0.51    0.38
   2   7 -10    2.56    0.68
  -2  -7  10    2.48    0.56
  -2  -7  10    2.24    0.53
  -2  -7  10    1.57    0.59
  -2  -7  10    3.22    0.65
   1   7 -10   12.96    1.14
   1   7 -10   14.06    0.87
  -1  -7  10   13.01    0.99
  -1  -7  10   10.43    1.06
  -1  -7  10   14.04    1.10
   0   7 -10    0.65    0.51
   0   7 -10    1.11    0.50
   0   7 -10    1.38    0.42
   0  -7  10    1.28    0.56
   0  -7  10    0.63    0.54
  -1   7 -10    0.66    0.37
  -1   7 -10   -0.03    0.42
   1  -7  10    0.74    0.56
   1  -7  10    0.07    0.46
  -2   7 -10    7.65    0.96
  -2   7 -10    5.90    0.73
   2  -7  10    6.66    0.94
   2  -7  10    6.45    0.98
  -3   7 -10   -0.36    0.43
  -3   7 -10    0.88    0.49
   3  -7  10    0.75    0.65
   3  -7  10    0.06    0.63
   5   6 -10    4.20    0.75
  -5  -6  10    4.39    0.62
  -5  -6  10    5.07    0.89
  -5  -6  10    5.10    0.71
   4   6 -10    1.27    0.52
   4   6 -10    1.98    0.54
  -4  -6  10    2.06    0.68
  -4  -6  10    1.04    0.48
  -4  -6  10    2.36    0.51
  -4  -6  10    0.78    0.51
   3   6 -10    1.49    0.46
   3   6 -10    1.01    0.51
  -3  -6  10    1.88    0.49
  -3  -6  10    2.33    0.60
  -3  -6  10    1.52    0.48
   2   6 -10    0.35    0.44
  -2  -6  10    0.72    0.45
  -2  -6  10    0.68    0.45
  -2  -6  10   -0.23    0.33
  -2  -6  10    0.25    0.40
   1   6 -10    0.87    0.42
   1   6 -10    0.65    0.36
  -1  -6  10    0.60    0.51
  -1  -6  10    1.09    0.43
  -1  -6  10    0.62    0.43
  -1  -6  10    1.24    0.50
   0   6 -10    0.16    0.35
   0   6 -10   -0.26    0.28
   0  -6  10   -0.26    0.44
   0  -6  10    0.14    0.38
   0  -6  10   -0.01    0.43
  -1   6 -10    2.86    0.64
  -1   6 -10    3.36    0.53
   1  -6  10    3.52    0.67
   1  -6  10    3.94    0.76
  -2   6 -10    0.60    0.48
  -2   6 -10    0.45    0.40
   2  -6  10    0.44    0.53
   2  -6  10    0.68    0.53
  -3   6 -10    0.22    0.45
  -3   6 -10   -0.18    0.34
   3  -6  10    0.74    0.53
   3  -6  10   -0.69    0.43
  -4   6 -10   -0.29    0.50
  -4   6 -10   -0.17    0.45
   4  -6  10    0.67    0.56
   6   5 -10    0.74    0.52
  -6  -5  10    0.41    0.65
  -6  -5  10    0.40    0.41
  -6  -5  10    1.52    0.50
   5   5 -10    0.93    0.50
  -5  -5  10    0.74    0.43
  -5  -5  10    0.32    0.38
  -5  -5  10    1.49    0.66
   4   5 -10   12.13    0.92
  -4  -5  10   11.13    0.84
  -4  -5  10   11.56    0.91
  -4  -5  10   11.84    1.08
  -4  -5  10   12.62    0.89
   3   5 -10    9.74    0.81
   3   5 -10   10.09    0.86
  -3  -5  10   10.10    0.80
  -3  -5  10   10.19    0.86
  -3  -5  10   10.14    0.86
  -3  -5  10   10.29    0.86
   2   5 -10    6.37    0.66
   2   5 -10    6.08    0.73
  -2  -5  10    5.07    0.64
  -2  -5  10    6.97    0.65
  -2  -5  10    5.72    0.74
  -2  -5  10    7.16    0.72
   1   5 -10   26.61    1.12
   1   5 -10   24.14    1.12
  -1  -5  10   24.64    1.21
  -1  -5  10   24.57    1.06
  -1  -5  10   23.79    1.21
  -1  -5  10   24.01    1.14
   0   5 -10   -0.23    0.29
   0   5 -10    0.32    0.30
   0  -5  10    0.34    0.41
   0  -5  10    0.11    0.37
   0  -5  10   -0.40    0.33
   0  -5  10    1.02    0.45
  -1   5 -10    9.74    0.91
  -1   5 -10   10.09    0.78
   1  -5  10   10.09    0.88
   1  -5  10    8.63    0.90
  -2   5 -10    6.42    0.73
  -2   5 -10    7.76    0.88
   2  -5  10    7.21    0.86
   2  -5  10    7.46    0.87
  -3   5 -10    1.91    0.55
  -3   5 -10    1.09    0.46
   3  -5  10    1.11    0.53
   3  -5  10    1.53    0.56
  -4   5 -10   -0.26    0.41
  -4   5 -10   -0.49    0.41
   4  -5  10   -0.03    0.45
   6   4 -10    0.76    0.53
  -6  -4  10    0.73    0.69
  -6  -4  10    0.77    0.41
  -6  -4  10    1.32    0.48
   5   4 -10    4.71    0.73
  -5  -4  10    7.50    0.78
  -5  -4  10    6.59    0.90
  -5  -4  10    7.20    0.71
   4   4 -10   -0.78    0.29
  -4  -4  10    0.07    0.43
  -4  -4  10   -0.34    0.33
  -4  -4  10   -0.71    0.33
  -4  -4  10    0.14    0.34
   3   4 -10    4.30    0.58
   3   4 -10    2.58    0.51
  -3  -4  10    3.33    0.51
  -3  -4  10    4.06    0.60
  -3  -4  10    3.99    0.65
  -3  -4  10    2.41    0.51
   2   4 -10    2.82    0.53
   2   4 -10    2.07    0.42
  -2  -4  10    2.13    0.40
  -2  -4  10    2.76    0.53
  -2  -4  10    2.43    0.51
  -2  -4  10    3.05    0.51
  -2  -4  10    2.04    0.49
   1   4 -10    4.00    0.53
   1   4 -10    2.81    0.49
   1   4 -10    3.75    0.54
   1   4 -10    2.96    0.33
  -1  -4  10    2.53    0.45
  -1  -4  10    3.29    0.50
  -1  -4  10    3.58    0.56
  -1  -4  10    3.30    0.40
  -1  -4  10    2.92    0.49
  -1  -4  10    2.82    0.49
   0   4 -10    2.23    0.46
   0   4 -10    2.37    0.38
   0   4 -10    2.09    0.31
   0   4 -10    2.36    0.42
   0   4 -10    2.61    0.29
   0  -4  10    2.77    0.53
   0  -4  10    1.61    0.39
   0  -4  10    2.26    0.45
   0  -4  10    2.88    0.52
   0  -4  10    1.95    0.49
  -1   4 -10    0.57    0.23
  -1   4 -10   -0.47    0.26
  -1   4 -10   -0.06    0.22
  -1   4 -10    0.17    0.33
  -1   4 -10    0.17    0.27
  -1   4 -10   -0.10    0.17
   1  -4  10   -0.35    0.26
   1  -4  10   -0.40    0.29
   1  -4  10   -0.50    0.34
   1  -4  10    0.03    0.36
   1  -4  10   -0.56    0.32
  -2   4 -10   13.33    0.66
  -2   4 -10   11.73    0.88
  -2   4 -10   12.03    0.80
  -2   4 -10   12.34    0.81
  -2   4 -10   11.67    0.65
   2  -4  10   11.67    0.89
   2  -4  10   13.67    0.99
   2  -4  10   12.78    0.94
  -3   4 -10    3.97    0.48
  -3   4 -10    3.76    0.63
  -3   4 -10    3.79    0.50
  -3   4 -10    4.81    0.67
  -3   4 -10    3.58    0.65
   3  -4  10    3.80    0.67
   3  -4  10    2.88    0.66
   3  -4  10    4.38    0.69
  -4   4 -10    0.47    0.44
  -4   4 -10    0.68    0.38
  -4   4 -10    0.40    0.33
  -4   4 -10    0.37    0.48
  -4   4 -10    0.66    0.34
   4  -4  10    0.95    0.53
   4  -4  10    0.09    0.52
   4  -4  10    1.11    0.59
  -5   4 -10    1.65    0.55
  -5   4 -10    3.31    0.65
  -5   4 -10    3.23    0.74
   5  -4  10    2.73    0.70
   6   3 -10   11.16    0.98
   6   3 -10   11.54    0.89
  -6  -3  10   12.48    1.28
  -6  -3  10   10.06    0.93
  -6  -3  10   11.70    0.92
   5   3 -10    1.56    0.48
  -5  -3  10   -0.20    0.37
  -5  -3  10    1.09    0.41
  -5  -3  10    0.44    0.54
   4   3 -10   16.29    1.03
  -4  -3  10   17.38    1.10
  -4  -3  10   17.23    0.98
  -4  -3  10   17.10    0.95
   3   3 -10    6.08    0.60
   3   3 -10    7.45    0.59
   3   3 -10    8.05    0.70
  -3  -3  10    7.65    0.69
  -3  -3  10    6.98    0.62
  -3  -3  10    6.02    0.67
  -3  -3  10    6.32    0.71
   2   3 -10    1.87    0.41
   2   3 -10    2.14    0.28
   2   3 -10    2.31    0.43
  -2  -3  10    2.68    0.46
  -2  -3  10    2.16    0.37
  -2  -3  10    2.28    0.42
  -2  -3  10    2.62    0.48
  -2  -3  10    2.09    0.47
  -2  -3  10    1.99    0.49
  -2  -3  10    2.02    0.38
   1   3 -10   26.86    1.11
   1   3 -10   25.95    0.87
   1   3 -10   27.52    0.81
   1   3 -10   26.27    1.03
   1   3 -10   25.82    0.85
   1   3 -10   26.56    1.09
   1   3 -10   25.03    1.07
  -1  -3  10   28.13    1.05
  -1  -3  10   25.12    1.00
  -1  -3  10   25.96    1.07
  -1  -3  10   27.15    1.06
  -1  -3  10   27.49    1.13
  -1  -3  10   25.60    1.15
  -1  -3  10   26.37    0.87
   0   3 -10   10.49    0.63
   0   3 -10    9.75    0.48
   0   3 -10   10.46    0.75
   0   3 -10    9.25    0.62
   0   3 -10    9.42    0.64
   0   3 -10   10.07    0.67
   0   3 -10   10.43    0.54
   0   3 -10    9.58    0.57
   0  -3  10    9.80    0.59
   0  -3  10   10.61    0.70
   0  -3  10    9.32    0.73
   0  -3  10   10.83    0.77
   0  -3  10   10.76    0.68
   0  -3  10    9.22    0.65
  -1   3 -10    0.19    0.31
  -1   3 -10    0.58    0.25
  -1   3 -10    0.08    0.19
  -1   3 -10    0.61    0.27
  -1   3 -10    0.54    0.29
  -1   3 -10    0.50    0.22
  -1   3 -10   -0.06    0.22
   1  -3  10    0.65    0.30
   1  -3  10    0.57    0.36
   1  -3  10    0.36    0.38
   1  -3  10    0.72    0.37
   1  -3  10    0.92    0.36
  -2   3 -10   10.12    0.72
  -2   3 -10    9.43    0.57
  -2   3 -10   10.14    0.61
  -2   3 -10    9.00    0.70
  -2   3 -10    9.42    0.79
   2  -3  10    8.89    0.75
   2  -3  10    8.70    0.78
   2  -3  10   10.43    0.84
  -3   3 -10    4.49    0.62
  -3   3 -10    3.70    0.57
  -3   3 -10    2.82    0.49
  -3   3 -10    3.84    0.48
  -3   3 -10    3.99    0.51
   3  -3  10    4.63    0.64
   3  -3  10    3.43    0.62
   3  -3  10    5.20    0.72
  -4   3 -10   -0.18    0.35
  -4   3 -10   -0.02    0.41
  -4   3 -10    0.31    0.35
  -4   3 -10    0.24    0.29
  -4   3 -10    0.26    0.33
   4  -3  10    0.94    0.46
   4  -3  10    0.05    0.49
  -5   3 -10   -0.31    0.36
  -5   3 -10   -0.08    0.47
  -5   3 -10   -0.06    0.34
   5  -3  10   -0.05    0.46
  -6   3 -10    1.36    0.53
  -6   3 -10    0.55    0.42
  -6   3 -10    0.15    0.49
   6  -3  10   -0.07    0.60
   6  -3  10    0.24    0.48
   6   2 -10    4.31    0.63
   6   2 -10    3.11    0.69
  -6  -2  10    4.11    0.85
   5   2 -10    7.96    0.87
   5   2 -10    8.68    0.70
  -5  -2  10    8.59    0.80
  -5  -2  10    9.82    0.84
  -5  -2  10    8.53    0.99
   4   2 -10    0.10    0.32
  -4  -2  10    0.38    0.35
  -4  -2  10    0.79    0.46
  -4  -2  10    0.09    0.37
   3   2 -10    7.49    0.62
   3   2 -10    7.83    0.52
   3   2 -10    7.35    0.73
  -3  -2  10    8.17    0.72
  -3  -2  10    8.68    0.70
  -3  -2  10    7.87    0.76
  -3  -2  10    7.28    0.61
  -3  -2  10    7.85    0.60
   2   2 -10   15.91    0.78
   2   2 -10   15.42    0.84
   2   2 -10   15.77    0.84
   2   2 -10   15.38    0.65
  -2  -2  10   16.52    0.89
  -2  -2  10   16.37    0.53
  -2  -2  10   15.35    0.85
  -2  -2  10   15.86    0.81
  -2  -2  10   17.22    0.94
  -2  -2  10   15.21    0.72
  -2  -2  10   14.83    0.79
   1   2 -10    2.72    0.33
   1   2 -10    3.30    0.42
   1   2 -10    3.43    0.52
   1   2 -10    2.67    0.43
   1   2 -10    3.33    0.42
   1   2 -10    3.23    0.32
   1   2 -10    2.53    0.41
   1   2 -10    3.51    0.39
  -1  -2  10    2.81    0.40
  -1  -2  10    3.18    0.44
  -1  -2  10    2.31    0.44
  -1  -2  10    2.77    0.42
  -1  -2  10    2.03    0.43
  -1  -2  10    2.81    0.44
  -1  -2  10    3.05    0.32
   0   2 -10    3.18    0.46
   0   2 -10    3.50    0.48
   0   2 -10    3.66    0.37
   0   2 -10    3.49    0.39
   0   2 -10    3.32    0.43
   0   2 -10    3.78    0.49
   0   2 -10    2.92    0.35
   0   2 -10    4.50    0.46
   0  -2  10    3.52    0.53
   0  -2  10    3.54    0.40
   0  -2  10    3.47    0.47
   0  -2  10    3.18    0.44
   0  -2  10    3.20    0.41
   0  -2  10    3.43    0.37
   0  -2  10    3.89    0.52
  -1   2 -10   26.66    0.91
  -1   2 -10   25.41    0.87
  -1   2 -10   24.97    1.04
  -1   2 -10   26.79    0.95
  -1   2 -10   26.59    1.01
  -1   2 -10   27.29    0.96
  -1   2 -10   25.93    1.08
   1  -2  10   25.84    0.77
   1  -2  10   25.22    1.11
   1  -2  10   25.49    1.11
   1  -2  10   26.09    1.00
   1  -2  10   25.96    0.95
   1  -2  10   26.99    0.98
   1  -2  10   23.89    1.02
  -2   2 -10    9.08    0.57
  -2   2 -10    9.64    0.60
  -2   2 -10   10.27    0.62
  -2   2 -10    9.46    0.72
  -2   2 -10   10.74    0.77
  -2   2 -10   10.23    0.63
  -2   2 -10    9.56    0.67
   2  -2  10   10.09    0.80
   2  -2  10    8.92    0.70
   2  -2  10    9.23    0.74
  -3   2 -10    1.02    0.30
  -3   2 -10    0.87    0.33
  -3   2 -10    0.90    0.37
  -3   2 -10    1.05    0.37
  -3   2 -10    0.87    0.37
   3  -2  10    1.04    0.43
   3  -2  10    1.14    0.45
  -4   2 -10    0.73    0.36
  -4   2 -10    0.49    0.33
  -4   2 -10    0.26    0.37
  -4   2 -10    1.03    0.46
  -4   2 -10    0.90    0.36
   4  -2  10    0.97    0.45
   4  -2  10    0.35    0.40
  -5   2 -10    3.58    0.58
  -5   2 -10    3.00    0.54
  -5   2 -10    3.45    0.60
  -5   2 -10    4.18    0.59
  -5   2 -10    3.61    0.66
   5  -2  10    4.11    0.75
   5  -2  10    2.74    0.60
  -6   2 -10    1.30    0.47
  -6   2 -10    0.37    0.38
  -6   2 -10    0.97    0.52
   6  -2  10   -0.26    0.45
   6  -2  10    0.20    0.51
   6   1 -10    2.59    0.65
  -6  -1  10    2.16    0.51
  -6  -1  10    2.70    0.73
  -6  -1  10    2.37    0.55
   5   1 -10    7.22    0.62
   5   1 -10    6.08    0.77
  -5  -1  10    7.09    0.72
  -5  -1  10    7.20    0.77
  -5  -1  10    8.34    0.99
   4   1 -10   20.21    1.09
  -4  -1  10   22.27    1.07
  -4  -1  10   21.52    1.18
  -4  -1  10   20.79    1.09
   3   1 -10    0.41    0.29
   3   1 -10    0.45    0.26
   3   1 -10   -0.05    0.26
  -3  -1  10    0.23    0.32
  -3  -1  10   -0.48    0.33
  -3  -1  10   -0.02    0.28
  -3  -1  10    0.17    0.23
  -3  -1  10   -0.30    0.32
   2   1 -10   73.97    2.01
   2   1 -10   73.95    1.80
   2   1 -10   76.79    2.01
  -2  -1  10   77.76    1.87
  -2  -1  10   75.00    1.90
  -2  -1  10   71.03    1.94
  -2  -1  10   77.22    2.06
  -2  -1  10   74.41    1.97
  -2  -1  10   72.09    1.79
   1   1 -10   84.33    1.65
   1   1 -10   82.48    1.75
   1   1 -10   87.60    2.07
   1   1 -10   84.60    1.93
   1   1 -10   86.15    2.16
   1   1 -10   84.04    1.97
   1   1 -10   80.76    2.10
   1   1 -10   85.98    1.98
   1   1 -10   83.26    2.11
  -1  -1  10   83.27    2.02
  -1  -1  10   85.79    2.00
  -1  -1  10   86.71    1.78
  -1  -1  10   86.10    2.11
  -1  -1  10   85.61    2.04
  -1  -1  10   83.27    2.17
  -1  -1  10   83.30    2.07
   0   1 -10   13.16    0.57
   0   1 -10   13.39    0.71
   0   1 -10   13.90    0.66
   0   1 -10   12.54    0.66
   0   1 -10   12.75    0.60
   0   1 -10   11.90    0.60
   0   1 -10   12.26    0.70
   0   1 -10   13.57    0.77
   0  -1  10   13.47    0.79
   0  -1  10   13.44    0.59
   0  -1  10   13.46    0.62
   0  -1  10   14.06    0.63
   0  -1  10   12.14    0.72
   0  -1  10   13.04    0.74
   0  -1  10   13.42    0.74
  -1   1 -10   29.23    1.12
  -1   1 -10   28.93    0.96
  -1   1 -10   26.53    0.93
  -1   1 -10   29.06    0.92
  -1   1 -10   28.28    0.97
  -1   1 -10   28.06    0.97
  -1   1 -10   25.32    1.02
  -1   1 -10   29.50    1.06
   1  -1  10   28.22    1.03
   1  -1  10   28.84    0.78
   1  -1  10   27.81    1.15
   1  -1  10   29.29    1.10
   1  -1  10   29.01    1.13
   1  -1  10   28.19    0.95
   1  -1  10   27.42    0.92
  -2   1 -10    9.32    0.59
  -2   1 -10   10.40    0.57
  -2   1 -10    8.74    0.68
  -2   1 -10    9.81    0.67
  -2   1 -10    9.29    0.58
  -2   1 -10   10.21    0.61
  -2   1 -10   10.37    0.67
   2  -1  10   10.92    0.77
   2  -1  10   10.80    0.74
   2  -1  10   10.06    0.64
  -3   1 -10    0.42    0.28
  -3   1 -10    1.14    0.33
  -3   1 -10    0.69    0.30
  -3   1 -10    0.31    0.23
  -3   1 -10    0.88    0.36
  -3   1 -10    1.12    0.36
  -3   1 -10    0.74    0.29
   3  -1  10    1.18    0.43
   3  -1  10    0.99    0.38
  -4   1 -10    0.27    0.32
  -4   1 -10    0.02    0.30
  -4   1 -10   -0.35    0.26
  -4   1 -10    0.16    0.27
  -4   1 -10   -0.02    0.31
   4  -1  10    0.32    0.39
   4  -1  10    0.20    0.39
  -5   1 -10    1.74    0.44
  -5   1 -10    2.00    0.46
  -5   1 -10    1.78    0.47
  -5   1 -10    1.95    0.52
  -5   1 -10    2.02    0.46
   5  -1  10    1.23    0.57
   5  -1  10    1.91    0.49
  -6   1 -10    0.24    0.38
  -6   1 -10    0.65    0.38
  -6   1 -10    0.74    0.47
   6  -1  10    0.65    0.50
   6  -1  10    0.75    0.49
   6   0 -10    2.70    0.63
  -6   0  10    4.98    0.95
  -6   0  10    2.74    0.59
  -6   0  10    3.16    0.59
   5   0 -10    1.99    0.50
  -5   0  10    1.44    0.67
  -5   0  10    2.18    0.53
  -5   0  10    2.38    0.52
   4   0 -10    3.02    0.54
   4   0 -10    4.47    0.87
  -4   0  10    4.53    0.69
  -4   0  10    3.81    0.58
  -4   0  10    3.69    0.60
   3   0 -10    8.33    0.68
   3   0 -10    8.58    0.76
   3   0 -10    8.53    0.62
  -3   0  10    8.41    0.77
  -3   0  10    8.41    0.74
  -3   0  10    7.13    0.72
  -3   0  10    7.24    0.62
  -3   0  10    7.70    0.53
   2   0 -10    9.77    0.31
   2   0 -10    8.54    0.56
   2   0 -10    9.33    0.68
   2   0 -10    8.17    0.40
   2   0 -10    8.54    0.64
  -2   0  10   10.66    0.74
  -2   0  10    8.97    0.72
  -2   0  10    8.66    0.64
  -2   0  10    8.29    0.57
  -2   0  10    8.58    0.57
   1   0 -10   21.15    0.83
   1   0 -10   20.18    0.62
   1   0 -10   19.66    0.87
   1   0 -10   20.72    0.94
   1   0 -10   20.83    0.84
   1   0 -10   18.83    0.82
   1   0 -10   20.47    0.87
   1   0 -10   19.89    0.59
  -1   0  10   19.19    0.85
  -1   0  10   20.47    0.94
  -1   0  10   20.67    0.90
  -1   0  10   20.51    0.78
  -1   0  10   19.18    0.82
   0   0 -10    0.01    0.23
   0   0 -10   -0.01    0.21
   0   0 -10    0.15    0.22
   0   0 -10    0.07    0.20
   0   0 -10    0.20    0.23
   0   0 -10    0.37    0.17
   0   0 -10    0.18    0.17
   0   0 -10   -0.10    0.19
   0   0  10    0.16    0.19
   0   0  10    0.37    0.27
   0   0  10    0.01    0.25
   0   0  10    0.39    0.20
   0   0  10    0.11    0.31
   0   0  10    0.26    0.23
  -1   0 -10   49.51    1.33
  -1   0 -10   53.16    1.26
  -1   0 -10   52.07    1.53
  -1   0 -10   50.84    1.34
  -1   0 -10   52.08    1.47
  -1   0 -10   49.90    1.38
  -1   0 -10   50.53    1.40
  -1   0 -10   50.28    1.48
   1   0  10   49.42    1.50
   1   0  10   50.69    1.26
   1   0  10   51.79    1.53
   1   0  10   52.15    1.16
   1   0  10   52.08    1.36
   1   0  10   51.02    1.43
  -2   0 -10   27.39    1.00
  -2   0 -10   29.93    1.02
  -2   0 -10   30.40    0.89
  -2   0 -10   28.84    1.01
  -2   0 -10   27.32    1.08
  -2   0 -10   30.20    1.10
  -2   0 -10   30.25    1.07
   2   0  10   29.28    1.09
   2   0  10   26.49    1.09
   2   0  10   27.79    0.99
  -3   0 -10    2.52    0.33
  -3   0 -10    2.19    0.41
  -3   0 -10    2.65    0.41
  -3   0 -10    1.98    0.40
  -3   0 -10    2.45    0.42
  -3   0 -10    2.03    0.38
  -3   0 -10    2.69    0.41
   3   0  10    2.11    0.40
   3   0  10    1.91    0.47
  -4   0 -10    2.58    0.43
  -4   0 -10    1.76    0.43
  -4   0 -10    2.13    0.45
  -4   0 -10    2.49    0.37
  -4   0 -10    2.55    0.46
  -4   0 -10    2.46    0.42
   4   0  10    1.65    0.42
   4   0  10    2.76    0.54
  -5   0 -10    5.39    0.61
  -5   0 -10    5.12    0.62
  -5   0 -10    5.03    0.69
  -5   0 -10    5.07    0.60
  -5   0 -10    4.78    0.65
   5   0  10    3.71    0.66
   5   0  10    4.20    0.60
  -6   0 -10    3.88    0.65
  -6   0 -10    4.04    0.69
  -6   0 -10    3.29    0.55
  -6   0 -10    3.70    0.57
   6   0  10    3.49    0.72
   6   0  10    3.61    0.72
  -7   0 -10    1.65    0.51
  -7   0 -10    1.79    0.50
  -7   0 -10    1.78    0.49
  -7   0 -10    3.04    0.74
   7   0  10    1.65    0.66
   7   0  10    1.36    0.60
   6  -1 -10    4.33    0.78
  -6   1  10    3.94    0.65
  -6   1  10    3.71    0.69
  -6   1  10    4.28    0.90
   5  -1 -10    1.38    0.51
  -5   1  10    1.19    0.46
  -5   1  10    0.98    0.67
  -5   1  10    1.15    0.49
   4  -1 -10   10.56    0.79
   4  -1 -10   12.35    0.87
  -4   1  10   11.29    0.95
  -4   1  10    8.25    0.81
  -4   1  10   10.20    0.78
   3  -1 -10    3.67    0.55
   3  -1 -10    3.27    0.52
   3  -1 -10    3.01    0.46
  -3   1  10    3.23    0.48
  -3   1  10    3.67    0.61
  -3   1  10    3.57    0.47
  -3   1  10    3.24    0.56
   2  -1 -10   11.84    0.70
   2  -1 -10   11.17    0.45
   2  -1 -10   11.48    0.36
   2  -1 -10   10.56    0.69
   2  -1 -10   10.52    0.72
  -2   1  10   11.64    0.74
  -2   1  10   11.12    0.78
  -2   1  10   11.49    0.67
  -2   1  10   11.02    0.63
  -2   1  10   12.06    0.80
   1  -1 -10   11.41    0.45
   1  -1 -10   11.21    0.67
   1  -1 -10   11.64    0.64
   1  -1 -10   11.03    0.63
   1  -1 -10   10.52    0.65
   1  -1 -10   12.54    0.76
   1  -1 -10   11.46    0.66
   1  -1 -10   11.20    0.47
  -1   1  10   10.26    0.66
  -1   1  10   10.79    0.68
  -1   1  10   12.03    0.72
  -1   1  10   11.38    0.75
  -1   1  10   10.24    0.53
   0  -1 -10   11.26    0.52
   0  -1 -10   12.73    0.54
   0  -1 -10   12.59    0.67
   0  -1 -10   10.88    0.65
   0  -1 -10   11.20    0.60
   0  -1 -10   11.38    0.62
   0  -1 -10   12.30    0.73
   0  -1 -10   10.89    0.64
   0   1  10   11.85    0.75
   0   1  10   13.29    0.68
   0   1  10   10.18    0.68
   0   1  10   12.65    0.62
   0   1  10   11.80    0.49
  -1  -1 -10   29.64    0.78
  -1  -1 -10   31.36    1.12
  -1  -1 -10   29.34    1.05
  -1  -1 -10   29.43    0.95
  -1  -1 -10   30.98    0.94
  -1  -1 -10   31.65    1.06
  -1  -1 -10   29.87    1.01
  -1  -1 -10   28.93    1.01
   1   1  10   29.40    1.10
   1   1  10   30.25    1.13
   1   1  10   29.61    0.95
   1   1  10   29.82    1.01
   1   1  10   29.36    0.79
   1   1  10   29.65    0.83
  -2  -1 -10    4.84    0.51
  -2  -1 -10    4.89    0.35
  -2  -1 -10    5.30    0.32
  -2  -1 -10    4.58    0.46
  -2  -1 -10    6.36    0.59
  -2  -1 -10    5.47    0.54
  -2  -1 -10    5.24    0.51
  -2  -1 -10    4.67    0.48
   2   1  10    4.38    0.46
   2   1  10    5.37    0.56
   2   1  10    4.14    0.55
  -3  -1 -10   14.96    0.78
  -3  -1 -10   14.22    0.77
  -3  -1 -10   15.05    0.80
  -3  -1 -10   16.03    0.59
  -3  -1 -10   15.31    0.77
  -3  -1 -10   16.51    0.80
  -3  -1 -10   14.62    0.74
   3   1  10   14.78    0.85
   3   1  10   15.46    0.75
   3   1  10   15.80    0.78
  -4  -1 -10   16.61    0.84
  -4  -1 -10   15.80    0.85
  -4  -1 -10   15.77    0.81
  -4  -1 -10   15.65    0.92
  -4  -1 -10   15.85    0.83
   4   1  10   15.99    0.86
   4   1  10   15.69    0.92
  -5  -1 -10   -0.13    0.24
  -5  -1 -10    0.03    0.33
  -5  -1 -10   -0.19    0.29
  -5  -1 -10    0.61    0.32
  -5  -1 -10    0.06    0.27
   5   1  10   -0.13    0.43
   5   1  10    0.72    0.42
  -6  -1 -10    1.67    0.50
  -6  -1 -10    2.00    0.50
  -6  -1 -10    1.79    0.42
  -6  -1 -10    2.27    0.46
   6   1  10    1.63    0.51
   6   1  10    2.09    0.62
  -7  -1 -10    1.82    0.46
  -7  -1 -10    1.95    0.46
  -7  -1 -10    1.07    0.48
  -7  -1 -10    0.36    0.53
   7   1  10    1.59    0.62
   7   1  10    1.72    0.61
   6  -2 -10   13.51    1.16
  -6   2  10   13.99    1.17
  -6   2  10   15.20    1.14
  -6   2  10   18.42    1.56
   5  -2 -10    7.18    0.87
  -5   2  10   10.24    1.15
  -5   2  10    9.39    0.91
  -5   2  10    9.78    0.98
   4  -2 -10    0.20    0.38
   4  -2 -10    0.02    0.31
  -4   2  10    0.83    0.43
  -4   2  10    0.86    0.57
  -4   2  10   -0.22    0.37
   3  -2 -10    6.72    0.71
   3  -2 -10    9.43    0.86
   3  -2 -10    7.06    0.71
  -3   2  10    6.83    0.75
  -3   2  10    5.67    0.57
  -3   2  10    7.71    0.84
  -3   2  10    7.50    0.74
   2  -2 -10   25.39    1.10
   2  -2 -10   26.84    1.09
   2  -2 -10   25.01    0.81
   2  -2 -10   24.29    1.02
  -2   2  10   25.46    1.02
  -2   2  10   27.28    1.21
  -2   2  10   25.69    1.13
  -2   2  10   26.88    1.11
  -2   2  10   24.92    0.93
   1  -2 -10    8.51    0.59
   1  -2 -10    8.80    0.60
   1  -2 -10    8.20    0.41
   1  -2 -10    8.42    0.57
   1  -2 -10    8.67    0.66
   1  -2 -10    7.99    0.47
   1  -2 -10    8.81    0.59
  -1   2  10    9.29    0.48
  -1   2  10    9.21    0.68
  -1   2  10    9.01    0.66
  -1   2  10    9.83    0.76
   0  -2 -10    5.10    0.41
   0  -2 -10    5.56    0.54
   0  -2 -10    5.96    0.55
   0  -2 -10    6.20    0.54
   0  -2 -10    5.31    0.38
   0  -2 -10    6.19    0.62
   0  -2 -10    5.52    0.45
   0  -2 -10    6.17    0.56
   0   2  10    5.20    0.56
   0   2  10    5.98    0.54
   0   2  10    5.89    0.50
   0   2  10    5.86    0.32
   0   2  10    6.26    0.62
  -1  -2 -10   47.02    1.40
  -1  -2 -10   46.91    1.36
  -1  -2 -10   50.94    1.31
  -1  -2 -10   48.26    1.41
  -1  -2 -10   47.15    1.31
  -1  -2 -10   44.83    1.43
  -1  -2 -10   49.22    1.41
  -1  -2 -10   48.40    1.25
   1   2  10   50.30    1.23
   1   2  10   49.42    1.35
   1   2  10   49.18    1.48
   1   2  10   49.23    1.48
   1   2  10   47.66    0.98
  -2  -2 -10   30.00    1.06
  -2  -2 -10   29.21    1.04
  -2  -2 -10   30.40    1.03
  -2  -2 -10   28.85    1.08
  -2  -2 -10   30.24    0.66
  -2  -2 -10   31.60    1.06
  -2  -2 -10   30.79    1.07
   2   2  10   28.33    1.14
   2   2  10   29.28    1.07
  -3  -2 -10    0.31    0.24
  -3  -2 -10   -0.17    0.24
  -3  -2 -10   -0.03    0.27
  -3  -2 -10    0.22    0.12
  -3  -2 -10    0.22    0.23
  -3  -2 -10   -0.18    0.25
  -3  -2 -10    0.15    0.27
   3   2  10    0.04    0.26
   3   2  10   -0.04    0.33
   3   2  10   -0.12    0.22
  -4  -2 -10    5.27    0.56
  -4  -2 -10    5.51    0.53
  -4  -2 -10    5.16    0.59
  -4  -2 -10    4.51    0.56
  -4  -2 -10    4.37    0.55
   4   2  10    3.40    0.46
   4   2  10    5.37    0.68
  -5  -2 -10    4.42    0.62
  -5  -2 -10    4.17    0.56
  -5  -2 -10    2.98    0.56
  -5  -2 -10    3.08    0.45
  -5  -2 -10    3.86    0.50
   5   2  10    3.36    0.57
   5   2  10    3.59    0.61
  -6  -2 -10    3.18    0.59
  -6  -2 -10    3.83    0.50
  -6  -2 -10    3.01    0.62
  -6  -2 -10    4.21    0.52
   6   2  10    3.27    0.64
   6   2  10    3.32    0.66
  -7  -2 -10   -0.07    0.42
  -7  -2 -10    0.66    0.33
  -7  -2 -10    1.05    0.36
  -7  -2 -10    0.22    0.45
   7   2  10    1.51    0.59
   7   2  10    1.17    0.59
   5  -3 -10    0.19    0.40
  -5   3  10   -1.46    0.55
  -5   3  10    0.57    0.46
  -5   3  10    0.21    0.47
   4  -3 -10    1.43    0.48
   4  -3 -10    0.46    0.40
  -4   3  10    0.34    0.54
  -4   3  10    0.06    0.44
  -4   3  10    1.39    0.48
   3  -3 -10    0.62    0.25
   3  -3 -10    0.95    0.37
   3  -3 -10    0.89    0.37
   3  -3 -10    0.36    0.37
  -3   3  10    0.46    0.32
  -3   3  10    0.33    0.44
  -3   3  10    1.44    0.53
  -3   3  10    0.75    0.44
   2  -3 -10    1.87    0.32
   2  -3 -10    1.14    0.42
   2  -3 -10    1.71    0.41
   2  -3 -10    1.54    0.38
  -2   3  10    1.59    0.47
  -2   3  10    1.72    0.32
  -2   3  10    1.45    0.43
  -2   3  10    1.77    0.42
  -2   3  10    1.76    0.49
   1  -3 -10    1.49    0.41
   1  -3 -10    0.49    0.19
   1  -3 -10    1.15    0.29
   1  -3 -10    0.78    0.31
   1  -3 -10    1.70    0.37
   1  -3 -10    1.89    0.38
   1  -3 -10    1.19    0.32
  -1   3  10    0.48    0.38
  -1   3  10    0.82    0.36
  -1   3  10    1.40    0.24
  -1   3  10    1.62    0.39
   0  -3 -10   -0.01    0.24
   0  -3 -10    0.01    0.23
   0  -3 -10    0.31    0.26
   0  -3 -10    0.48    0.20
   0  -3 -10    0.14    0.20
   0  -3 -10    0.22    0.22
   0  -3 -10    0.47    0.32
   0  -3 -10    0.37    0.24
   0   3  10    0.66    0.34
   0   3  10    0.32    0.24
   0   3  10    0.32    0.12
   0   3  10    0.73    0.35
   0   3  10    0.51    0.31
  -1  -3 -10   39.72    1.29
  -1  -3 -10   40.90    1.11
  -1  -3 -10   40.32    1.26
  -1  -3 -10   42.60    1.23
  -1  -3 -10   41.25    1.27
  -1  -3 -10   39.54    1.17
  -1  -3 -10   39.43    1.33
  -1  -3 -10   40.15    1.23
   1   3  10   38.38    1.34
   1   3  10   37.31    1.29
   1   3  10   41.19    1.15
  -2  -3 -10    0.51    0.26
  -2  -3 -10   -0.20    0.18
  -2  -3 -10    0.01    0.25
  -2  -3 -10    0.08    0.24
  -2  -3 -10   -0.13    0.22
  -2  -3 -10   -0.32    0.20
   2   3  10    0.17    0.25
   2   3  10    0.20    0.36
  -3  -3 -10    0.00    0.25
  -3  -3 -10    0.05    0.23
  -3  -3 -10    0.03    0.26
  -3  -3 -10   -0.19    0.25
  -3  -3 -10    0.34    0.25
  -3  -3 -10    0.27    0.25
   3   3  10    0.33    0.25
   3   3  10   -0.62    0.27
   3   3  10    0.03    0.22
  -4  -3 -10   22.75    1.03
  -4  -3 -10   24.05    1.03
  -4  -3 -10   23.28    0.93
  -4  -3 -10   24.15    0.97
  -4  -3 -10   24.94    1.05
   4   3  10   24.56    1.12
   4   3  10   25.22    0.99
  -5  -3 -10    3.80    0.46
  -5  -3 -10    3.33    0.52
  -5  -3 -10    4.06    0.54
  -5  -3 -10    4.27    0.61
  -5  -3 -10    3.57    0.46
   5   3  10    3.37    0.55
   5   3  10    3.63    0.62
  -6  -3 -10    2.53    0.55
  -6  -3 -10    2.91    0.44
  -6  -3 -10    3.05    0.60
  -6  -3 -10    3.05    0.46
   6   3  10    1.63    0.50
   6   3  10    3.10    0.62
  -7  -3 -10    2.68    0.64
  -7  -3 -10    2.12    0.61
  -7  -3 -10    2.04    0.43
  -7  -3 -10    2.40    0.41
   7   3  10    2.51    0.63
   7   3  10    2.74    0.65
   5  -4 -10    2.74    0.65
  -5   4  10    4.38    0.87
  -5   4  10    2.15    0.60
   4  -4 -10    0.09    0.47
   4  -4 -10    0.75    0.46
  -4   4  10    1.55    0.66
  -4   4  10    0.47    0.48
   3  -4 -10    0.37    0.27
   3  -4 -10    0.09    0.31
   3  -4 -10    0.74    0.40
   3  -4 -10    0.14    0.35
  -3   4  10    0.22    0.41
  -3   4  10    0.51    0.43
  -3   4  10   -0.26    0.43
   2  -4 -10   11.78    0.80
   2  -4 -10   13.21    0.91
   2  -4 -10   13.18    0.83
   2  -4 -10   13.79    0.72
  -2   4  10   13.67    0.99
  -2   4  10   13.53    0.99
  -2   4  10   14.31    0.91
   1  -4 -10   11.22    0.80
   1  -4 -10   10.62    0.68
   1  -4 -10   11.00    0.55
   1  -4 -10   10.31    0.67
   1  -4 -10   10.84    0.75
   1  -4 -10   10.82    0.71
   1  -4 -10    9.62    0.60
  -1   4  10   11.32    0.79
  -1   4  10    9.82    0.75
  -1   4  10   10.77    0.80
  -1   4  10   12.10    0.73
  -1   4  10   10.08    0.80
   0  -4 -10    0.21    0.27
   0  -4 -10   -0.01    0.25
   0  -4 -10    0.16    0.22
   0  -4 -10    0.07    0.27
   0  -4 -10    0.27    0.25
   0  -4 -10   -0.01    0.18
   0  -4 -10    0.14    0.25
   0   4  10    0.39    0.35
   0   4  10    0.24    0.32
   0   4  10   -0.20    0.31
   0   4  10    0.61    0.37
  -1  -4 -10   32.66    1.18
  -1  -4 -10   35.19    1.09
  -1  -4 -10   34.00    1.10
  -1  -4 -10   34.33    1.17
  -1  -4 -10   34.01    1.26
  -1  -4 -10   35.70    1.19
  -1  -4 -10   32.97    1.19
  -1  -4 -10   34.66    1.03
   1   4  10   33.97    1.13
   1   4  10   32.94    1.27
   1   4  10   35.51    1.26
   1   4  10   34.13    1.33
  -2  -4 -10   32.51    1.14
  -2  -4 -10   32.97    1.16
  -2  -4 -10   30.63    1.11
  -2  -4 -10   32.48    1.10
  -2  -4 -10   33.88    1.08
  -2  -4 -10   31.80    1.19
  -2  -4 -10   32.14    1.18
   2   4  10   31.46    1.31
   2   4  10   31.74    1.28
  -3  -4 -10    2.23    0.37
  -3  -4 -10    1.21    0.33
  -3  -4 -10    1.81    0.35
  -3  -4 -10    1.68    0.40
  -3  -4 -10    2.14    0.40
  -3  -4 -10    2.09    0.41
   3   4  10    0.59    0.39
   3   4  10    2.05    0.54
  -4  -4 -10    4.02    0.49
  -4  -4 -10    2.67    0.44
  -4  -4 -10    3.52    0.49
  -4  -4 -10    3.49    0.44
  -4  -4 -10    2.94    0.50
   4   4  10    3.56    0.48
   4   4  10    2.44    0.50
  -5  -4 -10    8.13    0.75
  -5  -4 -10    8.28    0.75
  -5  -4 -10    9.25    0.62
  -5  -4 -10    8.42    0.61
  -5  -4 -10    9.91    0.77
   5   4  10    8.90    0.71
   5   4  10    7.12    0.76
  -6  -4 -10    2.63    0.54
  -6  -4 -10    2.35    0.40
  -6  -4 -10    2.77    0.40
  -6  -4 -10    1.81    0.49
   6   4  10    1.91    0.53
   6   4  10    2.36    0.55
  -7  -4 -10    0.00    0.38
  -7  -4 -10    0.23    0.40
  -7  -4 -10    0.75    0.31
   7   4  10    0.16    0.47
   7   4  10    0.49    0.51
   4  -5 -10    2.27    0.58
   4  -5 -10    2.37    0.65
  -4   5  10    3.34    0.81
  -4   5  10    1.92    0.63
   3  -5 -10    1.44    0.41
   3  -5 -10    1.54    0.50
   3  -5 -10    3.03    0.68
   3  -5 -10    1.98    0.51
  -3   5  10    2.11    0.58
  -3   5  10    2.49    0.71
   2  -5 -10    2.40    0.49
   2  -5 -10    2.72    0.62
   2  -5 -10    1.59    0.47
   2  -5 -10    1.58    0.41
  -2   5  10    2.06    0.57
  -2   5  10    1.29    0.51
   1  -5 -10    7.39    0.60
   1  -5 -10    7.96    0.77
   1  -5 -10    8.18    0.68
   1  -5 -10    9.21    0.90
   1  -5 -10    7.57    0.75
   1  -5 -10    7.48    0.50
  -1   5  10    6.77    0.75
  -1   5  10    8.50    0.80
  -1   5  10    7.49    0.70
   0  -5 -10   12.45    0.85
   0  -5 -10   13.61    0.81
   0  -5 -10   13.62    0.74
   0  -5 -10   12.37    0.82
   0  -5 -10   14.16    0.77
   0  -5 -10   14.19    0.69
   0  -5 -10   13.32    0.75
   0   5  10   12.70    0.89
   0   5  10   13.25    0.86
   0   5  10   15.32    0.90
   0   5  10   13.52    0.88
  -1  -5 -10    9.66    0.69
  -1  -5 -10    8.28    0.52
  -1  -5 -10    9.68    0.68
  -1  -5 -10    8.72    0.69
  -1  -5 -10    8.51    0.67
  -1  -5 -10    9.04    0.55
  -1  -5 -10    9.10    0.58
  -1  -5 -10    8.19    0.62
   1   5  10    8.05    0.73
   1   5  10    8.78    0.68
   1   5  10    9.93    0.75
   1   5  10    8.34    0.81
  -2  -5 -10    0.72    0.30
  -2  -5 -10    0.42    0.23
  -2  -5 -10    0.65    0.30
  -2  -5 -10    0.44    0.31
  -2  -5 -10    0.23    0.27
  -2  -5 -10    0.24    0.29
  -2  -5 -10    0.43    0.30
   2   5  10    0.18    0.29
   2   5  10    0.23    0.43
   2   5  10    0.51    0.40
  -3  -5 -10    7.32    0.61
  -3  -5 -10    7.00    0.68
  -3  -5 -10    7.55    0.66
  -3  -5 -10    6.46    0.59
  -3  -5 -10    7.99    0.73
  -3  -5 -10    6.91    0.54
   3   5  10    6.56    0.74
   3   5  10    7.02    0.84
  -4  -5 -10    5.53    0.59
  -4  -5 -10    6.56    0.56
  -4  -5 -10    5.77    0.54
  -4  -5 -10    6.31    0.59
  -4  -5 -10    7.57    0.78
  -4  -5 -10    5.10    0.63
   4   5  10    5.82    0.72
   4   5  10    6.55    0.84
  -5  -5 -10   -0.24    0.22
  -5  -5 -10    0.02    0.24
  -5  -5 -10    0.37    0.38
  -5  -5 -10    0.09    0.33
  -5  -5 -10    0.23    0.29
   5   5  10    0.54    0.53
   5   5  10    0.18    0.44
   5   5  10    0.48    0.38
  -6  -5 -10    8.12    0.59
  -6  -5 -10    7.75    0.84
  -6  -5 -10    9.09    0.76
  -6  -5 -10    6.86    0.57
   6   5  10    7.48    0.79
   6   5  10    7.23    0.83
  -7  -5 -10    3.42    0.64
  -7  -5 -10    4.34    0.50
  -7  -5 -10    2.70    0.60
   7   5  10    2.57    0.63
   7   5  10    3.32    0.68
   4  -6 -10    0.62    0.46
   3  -6 -10    2.92    0.60
   3  -6 -10    3.28    0.74
   3  -6 -10    2.63    0.54
  -3   6  10    1.43    0.57
  -3   6  10    2.62    0.73
   2  -6 -10   11.29    0.88
   2  -6 -10   13.00    1.02
   2  -6 -10   14.80    0.98
   2  -6 -10   13.94    0.90
  -2   6  10   13.42    1.12
   1  -6 -10    7.19    0.76
   1  -6 -10    6.42    0.72
   1  -6 -10    7.01    0.76
   1  -6 -10    7.15    0.85
   1  -6 -10    6.85    0.72
  -1   6  10    6.07    0.78
  -1   6  10    6.99    0.74
  -1   6  10    7.41    0.83
   0  -6 -10    9.54    0.74
   0  -6 -10   12.36    0.93
   0  -6 -10   10.63    0.78
   0  -6 -10   11.89    0.70
   0  -6 -10   11.37    0.73
   0  -6 -10   10.45    0.82
   0  -6 -10   10.92    0.72
   0   6  10   11.39    0.88
   0   6  10   10.78    0.85
   0   6  10   12.94    0.93
  -1  -6 -10   34.51    1.38
  -1  -6 -10   33.82    1.14
  -1  -6 -10   34.75    1.31
  -1  -6 -10   34.11    1.31
  -1  -6 -10   34.34    1.22
  -1  -6 -10   35.27    1.33
   1   6  10   32.78    1.40
   1   6  10   36.54    1.37
   1   6  10   34.67    1.35
   1   6  10   33.89    1.46
  -2  -6 -10    9.15    0.70
  -2  -6 -10   10.16    0.73
  -2  -6 -10    9.37    0.73
  -2  -6 -10   11.16    0.75
  -2  -6 -10    9.63    0.66
   2   6  10    7.33    0.83
   2   6  10   10.14    0.84
  -3  -6 -10    7.17    0.75
  -3  -6 -10    5.89    0.58
  -3  -6 -10    6.96    0.63
  -3  -6 -10    7.09    0.66
  -3  -6 -10    8.63    0.78
   3   6  10    6.00    0.80
   3   6  10    5.64    0.74
  -4  -6 -10    1.87    0.39
  -4  -6 -10    1.97    0.39
  -4  -6 -10    2.03    0.50
  -4  -6 -10    1.79    0.40
  -4  -6 -10    1.48    0.43
   4   6  10    1.15    0.54
   4   6  10    1.62    0.51
  -5  -6 -10    6.99    0.57
  -5  -6 -10    5.85    0.66
  -5  -6 -10    5.96    0.75
  -5  -6 -10    5.00    0.53
  -5  -6 -10    6.16    0.73
   5   6  10    5.97    0.79
   5   6  10    6.11    0.66
   5   6  10    4.76    0.82
  -6  -6 -10    0.01    0.35
  -6  -6 -10    0.32    0.26
  -6  -6 -10   -0.90    0.30
  -6  -6 -10   -0.41    0.35
   6   6  10    0.60    0.47
   6   6  10    0.42    0.59
   6   6  10    0.47    0.41
  -7  -6 -10    0.71    0.47
  -7  -6 -10    1.12    0.34
   7   6  10   -0.37    0.39
   3  -7 -10    0.25    0.40
   3  -7 -10    0.53    0.62
   3  -7 -10    0.90    0.50
  -3   7  10   -0.32    0.44
  -3   7  10    0.22    0.65
   2  -7 -10    4.62    0.81
   2  -7 -10    4.01    0.68
   2  -7 -10    4.28    0.70
   2  -7 -10    4.36    0.70
  -2   7  10    6.56    0.90
  -2   7  10    4.70    0.82
   1  -7 -10    5.19    0.69
   1  -7 -10    4.46    0.65
   1  -7 -10    5.03    0.79
   1  -7 -10    4.25    0.66
  -1   7  10    4.33    0.70
  -1   7  10    6.13    0.85
  -1   7  10    3.75    0.93
   0  -7 -10    3.07    0.57
   0  -7 -10    1.49    0.41
   0  -7 -10    3.43    0.62
   0  -7 -10    3.65    0.63
   0  -7 -10    2.04    0.49
   0   7  10    2.43    0.60
   0   7  10    3.78    0.68
   0   7  10    2.96    0.61
  -1  -7 -10   17.16    1.02
  -1  -7 -10   15.29    0.81
  -1  -7 -10   16.39    0.98
  -1  -7 -10   15.86    0.86
  -1  -7 -10   15.71    0.94
  -1  -7 -10   13.77    0.93
   1   7  10   16.62    1.14
  -2  -7 -10    1.09    0.38
  -2  -7 -10    1.80    0.48
  -2  -7 -10    0.88    0.40
  -2  -7 -10    1.20    0.35
  -2  -7 -10    1.46    0.43
   2   7  10    1.46    0.59
   2   7  10    0.00    0.45
  -3  -7 -10    0.73    0.36
  -3  -7 -10    0.55    0.38
  -3  -7 -10    1.05    0.41
  -3  -7 -10    1.28    0.39
  -3  -7 -10    0.82    0.38
   3   7  10    0.51    0.56
   3   7  10    0.36    0.47
  -4  -7 -10   11.59    0.78
  -4  -7 -10   13.67    0.84
  -4  -7 -10   12.77    0.93
  -4  -7 -10   14.22    0.94
  -4  -7 -10   12.86    0.79
   4   7  10   10.62    0.90
   4   7  10   13.33    1.18
  -5  -7 -10    4.15    0.67
  -5  -7 -10    3.23    0.46
  -5  -7 -10    1.49    0.44
  -5  -7 -10    2.57    0.59
  -5  -7 -10    3.46    0.47
   5   7  10    2.32    0.69
   5   7  10    4.14    0.70
  -6  -7 -10    1.37    0.50
  -6  -7 -10    0.78    0.34
  -6  -7 -10    1.87    0.60
   6   7  10    0.36    0.48
   6   7  10    0.70    0.59
   6   7  10    1.42    0.53
   2  -8 -10    1.49    0.52
   2  -8 -10    1.40    0.68
   2  -8 -10    1.13    0.51
   2  -8 -10    2.49    0.64
  -2   8  10    3.10    0.83
  -2   8  10    2.08    0.64
   1  -8 -10    0.38    0.40
   1  -8 -10    0.42    0.52
   1  -8 -10    0.53    0.42
   1  -8 -10    0.57    0.39
  -1   8  10    0.95    0.51
  -1   8  10    1.10    0.60
   0  -8 -10    1.12    0.47
   0  -8 -10    1.21    0.51
   0  -8 -10    1.64    0.48
   0  -8 -10    0.80    0.46
   0  -8 -10    1.15    0.42
   0  -8 -10    1.17    0.53
   0   8  10    1.54    0.59
   0   8  10    0.92    0.60
  -1  -8 -10    0.62    0.42
  -1  -8 -10    0.12    0.34
  -1  -8 -10    0.07    0.42
  -1  -8 -10    0.40    0.41
  -1  -8 -10    0.11    0.27
   1   8  10    0.71    0.59
  -2  -8 -10    8.84    0.84
  -2  -8 -10    9.63    0.91
  -2  -8 -10    6.62    0.78
  -2  -8 -10    7.29    0.66
   2   8  10    8.64    1.06
  -3  -8 -10    8.37    0.81
  -3  -8 -10   10.65    0.82
  -3  -8 -10   10.18    0.74
  -3  -8 -10    9.35    0.89
  -3  -8 -10    9.62    0.96
   3   8  10    8.21    1.02
  -4  -8 -10    0.89    0.39
  -4  -8 -10    1.04    0.60
  -4  -8 -10    0.86    0.40
  -4  -8 -10    0.88    0.47
  -4  -8 -10   -0.01    0.40
   4   8  10    0.73    0.54
   4   8  10    0.90    0.58
  -5  -8 -10   11.98    0.78
  -5  -8 -10   11.03    1.06
  -5  -8 -10   12.52    0.96
  -5  -8 -10   13.33    0.82
   5   8  10   11.26    1.26
   5   8  10   11.95    0.99
  -6  -8 -10    2.74    0.47
  -6  -8 -10    3.46    0.68
  -6  -8 -10    2.96    0.64
   6   8  10    1.78    0.60
   6   8  10    1.29    0.67
   0  -9 -10    0.36    0.43
   0  -9 -10   -0.37    0.49
   0  -9 -10    0.01    0.41
   0  -9 -10   -0.20    0.35
   0   9  10   -0.36    0.54
  -1  -9 -10   12.09    1.03
  -1  -9 -10   13.07    1.03
  -1  -9 -10   15.17    1.15
  -1  -9 -10   13.09    0.97
  -1  -9 -10   13.41    1.02
   1   9  10   13.64    1.23
  -2  -9 -10    0.90    0.51
  -2  -9 -10    0.61    0.47
  -2  -9 -10    0.15    0.42
  -2  -9 -10    0.86    0.46
  -2  -9 -10    0.61    0.47
   2   9  10    0.43    0.63
  -3  -9 -10    0.18    0.39
  -3  -9 -10    0.19    0.41
  -3  -9 -10   -0.17    0.39
  -3  -9 -10   -0.10    0.41
   3   9  10    0.77    0.58
  -4  -9 -10    6.22    0.70
  -4  -9 -10    7.10    0.92
  -4  -9 -10    6.42    0.74
  -4  -9 -10    6.32    0.81
   4   9  10    5.48    0.98
  -5  -9 -10   -0.19    0.44
  -5  -9 -10    0.61    0.46
  -5  -9 -10    0.18    0.33
  -5  -9 -10    0.95    0.38
   5   9  10   -0.62    0.60
  -2 -10 -10    1.69    0.59
  -2 -10 -10    0.88    0.55
  -3 -10 -10    6.82    0.82
   3   8 -11    0.60    0.56
  -3  -8  11   -0.25    0.45
  -3  -8  11    0.14    0.53
  -3  -8  11   -0.58    0.56
   2   8 -11    0.33    0.57
  -2  -8  11    0.10    0.52
  -2  -8  11    0.12    0.65
  -2  -8  11   -0.48    0.48
  -2  -8  11   -1.02    0.41
   1   8 -11    1.24    0.68
  -1  -8  11    1.21    0.61
  -1  -8  11    1.85    0.65
   0   8 -11    1.90    0.75
   0  -8  11    1.70    0.74
   0  -8  11    2.98    0.76
   4   7 -11    6.24    0.90
  -4  -7  11    7.52    0.86
  -4  -7  11    8.25    0.90
  -4  -7  11    9.47    1.10
  -4  -7  11    6.94    0.94
   3   7 -11    1.08    0.58
  -3  -7  11    0.28    0.50
  -3  -7  11    0.96    0.60
  -3  -7  11    0.92    0.53
   2   7 -11    2.21    0.70
  -2  -7  11    1.51    0.50
  -2  -7  11    1.01    0.47
  -2  -7  11    1.89    0.59
  -2  -7  11    2.21    0.65
   1   7 -11   11.10    0.84
   1   7 -11    9.36    1.12
  -1  -7  11   10.05    1.13
  -1  -7  11    7.89    0.88
  -1  -7  11    8.74    0.96
  -1  -7  11    9.23    0.96
   0   7 -11    4.98    0.68
   0   7 -11    5.68    0.81
   0  -7  11    4.86    0.85
   0  -7  11    4.72    0.82
  -1   7 -11   -0.04    0.43
  -1   7 -11   -0.28    0.33
   1  -7  11   -0.02    0.48
   1  -7  11    0.11    0.57
  -2   7 -11   -0.13    0.36
  -2   7 -11    0.21    0.49
   2  -7  11   -0.65    0.49
   2  -7  11    0.33    0.60
   5   6 -11    0.21    0.49
  -5  -6  11   -0.13    0.45
  -5  -6  11    0.25    0.45
  -5  -6  11    0.92    0.63
   4   6 -11    6.88    1.22
  -4  -6  11    7.24    0.98
  -4  -6  11    7.62    0.84
  -4  -6  11    8.60    0.96
  -4  -6  11    6.25    0.79
   3   6 -11    0.66    0.50
   3   6 -11    0.90    0.48
  -3  -6  11    0.03    0.44
  -3  -6  11    1.50    0.59
  -3  -6  11    1.83    0.55
  -3  -6  11    0.08    0.44
   2   6 -11    0.59    0.52
  -2  -6  11    1.12    0.49
  -2  -6  11    1.17    0.55
  -2  -6  11    0.13    0.38
  -2  -6  11    0.00    0.46
   1   6 -11   13.68    0.90
   1   6 -11   12.21    0.94
  -1  -6  11   14.58    1.02
  -1  -6  11   12.06    1.02
  -1  -6  11   14.91    1.05
  -1  -6  11   12.92    0.93
   0   6 -11    1.72    0.51
   0   6 -11    1.54    0.44
   0  -6  11    2.19    0.60
   0  -6  11    0.96    0.52
   0  -6  11    1.54    0.57
  -1   6 -11    0.18    0.38
  -1   6 -11    0.07    0.41
   1  -6  11    0.32    0.55
   1  -6  11    0.88    0.53
  -2   6 -11    5.79    0.84
  -2   6 -11    6.14    0.77
   2  -6  11    6.03    0.88
   2  -6  11    7.44    0.94
  -3   6 -11    1.08    0.55
  -3   6 -11    0.69    0.49
   3  -6  11    0.96    0.64
   3  -6  11    1.04    0.62
   5   5 -11    1.32    0.56
  -5  -5  11    0.66    0.45
  -5  -5  11    1.05    0.50
  -5  -5  11    1.96    0.72
   4   5 -11    0.30    0.41
  -4  -5  11   -0.47    0.37
  -4  -5  11   -0.18    0.41
  -4  -5  11   -0.10    0.40
  -4  -5  11   -0.05    0.52
   3   5 -11    3.67    0.64
   3   5 -11    3.80    0.63
  -3  -5  11    2.99    0.59
  -3  -5  11    4.03    0.71
  -3  -5  11    2.85    0.62
  -3  -5  11    2.66    0.54
   2   5 -11   15.95    1.02
   2   5 -11   17.07    0.97
  -2  -5  11   18.21    0.91
  -2  -5  11   17.86    1.04
  -2  -5  11   19.34    1.13
  -2  -5  11   16.94    1.05
   1   5 -11    5.95    0.66
   1   5 -11    6.95    0.75
  -1  -5  11    6.52    0.71
  -1  -5  11    5.87    0.69
  -1  -5  11    7.50    0.84
  -1  -5  11    7.13    0.80
   0   5 -11   18.97    1.10
   0   5 -11   17.22    0.95
   0  -5  11   17.35    1.01
   0  -5  11   17.85    1.12
   0  -5  11   18.96    1.16
   0  -5  11   16.01    1.02
  -1   5 -11   24.64    1.16
  -1   5 -11   24.41    1.26
   1  -5  11   24.24    1.31
   1  -5  11   24.76    1.29
   1  -5  11   26.04    1.33
  -2   5 -11    3.62    0.69
  -2   5 -11    2.44    0.54
   2  -5  11    3.43    0.72
   2  -5  11    3.00    0.66
   2  -5  11    5.05    0.81
  -3   5 -11    1.95    0.58
  -3   5 -11    1.45    0.50
   3  -5  11    1.23    0.62
   3  -5  11    2.25    0.67
   3  -5  11    0.88    0.53
  -4   5 -11    3.19    0.71
  -4   5 -11    4.39    0.81
   4  -5  11    4.12    0.80
   4  -5  11    3.33    0.81
   6   4 -11    5.35    0.84
  -6  -4  11    7.19    0.80
  -6  -4  11    5.20    0.93
  -6  -4  11    7.17    0.84
   5   4 -11   -0.21    0.40
  -5  -4  11    0.00    0.43
  -5  -4  11    1.00    0.47
  -5  -4  11    0.15    0.56
   4   4 -11    3.15    0.60
  -4  -4  11    3.57    0.60
  -4  -4  11    3.15    0.66
  -4  -4  11    3.89    0.66
   3   4 -11    1.04    0.42
   3   4 -11   -0.02    0.32
  -3  -4  11    0.94    0.50
  -3  -4  11    0.40    0.37
  -3  -4  11    0.69    0.41
  -3  -4  11    0.01    0.38
   2   4 -11    5.95    0.65
   2   4 -11    6.42    0.77
  -2  -4  11    4.88    0.57
  -2  -4  11    6.72    0.76
  -2  -4  11    5.81    0.64
  -2  -4  11    5.66    0.69
  -2  -4  11    6.76    0.75
   1   4 -11   33.53    1.28
   1   4 -11   31.59    1.31
   1   4 -11   29.60    0.98
   1   4 -11   35.06    1.36
  -1  -4  11   33.54    1.38
  -1  -4  11   32.13    1.30
  -1  -4  11   33.00    1.39
  -1  -4  11   31.54    1.21
  -1  -4  11   30.89    1.07
  -1  -4  11   32.16    1.22
   0   4 -11    7.44    0.49
   0   4 -11    7.95    0.58
   0   4 -11    7.39    0.70
   0   4 -11    8.95    0.86
   0  -4  11    7.35    0.72
   0  -4  11    8.39    0.86
   0  -4  11    6.36    0.68
   0  -4  11    6.78    0.74
  -1   4 -11    0.22    0.34
  -1   4 -11    0.65    0.25
  -1   4 -11    0.44    0.23
  -1   4 -11    0.52    0.39
   1  -4  11   -0.10    0.37
   1  -4  11    0.52    0.42
   1  -4  11    0.86    0.43
  -2   4 -11   13.02    0.71
  -2   4 -11   14.13    0.91
  -2   4 -11   13.83    0.69
  -2   4 -11   14.93    1.00
   2  -4  11   13.43    1.03
   2  -4  11   13.88    1.07
   2  -4  11   12.87    0.95
  -3   4 -11    3.08    0.46
  -3   4 -11    4.73    0.69
  -3   4 -11    2.91    0.56
  -3   4 -11    3.92    0.49
  -3   4 -11    3.77    0.68
   3  -4  11    4.56    0.74
   3  -4  11    3.59    0.69
   3  -4  11    3.33    0.69
  -4   4 -11    0.61    0.36
  -4   4 -11    0.96    0.48
  -4   4 -11    1.25    0.49
  -4   4 -11    2.38    0.61
  -4   4 -11    1.08    0.39
   4  -4  11    0.20    0.56
  -5   4 -11   -0.14    0.42
  -5   4 -11    0.71    0.51
  -5   4 -11    0.34    0.39
  -5   4 -11   -0.86    0.37
   5  -4  11    1.48    0.64
   6   3 -11    2.37    0.64
  -6  -3  11    3.11    0.67
  -6  -3  11    1.84    0.53
  -6  -3  11    2.60    0.78
   5   3 -11    2.84    0.63
  -5  -3  11    3.78    0.64
  -5  -3  11    3.59    0.80
  -5  -3  11    3.73    0.62
   4   3 -11    0.14    0.37
  -4  -3  11   -0.30    0.36
  -4  -3  11   -0.42    0.31
  -4  -3  11   -0.64    0.39
   3   3 -11    3.10    0.49
   3   3 -11    2.23    0.49
  -3  -3  11    2.99    0.52
  -3  -3  11    2.91    0.58
  -3  -3  11    3.65    0.53
  -3  -3  11    2.73    0.55
   2   3 -11   13.73    0.61
   2   3 -11   15.01    0.92
   2   3 -11   15.06    0.87
  -2  -3  11   14.60    0.75
  -2  -3  11   15.64    0.90
  -2  -3  11   14.99    0.97
  -2  -3  11   14.32    0.89
  -2  -3  11   13.41    0.87
   1   3 -11    0.72    0.25
   1   3 -11    0.74    0.37
   1   3 -11    1.15    0.37
   1   3 -11    0.82    0.34
   1   3 -11    0.91    0.23
   1   3 -11    0.84    0.24
  -1  -3  11    1.01    0.26
  -1  -3  11    0.97    0.38
  -1  -3  11    1.13    0.43
  -1  -3  11    0.78    0.36
  -1  -3  11    0.54    0.32
  -1  -3  11    0.42    0.33
  -1  -3  11    0.76    0.38
   0   3 -11    0.57    0.27
   0   3 -11    1.27    0.26
   0   3 -11    1.73    0.46
   0   3 -11    0.99    0.36
   0   3 -11    1.58    0.40
   0   3 -11    1.47    0.29
   0  -3  11    1.00    0.30
   0  -3  11    1.42    0.35
   0  -3  11    1.42    0.47
   0  -3  11    1.14    0.39
   0  -3  11    1.32    0.33
   0  -3  11    1.79    0.49
   0  -3  11    1.30    0.39
  -1   3 -11    7.75    0.59
  -1   3 -11    8.63    0.85
  -1   3 -11    6.95    0.59
  -1   3 -11    6.89    0.48
  -1   3 -11    6.69    0.69
  -1   3 -11    7.09    0.53
   1  -3  11    6.73    0.45
   1  -3  11    7.02    0.66
   1  -3  11    7.03    0.73
   1  -3  11    7.00    0.77
   1  -3  11    7.29    0.77
  -2   3 -11    8.56    0.59
  -2   3 -11    7.26    0.74
  -2   3 -11    8.58    0.84
  -2   3 -11    7.98    0.58
  -2   3 -11    7.07    0.71
   2  -3  11    5.50    0.72
   2  -3  11    8.03    0.85
   2  -3  11    6.12    0.73
  -3   3 -11    0.27    0.38
  -3   3 -11    0.05    0.25
  -3   3 -11    0.24    0.33
  -3   3 -11    0.38    0.28
  -3   3 -11    0.39    0.41
   3  -3  11    0.33    0.44
   3  -3  11    0.38    0.45
   3  -3  11    0.49    0.40
  -4   3 -11    3.42    0.54
  -4   3 -11    2.74    0.58
  -4   3 -11    2.94    0.60
  -4   3 -11    2.17    0.49
  -4   3 -11    2.38    0.56
   4  -3  11    2.58    0.66
  -5   3 -11    2.32    0.56
  -5   3 -11    2.24    0.61
  -5   3 -11    2.87    0.58
  -5   3 -11    2.05    0.59
   5  -3  11    2.59    0.72
   6   2 -11   10.01    1.05
  -6  -2  11    9.66    1.14
   5   2 -11    3.15    0.63
  -5  -2  11    2.54    0.72
  -5  -2  11    3.80    0.66
  -5  -2  11    3.78    0.64
   4   2 -11    7.91    0.82
  -4  -2  11    5.88    0.67
  -4  -2  11   10.70    1.02
  -4  -2  11    8.34    0.82
   3   2 -11    6.35    0.70
   3   2 -11    7.55    0.65
   3   2 -11    7.08    0.52
  -3  -2  11    6.59    0.73
  -3  -2  11    6.84    0.75
  -3  -2  11    7.12    0.71
  -3  -2  11    7.46    0.64
   2   2 -11    0.55    0.31
   2   2 -11    0.22    0.28
   2   2 -11    0.62    0.24
  -2  -2  11    0.44    0.30
  -2  -2  11    0.29    0.32
  -2  -2  11    0.50    0.38
  -2  -2  11    0.65    0.35
  -2  -2  11    0.41    0.40
  -2  -2  11    0.58    0.38
   1   2 -11   14.24    0.82
   1   2 -11   13.54    0.85
   1   2 -11   14.42    0.59
   1   2 -11   15.40    0.83
   1   2 -11   13.90    0.73
   1   2 -11   15.72    0.72
   1   2 -11   14.75    0.65
  -1  -2  11   14.58    0.61
  -1  -2  11   15.53    0.79
  -1  -2  11   16.78    0.97
  -1  -2  11   15.52    0.89
  -1  -2  11   13.86    0.85
  -1  -2  11   14.53    0.79
  -1  -2  11   13.86    0.78
   0   2 -11    4.98    0.48
   0   2 -11    4.48    0.53
   0   2 -11    4.64    0.44
   0   2 -11    4.90    0.46
   0   2 -11    4.14    0.55
   0   2 -11    4.98    0.56
   0   2 -11    4.91    0.51
   0   2 -11    4.52    0.51
   0  -2  11    4.14    0.53
   0  -2  11    4.52    0.50
   0  -2  11    4.96    0.47
   0  -2  11    4.88    0.44
   0  -2  11    5.29    0.63
   0  -2  11    4.34    0.61
   0  -2  11    5.33    0.58
  -1   2 -11    3.49    0.51
  -1   2 -11    3.31    0.51
  -1   2 -11    3.88    0.42
  -1   2 -11    3.54    0.42
  -1   2 -11    3.36    0.51
  -1   2 -11    3.55    0.44
  -1   2 -11    3.54    0.45
   1  -2  11    3.59    0.55
   1  -2  11    3.87    0.51
   1  -2  11    2.97    0.51
   1  -2  11    3.21    0.42
   1  -2  11    4.03    0.36
   1  -2  11    2.71    0.39
   1  -2  11    3.99    0.61
  -2   2 -11    8.60    0.70
  -2   2 -11    9.28    0.64
  -2   2 -11    9.12    0.70
  -2   2 -11    8.97    0.77
  -2   2 -11    9.89    0.63
  -2   2 -11    7.90    0.57
  -2   2 -11    8.73    0.59
   2  -2  11    8.90    0.76
   2  -2  11    8.91    0.73
   2  -2  11    9.91    0.79
  -3   2 -11    3.05    0.52
  -3   2 -11    3.19    0.47
  -3   2 -11    3.31    0.55
  -3   2 -11    4.07    0.61
  -3   2 -11    2.51    0.43
   3  -2  11    2.98    0.60
   3  -2  11    2.65    0.52
  -4   2 -11    1.64    0.42
  -4   2 -11    2.07    0.50
  -4   2 -11    2.00    0.50
  -4   2 -11    2.10    0.49
  -4   2 -11    1.58    0.42
   4  -2  11    1.91    0.61
  -5   2 -11   -0.07    0.35
  -5   2 -11   -0.35    0.30
  -5   2 -11   -0.51    0.41
  -5   2 -11   -0.09    0.38
   5  -2  11    0.19    0.48
   5  -2  11    0.30    0.44
  -6   2 -11   -0.35    0.43
  -6   2 -11    0.60    0.45
  -6   2 -11   -0.20    0.36
  -6   2 -11   -0.07    0.36
   6  -2  11    0.00    0.51
   6  -2  11   -0.01    0.51
   6   1 -11    3.00    0.68
  -6  -1  11    2.54    0.58
  -6  -1  11    1.88    0.78
  -6  -1  11    1.88    0.56
   5   1 -11    0.14    0.39
  -5  -1  11    1.48    0.55
  -5  -1  11    0.77    0.66
  -5  -1  11    0.12    0.40
   4   1 -11    0.48    0.37
  -4  -1  11    0.46    0.55
  -4  -1  11   -0.02    0.39
  -4  -1  11    0.28    0.40
   3   1 -11    2.74    0.50
   3   1 -11    3.81    0.57
   3   1 -11    4.00    0.49
  -3  -1  11    3.28    0.51
  -3  -1  11    2.47    0.43
  -3  -1  11    3.37    0.58
  -3  -1  11    3.23    0.62
  -3  -1  11    3.20    0.59
   2   1 -11    3.46    0.43
   2   1 -11    3.32    0.52
   2   1 -11    3.71    0.55
  -2  -1  11    3.40    0.45
  -2  -1  11    3.72    0.55
  -2  -1  11    2.51    0.47
  -2  -1  11    3.94    0.57
  -2  -1  11    3.12    0.44
   1   1 -11   49.07    1.40
   1   1 -11   49.50    1.55
   1   1 -11   50.21    1.59
   1   1 -11   51.50    1.39
   1   1 -11   49.52    1.48
   1   1 -11   49.74    1.42
   1   1 -11   48.74    1.20
   1   1 -11   51.40    1.10
   1   1 -11   50.73    1.56
  -1  -1  11   48.36    1.47
  -1  -1  11   48.98    1.54
  -1  -1  11   49.32    1.21
  -1  -1  11   49.33    1.64
  -1  -1  11   47.39    1.40
  -1  -1  11   51.17    1.56
  -1  -1  11   50.35    1.46
   0   1 -11    0.21    0.30
   0   1 -11    0.43    0.25
   0   1 -11    0.53    0.28
   0   1 -11   -0.07    0.23
   0   1 -11    0.13    0.21
   0   1 -11    0.02    0.17
   0   1 -11    0.38    0.20
   0   1 -11    0.58    0.24
   0  -1  11    0.58    0.38
   0  -1  11    0.20    0.31
   0  -1  11   -0.25    0.25
   0  -1  11    0.39    0.22
   0  -1  11    0.75    0.33
   0  -1  11    0.20    0.20
   0  -1  11    0.00    0.24
  -1   1 -11    4.90    0.45
  -1   1 -11    5.33    0.57
  -1   1 -11    5.56    0.43
  -1   1 -11    4.90    0.59
  -1   1 -11    5.69    0.46
  -1   1 -11    4.39    0.54
  -1   1 -11    5.78    0.56
  -1   1 -11    4.77    0.50
   1  -1  11    5.02    0.59
   1  -1  11    5.62    0.65
   1  -1  11    4.65    0.51
   1  -1  11    4.49    0.44
   1  -1  11    5.26    0.44
   1  -1  11    4.82    0.36
  -2   1 -11   59.10    1.78
  -2   1 -11   62.42    1.66
  -2   1 -11   59.05    1.67
  -2   1 -11   63.39    1.68
  -2   1 -11   60.60    1.82
  -2   1 -11   62.52    1.59
  -2   1 -11   61.88    1.76
   2  -1  11   62.10    1.83
   2  -1  11   55.93    1.79
  -3   1 -11    0.51    0.31
  -3   1 -11    0.16    0.32
  -3   1 -11    0.13    0.26
  -3   1 -11    0.03    0.26
  -3   1 -11    0.22    0.32
  -3   1 -11    0.18    0.21
   3  -1  11    0.61    0.37
   3  -1  11   -0.22    0.36
  -4   1 -11    4.97    0.60
  -4   1 -11    4.16    0.61
  -4   1 -11    5.15    0.66
  -4   1 -11    3.90    0.54
  -4   1 -11    4.08    0.54
   4  -1  11    4.85    0.73
  -5   1 -11   -0.54    0.34
  -5   1 -11    0.03    0.35
  -5   1 -11    0.47    0.37
  -5   1 -11    0.46    0.37
   5  -1  11    1.26    0.56
   5  -1  11    0.44    0.46
  -6   1 -11    0.62    0.52
  -6   1 -11    1.03    0.47
  -6   1 -11    0.74    0.41
  -6   1 -11    0.80    0.45
   6  -1  11    1.27    0.57
   6  -1  11    1.53    0.61
   6   0 -11   10.09    1.07
  -6   0  11   15.11    1.41
  -6   0  11   12.14    1.00
  -6   0  11   10.68    1.05
   5   0 -11    3.07    0.63
  -5   0  11    3.39    0.64
  -5   0  11    4.54    0.67
  -5   0  11    4.76    0.83
   4   0 -11    1.17    0.44
  -4   0  11    0.18    0.44
  -4   0  11    0.84    0.42
  -4   0  11    0.13    0.48
   3   0 -11    0.01    0.28
   3   0 -11   -0.22    0.25
   3   0 -11   -0.10    0.28
  -3   0  11    0.07    0.28
  -3   0  11    0.26    0.34
  -3   0  11    0.18    0.40
  -3   0  11   -0.09    0.27
  -3   0  11    0.70    0.40
   2   0 -11    1.35    0.34
   2   0 -11    2.17    0.45
   2   0 -11    1.59    0.39
  -2   0  11    1.90    0.39
  -2   0  11    1.59    0.44
  -2   0  11    1.70    0.46
  -2   0  11    1.19    0.41
  -2   0  11    1.33    0.33
   1   0 -11   -0.16    0.19
   1   0 -11    0.28    0.27
   1   0 -11    0.16    0.13
   1   0 -11    0.20    0.15
   1   0 -11    0.19    0.24
   1   0 -11    0.28    0.22
   1   0 -11    0.33    0.29
   1   0 -11    0.39    0.23
  -1   0  11   -0.02    0.35
  -1   0  11    0.18    0.32
  -1   0  11    0.45    0.32
  -1   0  11    0.29    0.32
  -1   0  11    0.04    0.21
   0   0 -11    3.04    0.34
   0   0 -11    3.06    0.44
   0   0 -11    3.25    0.35
   0   0 -11    3.12    0.40
   0   0 -11    3.54    0.51
   0   0 -11    4.19    0.52
   0   0 -11    3.32    0.44
   0   0 -11    2.39    0.39
   0   0  11    3.36    0.40
   0   0  11    2.93    0.42
   0   0  11    3.67    0.56
   0   0  11    2.74    0.50
   0   0  11    2.53    0.33
   0   0  11    2.54    0.33
  -1   0 -11   11.47    0.68
  -1   0 -11   10.31    0.62
  -1   0 -11   11.66    0.60
  -1   0 -11   11.56    0.73
  -1   0 -11   10.42    0.59
  -1   0 -11   11.25    0.62
  -1   0 -11   10.82    0.72
  -1   0 -11   11.11    0.52
   1   0  11   11.24    0.79
   1   0  11   11.27    0.62
   1   0  11   10.87    0.67
   1   0  11    9.67    0.74
   1   0  11   11.20    0.54
   1   0  11   11.21    0.49
  -2   0 -11   10.40    0.64
  -2   0 -11    9.65    0.62
  -2   0 -11   10.04    0.51
  -2   0 -11   10.27    0.64
  -2   0 -11    9.24    0.68
  -2   0 -11    9.61    0.67
  -2   0 -11    9.30    0.67
   2   0  11   10.21    0.75
   2   0  11    9.92    0.74
  -3   0 -11    0.08    0.28
  -3   0 -11    0.39    0.28
  -3   0 -11    0.07    0.28
  -3   0 -11    0.15    0.29
  -3   0 -11    0.26    0.20
  -3   0 -11   -0.41    0.22
   3   0  11    0.15    0.37
   3   0  11   -0.16    0.32
  -4   0 -11    0.81    0.35
  -4   0 -11    0.65    0.32
  -4   0 -11    0.94    0.34
  -4   0 -11    0.15    0.32
  -4   0 -11    0.34    0.38
   4   0  11    1.12    0.42
   4   0  11    0.95    0.48
  -5   0 -11    1.80    0.46
  -5   0 -11    3.03    0.59
  -5   0 -11    2.62    0.47
  -5   0 -11    2.66    0.51
  -5   0 -11    2.62    0.55
   5   0  11    2.77    0.60
   5   0  11    2.89    0.59
  -6   0 -11   -0.12    0.40
  -6   0 -11   -0.01    0.33
  -6   0 -11    0.52    0.43
  -6   0 -11    0.43    0.36
   6   0  11   -0.07    0.41
   6   0  11   -0.01    0.44
   5  -1 -11    0.26    0.41
  -5   1  11    0.16    0.43
  -5   1  11   -0.27    0.53
  -5   1  11    0.19    0.41
   4  -1 -11    0.02    0.34
  -4   1  11    1.05    0.45
  -4   1  11    0.24    0.51
   3  -1 -11    5.57    0.60
   3  -1 -11    6.23    0.73
   3  -1 -11    5.81    0.69
  -3   1  11    6.92    0.80
  -3   1  11    6.80    0.65
  -3   1  11    5.56    0.69
  -3   1  11    6.04    0.60
   2  -1 -11   17.58    0.85
   2  -1 -11   18.48    0.93
   2  -1 -11   15.05    0.92
  -2   1  11   17.70    0.93
  -2   1  11   18.13    0.80
  -2   1  11   15.17    0.82
  -2   1  11   17.96    0.99
  -2   1  11   18.36    1.00
   1  -1 -11   25.47    0.76
   1  -1 -11   26.35    0.79
   1  -1 -11   26.02    1.01
   1  -1 -11   26.25    1.05
   1  -1 -11   26.58    1.01
   1  -1 -11   26.33    1.04
   1  -1 -11   26.91    1.14
   1  -1 -11   25.28    1.03
  -1   1  11   25.87    1.03
  -1   1  11   25.73    1.16
  -1   1  11   28.30    1.07
  -1   1  11   26.45    0.88
  -1   1  11   26.79    1.07
   0  -1 -11    0.64    0.28
   0  -1 -11    0.48    0.26
   0  -1 -11    0.37    0.19
   0  -1 -11    0.30    0.25
   0  -1 -11    0.04    0.26
   0  -1 -11    0.37    0.22
   0  -1 -11    0.61    0.20
   0  -1 -11    0.24    0.25
   0   1  11    0.70    0.19
   0   1  11    0.23    0.27
   0   1  11    0.63    0.38
   0   1  11    0.30    0.32
   0   1  11    0.60    0.29
  -1  -1 -11   24.17    0.97
  -1  -1 -11   21.21    0.66
  -1  -1 -11   21.32    0.81
  -1  -1 -11   23.35    0.97
  -1  -1 -11   22.18    1.00
  -1  -1 -11   22.05    0.82
  -1  -1 -11   20.76    0.88
  -1  -1 -11   21.91    0.92
   1   1  11   20.46    0.99
   1   1  11   21.77    0.67
   1   1  11   22.23    0.72
   1   1  11   22.56    0.99
   1   1  11   21.78    0.84
   1   1  11   21.86    0.90
  -2  -1 -11   53.79    1.49
  -2  -1 -11   51.84    1.57
  -2  -1 -11   52.59    1.53
  -2  -1 -11   54.11    1.23
  -2  -1 -11   51.81    1.60
  -2  -1 -11   53.15    1.52
  -2  -1 -11   51.43    1.30
  -2  -1 -11   52.75    1.55
   2   1  11   50.91    1.63
   2   1  11   54.27    1.52
   2   1  11   48.61    1.56
  -3  -1 -11   12.66    0.77
  -3  -1 -11   12.51    0.72
  -3  -1 -11   12.78    0.81
  -3  -1 -11   13.08    0.77
  -3  -1 -11   12.07    0.73
  -3  -1 -11   11.82    0.72
   3   1  11   11.89    0.82
   3   1  11   12.80    0.72
   3   1  11   12.49    0.77
  -4  -1 -11    0.70    0.31
  -4  -1 -11    1.26    0.36
  -4  -1 -11    0.56    0.33
  -4  -1 -11    0.86    0.37
  -4  -1 -11    0.60    0.32
   4   1  11    0.48    0.42
   4   1  11    0.45    0.34
  -5  -1 -11    2.68    0.53
  -5  -1 -11    2.76    0.56
  -5  -1 -11    2.86    0.47
  -5  -1 -11    2.72    0.48
  -5  -1 -11    3.37    0.53
   5   1  11    2.63    0.61
   5   1  11    2.76    0.53
  -6  -1 -11    0.21    0.41
  -6  -1 -11    0.76    0.44
  -6  -1 -11    0.57    0.36
  -6  -1 -11    1.01    0.39
   6   1  11    0.33    0.47
   6   1  11    0.26    0.46
  -7  -1 -11    1.73    0.46
  -7  -1 -11    0.48    0.50
  -7  -1 -11    2.23    0.62
  -7  -1 -11    1.57    0.44
   7   1  11    0.88    0.57
   7   1  11    1.99    0.66
   5  -2 -11   21.37    1.31
  -5   2  11   25.14    1.61
  -5   2  11   26.55    1.45
  -5   2  11   21.08    1.26
   4  -2 -11    4.21    0.65
   4  -2 -11    5.42    0.75
  -4   2  11    4.26    0.83
  -4   2  11    4.61    0.69
  -4   2  11    4.22    0.63
   3  -2 -11    2.62    0.52
   3  -2 -11    1.97    0.47
   3  -2 -11    2.38    0.50
  -3   2  11    2.04    0.50
  -3   2  11    2.61    0.45
  -3   2  11    2.84    0.57
  -3   2  11    2.93    0.61
   2  -2 -11   11.68    0.79
   2  -2 -11   12.77    0.85
   2  -2 -11   13.91    0.82
   2  -2 -11   12.35    0.56
  -2   2  11   11.96    0.89
  -2   2  11   12.99    0.67
  -2   2  11   13.25    0.86
  -2   2  11   12.14    0.74
  -2   2  11   12.97    0.90
   1  -2 -11   10.90    0.80
   1  -2 -11   11.04    0.48
   1  -2 -11   10.49    0.68
   1  -2 -11   10.63    0.70
   1  -2 -11   10.83    0.55
   1  -2 -11   11.19    0.68
   1  -2 -11   10.52    0.68
  -1   2  11   11.39    0.73
  -1   2  11   11.73    0.79
  -1   2  11   10.98    0.80
  -1   2  11    9.87    0.51
   0  -2 -11    5.79    0.62
   0  -2 -11    6.03    0.55
   0  -2 -11    5.18    0.43
   0  -2 -11    5.74    0.59
   0  -2 -11    5.50    0.57
   0  -2 -11    6.50    0.59
   0  -2 -11    5.65    0.40
   0  -2 -11    4.95    0.52
   0   2  11    5.26    0.60
   0   2  11    6.35    0.58
   0   2  11    4.76    0.58
   0   2  11    6.26    0.56
   0   2  11    5.64    0.33
  -1  -2 -11    8.86    0.52
  -1  -2 -11    9.16    0.55
  -1  -2 -11    8.41    0.65
  -1  -2 -11   10.25    0.63
  -1  -2 -11    8.49    0.59
  -1  -2 -11    9.58    0.65
  -1  -2 -11    9.58    0.56
  -1  -2 -11    9.64    0.66
   1   2  11    8.76    0.68
   1   2  11    9.50    0.70
   1   2  11    9.07    0.34
   1   2  11    8.94    0.50
  -2  -2 -11   14.84    0.77
  -2  -2 -11   16.03    0.80
  -2  -2 -11   14.69    0.78
  -2  -2 -11   14.49    0.77
  -2  -2 -11   14.49    0.81
  -2  -2 -11   15.33    0.74
   2   2  11   13.17    0.84
   2   2  11   15.67    0.64
   2   2  11   16.03    0.84
  -3  -2 -11   13.07    0.78
  -3  -2 -11   12.34    0.73
  -3  -2 -11   12.08    0.75
  -3  -2 -11   12.74    0.73
  -3  -2 -11   11.54    0.73
  -3  -2 -11   12.21    0.72
   3   2  11   13.30    0.87
   3   2  11   10.93    0.70
   3   2  11   12.40    0.68
  -4  -2 -11    3.02    0.50
  -4  -2 -11    3.14    0.46
  -4  -2 -11    2.00    0.40
  -4  -2 -11    3.46    0.50
  -4  -2 -11    3.36    0.53
   4   2  11    2.05    0.43
   4   2  11    3.24    0.59
  -5  -2 -11    4.81    0.60
  -5  -2 -11    4.12    0.54
  -5  -2 -11    3.95    0.59
  -5  -2 -11    4.42    0.56
  -5  -2 -11    4.51    0.65
   5   2  11    4.67    0.72
   5   2  11    3.67    0.59
  -6  -2 -11   -0.26    0.29
  -6  -2 -11    0.31    0.32
  -6  -2 -11    0.32    0.31
  -6  -2 -11   -0.22    0.41
   6   2  11   -0.41    0.32
   6   2  11   -0.43    0.40
  -7  -2 -11    0.33    0.32
  -7  -2 -11   -0.16    0.30
  -7  -2 -11    1.12    0.51
  -7  -2 -11   -0.62    0.35
   7   2  11   -0.58    0.48
   7   2  11    0.47    0.52
   5  -3 -11    3.45    0.69
  -5   3  11    1.70    0.57
  -5   3  11    1.52    0.58
  -5   3  11    2.99    0.83
   4  -3 -11    0.55    0.46
   4  -3 -11    1.30    0.47
  -4   3  11   -0.29    0.60
  -4   3  11    0.27    0.45
  -4   3  11   -0.38    0.38
   3  -3 -11    2.76    0.51
   3  -3 -11    2.27    0.53
   3  -3 -11    2.73    0.56
  -3   3  11    3.00    0.68
  -3   3  11    3.33    0.60
  -3   3  11    3.46    0.62
   2  -3 -11   12.52    0.62
   2  -3 -11   11.46    0.82
   2  -3 -11   12.08    0.83
   2  -3 -11   11.78    0.85
  -2   3  11   11.76    0.81
  -2   3  11   11.83    0.79
  -2   3  11   12.52    0.96
  -2   3  11   11.78    0.88
   1  -3 -11   11.24    0.72
   1  -3 -11   11.52    0.85
   1  -3 -11   11.53    0.74
   1  -3 -11   11.94    0.76
   1  -3 -11   12.55    0.76
   1  -3 -11   11.44    0.53
   1  -3 -11   11.47    0.61
  -1   3  11   11.16    0.75
  -1   3  11   10.74    0.75
  -1   3  11   10.68    0.76
  -1   3  11   12.25    0.80
   0  -3 -11    0.06    0.17
   0  -3 -11    0.39    0.29
   0  -3 -11    0.33    0.23
   0  -3 -11    0.09    0.23
   0  -3 -11    0.19    0.29
   0  -3 -11    0.11    0.21
   0  -3 -11    0.00    0.24
   0  -3 -11    0.09    0.26
   0   3  11   -0.22    0.35
   0   3  11    0.49    0.35
   0   3  11    0.24    0.35
  -1  -3 -11   26.37    0.89
  -1  -3 -11   24.95    1.04
  -1  -3 -11   27.48    1.04
  -1  -3 -11   26.95    1.06
  -1  -3 -11   25.55    0.97
  -1  -3 -11   25.43    1.09
  -1  -3 -11   27.30    0.95
  -1  -3 -11   26.38    0.99
   1   3  11   25.98    1.10
   1   3  11   26.33    0.93
   1   3  11   24.06    1.10
  -2  -3 -11   49.17    1.47
  -2  -3 -11   51.72    1.47
  -2  -3 -11   49.22    1.49
  -2  -3 -11   49.65    1.50
  -2  -3 -11   50.29    1.49
  -2  -3 -11   48.23    1.55
  -2  -3 -11   52.01    1.56
   2   3  11   48.42    1.50
   2   3  11   47.68    1.59
  -3  -3 -11    0.79    0.32
  -3  -3 -11    0.13    0.25
  -3  -3 -11    0.35    0.29
  -3  -3 -11    0.15    0.29
  -3  -3 -11    0.51    0.30
   3   3  11    0.36    0.38
   3   3  11    0.23    0.26
  -4  -3 -11    0.24    0.33
  -4  -3 -11    0.07    0.28
  -4  -3 -11    0.02    0.25
  -4  -3 -11    0.21    0.31
  -4  -3 -11    0.39    0.27
   4   3  11    0.33    0.32
   4   3  11    0.94    0.45
  -5  -3 -11    9.64    0.77
  -5  -3 -11    8.99    0.83
  -5  -3 -11    9.38    0.67
  -5  -3 -11    9.57    0.70
  -5  -3 -11    8.84    0.84
   5   3  11    9.99    0.96
   5   3  11    7.16    0.72
  -6  -3 -11   -0.30    0.33
  -6  -3 -11   -0.06    0.27
  -6  -3 -11   -0.04    0.26
  -6  -3 -11    0.35    0.44
   6   3  11    0.22    0.43
   6   3  11   -0.06    0.44
  -7  -3 -11    0.55    0.33
  -7  -3 -11    0.17    0.30
  -7  -3 -11    0.44    0.43
  -7  -3 -11    0.15    0.47
   7   3  11    0.66    0.52
   7   3  11    0.91    0.55
   4  -4 -11    7.35    0.97
   4  -4 -11    5.13    0.79
  -4   4  11    5.63    0.96
  -4   4  11    5.20    0.82
   3  -4 -11    0.39    0.39
   3  -4 -11   -0.60    0.35
   3  -4 -11   -0.04    0.33
  -3   4  11   -0.43    0.42
  -3   4  11   -0.25    0.48
   2  -4 -11    8.29    0.71
   2  -4 -11    8.29    0.59
   2  -4 -11    7.04    0.80
   2  -4 -11    7.18    0.74
  -2   4  11    7.30    0.84
  -2   4  11    8.29    0.85
   1  -4 -11    1.37    0.40
   1  -4 -11    1.58    0.47
   1  -4 -11    1.49    0.39
   1  -4 -11    0.67    0.33
   1  -4 -11    0.85    0.32
   1  -4 -11    1.42    0.29
   1  -4 -11    1.62    0.36
  -1   4  11    1.30    0.45
  -1   4  11    1.28    0.49
  -1   4  11    1.76    0.48
   0  -4 -11    0.08    0.25
   0  -4 -11    0.11    0.20
   0  -4 -11    0.03    0.24
   0  -4 -11   -0.29    0.20
   0  -4 -11   -0.09    0.24
   0  -4 -11   -0.06    0.27
   0  -4 -11    0.30    0.32
   0   4  11   -0.17    0.34
   0   4  11   -0.20    0.34
   0   4  11   -0.11    0.39
   0   4  11    0.17    0.36
  -1  -4 -11    7.36    0.55
  -1  -4 -11    7.63    0.58
  -1  -4 -11    7.31    0.70
  -1  -4 -11    7.95    0.65
  -1  -4 -11    6.81    0.63
  -1  -4 -11    8.04    0.57
  -1  -4 -11    6.70    0.64
  -1  -4 -11    7.11    0.49
   1   4  11    7.63    0.76
   1   4  11    8.21    0.60
   1   4  11    7.98    0.79
  -2  -4 -11    3.87    0.49
  -2  -4 -11    2.72    0.40
  -2  -4 -11    3.26    0.44
  -2  -4 -11    2.90    0.45
  -2  -4 -11    3.65    0.52
  -2  -4 -11    3.32    0.50
  -2  -4 -11    2.81    0.47
   2   4  11    3.20    0.58
   2   4  11    2.25    0.53
  -3  -4 -11    0.71    0.30
  -3  -4 -11    0.56    0.29
  -3  -4 -11    0.70    0.30
  -3  -4 -11    0.32    0.30
  -3  -4 -11    0.95    0.33
  -3  -4 -11    0.78    0.38
   3   4  11    1.47    0.48
  -4  -4 -11    4.89    0.53
  -4  -4 -11    5.33    0.61
  -4  -4 -11    5.22    0.57
  -4  -4 -11    4.71    0.61
  -4  -4 -11    4.76    0.55
   4   4  11    5.64    0.58
   4   4  11    5.49    0.70
  -5  -4 -11    8.31    0.78
  -5  -4 -11    7.14    0.61
  -5  -4 -11    6.49    0.62
  -5  -4 -11    7.10    0.74
  -5  -4 -11    7.18    0.79
   5   4  11    6.72    0.70
   5   4  11    6.75    0.78
  -6  -4 -11    0.87    0.34
  -6  -4 -11    0.73    0.41
  -6  -4 -11    1.33    0.36
  -6  -4 -11    1.03    0.47
   6   4  11    1.30    0.47
   6   4  11    0.97    0.46
  -7  -4 -11   -0.38    0.41
  -7  -4 -11   -0.02    0.43
  -7  -4 -11    0.70    0.33
   7   4  11    0.48    0.51
   7   4  11    1.38    0.57
   4  -5 -11    1.10    0.50
   4  -5 -11    2.29    0.76
  -4   5  11    1.36    0.74
  -4   5  11    1.49    0.57
   3  -5 -11    1.98    0.52
   3  -5 -11    1.59    0.49
   3  -5 -11    1.94    0.53
   3  -5 -11    2.15    0.62
  -3   5  11    1.10    0.69
  -3   5  11    2.99    0.70
   2  -5 -11    6.67    0.75
   2  -5 -11    7.24    0.76
   2  -5 -11    8.95    0.97
   2  -5 -11    8.28    0.68
  -2   5  11    7.88    0.90
  -2   5  11    7.79    0.89
   1  -5 -11    0.64    0.35
   1  -5 -11    0.69    0.34
   1  -5 -11    1.13    0.43
   1  -5 -11    1.81    0.50
   1  -5 -11    0.96    0.36
  -1   5  11    1.27    0.50
  -1   5  11    1.72    0.47
  -1   5  11    0.79    0.47
   0  -5 -11    0.50    0.29
   0  -5 -11    1.22    0.39
   0  -5 -11    0.58    0.30
   0  -5 -11    0.15    0.30
   0  -5 -11    1.08    0.44
   0  -5 -11    0.55    0.26
   0  -5 -11    0.12    0.30
   0   5  11    1.30    0.48
   0   5  11    0.66    0.42
   0   5  11    0.45    0.37
   0   5  11    0.78    0.44
  -1  -5 -11   12.17    0.71
  -1  -5 -11   14.45    0.70
  -1  -5 -11   13.05    0.87
  -1  -5 -11   14.12    0.83
  -1  -5 -11   14.37    0.82
  -1  -5 -11   12.43    0.81
  -1  -5 -11   13.80    0.82
  -1  -5 -11   13.21    0.67
   1   5  11   13.61    0.93
   1   5  11   13.15    0.88
   1   5  11   14.00    0.81
   1   5  11   13.08    0.96
  -2  -5 -11   13.91    0.80
  -2  -5 -11   15.29    0.85
  -2  -5 -11   15.51    0.73
  -2  -5 -11   14.67    0.87
  -2  -5 -11   14.52    0.86
  -2  -5 -11   13.23    0.81
   2   5  11   12.45    0.91
   2   5  11   14.20    0.98
   2   5  11   13.41    0.84
  -3  -5 -11    0.97    0.37
  -3  -5 -11    1.22    0.32
  -3  -5 -11    1.02    0.38
  -3  -5 -11    0.96    0.34
  -3  -5 -11    0.18    0.37
  -3  -5 -11    1.24    0.36
   3   5  11    0.24    0.42
   3   5  11    0.32    0.49
  -4  -5 -11    3.15    0.47
  -4  -5 -11    3.05    0.59
  -4  -5 -11    3.58    0.53
  -4  -5 -11    2.44    0.49
  -4  -5 -11    2.70    0.45
  -4  -5 -11    3.85    0.52
   4   5  11    2.29    0.61
   4   5  11    3.00    0.63
  -5  -5 -11    5.22    0.57
  -5  -5 -11    6.15    0.61
  -5  -5 -11    5.65    0.63
  -5  -5 -11    4.44    0.62
  -5  -5 -11    5.91    0.73
   5   5  11    4.30    0.59
   5   5  11    4.18    0.71
  -6  -5 -11   -0.50    0.30
  -6  -5 -11    0.56    0.44
  -6  -5 -11   -0.09    0.27
  -6  -5 -11   -0.09    0.26
   6   5  11    0.05    0.39
   6   5  11   -0.56    0.44
  -7  -5 -11    0.53    0.32
  -7  -5 -11   -0.86    0.35
  -7  -5 -11    0.76    0.51
   7   5  11    1.38    0.55
   7   5  11    0.10    0.49
   3  -6 -11    0.65    0.58
   3  -6 -11    0.34    0.37
   3  -6 -11   -0.30    0.37
   3  -6 -11   -0.57    0.32
  -3   6  11   -0.05    0.48
  -3   6  11   -0.28    0.50
   2  -6 -11   11.55    0.85
   2  -6 -11   11.46    0.93
   2  -6 -11   12.48    1.04
   2  -6 -11   13.98    0.95
  -2   6  11    8.48    0.96
  -2   6  11   12.92    1.17
   1  -6 -11    1.72    0.47
   1  -6 -11    1.07    0.49
   1  -6 -11    1.25    0.44
   1  -6 -11    1.19    0.40
  -1   6  11    1.19    0.52
  -1   6  11    1.13    0.55
   0  -6 -11    1.31    0.37
   0  -6 -11    2.00    0.49
   0  -6 -11    1.63    0.42
   0  -6 -11    2.01    0.54
   0  -6 -11    2.26    0.54
   0  -6 -11    2.24    0.44
   0   6  11    0.88    0.44
   0   6  11    2.26    0.54
   0   6  11    0.83    0.48
  -1  -6 -11   70.37    2.03
  -1  -6 -11   66.35    2.05
  -1  -6 -11   70.00    1.95
  -1  -6 -11   68.36    2.05
  -1  -6 -11   70.48    2.15
   1   6  11   71.75    2.05
   1   6  11   67.64    2.20
   1   6  11   70.41    2.20
   1   6  11   69.66    2.08
  -2  -6 -11    3.57    0.55
  -2  -6 -11    2.85    0.50
  -2  -6 -11    3.40    0.55
  -2  -6 -11    3.49    0.55
  -2  -6 -11    3.44    0.52
   2   6  11    2.84    0.67
   2   6  11    3.46    0.65
  -3  -6 -11    5.34    0.67
  -3  -6 -11    5.72    0.64
  -3  -6 -11    6.54    0.66
  -3  -6 -11    6.88    0.75
  -3  -6 -11    4.87    0.57
   3   6  11    6.55    0.87
   3   6  11    5.62    0.81
  -4  -6 -11   23.20    1.06
  -4  -6 -11   22.98    1.03
  -4  -6 -11   25.15    1.12
  -4  -6 -11   24.82    1.21
  -4  -6 -11   24.10    1.19
   4   6  11   22.43    1.40
   4   6  11   22.35    1.21
  -5  -6 -11    2.45    0.56
  -5  -6 -11    2.24    0.43
  -5  -6 -11    2.36    0.54
  -5  -6 -11    2.73    0.60
  -5  -6 -11    1.88    0.40
   5   6  11    1.91    0.64
   5   6  11    2.08    0.58
  -6  -6 -11    2.25    0.57
  -6  -6 -11    3.52    0.49
  -6  -6 -11    3.78    0.71
  -6  -6 -11    3.04    0.44
   6   6  11    3.14    0.69
   6   6  11    2.19    0.54
   2  -7 -11    1.79    0.54
   2  -7 -11    1.00    0.48
   2  -7 -11    0.67    0.57
   2  -7 -11    0.91    0.48
  -2   7  11    0.64    0.57
  -2   7  11    0.27    0.62
   1  -7 -11    2.93    0.56
   1  -7 -11    3.82    0.77
   1  -7 -11    2.29    0.53
   1  -7 -11    2.10    0.51
  -1   7  11    3.19    0.72
  -1   7  11    2.46    0.62
   0  -7 -11    2.85    0.65
   0  -7 -11    4.22    0.66
   0  -7 -11    2.95    0.52
   0  -7 -11    2.10    0.50
   0  -7 -11    2.49    0.56
   0   7  11    2.16    0.59
   0   7  11    2.57    0.64
   0   7  11    2.61    0.59
  -1  -7 -11    0.01    0.40
  -1  -7 -11    0.36    0.40
  -1  -7 -11    0.08    0.30
  -1  -7 -11    0.88    0.41
  -1  -7 -11   -0.37    0.32
   1   7  11   -0.37    0.45
  -2  -7 -11    5.43    0.71
  -2  -7 -11    4.17    0.62
  -2  -7 -11    6.82    0.76
  -2  -7 -11    5.01    0.69
  -2  -7 -11    4.25    0.57
   2   7  11    5.53    0.81
   2   7  11    4.28    0.73
  -3  -7 -11   -0.01    0.34
  -3  -7 -11    0.30    0.39
  -3  -7 -11    0.46    0.41
  -3  -7 -11    1.20    0.40
  -3  -7 -11    0.44    0.34
   3   7  11    0.66    0.58
   3   7  11    0.84    0.54
  -4  -7 -11    0.79    0.37
  -4  -7 -11    0.27    0.36
  -4  -7 -11    1.14    0.48
  -4  -7 -11    0.96    0.38
  -4  -7 -11    1.07    0.47
   4   7  11    0.39    0.53
   4   7  11    1.18    0.61
  -5  -7 -11    3.64    0.64
  -5  -7 -11    3.79    0.53
  -5  -7 -11    3.70    0.51
  -5  -7 -11    5.23    0.77
   5   7  11    2.92    0.72
   5   7  11    2.56    0.73
  -6  -7 -11    1.43    0.57
  -6  -7 -11    1.97    0.61
  -6  -7 -11    1.62    0.40
   6   7  11    1.27    0.70
   6   7  11    0.54    0.51
   1  -8 -11    1.06    0.46
   1  -8 -11    1.74    0.63
   1  -8 -11    0.58    0.48
   1  -8 -11    0.75    0.44
  -1   8  11    1.59    0.62
  -1   8  11    0.73    0.54
   0  -8 -11    2.84    0.54
   0  -8 -11    2.51    0.61
   0  -8 -11    2.48    0.55
   0  -8 -11    3.02    0.70
   0  -8 -11    1.97    0.93
   0  -8 -11    2.20    0.55
   0   8  11    2.71    0.68
   0   8  11    4.31    0.80
  -1  -8 -11   23.16    1.08
  -1  -8 -11   22.23    1.20
  -1  -8 -11   24.52    1.25
  -1  -8 -11   23.57    1.33
  -1  -8 -11   18.69    1.16
   1   8  11   22.39    1.39
  -2  -8 -11    0.53    0.35
  -2  -8 -11    0.43    0.41
  -2  -8 -11   -0.21    0.36
  -2  -8 -11    0.63    0.43
  -2  -8 -11    0.44    0.44
   2   8  11    1.01    0.59
  -3  -8 -11    4.43    0.67
  -3  -8 -11    2.89    0.64
  -3  -8 -11    4.28    0.71
  -3  -8 -11    4.67    0.61
  -3  -8 -11    4.53    0.66
   3   8  11    3.38    0.75
   3   8  11    3.30    0.72
  -4  -8 -11   16.29    0.98
  -4  -8 -11   12.99    1.23
  -4  -8 -11   15.78    1.09
  -4  -8 -11   15.28    0.96
  -4  -8 -11   13.82    1.03
   4   8  11   13.99    1.31
   4   8  11   13.94    1.10
  -5  -8 -11    4.51    0.58
  -5  -8 -11    4.43    0.57
  -5  -8 -11    4.51    0.79
  -5  -8 -11    4.14    0.71
   5   8  11    3.80    0.89
   5   8  11    4.83    0.86
   0  -9 -11    9.14    0.99
   0  -9 -11    9.23    0.96
   0  -9 -11   10.95    1.19
   0  -9 -11    8.21    0.87
   0   9  11    9.15    1.08
  -1  -9 -11    0.02    0.44
  -1  -9 -11    0.83    0.51
  -1  -9 -11   -0.02    0.47
  -1  -9 -11    0.15    0.39
  -1  -9 -11    0.31    0.45
   1   9  11    0.19    0.60
  -2  -9 -11    0.62    0.48
  -2  -9 -11   -0.10    0.43
  -2  -9 -11    0.36    0.44
  -2  -9 -11    0.22    0.41
   2   9  11    1.26    0.71
  -3  -9 -11   -0.07    0.42
  -3  -9 -11   -0.15    0.38
  -3  -9 -11    0.06    0.43
  -3  -9 -11   -0.44    0.37
   3   9  11    0.25    0.65
  -4  -9 -11   -0.10    0.36
  -4  -9 -11    0.40    0.40
  -4  -9 -11   -0.29    0.42
  -4  -9 -11   -0.14    0.43
   4   9  11    0.33    0.68
   3   7 -12    4.77    0.81
  -3  -7  12    4.40    0.82
  -3  -7  12    2.89    0.65
  -3  -7  12    4.29    0.80
  -3  -7  12    3.73    0.82
   2   7 -12   -0.05    0.45
  -2  -7  12    0.64    0.63
  -2  -7  12    0.51    0.51
  -2  -7  12    0.97    0.58
   1   7 -12    3.97    0.82
   1   7 -12    3.86    0.62
  -1  -7  12    5.40    0.91
  -1  -7  12    4.71    0.74
  -1  -7  12    4.54    0.83
   0   7 -12    0.82    0.51
   0   7 -12   -0.18    0.34
   0  -7  12   -0.53    0.46
   0  -7  12    0.52    0.56
   0  -7  12   -0.27    0.52
  -1   7 -12    0.56    0.39
  -1   7 -12    1.29    0.62
   1  -7  12    0.65    0.55
   1  -7  12    1.13    0.67
   1  -7  12   -0.65    0.56
   4   6 -12    0.18    0.44
  -4  -6  12   -0.35    0.47
  -4  -6  12    0.34    0.59
  -4  -6  12   -0.47    0.45
  -4  -6  12   -0.76    0.40
   3   6 -12    3.22    0.63
   3   6 -12    3.75    0.74
  -3  -6  12    3.65    0.69
  -3  -6  12    2.64    0.61
  -3  -6  12    3.97    0.73
  -3  -6  12    2.35    0.68
   2   6 -12    3.82    0.75
  -2  -6  12    4.74    0.72
  -2  -6  12    3.20    0.66
  -2  -6  12    4.46    0.65
  -2  -6  12    3.64    0.72
   1   6 -12   -0.05    0.31
   1   6 -12   -0.55    0.33
  -1  -6  12    0.26    0.49
  -1  -6  12   -1.06    0.39
  -1  -6  12    0.46    0.46
  -1  -6  12   -0.06    0.53
   0   6 -12    0.88    0.47
   0   6 -12    0.28    0.39
   0  -6  12    0.42    0.57
   0  -6  12    1.60    0.59
   0  -6  12    1.34    0.57
  -1   6 -12    0.23    0.48
  -1   6 -12    0.95    0.46
   1  -6  12    0.53    0.52
   1  -6  12    0.23    0.56
   1  -6  12    0.58    0.55
  -2   6 -12    1.68    0.54
  -2   6 -12    2.75    0.67
   2  -6  12    1.48    0.68
   2  -6  12    3.86    0.83
   2  -6  12    2.21    0.67
  -3   6 -12   -0.55    0.40
  -3   6 -12    0.55    0.50
   3  -6  12   -0.35    0.53
   3  -6  12    0.42    0.59
   3  -6  12    0.82    0.67
   5   5 -12    1.64    0.59
  -5  -5  12    1.40    0.54
  -5  -5  12    1.84    0.56
  -5  -5  12    2.80    0.79
   4   5 -12    0.39    0.41
  -4  -5  12    0.04    0.50
  -4  -5  12   -0.02    0.40
  -4  -5  12    0.53    0.57
   3   5 -12    2.73    0.61
   3   5 -12    1.38    0.48
  -3  -5  12    1.95    0.56
  -3  -5  12    2.17    0.53
  -3  -5  12    1.91    0.60
  -3  -5  12    2.91    0.64
   2   5 -12    3.72    0.65
  -2  -5  12    4.34    0.72
  -2  -5  12    2.54    0.61
  -2  -5  12    3.81    0.65
  -2  -5  12    4.31    0.67
  -2  -5  12    4.13    0.60
   1   5 -12   12.97    0.91
  -1  -5  12   11.91    0.94
  -1  -5  12   11.62    1.03
  -1  -5  12   11.70    0.85
  -1  -5  12   11.95    1.02
  -1  -5  12   13.02    0.89
   0   5 -12    6.90    0.75
   0   5 -12    7.37    0.84
   0  -5  12    5.85    0.85
   0  -5  12    7.32    0.83
   0  -5  12    7.60    0.92
  -1   5 -12    9.89    1.01
  -1   5 -12    9.77    0.81
   1  -5  12   10.23    1.10
   1  -5  12   11.00    1.08
   1  -5  12    9.86    1.01
  -2   5 -12   17.19    1.07
  -2   5 -12   16.78    1.20
   2  -5  12   16.98    1.28
   2  -5  12   18.22    1.19
   2  -5  12   18.21    1.29
  -3   5 -12   14.36    1.18
  -3   5 -12   13.20    1.05
   3  -5  12   14.66    1.32
   3  -5  12   10.81    1.10
   3  -5  12   12.35    1.23
   5   4 -12   19.24    1.30
  -5  -4  12   18.13    1.35
  -5  -4  12   18.52    1.21
  -5  -4  12   18.25    1.16
   4   4 -12    1.78    0.57
  -4  -4  12    1.93    0.53
  -4  -4  12    1.98    0.64
  -4  -4  12    1.72    0.54
   3   4 -12    4.19    0.69
   3   4 -12    5.28    0.69
  -3  -4  12    4.37    0.69
  -3  -4  12    4.83    0.68
  -3  -4  12    5.42    0.69
  -3  -4  12    4.93    0.72
   2   4 -12    1.28    0.42
   2   4 -12    1.14    0.45
  -2  -4  12    1.58    0.51
  -2  -4  12    1.16    0.40
  -2  -4  12    0.75    0.47
  -2  -4  12    0.41    0.45
  -2  -4  12    1.83    0.52
   1   4 -12   11.44    0.63
   1   4 -12   11.21    0.87
   1   4 -12   11.39    0.84
   1   4 -12   10.27    0.84
  -1  -4  12   11.69    0.87
  -1  -4  12   11.97    0.83
  -1  -4  12   10.94    0.79
  -1  -4  12   11.50    0.96
  -1  -4  12   10.95    0.90
   0   4 -12    1.73    0.45
   0   4 -12    1.64    0.32
   0   4 -12    1.22    0.46
   0  -4  12    0.69    0.41
   0  -4  12    1.20    0.50
   0  -4  12    0.92    0.35
   0  -4  12    0.55    0.36
   0  -4  12    1.16    0.49
  -1   4 -12    0.24    0.36
  -1   4 -12    0.69    0.36
  -1   4 -12   -0.30    0.21
   1  -4  12    0.34    0.49
   1  -4  12    0.27    0.44
   1  -4  12    0.41    0.46
  -2   4 -12   21.11    1.23
  -2   4 -12   18.43    0.87
  -2   4 -12   17.55    1.09
   2  -4  12   18.53    1.18
   2  -4  12   18.73    1.21
   2  -4  12   18.32    1.13
  -3   4 -12    0.60    0.44
  -3   4 -12    0.24    0.46
   3  -4  12    1.27    0.62
   3  -4  12    0.91    0.56
   3  -4  12    0.76    0.60
  -4   4 -12    2.57    0.67
  -4   4 -12    3.21    0.84
  -4   4 -12    2.15    0.61
   4  -4  12    2.60    0.77
   5   3 -12    8.44    0.96
  -5  -3  12   11.52    0.95
  -5  -3  12   11.13    1.15
  -5  -3  12    9.89    0.98
   4   3 -12    0.74    0.48
  -4  -3  12    0.51    0.45
  -4  -3  12    1.18    0.50
  -4  -3  12    0.01    0.49
   3   3 -12    3.28    0.60
  -3  -3  12    3.27    0.60
  -3  -3  12    4.14    0.58
  -3  -3  12    3.75    0.65
  -3  -3  12    2.97    0.62
   2   3 -12    1.73    0.45
   2   3 -12    1.17    0.41
  -2  -3  12    2.13    0.51
  -2  -3  12    2.07    0.53
  -2  -3  12    2.05    0.49
  -2  -3  12    2.14    0.53
  -2  -3  12    2.32    0.47
   1   3 -12   14.43    0.94
   1   3 -12   15.11    0.72
   1   3 -12   14.25    0.66
   1   3 -12   13.38    0.86
   1   3 -12   13.92    0.63
  -1  -3  12   14.00    0.90
  -1  -3  12   15.07    0.83
  -1  -3  12   14.36    0.96
  -1  -3  12   15.99    0.86
  -1  -3  12   14.91    0.99
   0   3 -12    0.85    0.29
   0   3 -12    0.81    0.27
   0   3 -12    1.37    0.28
   0   3 -12    1.67    0.48
   0   3 -12    1.12    0.36
   0   3 -12    1.29    0.39
   0  -3  12    1.39    0.34
   0  -3  12    2.08    0.48
   0  -3  12    1.34    0.37
   0  -3  12    1.50    0.49
   0  -3  12    1.18    0.50
   0  -3  12    0.88    0.45
  -1   3 -12    0.60    0.25
  -1   3 -12    0.48    0.27
  -1   3 -12    0.55    0.35
  -1   3 -12    0.47    0.33
   1  -3  12    0.27    0.43
   1  -3  12    0.85    0.45
   1  -3  12   -0.11    0.29
   1  -3  12    0.73    0.44
  -2   3 -12    6.39    0.72
  -2   3 -12    8.11    0.78
  -2   3 -12    8.16    0.59
  -2   3 -12    7.77    0.84
  -2   3 -12    7.92    0.61
   2  -3  12    5.82    0.76
   2  -3  12    5.69    0.74
   2  -3  12    6.75    0.78
  -3   3 -12   12.16    0.91
  -3   3 -12   13.53    0.82
  -3   3 -12   13.05    0.79
  -3   3 -12   13.47    0.92
  -3   3 -12   14.18    1.05
   3  -3  12   14.34    1.09
   3  -3  12   12.01    1.01
   3  -3  12   11.31    0.95
  -4   3 -12    0.69    0.45
  -4   3 -12    0.28    0.38
  -4   3 -12    0.39    0.36
  -4   3 -12    0.18    0.33
  -4   3 -12    1.13    0.51
   4  -3  12    0.76    0.54
  -5   3 -12    0.99    0.51
  -5   3 -12    0.11    0.45
  -5   3 -12   -0.76    0.40
  -5   3 -12    0.47    0.38
   5  -3  12    0.08    0.55
   5   2 -12   11.18    0.98
  -5  -2  12   13.46    1.09
  -5  -2  12   12.81    1.01
  -5  -2  12   14.45    1.34
   4   2 -12    0.33    0.37
  -4  -2  12   -0.47    0.49
  -4  -2  12    0.09    0.45
  -4  -2  12    0.60    0.43
   3   2 -12   40.43    1.50
   3   2 -12   37.92    1.57
   3   2 -12   40.52    1.29
  -3  -2  12   40.17    1.52
  -3  -2  12   41.85    1.40
  -3  -2  12   41.44    1.61
  -3  -2  12   41.64    1.62
   2   2 -12   23.34    0.91
   2   2 -12   22.99    1.13
   2   2 -12   22.66    1.12
  -2  -2  12   24.04    1.01
  -2  -2  12   24.80    1.15
  -2  -2  12   27.80    1.19
  -2  -2  12   24.93    1.07
  -2  -2  12   25.54    1.26
  -2  -2  12   24.13    1.10
   1   2 -12    6.34    0.69
   1   2 -12    6.43    0.42
   1   2 -12    5.68    0.64
   1   2 -12    6.47    0.70
   1   2 -12    6.74    0.51
   1   2 -12    5.31    0.52
  -1  -2  12    6.63    0.68
  -1  -2  12    6.69    0.67
  -1  -2  12    7.17    0.78
  -1  -2  12    6.95    0.65
  -1  -2  12    7.45    0.66
  -1  -2  12    5.44    0.59
   0   2 -12    8.30    0.80
   0   2 -12    6.76    0.50
   0   2 -12    7.13    0.55
   0   2 -12    5.63    0.62
   0   2 -12    6.35    0.50
   0   2 -12    5.91    0.54
   0   2 -12    6.11    0.66
   0  -2  12    5.42    0.67
   0  -2  12    6.34    0.64
   0  -2  12    6.78    0.52
   0  -2  12    6.16    0.71
   0  -2  12    6.05    0.53
   0  -2  12    5.55    0.56
   0  -2  12    5.62    0.63
  -1   2 -12   12.44    0.78
  -1   2 -12   12.03    0.70
  -1   2 -12   12.68    0.68
  -1   2 -12   14.06    0.73
  -1   2 -12   14.12    0.93
  -1   2 -12   12.92    0.86
  -1   2 -12   12.65    0.72
   1  -2  12   12.60    0.90
   1  -2  12   13.53    0.75
   1  -2  12   12.52    0.85
   1  -2  12   12.69    0.94
  -2   2 -12    5.25    0.65
  -2   2 -12    5.50    0.57
  -2   2 -12    4.75    0.52
  -2   2 -12    4.35    0.61
  -2   2 -12    4.77    0.64
   2  -2  12    5.27    0.71
   2  -2  12    6.73    0.77
  -3   2 -12    9.71    0.91
  -3   2 -12   10.56    0.88
  -3   2 -12    7.90    0.79
  -3   2 -12    9.86    0.71
  -3   2 -12    9.71    0.69
   3  -2  12    7.46    0.84
   3  -2  12   10.61    0.95
  -4   2 -12    1.06    0.38
  -4   2 -12    0.85    0.40
  -4   2 -12    1.17    0.43
  -4   2 -12    1.22    0.47
  -4   2 -12    1.59    0.54
   4  -2  12    1.41    0.56
  -5   2 -12    1.91    0.60
  -5   2 -12    1.99    0.55
  -5   2 -12    2.23    0.54
  -5   2 -12    2.49    0.59
   5  -2  12    1.39    0.61
   5  -2  12    1.56    0.54
   5   1 -12   21.36    1.30
  -5  -1  12   27.16    1.60
  -5  -1  12   25.73    1.39
   4   1 -12    0.06    0.35
  -4  -1  12    0.38    0.44
  -4  -1  12   -0.27    0.40
  -4  -1  12   -0.28    0.46
   3   1 -12   -0.20    0.28
   3   1 -12    0.55    0.37
   3   1 -12    0.51    0.32
  -3  -1  12   -0.12    0.37
  -3  -1  12    0.51    0.44
  -3  -1  12   -0.33    0.41
   2   1 -12    6.48    0.71
   2   1 -12    6.02    0.57
   2   1 -12    6.05    0.68
  -2  -1  12    5.96    0.61
  -2  -1  12    5.38    0.64
  -2  -1  12    5.94    0.66
  -2  -1  12    4.91    0.65
  -2  -1  12    6.16    0.60
   1   1 -12   14.29    0.85
   1   1 -12   15.21    0.73
   1   1 -12   13.65    0.75
   1   1 -12   14.89    0.89
   1   1 -12   13.95    0.70
   1   1 -12   14.05    0.58
   1   1 -12   14.49    0.83
  -1  -1  12   14.00    0.80
  -1  -1  12   13.81    0.80
  -1  -1  12   16.13    0.91
  -1  -1  12   14.76    0.94
  -1  -1  12   15.03    0.77
   0   1 -12    0.62    0.22
   0   1 -12    0.24    0.27
   0   1 -12    0.36    0.35
   0   1 -12    0.13    0.24
   0   1 -12    0.33    0.26
   0   1 -12    0.31    0.29
   0   1 -12   -0.16    0.24
   0   1 -12   -0.16    0.18
   0  -1  12   -0.11    0.21
   0  -1  12   -0.09    0.26
   0  -1  12    0.05    0.22
   0  -1  12    0.54    0.42
   0  -1  12    0.38    0.33
   0  -1  12    0.25    0.34
  -1   1 -12    0.39    0.23
  -1   1 -12    0.41    0.32
  -1   1 -12    0.84    0.33
  -1   1 -12    0.48    0.28
  -1   1 -12    0.40    0.32
  -1   1 -12   -0.02    0.18
  -1   1 -12    0.57    0.30
  -1   1 -12    0.53    0.27
   1  -1  12    0.81    0.39
   1  -1  12   -0.01    0.22
   1  -1  12    0.45    0.37
   1  -1  12    0.35    0.38
  -2   1 -12   10.87    0.76
  -2   1 -12   11.83    0.71
  -2   1 -12   11.37    0.63
  -2   1 -12   11.45    0.79
  -2   1 -12   12.02    0.70
  -2   1 -12    7.63    0.95
  -2   1 -12    9.88    0.80
   2  -1  12   10.25    0.81
   2  -1  12    9.94    0.80
  -3   1 -12    1.73    0.39
  -3   1 -12    2.95    0.48
  -3   1 -12    2.48    0.52
  -3   1 -12    2.00    0.48
  -3   1 -12    2.20    0.44
   3  -1  12    2.27    0.60
   3  -1  12    2.64    0.54
  -4   1 -12    2.91    0.51
  -4   1 -12    1.66    0.50
  -4   1 -12    1.99    0.46
  -4   1 -12    1.39    0.43
  -4   1 -12    1.59    0.50
   4  -1  12    2.19    0.59
  -5   1 -12    1.28    0.52
  -5   1 -12    1.68    0.48
  -5   1 -12    1.00    0.43
  -5   1 -12    1.57    0.47
   5  -1  12    0.57    0.57
   5  -1  12    1.56    0.54
  -6   1 -12    1.78    0.51
  -6   1 -12    2.36    0.70
  -6   1 -12    2.47    0.60
  -6   1 -12    2.34    0.61
   6  -1  12    1.34    0.63
   6  -1  12    2.21    0.73
   5   0 -12    5.31    0.81
  -5   0  12    5.57    0.79
  -5   0  12    5.16    0.90
  -5   0  12    4.57    0.73
   4   0 -12    2.58    0.57
  -4   0  12    3.37    0.70
  -4   0  12    3.22    0.69
   3   0 -12   13.74    0.93
   3   0 -12   13.49    0.79
   3   0 -12   13.91    0.92
  -3   0  12   15.70    1.06
  -3   0  12   14.09    0.77
  -3   0  12   15.77    1.07
  -3   0  12   13.73    0.93
   2   0 -12   12.24    0.72
   2   0 -12   12.39    0.88
   2   0 -12   12.37    0.85
  -2   0  12   14.06    0.93
  -2   0  12   13.17    0.73
  -2   0  12   12.91    0.84
  -2   0  12   14.50    0.80
  -2   0  12   13.85    0.89
   1   0 -12    1.37    0.38
   1   0 -12    1.16    0.36
   1   0 -12    0.73    0.36
   1   0 -12    1.33    0.36
   1   0 -12    1.45    0.35
   1   0 -12    1.09    0.21
  -1   0  12    1.12    0.28
  -1   0  12    1.68    0.49
  -1   0  12    1.76    0.41
  -1   0  12    1.02    0.39
  -1   0  12    1.44    0.42
   0   0 -12    0.61    0.21
   0   0 -12    1.03    0.38
   0   0 -12    0.44    0.29
   0   0 -12    0.86    0.34
   0   0 -12    0.33    0.26
   0   0 -12    0.36    0.21
   0   0 -12    0.64    0.27
   0   0 -12    0.36    0.28
   0   0  12    0.94    0.41
   0   0  12    1.12    0.41
   0   0  12    0.23    0.24
   0   0  12    0.61    0.29
   0   0  12    0.99    0.25
   0   0  12    0.82    0.36
  -1   0 -12    4.87    0.58
  -1   0 -12    5.28    0.40
  -1   0 -12    5.59    0.48
  -1   0 -12    6.40    0.67
  -1   0 -12    6.23    0.65
  -1   0 -12    5.25    0.54
  -1   0 -12    5.68    0.54
  -1   0 -12    5.33    0.55
   1   0  12    5.02    0.41
   1   0  12    5.77    0.52
   1   0  12    5.61    0.65
   1   0  12    5.53    0.40
   1   0  12    4.67    0.60
  -2   0 -12    9.29    0.75
  -2   0 -12    9.21    0.66
  -2   0 -12    9.38    0.72
  -2   0 -12    9.15    0.70
  -2   0 -12   10.49    0.67
  -2   0 -12    8.05    0.59
   2   0  12   10.86    0.83
   2   0  12    7.94    0.79
  -3   0 -12   -0.51    0.27
  -3   0 -12    0.49    0.30
  -3   0 -12    0.19    0.29
  -3   0 -12   -0.33    0.27
  -3   0 -12    0.37    0.30
   3   0  12   -0.28    0.29
   3   0  12   -0.18    0.37
  -4   0 -12    1.86    0.42
  -4   0 -12    2.63    0.49
  -4   0 -12    2.33    0.48
  -4   0 -12    1.98    0.53
  -4   0 -12    2.13    0.45
   4   0  12    1.70    0.54
   4   0  12    2.07    0.48
  -5   0 -12    7.92    0.80
  -5   0 -12    7.25    0.81
  -5   0 -12    5.97    0.71
  -5   0 -12    5.37    0.74
   5   0  12    7.83    0.90
   5   0  12    7.60    0.87
  -6   0 -12    0.84    0.43
  -6   0 -12   -0.30    0.33
  -6   0 -12    0.48    0.41
  -6   0 -12    0.44    0.52
   6   0  12    0.14    0.58
   6   0  12    0.17    0.44
   5  -1 -12    6.90    0.91
  -5   1  12    5.69    0.81
  -5   1  12    6.18    0.96
  -5   1  12    4.36    0.70
   4  -1 -12   -0.11    0.37
  -4   1  12    0.04    0.41
  -4   1  12   -0.66    0.46
   3  -1 -12    6.15    0.77
   3  -1 -12    5.46    0.71
   3  -1 -12    6.47    0.70
  -3   1  12    5.57    0.61
  -3   1  12    5.80    0.79
  -3   1  12    5.67    0.75
  -3   1  12    5.52    0.62
   2  -1 -12    1.25    0.36
   2  -1 -12    1.54    0.46
   2  -1 -12    0.80    0.35
  -2   1  12    0.44    0.39
  -2   1  12    0.53    0.35
  -2   1  12    1.42    0.44
  -2   1  12    1.07    0.30
  -2   1  12    1.17    0.49
   1  -1 -12    9.29    0.74
   1  -1 -12   11.68    0.74
   1  -1 -12   10.49    0.49
   1  -1 -12   10.40    0.82
   1  -1 -12    9.10    0.48
   1  -1 -12    9.46    0.67
   1  -1 -12   11.30    0.70
   1  -1 -12    9.84    0.67
  -1   1  12   11.28    0.85
  -1   1  12    9.46    0.71
  -1   1  12   10.52    0.71
  -1   1  12   10.47    0.76
  -1   1  12   10.26    0.57
   0  -1 -12    0.58    0.29
   0  -1 -12    0.67    0.23
   0  -1 -12    0.83    0.32
   0  -1 -12    0.40    0.32
   0  -1 -12    0.54    0.21
   0  -1 -12    0.44    0.33
   0  -1 -12    0.83    0.30
   0  -1 -12    0.82    0.30
   0   1  12    0.78    0.36
   0   1  12    0.80    0.31
   0   1  12    0.28    0.39
   0   1  12    0.71    0.21
   0   1  12    0.94    0.38
  -1  -1 -12    3.84    0.52
  -1  -1 -12    3.92    0.50
  -1  -1 -12    4.26    0.46
  -1  -1 -12    4.44    0.54
  -1  -1 -12    3.77    0.43
  -1  -1 -12    4.36    0.58
  -1  -1 -12    4.75    0.53
   1   1  12    5.29    0.63
   1   1  12    3.84    0.32
   1   1  12    3.66    0.59
   1   1  12    3.49    0.42
   1   1  12    4.01    0.38
  -2  -1 -12   16.48    0.83
  -2  -1 -12   15.74    0.87
  -2  -1 -12   17.24    0.90
  -2  -1 -12   16.16    0.83
  -2  -1 -12   17.81    0.84
  -2  -1 -12   16.41    0.93
   2   1  12   17.21    0.95
  -3  -1 -12   -0.07    0.31
  -3  -1 -12    0.32    0.30
  -3  -1 -12    0.21    0.34
  -3  -1 -12    0.54    0.33
  -3  -1 -12   -0.44    0.23
   3   1  12   -0.02    0.38
   3   1  12    0.09    0.33
   3   1  12   -0.35    0.27
  -4  -1 -12    2.88    0.50
  -4  -1 -12    2.99    0.54
  -4  -1 -12    2.72    0.51
  -4  -1 -12    2.17    0.45
  -4  -1 -12    2.21    0.45
   4   1  12    3.38    0.64
   4   1  12    2.32    0.47
  -5  -1 -12    3.11    0.61
  -5  -1 -12    3.11    0.59
  -5  -1 -12    3.03    0.54
  -5  -1 -12    3.08    0.53
   5   1  12    1.85    0.57
   5   1  12    3.06    0.60
  -6  -1 -12    0.25    0.35
  -6  -1 -12    0.26    0.35
  -6  -1 -12   -0.01    0.35
  -6  -1 -12   -0.05    0.41
   6   1  12   -0.25    0.46
   6   1  12    0.30    0.46
   5  -2 -12    0.87    0.54
  -5   2  12    0.97    0.78
  -5   2  12    0.95    0.55
  -5   2  12    0.56    0.49
   4  -2 -12   -0.02    0.39
  -4   2  12    0.16    0.56
  -4   2  12    0.55    0.49
  -4   2  12    0.73    0.48
   3  -2 -12    3.04    0.57
   3  -2 -12    4.75    0.71
   3  -2 -12    5.14    0.64
  -3   2  12    4.45    0.72
  -3   2  12    4.50    0.68
   2  -2 -12    0.11    0.36
   2  -2 -12   -0.18    0.27
   2  -2 -12    0.27    0.34
  -2   2  12   -0.21    0.36
  -2   2  12    0.01    0.43
  -2   2  12    0.59    0.39
  -2   2  12   -0.23    0.38
   1  -2 -12   10.77    0.74
   1  -2 -12   10.08    0.78
   1  -2 -12    9.63    0.67
   1  -2 -12    8.95    0.67
   1  -2 -12    9.33    0.53
   1  -2 -12    8.99    0.66
  -1   2  12    9.87    0.77
  -1   2  12    9.87    0.82
  -1   2  12   10.24    0.78
   0  -2 -12    7.90    0.64
   0  -2 -12    7.94    0.62
   0  -2 -12    7.34    0.50
   0  -2 -12    8.07    0.62
   0  -2 -12    7.24    0.47
   0  -2 -12    8.03    0.65
   0  -2 -12    8.74    0.82
   0  -2 -12    8.45    0.59
   0   2  12    7.99    0.75
   0   2  12    7.26    0.73
   0   2  12    7.40    0.62
  -1  -2 -12   12.47    0.83
  -1  -2 -12   12.28    0.77
  -1  -2 -12   13.03    0.75
  -1  -2 -12   13.38    0.68
  -1  -2 -12   12.41    0.75
  -1  -2 -12   11.76    0.67
  -1  -2 -12   11.55    0.72
  -1  -2 -12   12.72    0.64
   1   2  12   12.15    0.87
   1   2  12   12.06    0.61
   1   2  12   10.79    0.78
  -2  -2 -12    8.13    0.64
  -2  -2 -12    8.15    0.72
  -2  -2 -12    7.19    0.69
  -2  -2 -12    6.63    0.59
  -2  -2 -12    6.76    0.64
  -2  -2 -12    6.54    0.61
   2   2  12    6.51    0.72
   2   2  12    6.89    0.67
  -3  -2 -12   20.65    1.01
  -3  -2 -12   21.64    1.01
  -3  -2 -12   20.22    0.98
  -3  -2 -12   21.37    1.00
  -3  -2 -12   22.07    1.00
   3   2  12   19.76    1.09
   3   2  12   20.38    1.08
   3   2  12   20.76    0.89
  -4  -2 -12   13.24    0.84
  -4  -2 -12   12.49    0.89
  -4  -2 -12   13.62    0.85
  -4  -2 -12   14.02    0.91
  -4  -2 -12   13.32    0.83
   4   2  12   13.47    0.79
   4   2  12   13.34    0.97
  -5  -2 -12    1.85    0.45
  -5  -2 -12    1.82    0.50
  -5  -2 -12    1.35    0.40
  -5  -2 -12    1.60    0.46
   5   2  12    1.70    0.59
   5   2  12    2.48    0.56
  -6  -2 -12    4.46    0.58
  -6  -2 -12    4.67    0.77
  -6  -2 -12    3.51    0.56
  -6  -2 -12    4.36    0.69
   6   2  12    3.81    0.76
   6   2  12    4.69    0.75
   4  -3 -12    0.67    0.46
  -4   3  12    0.14    0.45
  -4   3  12   -0.47    0.60
   3  -3 -12    7.04    0.76
   3  -3 -12    8.88    0.95
   3  -3 -12    7.03    0.80
  -3   3  12    7.54    0.85
  -3   3  12    8.91    0.98
   2  -3 -12    0.29    0.35
   2  -3 -12   -0.07    0.30
   2  -3 -12   -0.05    0.35
  -2   3  12   -0.10    0.38
  -2   3  12    0.54    0.45
  -2   3  12   -0.04    0.44
   1  -3 -12    7.68    0.81
   1  -3 -12    5.67    0.65
   1  -3 -12    5.58    0.52
   1  -3 -12    5.40    0.60
   1  -3 -12    5.76    0.62
   1  -3 -12    4.93    0.77
  -1   3  12    4.91    0.65
  -1   3  12    6.33    0.75
  -1   3  12    5.66    0.68
   0  -3 -12    1.32    0.40
   0  -3 -12    0.45    0.30
   0  -3 -12    1.54    0.35
   0  -3 -12    1.84    0.44
   0  -3 -12    1.06    0.30
   0  -3 -12    1.04    0.34
   0  -3 -12    1.42    0.28
   0  -3 -12    1.13    0.40
   0   3  12    1.51    0.46
   0   3  12    1.35    0.48
   0   3  12    1.56    0.41
  -1  -3 -12   21.34    1.02
  -1  -3 -12   22.44    1.01
  -1  -3 -12   23.87    0.92
  -1  -3 -12   23.92    0.88
  -1  -3 -12   25.36    1.06
  -1  -3 -12   22.94    1.00
  -1  -3 -12   23.30    0.94
  -1  -3 -12   22.95    1.11
   1   3  12   24.73    1.13
   1   3  12   23.79    0.90
   1   3  12   24.33    1.15
  -2  -3 -12   10.33    0.72
  -2  -3 -12   10.33    0.67
  -2  -3 -12   11.34    0.79
  -2  -3 -12    9.87    0.70
  -2  -3 -12   10.76    0.69
  -2  -3 -12   10.14    0.72
  -2  -3 -12   11.55    0.71
   2   3  12   10.58    0.77
   2   3  12    9.88    0.85
  -3  -3 -12    1.57    0.38
  -3  -3 -12    1.08    0.39
  -3  -3 -12    1.86    0.40
  -3  -3 -12    1.11    0.37
  -3  -3 -12    1.45    0.40
   3   3  12    1.35    0.47
  -4  -3 -12   14.20    0.90
  -4  -3 -12   14.83    0.86
  -4  -3 -12   16.51    0.87
  -4  -3 -12   13.96    0.89
  -4  -3 -12   15.28    0.92
   4   3  12   14.15    0.79
   4   3  12   14.50    0.98
  -5  -3 -12    2.85    0.54
  -5  -3 -12    2.05    0.51
  -5  -3 -12    2.51    0.48
  -5  -3 -12    1.78    0.42
   5   3  12    3.55    0.74
   5   3  12    2.14    0.51
  -6  -3 -12    1.15    0.51
  -6  -3 -12    0.95    0.38
  -6  -3 -12    1.91    0.45
  -6  -3 -12    1.81    0.54
   6   3  12    1.79    0.54
   6   3  12    0.87    0.58
   4  -4 -12    0.25    0.43
  -4   4  12    1.81    0.73
  -4   4  12    0.63    0.54
   3  -4 -12   10.99    0.87
   3  -4 -12    6.98    0.86
   3  -4 -12   10.68    1.10
  -3   4  12    6.93    0.86
  -3   4  12    9.62    1.09
   2  -4 -12    1.57    0.46
   2  -4 -12    1.46    0.52
   2  -4 -12    1.38    0.35
   2  -4 -12    1.47    0.47
  -2   4  12    1.54    0.55
  -2   4  12    2.19    0.65
   1  -4 -12    1.00    0.38
   1  -4 -12    0.81    0.36
   1  -4 -12    0.82    0.43
   1  -4 -12    0.21    0.32
   1  -4 -12    0.83    0.34
  -1   4  12    1.60    0.54
  -1   4  12    0.86    0.51
  -1   4  12    0.02    0.41
   0  -4 -12    1.66    0.45
   0  -4 -12    1.35    0.39
   0  -4 -12    1.94    0.49
   0  -4 -12    1.07    0.35
   0  -4 -12    1.88    0.33
   0  -4 -12    0.17    0.28
   0  -4 -12    1.48    0.35
   0   4  12    0.58    0.43
   0   4  12    0.99    0.50
   0   4  12    0.87    0.40
  -1  -4 -12    3.60    0.51
  -1  -4 -12    3.64    0.52
  -1  -4 -12    4.81    0.54
  -1  -4 -12    4.49    0.64
  -1  -4 -12    3.94    0.45
  -1  -4 -12    4.45    0.49
  -1  -4 -12    3.78    0.54
  -1  -4 -12    4.32    0.52
   1   4  12    3.76    0.67
   1   4  12    4.20    0.52
  -2  -4 -12    0.48    0.30
  -2  -4 -12    0.43    0.32
  -2  -4 -12    0.99    0.34
  -2  -4 -12    0.86    0.33
  -2  -4 -12    0.75    0.33
  -2  -4 -12    0.65    0.36
   2   4  12    0.16    0.40
  -3  -4 -12    5.07    0.62
  -3  -4 -12    5.68    0.61
  -3  -4 -12    5.10    0.60
  -3  -4 -12    5.79    0.64
  -3  -4 -12    4.53    0.56
  -3  -4 -12    5.53    0.65
   3   4  12    5.18    0.72
  -4  -4 -12   -0.11    0.30
  -4  -4 -12   -0.20    0.28
  -4  -4 -12   -0.22    0.25
  -4  -4 -12    0.68    0.36
  -4  -4 -12   -0.07    0.30
   4   4  12   -0.19    0.41
  -5  -4 -12    7.97    0.79
  -5  -4 -12    8.65    0.88
  -5  -4 -12    8.30    0.68
  -5  -4 -12    7.98    0.73
   5   4  12    6.17    0.84
   5   4  12    6.79    0.71
  -6  -4 -12    7.09    0.88
  -6  -4 -12    5.11    0.60
  -6  -4 -12    5.23    0.71
  -6  -4 -12    5.15    0.60
   6   4  12    5.90    0.76
   6   4  12    5.37    0.84
   3  -5 -12    7.12    0.88
   3  -5 -12    9.91    1.05
   3  -5 -12    8.04    0.92
  -3   5  12    9.95    1.09
  -3   5  12    6.97    0.90
   2  -5 -12    2.17    0.55
   2  -5 -12    2.18    0.60
   2  -5 -12    2.98    0.58
   2  -5 -12    2.80    0.49
  -2   5  12    1.62    0.61
  -2   5  12    2.63    0.63
   1  -5 -12   14.49    0.97
   1  -5 -12   16.22    0.88
   1  -5 -12   15.06    0.93
   1  -5 -12   14.94    1.10
  -1   5  12   16.03    1.13
  -1   5  12   16.59    1.10
  -1   5  12   15.49    1.05
   0  -5 -12   14.45    0.91
   0  -5 -12   15.10    0.83
   0  -5 -12   14.89    0.75
   0  -5 -12   14.90    0.86
   0  -5 -12   16.27    1.01
   0  -5 -12   16.00    0.95
   0  -5 -12   15.70    0.84
   0   5  12   13.38    0.97
   0   5  12   16.99    0.98
   0   5  12   13.76    1.02
   0   5  12   14.04    0.98
  -1  -5 -12   14.49    0.75
  -1  -5 -12   13.53    0.86
  -1  -5 -12   13.39    0.80
  -1  -5 -12   13.87    0.89
  -1  -5 -12   12.82    0.80
  -1  -5 -12   13.73    0.94
   1   5  12   11.18    0.92
   1   5  12   12.97    0.88
   1   5  12   13.25    1.01
   1   5  12   14.00    0.84
  -2  -5 -12    2.53    0.40
  -2  -5 -12    2.46    0.49
  -2  -5 -12    3.50    0.53
  -2  -5 -12    1.84    0.46
  -2  -5 -12    3.08    0.49
  -2  -5 -12    2.48    0.51
   2   5  12    2.26    0.59
   2   5  12    3.04    0.69
  -3  -5 -12    0.25    0.34
  -3  -5 -12    0.61    0.37
  -3  -5 -12    0.33    0.33
  -3  -5 -12    0.60    0.36
  -3  -5 -12   -0.04    0.28
  -3  -5 -12    0.30    0.29
   3   5  12    0.36    0.45
   3   5  12    0.89    0.53
  -4  -5 -12    5.06    0.58
  -4  -5 -12    5.43    0.65
  -4  -5 -12    5.31    0.69
  -4  -5 -12    4.76    0.66
  -4  -5 -12    4.56    0.56
  -4  -5 -12    4.65    0.60
   4   5  12    4.21    0.74
  -5  -5 -12    1.07    0.37
  -5  -5 -12    0.46    0.40
  -5  -5 -12   -0.41    0.25
  -5  -5 -12    0.44    0.34
   5   5  12    0.03    0.48
  -6  -5 -12    3.11    0.65
  -6  -5 -12    2.47    0.45
  -6  -5 -12    1.68    0.51
  -6  -5 -12    3.26    0.50
   6   5  12    3.56    0.70
   6   5  12    3.09    0.59
   3  -6 -12    9.12    1.13
   3  -6 -12   10.28    1.07
   3  -6 -12    9.05    1.04
  -3   6  12    9.46    1.14
  -3   6  12    7.66    1.02
   2  -6 -12   -0.21    0.35
   2  -6 -12    0.11    0.37
   2  -6 -12    0.60    0.53
   2  -6 -12    0.13    0.40
  -2   6  12   -0.60    0.54
  -2   6  12    0.89    0.54
   1  -6 -12    2.34    0.51
   1  -6 -12    1.15    0.56
   1  -6 -12    2.20    0.51
   1  -6 -12    2.03    0.56
  -1   6  12    2.08    0.61
  -1   6  12    1.49    0.61
   0  -6 -12    3.72    0.62
   0  -6 -12    2.37    0.45
   0  -6 -12    2.29    0.56
   0  -6 -12    2.93    0.66
   0  -6 -12    2.25    0.45
   0  -6 -12    2.20    0.49
   0   6  12    2.67    0.70
   0   6  12    2.14    0.58
   0   6  12    2.01    0.58
   0   6  12    2.21    0.56
  -1  -6 -12   -0.12    0.30
  -1  -6 -12    0.26    0.42
  -1  -6 -12   -0.20    0.34
  -1  -6 -12    0.27    0.32
  -1  -6 -12   -0.03    0.34
   1   6  12   -0.12    0.48
   1   6  12   -0.30    0.38
   1   6  12    0.71    0.49
   1   6  12    0.44    0.41
  -2  -6 -12    6.65    0.72
  -2  -6 -12    5.27    0.68
  -2  -6 -12    5.28    0.68
  -2  -6 -12    4.88    0.59
  -2  -6 -12    6.34    0.75
   2   6  12    6.88    0.90
   2   6  12    5.05    0.82
  -3  -6 -12    5.02    0.69
  -3  -6 -12    4.34    0.58
  -3  -6 -12    3.87    0.59
  -3  -6 -12    5.36    0.71
  -3  -6 -12    4.66    0.63
   3   6  12    5.34    0.87
   3   6  12    5.67    0.78
  -4  -6 -12    0.19    0.31
  -4  -6 -12    0.09    0.34
  -4  -6 -12    0.34    0.33
  -4  -6 -12   -0.16    0.29
  -4  -6 -12   -0.12    0.35
   4   6  12   -0.18    0.50
   4   6  12   -0.66    0.51
  -5  -6 -12    8.10    0.90
  -5  -6 -12    6.18    0.79
  -5  -6 -12    5.87    0.64
  -5  -6 -12    5.45    0.62
   5   6  12    5.19    0.85
  -6  -6 -12    2.07    0.59
  -6  -6 -12    2.80    0.66
  -6  -6 -12    2.64    0.47
  -6  -6 -12    2.47    0.44
   6   6  12    1.55    0.58
   2  -7 -12    0.86    0.51
   2  -7 -12    0.90    0.57
   2  -7 -12    0.89    0.47
   2  -7 -12    1.59    0.50
  -2   7  12    1.49    0.61
  -2   7  12    1.00    0.69
   1  -7 -12    0.98    0.43
   1  -7 -12    0.19    0.38
   1  -7 -12    1.04    0.55
   1  -7 -12    1.24    0.47
  -1   7  12    0.53    0.52
  -1   7  12    2.00    0.68
   0  -7 -12    1.63    0.56
   0  -7 -12    0.85    0.39
   0  -7 -12    0.99    0.49
   0  -7 -12    1.13    0.50
   0  -7 -12    1.73    0.47
   0   7  12    1.21    0.50
   0   7  12    1.27    0.58
   0   7  12    0.29    0.51
  -1  -7 -12    7.69    0.83
  -1  -7 -12    9.07    0.93
  -1  -7 -12    8.47    0.89
  -1  -7 -12    9.53    0.73
  -1  -7 -12   10.80    0.99
   1   7  12    6.55    0.91
  -2  -7 -12   -0.27    0.33
  -2  -7 -12   -0.05    0.38
  -2  -7 -12   -0.26    0.32
  -2  -7 -12    0.06    0.33
  -2  -7 -12   -0.14    0.36
   2   7  12    0.62    0.55
   2   7  12   -0.18    0.54
  -3  -7 -12    1.27    0.41
  -3  -7 -12    0.76    0.43
  -3  -7 -12    1.12    0.44
  -3  -7 -12    1.21    0.44
  -3  -7 -12    1.13    0.44
   3   7  12    0.53    0.56
   3   7  12    0.63    0.62
  -4  -7 -12    3.51    0.65
  -4  -7 -12    3.17    0.64
  -4  -7 -12    4.03    0.60
  -4  -7 -12    2.92    0.53
   4   7  12    3.70    0.72
   4   7  12    1.80    0.63
  -5  -7 -12   -0.03    0.30
  -5  -7 -12   -0.48    0.33
  -5  -7 -12    0.23    0.34
  -5  -7 -12    0.33    0.42
   5   7  12    0.34    0.57
   5   7  12    0.02    0.51
   1  -8 -12    0.65    0.49
   1  -8 -12    0.22    0.44
   1  -8 -12    0.36    0.55
   1  -8 -12    0.45    0.44
  -1   8  12    0.88    0.64
   0  -8 -12    3.84    0.67
   0  -8 -12    3.40    0.73
   0  -8 -12    3.03    0.66
   0  -8 -12    3.64    0.60
   0   8  12    4.87    0.82
   0   8  12    2.61    0.69
  -1  -8 -12    0.92    0.49
  -1  -8 -12    0.52    0.54
  -1  -8 -12    0.43    0.43
  -1  -8 -12    0.35    0.40
   1   8  12    1.40    0.66
  -2  -8 -12    2.78    0.62
  -2  -8 -12    2.57    0.60
  -2  -8 -12    3.21    0.64
  -2  -8 -12    3.03    0.62
   2   8  12    2.35    0.72
  -3  -8 -12    1.54    0.54
  -3  -8 -12    1.55    0.50
  -3  -8 -12    1.13    0.46
  -3  -8 -12    0.45    0.43
   3   8  12    1.19    0.62
   3   8  12   -0.09    0.57
  -4  -8 -12    0.53    0.38
  -4  -8 -12    0.03    0.45
  -4  -8 -12    1.71    0.54
  -4  -8 -12    0.57    0.39
   4   8  12    0.56    0.67
   4   8  12    1.12    0.65
  -5  -8 -12    2.82    0.64
  -5  -8 -12    2.20    0.52
  -5  -8 -12    2.47    0.49
  -5  -8 -12    3.79    0.74
   5   8  12    2.60    0.83
   5   8  12    1.48    0.63
  -1  -9 -12   10.66    1.06
  -2  -9 -12    0.74    0.51
  -2  -9 -12    0.45    0.48
  -2  -9 -12    0.46    0.44
  -2  -9 -12    1.01    0.52
   2   9  12    1.21    0.69
  -3  -9 -12    0.18    0.46
  -3  -9 -12    0.06    0.47
  -3  -9 -12    0.69    0.45
  -3  -9 -12   -0.84    0.37
   3   9  12    1.06    0.71
   2   7 -13    4.06    0.86
  -2  -7  13    2.33    0.75
  -2  -7  13    2.72    0.75
  -2  -7  13    2.70    0.68
  -2  -7  13    3.11    0.72
   1   7 -13    0.39    0.38
   1   7 -13    0.97    0.65
  -1  -7  13    0.57    0.54
  -1  -7  13    0.61    0.52
  -1  -7  13   -0.27    0.53
   0   7 -13    1.25    0.90
   0   7 -13    0.66    0.46
   0  -7  13    2.33    0.75
   0  -7  13    1.06    0.62
   0  -7  13    1.50    0.65
   3   6 -13    9.58    1.05
   3   6 -13    8.04    0.96
  -3  -6  13   10.80    1.05
  -3  -6  13    7.47    0.95
  -3  -6  13    6.88    0.95
  -3  -6  13    8.59    1.01
   2   6 -13    0.91    0.58
  -2  -6  13    0.97    0.57
  -2  -6  13    1.42    0.57
  -2  -6  13    0.40    0.60
  -2  -6  13    1.00    0.54
   1   6 -13    7.01    0.82
  -1  -6  13    5.09    0.82
  -1  -6  13    6.84    0.93
  -1  -6  13    7.56    0.83
   0   6 -13   -0.29    0.35
   0   6 -13   -0.35    0.44
   0  -6  13    1.09    0.59
   0  -6  13    0.40    0.59
   0  -6  13    0.24    0.54
  -1   6 -13    7.37    0.84
  -1   6 -13    7.75    0.97
   1  -6  13    9.01    1.07
   1  -6  13    9.14    1.02
   1  -6  13    8.02    1.05
  -2   6 -13    5.27    0.91
  -2   6 -13    5.08    0.77
   2  -6  13    6.10    0.93
   2  -6  13    6.01    1.00
   2  -6  13    4.33    0.89
   4   5 -13    1.26    0.57
  -4  -5  13    0.88    0.57
  -4  -5  13    0.89    0.61
  -4  -5  13    0.79    0.51
   3   5 -13    4.08    0.72
  -3  -5  13    4.81    0.77
  -3  -5  13    3.89    0.75
  -3  -5  13    3.20    0.68
  -3  -5  13    4.52    0.75
   2   5 -13    3.52    0.67
  -2  -5  13    3.58    0.61
  -2  -5  13    3.87    0.72
  -2  -5  13    4.84    0.73
  -2  -5  13    4.11    0.71
  -2  -5  13    3.35    0.63
   1   5 -13    1.25    0.50
   1   5 -13    2.06    0.52
  -1  -5  13    2.98    0.62
  -1  -5  13    1.61    0.59
  -1  -5  13    1.03    0.54
  -1  -5  13    1.89    0.50
  -1  -5  13    1.12    0.51
   0   5 -13    3.00    0.58
   0   5 -13    3.32    0.66
   0  -5  13    3.05    0.65
   0  -5  13    2.23    0.67
   0  -5  13    3.40    0.75
  -1   5 -13    2.38    0.57
  -1   5 -13    2.94    0.65
   1  -5  13    3.06    0.67
   1  -5  13    3.01    0.72
   1  -5  13    3.95    0.76
  -2   5 -13    7.28    0.87
  -2   5 -13    8.19    0.97
   2  -5  13    6.17    0.95
   2  -5  13    7.95    1.01
   2  -5  13    9.00    1.07
  -3   5 -13    1.17    0.52
  -3   5 -13    0.55    0.49
   3  -5  13   -0.16    0.60
   3  -5  13    0.75    0.54
   3  -5  13    0.50    0.63
   5   4 -13    8.33    1.00
  -5  -4  13    9.21    1.10
  -5  -4  13    9.46    0.96
  -5  -4  13    8.01    0.97
   4   4 -13    4.33    0.70
  -4  -4  13    3.98    0.68
  -4  -4  13    4.26    0.71
  -4  -4  13    4.73    0.87
   3   4 -13   10.63    1.04
  -3  -4  13   10.54    0.97
  -3  -4  13   10.61    1.00
  -3  -4  13   10.46    0.90
  -3  -4  13    8.87    0.95
   2   4 -13    3.02    0.65
   2   4 -13    2.10    0.51
  -2  -4  13    3.81    0.73
  -2  -4  13    2.70    0.54
  -2  -4  13    2.68    0.60
  -2  -4  13    3.55    0.68
  -2  -4  13    3.44    0.62
   1   4 -13    0.24    0.40
   1   4 -13    0.92    0.45
   1   4 -13    0.77    0.40
  -1  -4  13    1.67    0.59
  -1  -4  13    0.50    0.41
  -1  -4  13    1.12    0.46
  -1  -4  13    1.29    0.48
  -1  -4  13    0.17    0.46
   0   4 -13    0.42    0.36
   0   4 -13    1.32    0.52
   0  -4  13    1.33    0.54
   0  -4  13    1.72    0.59
   0  -4  13    1.38    0.59
  -1   4 -13    6.33    0.77
  -1   4 -13    8.84    0.93
   1  -4  13    7.35    0.87
   1  -4  13    7.36    0.94
   1  -4  13    7.64    0.91
  -2   4 -13    0.19    0.39
  -2   4 -13    0.08    0.41
   2  -4  13    0.76    0.57
   2  -4  13   -0.23    0.45
   2  -4  13    0.06    0.46
  -3   4 -13    2.00    0.61
  -3   4 -13    3.29    0.64
   3  -4  13    1.65    0.62
   3  -4  13    3.47    0.79
   3  -4  13    2.07    0.69
  -4   4 -13    7.66    0.93
  -4   4 -13    9.17    1.06
   4  -4  13    7.22    0.96
   5   3 -13    4.58    0.78
  -5  -3  13    1.75    0.62
  -5  -3  13    4.59    0.90
  -5  -3  13    3.95    0.71
   4   3 -13    1.83    0.60
  -4  -3  13    3.02    0.76
  -4  -3  13    2.24    0.65
  -4  -3  13    1.36    0.54
   3   3 -13    2.17    0.53
  -3  -3  13    2.08    0.57
  -3  -3  13    1.84    0.49
  -3  -3  13    1.97    0.59
  -3  -3  13    1.93    0.64
   2   3 -13    0.08    0.37
   2   3 -13    0.80    0.43
  -2  -3  13    0.80    0.47
  -2  -3  13    1.32    0.47
  -2  -3  13    0.64    0.40
  -2  -3  13    0.90    0.51
  -2  -3  13    1.42    0.49
   1   3 -13    0.39    0.37
   1   3 -13   -0.05    0.29
   1   3 -13    0.13    0.22
   1   3 -13    0.15    0.38
  -1  -3  13    0.37    0.39
  -1  -3  13    0.10    0.38
  -1  -3  13    0.51    0.50
  -1  -3  13    0.01    0.35
  -1  -3  13   -0.11    0.38
   0   3 -13   -0.18    0.33
   0   3 -13    0.35    0.25
   0   3 -13   -0.32    0.32
   0   3 -13    0.56    0.27
   0   3 -13    0.11    0.24
   0  -3  13   -0.29    0.39
   0  -3  13    0.51    0.39
   0  -3  13    0.62    0.48
  -1   3 -13    5.75    0.53
  -1   3 -13    4.83    0.54
  -1   3 -13    3.84    0.61
  -1   3 -13    5.17    0.73
   1  -3  13    4.88    0.73
   1  -3  13    5.94    0.83
   1  -3  13    4.04    0.66
  -2   3 -13    7.53    0.86
  -2   3 -13    5.29    0.56
  -2   3 -13    6.31    0.78
  -2   3 -13    6.92    0.65
   2  -3  13    7.03    0.88
   2  -3  13    6.44    0.86
   2  -3  13    6.58    0.84
  -3   3 -13    0.75    0.45
  -3   3 -13    0.31    0.31
  -3   3 -13    0.24    0.32
  -3   3 -13    0.41    0.38
  -3   3 -13    0.04    0.37
   3  -3  13    0.12    0.46
   3  -3  13    0.66    0.50
  -4   3 -13    0.81    0.46
  -4   3 -13    0.77    0.41
  -4   3 -13   -0.04    0.43
  -4   3 -13    0.42    0.40
   4  -3  13    0.85    0.56
   5   2 -13    5.73    0.84
  -5  -2  13    5.92    0.97
  -5  -2  13    7.05    0.92
  -5  -2  13    7.18    0.81
   4   2 -13    0.31    0.39
  -4  -2  13    1.55    0.52
  -4  -2  13    0.78    0.62
  -4  -2  13   -0.07    0.42
   3   2 -13    0.51    0.39
   3   2 -13   -0.12    0.24
  -3  -2  13    0.25    0.46
  -3  -2  13   -0.34    0.38
  -3  -2  13   -0.03    0.44
   2   2 -13   26.05    0.99
   2   2 -13   25.57    1.25
   2   2 -13   25.05    1.25
  -2  -2  13   27.42    1.26
  -2  -2  13   26.79    1.21
  -2  -2  13   26.55    1.23
  -2  -2  13   26.81    1.32
  -2  -2  13   25.93    1.10
   1   2 -13    4.22    0.58
   1   2 -13    5.03    0.64
   1   2 -13    3.82    0.64
   1   2 -13    4.52    0.50
   1   2 -13    3.57    0.44
  -1  -2  13    3.38    0.50
  -1  -2  13    4.04    0.56
  -1  -2  13    3.32    0.57
  -1  -2  13    3.03    0.54
  -1  -2  13    4.18    0.69
  -1  -2  13    4.79    0.63
   0   2 -13    6.10    0.69
   0   2 -13    5.37    0.71
   0   2 -13    6.06    0.54
   0   2 -13    5.74    0.56
   0   2 -13    5.12    0.52
   0   2 -13    5.46    0.67
   0  -2  13    4.43    0.62
   0  -2  13    4.95    0.73
   0  -2  13    5.21    0.52
   0  -2  13    4.36    0.69
   0  -2  13    5.40    0.57
   0  -2  13    6.33    0.80
  -1   2 -13    9.11    0.87
  -1   2 -13    7.41    0.80
  -1   2 -13    7.09    0.58
  -1   2 -13    6.93    0.75
  -1   2 -13    8.32    0.64
   1  -2  13    5.66    0.58
   1  -2  13    6.52    0.75
   1  -2  13    8.23    0.88
   1  -2  13    7.03    0.81
  -2   2 -13    4.42    0.52
  -2   2 -13    4.69    0.71
  -2   2 -13    3.74    0.50
  -2   2 -13    3.77    0.55
  -2   2 -13    3.63    0.60
   2  -2  13    5.71    0.78
   2  -2  13    3.84    0.67
  -3   2 -13   -0.09    0.37
  -3   2 -13    0.04    0.33
  -3   2 -13   -0.39    0.26
  -3   2 -13   -0.58    0.31
  -3   2 -13   -0.22    0.30
   3  -2  13   -0.26    0.43
   3  -2  13   -0.16    0.41
  -4   2 -13    4.98    0.63
  -4   2 -13    4.84    0.72
  -4   2 -13    4.81    0.75
  -4   2 -13    7.25    0.89
   4  -2  13    6.51    0.91
  -5   2 -13    4.35    0.65
  -5   2 -13    4.42    0.71
  -5   2 -13    5.35    0.88
  -5   2 -13    3.55    0.68
   5  -2  13    2.70    0.70
   5  -2  13    5.17    0.89
   5   1 -13   -0.25    0.43
  -5  -1  13    0.65    0.62
  -5  -1  13    0.37    0.53
   4   1 -13    1.05    0.46
  -4  -1  13    0.70    0.62
  -4  -1  13    1.63    0.52
  -4  -1  13    1.64    0.55
   3   1 -13    0.35    0.36
   3   1 -13    0.81    0.40
   3   1 -13    0.56    0.34
  -3  -1  13    0.81    0.47
  -3  -1  13    0.13    0.43
  -3  -1  13    0.92    0.49
   2   1 -13    6.90    0.63
   2   1 -13    6.22    0.73
   2   1 -13    5.61    0.67
  -2  -1  13    6.20    0.74
  -2  -1  13    7.84    0.80
  -2  -1  13    6.02    0.63
  -2  -1  13    6.05    0.65
  -2  -1  13    6.58    0.80
   1   1 -13    1.52    0.47
   1   1 -13    1.56    0.33
   1   1 -13    1.84    0.41
   1   1 -13    2.41    0.49
   1   1 -13    1.89    0.44
   1   1 -13    2.16    0.41
  -1  -1  13    1.72    0.55
  -1  -1  13    1.75    0.45
  -1  -1  13    1.65    0.36
  -1  -1  13    1.40    0.44
  -1  -1  13    1.94    0.51
   0   1 -13    0.18    0.22
   0   1 -13   -0.02    0.32
   0   1 -13    0.14    0.21
   0   1 -13    0.16    0.29
   0   1 -13   -0.26    0.25
   0   1 -13    0.50    0.28
   0   1 -13   -0.29    0.25
   0  -1  13    0.45    0.46
   0  -1  13    0.41    0.41
   0  -1  13   -0.07    0.23
   0  -1  13    0.09    0.24
   0  -1  13    0.25    0.29
  -1   1 -13    3.13    0.45
  -1   1 -13    2.38    0.38
  -1   1 -13    2.25    0.47
  -1   1 -13    2.31    0.42
  -1   1 -13    3.51    0.60
  -1   1 -13    2.49    0.48
  -1   1 -13    3.27    0.48
   1  -1  13    1.38    0.48
   1  -1  13    2.61    0.58
   1  -1  13    2.54    0.39
  -2   1 -13    4.20    0.55
  -2   1 -13    4.91    0.58
  -2   1 -13    3.56    0.55
  -2   1 -13    4.97    0.67
  -2   1 -13    4.41    0.63
   2  -1  13    4.58    0.67
   2  -1  13    5.96    0.74
  -3   1 -13    0.74    0.36
  -3   1 -13    0.28    0.29
  -3   1 -13    0.38    0.39
  -3   1 -13    0.41    0.39
  -3   1 -13    1.08    0.37
   3  -1  13    0.39    0.46
   3  -1  13    1.10    0.50
  -4   1 -13    3.26    0.58
  -4   1 -13    3.43    0.57
  -4   1 -13    4.05    0.65
  -4   1 -13    4.93    0.74
   4  -1  13    3.59    0.70
  -5   1 -13    0.87    0.50
  -5   1 -13    1.22    0.49
  -5   1 -13    1.75    0.51
  -5   1 -13    1.61    0.54
   5  -1  13    0.95    0.60
   5  -1  13    1.16    0.53
   5   0 -13    1.66    0.58
  -5   0  13    0.56    0.47
  -5   0  13    1.21    0.57
  -5   0  13    1.94    0.73
   4   0 -13    0.27    0.39
  -4   0  13    0.79    0.57
  -4   0  13    0.39    0.55
   3   0 -13    2.88    0.59
   3   0 -13    3.70    0.53
   3   0 -13    2.73    0.61
  -3   0  13    2.38    0.59
  -3   0  13    3.80    0.67
  -3   0  13    3.47    0.63
   2   0 -13   11.40    0.75
   2   0 -13    8.77    0.86
   2   0 -13    8.92    0.74
  -2   0  13   10.86    0.76
  -2   0  13   10.24    0.90
  -2   0  13   11.80    0.89
  -2   0  13    9.47    0.91
  -2   0  13   10.43    0.69
   1   0 -13    6.14    0.75
   1   0 -13    4.39    0.53
   1   0 -13    4.51    0.54
   1   0 -13    4.04    0.58
   1   0 -13    5.18    0.64
  -1   0  13    5.36    0.51
  -1   0  13    5.74    0.66
  -1   0  13    5.57    0.71
  -1   0  13    4.89    0.59
  -1   0  13    4.23    0.57
   0   0 -13    0.15    0.18
   0   0 -13   -0.05    0.24
   0   0 -13   -0.09    0.25
   0   0 -13   -0.24    0.23
   0   0 -13   -0.14    0.24
   0   0 -13   -0.30    0.16
   0   0 -13   -0.23    0.22
   0   0 -13   -0.37    0.29
   0   0  13   -0.16    0.22
   0   0  13    0.07    0.40
   0   0  13    0.18    0.41
   0   0  13   -0.11    0.18
   0   0  13   -0.25    0.27
  -1   0 -13   15.63    0.77
  -1   0 -13   15.99    0.85
  -1   0 -13   16.50    0.87
  -1   0 -13   17.04    0.81
  -1   0 -13   17.29    0.99
  -1   0 -13   15.35    0.90
  -1   0 -13   16.46    0.92
   1   0  13   16.15    1.00
   1   0  13   15.86    0.96
  -2   0 -13   -0.28    0.31
  -2   0 -13   -0.10    0.29
  -2   0 -13    0.34    0.32
  -2   0 -13    0.05    0.27
  -2   0 -13    0.17    0.26
   2   0  13   -0.54    0.37
   2   0  13   -0.14    0.38
  -3   0 -13    1.43    0.42
  -3   0 -13    1.03    0.38
  -3   0 -13    1.94    0.51
  -3   0 -13    1.57    0.44
  -3   0 -13    1.56    0.41
   3   0  13    0.79    0.49
   3   0  13    1.69    0.47
  -4   0 -13    3.63    0.57
  -4   0 -13    2.62    0.53
  -4   0 -13    2.06    0.54
  -4   0 -13    2.96    0.55
  -4   0 -13    3.71    0.62
   4   0  13    2.55    0.67
   4   0  13    3.71    0.61
  -5   0 -13    0.28    0.37
  -5   0 -13    0.85    0.44
  -5   0 -13    0.48    0.43
  -5   0 -13    0.33    0.41
   5   0  13    0.36    0.42
   5   0  13   -0.60    0.50
  -6   0 -13    3.20    0.72
  -6   0 -13    4.18    0.70
  -6   0 -13    2.91    0.61
  -6   0 -13    2.78    0.58
   6   0  13    2.25    0.68
   6   0  13    2.00    0.62
   5  -1 -13    1.67    0.58
  -5   1  13    0.91    0.59
  -5   1  13    1.96    0.56
  -5   1  13    1.94    0.77
   4  -1 -13   -0.36    0.34
  -4   1  13    0.59    0.66
  -4   1  13    1.10    0.50
   3  -1 -13   10.57    0.93
   3  -1 -13   10.49    0.89
   3  -1 -13    9.65    0.85
  -3   1  13    9.33    0.96
  -3   1  13   10.26    0.78
  -3   1  13   10.37    1.02
   2  -1 -13    4.68    0.62
   2  -1 -13    4.78    0.71
   2  -1 -13    4.09    0.61
  -2   1  13    2.97    0.53
  -2   1  13    4.03    0.63
  -2   1  13    3.66    0.56
  -2   1  13    3.84    0.69
   1  -1 -13    1.39    0.37
   1  -1 -13    0.85    0.32
   1  -1 -13    0.73    0.33
   1  -1 -13    1.28    0.46
  -1   1  13    1.18    0.47
  -1   1  13    1.04    0.44
  -1   1  13    0.71    0.45
   0  -1 -13    0.03    0.18
   0  -1 -13    0.09    0.27
   0  -1 -13    0.13    0.27
   0  -1 -13    0.02    0.24
   0  -1 -13    0.05    0.31
   0  -1 -13    0.47    0.36
   0  -1 -13   -0.40    0.24
   0  -1 -13    0.07    0.20
   0   1  13   -0.44    0.27
   0   1  13   -0.25    0.37
   0   1  13    0.03    0.37
  -1  -1 -13    6.14    0.66
  -1  -1 -13    6.57    0.68
  -1  -1 -13    6.50    0.58
  -1  -1 -13    5.41    0.53
  -1  -1 -13    5.35    0.66
  -1  -1 -13    7.04    0.68
  -1  -1 -13    5.52    0.58
   1   1  13    4.20    0.64
   1   1  13    6.13    0.73
  -2  -1 -13    0.44    0.34
  -2  -1 -13    0.45    0.32
  -2  -1 -13    1.14    0.36
  -2  -1 -13    0.65    0.31
  -2  -1 -13    0.88    0.37
   2   1  13    0.32    0.40
   2   1  13    0.37    0.38
  -3  -1 -13    0.79    0.37
  -3  -1 -13    0.86    0.34
  -3  -1 -13    1.38    0.42
  -3  -1 -13    0.86    0.35
  -3  -1 -13    1.52    0.41
   3   1  13    0.49    0.45
   3   1  13    1.08    0.44
   3   1  13    0.92    0.36
  -4  -1 -13    0.88    0.39
  -4  -1 -13    0.39    0.36
  -4  -1 -13    0.09    0.35
  -4  -1 -13   -0.25    0.32
  -4  -1 -13    0.50    0.35
   4   1  13    0.44    0.39
   4   1  13    0.73    0.48
  -5  -1 -13    0.58    0.46
  -5  -1 -13    0.64    0.38
  -5  -1 -13    1.07    0.40
  -5  -1 -13    0.63    0.41
   5   1  13    0.30    0.50
   5   1  13    0.17    0.39
  -6  -1 -13    0.22    0.35
  -6  -1 -13   -0.08    0.40
  -6  -1 -13   -0.33    0.32
  -6  -1 -13    1.08    0.45
   6   1  13   -0.65    0.55
   6   1  13    0.71    0.51
   4  -2 -13    0.70    0.50
  -4   2  13    1.50    0.69
  -4   2  13    0.97    0.56
   3  -2 -13    3.27    0.63
   3  -2 -13    2.14    0.53
   3  -2 -13    2.67    0.54
  -3   2  13    3.10    0.76
  -3   2  13    4.16    0.64
   2  -2 -13    5.53    0.66
   2  -2 -13    5.06    0.74
   2  -2 -13    4.86    0.69
  -2   2  13    6.87    0.82
  -2   2  13    5.56    0.80
  -2   2  13    5.55    0.69
   1  -2 -13    4.87    0.61
   1  -2 -13    5.78    0.74
   1  -2 -13    3.80    0.55
   1  -2 -13    4.07    0.47
   1  -2 -13    4.26    0.56
  -1   2  13    3.93    0.66
  -1   2  13    3.97    0.58
  -1   2  13    2.86    0.56
   0  -2 -13    0.30    0.26
   0  -2 -13    0.62    0.31
   0  -2 -13    0.90    0.34
   0  -2 -13    0.76    0.34
   0  -2 -13    0.77    0.26
   0  -2 -13    0.79    0.24
   0  -2 -13    0.39    0.28
   0  -2 -13    0.46    0.37
   0   2  13    0.32    0.38
   0   2  13    0.22    0.33
   0   2  13    0.60    0.44
  -1  -2 -13   30.40    1.08
  -1  -2 -13   30.45    1.09
  -1  -2 -13   30.07    1.21
  -1  -2 -13   30.36    1.07
  -1  -2 -13   31.43    1.24
  -1  -2 -13   30.18    1.21
  -1  -2 -13   30.27    1.32
  -1  -2 -13   30.51    1.22
   1   2  13   28.85    1.31
   1   2  13   31.53    1.30
   1   2  13   31.79    1.11
  -2  -2 -13    0.01    0.29
  -2  -2 -13   -0.30    0.26
  -2  -2 -13    0.13    0.30
  -2  -2 -13   -0.18    0.24
  -2  -2 -13   -0.32    0.26
   2   2  13   -0.03    0.38
   2   2  13   -0.13    0.34
  -3  -2 -13    1.60    0.44
  -3  -2 -13    1.05    0.38
  -3  -2 -13    2.25    0.43
  -3  -2 -13    2.00    0.45
  -3  -2 -13    1.52    0.45
   3   2  13    1.32    0.47
   3   2  13    1.71    0.53
  -4  -2 -13   31.19    1.32
  -4  -2 -13   30.99    1.30
  -4  -2 -13   29.98    1.36
  -4  -2 -13   32.32    1.34
  -4  -2 -13   27.79    1.22
   4   2  13   29.91    1.48
   4   2  13   30.70    1.19
  -5  -2 -13    0.52    0.44
  -5  -2 -13    0.73    0.36
  -5  -2 -13    0.27    0.35
  -5  -2 -13    0.35    0.41
   5   2  13    1.13    0.47
   5   2  13    0.23    0.51
  -6  -2 -13    7.24    0.77
  -6  -2 -13    6.65    0.81
  -6  -2 -13    6.09    0.84
  -6  -2 -13    6.05    0.71
   6   2  13    6.11    0.83
   6   2  13    6.64    0.96
   4  -3 -13    2.33    0.62
  -4   3  13    2.57    0.78
  -4   3  13    1.44    0.58
   3  -3 -13    9.56    0.99
   3  -3 -13   11.55    0.88
   3  -3 -13   10.04    1.03
  -3   3  13    8.56    0.98
  -3   3  13    9.68    1.08
   2  -3 -13   12.34    1.01
   2  -3 -13   10.22    0.92
   2  -3 -13    9.68    0.79
  -2   3  13    9.32    0.79
  -2   3  13    9.44    0.95
  -2   3  13   11.26    1.02
   1  -3 -13    0.39    0.41
   1  -3 -13    0.41    0.32
   1  -3 -13    0.69    0.38
   1  -3 -13   -0.06    0.21
   1  -3 -13    0.24    0.31
  -1   3  13    0.54    0.40
  -1   3  13   -0.05    0.37
  -1   3  13    0.42    0.50
   0  -3 -13    5.96    0.66
   0  -3 -13    6.33    0.68
   0  -3 -13    6.96    0.67
   0  -3 -13    6.21    0.74
   0  -3 -13    6.99    0.49
   0  -3 -13    5.75    0.56
   0  -3 -13    6.02    0.63
   0  -3 -13    5.99    0.61
   0   3  13    6.29    0.74
   0   3  13    5.47    0.73
   0   3  13    6.18    0.65
  -1  -3 -13    0.36    0.25
  -1  -3 -13    0.02    0.33
  -1  -3 -13    0.39    0.26
  -1  -3 -13    0.41    0.32
  -1  -3 -13    0.33    0.32
  -1  -3 -13    0.42    0.27
  -1  -3 -13    0.35    0.35
  -1  -3 -13   -0.15    0.28
   1   3  13    0.46    0.28
   1   3  13    0.50    0.51
   1   3  13    0.07    0.38
  -2  -3 -13    4.24    0.56
  -2  -3 -13    3.84    0.54
  -2  -3 -13    3.95    0.58
  -2  -3 -13    4.10    0.58
  -2  -3 -13    4.52    0.57
  -2  -3 -13    4.82    0.61
   2   3  13    4.94    0.63
   2   3  13    4.70    0.70
  -3  -3 -13    1.26    0.41
  -3  -3 -13    2.03    0.47
  -3  -3 -13    1.16    0.40
  -3  -3 -13    0.53    0.34
  -3  -3 -13    1.15    0.43
   3   3  13    2.11    0.57
  -4  -3 -13    1.35    0.44
  -4  -3 -13    1.13    0.43
  -4  -3 -13    0.80    0.35
  -4  -3 -13    0.59    0.38
  -4  -3 -13    0.92    0.40
   4   3  13    1.05    0.55
  -5  -3 -13    3.29    0.61
  -5  -3 -13    2.50    0.51
  -5  -3 -13    1.91    0.51
  -5  -3 -13    2.97    0.54
   5   3  13    2.46    0.53
   5   3  13    3.11    0.69
  -6  -3 -13    0.14    0.43
  -6  -3 -13   -0.37    0.30
  -6  -3 -13    0.43    0.43
  -6  -3 -13    0.44    0.34
   6   3  13    0.27    0.45
   6   3  13   -0.02    0.52
   3  -4 -13    1.85    0.54
   3  -4 -13    3.18    0.73
   3  -4 -13    1.98    0.58
  -3   4  13    1.61    0.73
  -3   4  13    1.44    0.61
   2  -4 -13    9.63    0.92
   2  -4 -13    7.04    0.90
   2  -4 -13    8.87    0.89
  -2   4  13    8.53    0.96
  -2   4  13   11.43    1.06
   1  -4 -13    4.11    0.72
   1  -4 -13    1.71    0.42
   1  -4 -13    3.67    0.61
   1  -4 -13    3.80    0.49
   1  -4 -13    3.05    0.51
  -1   4  13    4.20    0.71
  -1   4  13    2.77    0.60
  -1   4  13    2.81    0.62
   0  -4 -13    0.32    0.40
   0  -4 -13    0.64    0.31
   0  -4 -13    0.70    0.32
   0  -4 -13    0.64    0.38
   0  -4 -13    0.19    0.31
   0  -4 -13    0.57    0.32
   0   4  13    0.06    0.38
   0   4  13    0.98    0.49
   0   4  13    0.30    0.43
  -1  -4 -13   15.70    0.96
  -1  -4 -13   16.91    0.96
  -1  -4 -13   17.47    0.83
  -1  -4 -13   13.87    0.89
  -1  -4 -13   14.70    0.85
  -1  -4 -13   16.47    1.03
  -1  -4 -13   15.15    0.84
   1   4  13   16.29    0.85
   1   4  13   15.78    1.07
  -2  -4 -13    0.15    0.29
  -2  -4 -13    0.04    0.32
  -2  -4 -13   -0.28    0.25
  -2  -4 -13    0.40    0.31
  -2  -4 -13    0.46    0.36
  -2  -4 -13    0.24    0.32
   2   4  13    0.42    0.52
   2   4  13   -0.35    0.46
  -3  -4 -13    0.51    0.35
  -3  -4 -13    0.70    0.36
  -3  -4 -13    0.68    0.36
  -3  -4 -13    0.65    0.36
  -3  -4 -13    0.25    0.35
  -3  -4 -13    0.41    0.35
   3   4  13   -0.58    0.42
  -4  -4 -13    9.62    0.91
  -4  -4 -13    9.10    0.76
  -4  -4 -13    8.64    0.72
  -4  -4 -13    8.82    0.77
   4   4  13    9.96    0.98
  -5  -4 -13   -0.03    0.31
  -5  -4 -13   -0.45    0.26
  -5  -4 -13    0.35    0.37
  -5  -4 -13    0.24    0.39
   5   4  13   -0.29    0.47
  -6  -4 -13    5.05    0.63
  -6  -4 -13    4.81    0.71
  -6  -4 -13    3.73    0.67
  -6  -4 -13    4.13    0.62
   6   4  13    3.04    0.62
   6   4  13    3.90    0.75
   3  -5 -13    7.71    0.95
   3  -5 -13    9.91    1.10
  -3   5  13    9.55    1.12
  -3   5  13    6.50    0.92
   2  -5 -13    2.29    0.64
   2  -5 -13    2.47    0.59
   2  -5 -13    2.94    0.60
  -2   5  13    2.75    0.68
  -2   5  13    1.91    0.61
   1  -5 -13    5.41    0.62
   1  -5 -13    5.78    0.84
   1  -5 -13    4.38    0.62
   1  -5 -13    5.62    0.72
  -1   5  13    4.64    0.73
  -1   5  13    6.01    0.83
  -1   5  13    4.84    0.77
   0  -5 -13   46.92    1.71
   0  -5 -13   47.99    1.66
   0  -5 -13   47.83    1.72
   0  -5 -13   46.46    1.56
   0  -5 -13   46.35    1.80
   0  -5 -13   45.84    1.53
   0   5  13   46.49    1.81
   0   5  13   47.10    1.82
   0   5  13   50.99    1.70
  -1  -5 -13    5.24    0.63
  -1  -5 -13    6.23    0.76
  -1  -5 -13    5.18    0.56
  -1  -5 -13    4.52    0.64
  -1  -5 -13    5.17    0.67
  -1  -5 -13    4.01    0.56
   1   5  13    5.36    0.77
   1   5  13    5.34    0.63
   1   5  13    5.22    0.70
  -2  -5 -13   11.69    0.81
  -2  -5 -13   10.99    0.84
  -2  -5 -13   13.18    0.93
  -2  -5 -13   12.64    0.84
  -2  -5 -13   11.70    0.87
  -2  -5 -13   13.49    0.79
   2   5  13   11.32    0.96
  -3  -5 -13   20.25    1.06
  -3  -5 -13   19.12    1.03
  -3  -5 -13   17.83    1.05
  -3  -5 -13   19.96    1.08
  -3  -5 -13   21.94    1.10
  -3  -5 -13   19.67    0.95
   3   5  13   18.85    1.17
  -4  -5 -13    0.29    0.38
  -4  -5 -13   -0.13    0.31
  -4  -5 -13   -0.20    0.30
  -4  -5 -13    0.24    0.33
  -4  -5 -13    0.74    0.39
   4   5  13    0.83    0.57
  -5  -5 -13    1.63    0.54
  -5  -5 -13    2.11    0.57
  -5  -5 -13    2.39    0.50
  -5  -5 -13    3.58    0.59
  -5  -5 -13    2.19    0.49
   5   5  13    2.09    0.68
  -6  -5 -13    1.86    0.46
  -6  -5 -13    1.49    0.55
  -6  -5 -13    2.43    0.58
  -6  -5 -13    1.42    0.43
   6   5  13    1.24    0.65
   2  -6 -13   14.49    1.18
   2  -6 -13   13.25    1.04
   2  -6 -13   13.52    1.03
  -2   6  13   16.26    1.24
  -2   6  13   16.25    1.22
   1  -6 -13    0.50    0.46
   1  -6 -13    0.51    0.41
   1  -6 -13    0.08    0.37
   1  -6 -13    0.28    0.35
  -1   6  13   -0.15    0.51
  -1   6  13   -0.28    0.43
   0  -6 -13    2.91    0.68
   0  -6 -13    3.43    0.61
   0  -6 -13    3.18    0.58
   0  -6 -13    3.30    1.01
   0  -6 -13    2.97    0.53
   0   6  13    2.78    0.63
   0   6  13    2.45    0.65
   0   6  13    2.43    0.68
   0   6  13    3.65    0.70
  -1  -6 -13    8.23    0.88
  -1  -6 -13    7.71    0.80
  -1  -6 -13    7.79    0.81
  -1  -6 -13    7.87    0.91
  -1  -6 -13    9.10    0.94
   1   6  13    7.63    0.95
   1   6  13    6.98    0.90
   1   6  13   10.04    0.90
  -2  -6 -13    0.15    0.38
  -2  -6 -13   -0.13    0.31
  -2  -6 -13   -0.77    0.28
  -2  -6 -13    0.17    0.34
  -2  -6 -13    0.35    0.37
   2   6  13   -0.27    0.49
   2   6  13    0.83    0.54
  -3  -6 -13   -0.34    0.32
  -3  -6 -13    0.79    0.43
  -3  -6 -13    0.32    0.39
  -3  -6 -13   -0.12    0.33
   3   6  13    0.03    0.50
   3   6  13   -0.52    0.44
  -4  -6 -13    2.05    0.49
  -4  -6 -13    1.69    0.52
  -4  -6 -13    2.47    0.52
  -4  -6 -13    2.06    0.58
   4   6  13    1.29    0.59
  -5  -6 -13   -0.35    0.36
  -5  -6 -13    0.49    0.36
  -5  -6 -13    0.82    0.38
  -5  -6 -13    0.76    0.47
   5   6  13    0.03    0.50
   1  -7 -13    0.25    0.42
   1  -7 -13    0.09    0.36
   1  -7 -13    0.46    0.56
   1  -7 -13   -0.01    0.40
  -1   7  13   -0.74    0.53
  -1   7  13   -0.25    0.50
   0  -7 -13   15.14    1.03
   0  -7 -13   12.04    0.89
   0  -7 -13   14.06    1.00
   0  -7 -13   14.15    1.17
   0   7  13   15.76    1.16
   0   7  13   14.63    1.13
  -1  -7 -13    0.06    0.39
  -1  -7 -13   -0.50    0.35
  -1  -7 -13    0.29    0.47
  -1  -7 -13    0.03    0.38
   1   7  13   -0.34    0.58
   1   7  13   -0.04    0.57
  -2  -7 -13    5.06    0.75
  -2  -7 -13    7.09    0.84
  -2  -7 -13    7.18    0.83
  -2  -7 -13    8.17    0.92
   2   7  13    4.31    0.79
   2   7  13    6.56    0.98
  -3  -7 -13   10.40    0.99
  -3  -7 -13   11.19    0.90
  -3  -7 -13   10.80    1.00
  -3  -7 -13   10.35    0.88
   3   7  13    9.13    1.04
   3   7  13    7.28    0.99
  -4  -7 -13    1.73    0.59
  -4  -7 -13    0.90    0.44
  -4  -7 -13    0.88    0.54
  -4  -7 -13    1.69    0.47
   4   7  13    0.84    0.66
   4   7  13    1.04    0.67
  -5  -7 -13   15.48    1.15
  -5  -7 -13   15.17    0.97
  -5  -7 -13   16.13    1.16
  -5  -7 -13   14.49    0.94
   5   7  13   15.41    1.25
   5   7  13   10.62    1.23
   0  -8 -13    0.40    0.44
   0  -8 -13   -0.21    0.52
   0  -8 -13   -0.32    0.39
   0   8  13    0.62    0.61
  -1  -8 -13    1.20    0.55
  -1  -8 -13    0.63    0.51
  -1  -8 -13   -0.33    0.35
  -1  -8 -13    1.05    0.54
   1   8  13    0.63    0.64
  -2  -8 -13    0.48    0.46
  -2  -8 -13   -0.39    0.36
  -2  -8 -13   -0.56    0.40
  -2  -8 -13   -0.27    0.42
   2   8  13    0.52    0.65
  -3  -8 -13    1.91    0.57
  -3  -8 -13    1.17    0.46
  -3  -8 -13    0.81    0.48
  -3  -8 -13    0.46    0.50
   3   8  13    1.33    0.74
   3   8  13    0.23    0.58
  -4  -8 -13   -0.40    0.38
  -4  -8 -13    0.47    0.41
  -4  -8 -13    0.19    0.43
  -4  -8 -13    0.56    0.42
   4   8  13    0.37    0.59
   4   8  13   -0.25    0.54
   2   6 -14    9.01    1.09
  -2  -6  14    8.72    0.94
  -2  -6  14    8.16    1.04
  -2  -6  14    7.69    1.04
   1   6 -14    1.66    0.49
  -1  -6  14    1.39    0.63
  -1  -6  14    0.94    0.54
  -1  -6  14    2.11    0.74
   0   6 -14   13.60    1.06
   0   6 -14   14.76    1.33
   0  -6  14   13.59    1.32
   0  -6  14   12.76    1.29
   0  -6  14   10.42    1.07
  -1   6 -14    1.46    0.63
  -1   6 -14    1.16    0.46
   1  -6  14    1.56    0.72
   1  -6  14    1.22    0.72
   1  -6  14    0.92    0.62
   3   5 -14    0.54    0.52
  -3  -5  14    0.47    0.57
  -3  -5  14    0.18    0.56
  -3  -5  14    0.02    0.49
  -3  -5  14    0.92    0.58
   2   5 -14   14.96    1.13
  -2  -5  14   13.22    1.08
  -2  -5  14   15.57    1.09
  -2  -5  14   14.63    1.16
  -2  -5  14   14.03    1.16
   1   5 -14    0.35    0.40
   1   5 -14    0.18    0.44
  -1  -5  14    0.58    0.48
  -1  -5  14    0.16    0.56
  -1  -5  14   -0.70    0.52
   0   5 -14    4.61    0.74
   0   5 -14    3.68    0.71
   0  -5  14    3.30    0.74
   0  -5  14    4.00    0.72
   0  -5  14    4.77    0.88
  -1   5 -14    7.02    0.95
  -1   5 -14    5.60    0.80
   1  -5  14    4.03    0.80
   1  -5  14    6.72    0.99
   1  -5  14    4.65    0.84
  -2   5 -14    2.89    0.73
  -2   5 -14    3.16    0.70
   2  -5  14    3.18    0.72
   2  -5  14    2.88    0.80
   2  -5  14    3.02    0.83
   4   4 -14    0.16    0.40
  -4  -4  14    0.72    0.58
  -4  -4  14    0.67    0.58
  -4  -4  14   -0.53    0.42
   3   4 -14    1.47    0.52
  -3  -4  14    2.34    0.61
  -3  -4  14    1.72    0.64
  -3  -4  14    1.12    0.52
  -3  -4  14    0.99    0.61
   2   4 -14    2.94    0.61
  -2  -4  14    4.33    0.75
  -2  -4  14    4.89    0.79
  -2  -4  14    3.78    0.65
  -2  -4  14    4.68    0.75
  -2  -4  14    3.48    0.65
   1   4 -14    0.51    0.43
   1   4 -14    0.79    0.45
   1   4 -14   -0.19    0.36
  -1  -4  14    0.32    0.46
  -1  -4  14    0.83    0.55
  -1  -4  14    0.52    0.56
   0   4 -14    2.68    0.66
   0   4 -14    4.16    0.69
   0  -4  14    2.76    0.66
   0  -4  14    2.93    0.71
   0  -4  14    3.24    0.63
  -1   4 -14    0.39    0.47
  -1   4 -14    0.67    0.42
   1  -4  14    0.18    0.49
   1  -4  14    0.72    0.62
   1  -4  14    0.71    0.51
  -2   4 -14    0.04    0.46
  -2   4 -14    0.09    0.48
   2  -4  14   -0.18    0.52
   2  -4  14    1.04    0.63
   2  -4  14   -0.41    0.46
  -3   4 -14    0.63    0.52
  -3   4 -14    0.17    0.49
   3  -4  14    0.48    0.62
   3  -4  14    1.23    0.62
   4   3 -14    2.80    0.64
  -4  -3  14    3.16    0.76
  -4  -3  14    2.79    0.72
  -4  -3  14    4.03    0.72
   3   3 -14    2.06    0.55
  -3  -3  14    2.54    0.68
  -3  -3  14    1.54    0.65
  -3  -3  14    2.30    0.61
   2   3 -14    2.65    0.56
   2   3 -14    1.91    0.55
  -2  -3  14    3.10    0.59
  -2  -3  14    3.00    0.65
  -2  -3  14    2.34    0.59
  -2  -3  14    2.49    0.56
  -2  -3  14    2.67    0.67
   1   3 -14    2.21    0.58
   1   3 -14    1.68    0.36
   1   3 -14    1.77    0.48
   1   3 -14    3.24    0.61
  -1  -3  14    1.99    0.56
  -1  -3  14    2.69    0.58
  -1  -3  14    2.14    0.60
  -1  -3  14    1.72    0.47
   0   3 -14    1.60    0.36
   0   3 -14    2.20    0.52
   0   3 -14    1.94    0.57
   0  -3  14    2.53    0.67
   0  -3  14    1.24    0.49
   0  -3  14    1.89    0.57
  -1   3 -14    0.25    0.29
  -1   3 -14    1.09    0.50
  -1   3 -14    0.70    0.41
   1  -3  14    0.53    0.48
   1  -3  14   -0.17    0.49
   1  -3  14   -0.92    0.45
  -2   3 -14    0.65    0.48
  -2   3 -14    1.15    0.49
  -2   3 -14    0.64    0.34
   2  -3  14    0.66    0.51
   2  -3  14    2.20    0.66
  -3   3 -14    0.05    0.33
  -3   3 -14   -0.14    0.39
  -3   3 -14    0.68    0.47
   3  -3  14    0.71    0.61
   3  -3  14   -0.37    0.47
  -4   3 -14    1.70    0.58
  -4   3 -14    0.52    0.50
  -4   3 -14    2.19    0.50
   4  -3  14    1.04    0.67
   4   2 -14    0.32    0.44
  -4  -2  14    0.54    0.48
  -4  -2  14   -0.93    0.41
  -4  -2  14    0.15    0.64
   3   2 -14    5.55    0.79
  -3  -2  14    6.55    0.88
  -3  -2  14    6.09    0.84
  -3  -2  14    6.39    0.78
   2   2 -14    1.79    0.38
   2   2 -14    2.27    0.56
   2   2 -14    1.73    0.51
  -2  -2  14    1.24    0.46
  -2  -2  14    1.57    0.54
  -2  -2  14    1.93    0.54
  -2  -2  14    2.12    0.62
   1   2 -14    1.03    0.39
   1   2 -14    0.43    0.36
   1   2 -14    0.00    0.25
   1   2 -14    0.61    0.41
   1   2 -14    0.05    0.22
  -1  -2  14   -0.43    0.45
  -1  -2  14    0.06    0.37
  -1  -2  14    0.44    0.39
   0   2 -14    2.26    0.55
   0   2 -14    1.58    0.38
   0   2 -14    1.36    0.45
   0   2 -14    1.39    0.42
   0   2 -14    1.45    0.36
   0  -2  14    1.39    0.53
   0  -2  14    1.44    0.57
  -1   2 -14    0.09    0.28
  -1   2 -14    0.03    0.37
  -1   2 -14    0.68    0.41
  -1   2 -14    0.60    0.33
   1  -2  14   -0.47    0.48
   1  -2  14   -0.01    0.42
  -2   2 -14    2.16    0.58
  -2   2 -14    2.22    0.58
  -2   2 -14    3.02    0.50
  -2   2 -14    1.62    0.41
   2  -2  14    2.88    0.66
   2  -2  14    2.67    0.65
  -3   2 -14    1.56    0.44
  -3   2 -14    2.80    0.50
  -3   2 -14    2.64    0.56
  -3   2 -14    3.15    0.63
  -3   2 -14    3.77    0.68
   3  -2  14    3.22    0.69
   3  -2  14    1.79    0.66
  -4   2 -14    0.13    0.38
  -4   2 -14   -0.30    0.37
  -4   2 -14    0.23    0.39
  -4   2 -14   -0.02    0.45
   4  -2  14   -0.07    0.51
   4   1 -14    2.50    0.61
  -4  -1  14    3.70    0.79
  -4  -1  14    2.65    0.66
  -4  -1  14    2.82    0.69
   3   1 -14   10.73    0.76
   3   1 -14   10.21    0.89
  -3  -1  14   11.12    1.01
  -3  -1  14   10.98    0.97
  -3  -1  14   10.53    1.06
   2   1 -14    8.13    0.90
   2   1 -14    4.86    0.56
   2   1 -14    5.79    0.72
  -2  -1  14    6.56    0.75
  -2  -1  14    6.30    0.74
  -2  -1  14    6.75    0.84
  -2  -1  14    5.95    0.68
   1   1 -14    0.45    0.30
   1   1 -14   -0.44    0.33
   1   1 -14    0.11    0.29
   1   1 -14    0.32    0.29
   1   1 -14   -0.16    0.29
  -1  -1  14   -0.55    0.36
  -1  -1  14   -0.74    0.36
  -1  -1  14    0.05    0.42
   0   1 -14    8.97    0.70
   0   1 -14    8.09    0.83
   0   1 -14    9.16    0.68
   0   1 -14   10.88    0.87
   0   1 -14    8.11    0.70
   0  -1  14    8.67    0.90
   0  -1  14    8.21    0.87
  -1   1 -14    0.24    0.29
  -1   1 -14    0.53    0.40
  -1   1 -14    0.18    0.30
  -1   1 -14   -0.18    0.32
  -1   1 -14    0.40    0.31
   1  -1  14   -0.28    0.39
   1  -1  14   -0.10    0.47
  -2   1 -14    0.18    0.36
  -2   1 -14    1.08    0.38
  -2   1 -14   -0.18    0.28
  -2   1 -14    0.13    0.30
  -2   1 -14   -0.07    0.34
   2  -1  14    0.55    0.46
   2  -1  14    0.62    0.49
  -3   1 -14    0.41    0.35
  -3   1 -14    0.55    0.39
  -3   1 -14   -0.12    0.38
  -3   1 -14    0.00    0.37
  -3   1 -14    0.09    0.35
   3  -1  14    0.00    0.45
   3  -1  14    0.40    0.47
  -4   1 -14    8.24    0.87
  -4   1 -14    8.99    0.87
  -4   1 -14    9.63    1.00
  -4   1 -14    9.57    0.99
   4  -1  14    8.52    0.96
  -5   1 -14   -0.05    0.39
  -5   1 -14    0.28    0.42
  -5   1 -14   -1.03    0.36
  -5   1 -14   -0.25    0.38
   5  -1  14   -0.10    0.47
   5  -1  14    0.45    0.64
   4   0 -14    1.00    0.54
  -4   0  14    1.68    0.72
  -4   0  14    0.79    0.55
   3   0 -14    8.96    0.81
   3   0 -14    8.04    0.89
   3   0 -14    8.34    0.90
  -3   0  14    7.81    0.84
  -3   0  14   10.39    1.00
  -3   0  14    8.21    0.95
   2   0 -14    5.28    0.68
   2   0 -14    6.05    0.65
   2   0 -14    6.43    0.78
  -2   0  14    6.89    0.83
  -2   0  14    8.73    0.94
  -2   0  14    7.48    0.83
  -2   0  14    7.15    0.75
   1   0 -14    0.53    0.33
   1   0 -14    0.11    0.26
   1   0 -14    0.15    0.36
   1   0 -14    0.16    0.31
   1   0 -14    0.55    0.38
  -1   0  14   -0.17    0.46
  -1   0  14   -0.34    0.35
  -1   0  14    0.17    0.35
   0   0 -14    7.78    0.66
   0   0 -14    8.03    0.85
   0   0 -14    7.80    0.81
   0   0 -14    7.67    0.71
   0   0 -14    8.64    0.69
   0   0  14    7.49    0.97
   0   0  14    7.34    0.81
   0   0  14    7.47    0.82
  -1   0 -14    4.65    0.55
  -1   0 -14    4.45    0.68
  -1   0 -14    3.73    0.57
  -1   0 -14    4.39    0.57
  -1   0 -14    4.02    0.62
  -1   0 -14    4.70    0.58
  -1   0 -14    4.21    0.51
   1   0  14    3.31    0.66
   1   0  14    4.13    0.71
  -2   0 -14    1.20    0.39
  -2   0 -14    0.86    0.39
  -2   0 -14    1.27    0.44
  -2   0 -14    1.73    0.48
  -2   0 -14    1.70    0.47
   2   0  14    1.36    0.52
   2   0  14    1.01    0.51
  -3   0 -14    2.26    0.49
  -3   0 -14    1.47    0.51
  -3   0 -14    1.29    0.44
  -3   0 -14    3.02    0.57
  -3   0 -14    2.19    0.52
   3   0  14    1.79    0.61
  -4   0 -14   -0.08    0.36
  -4   0 -14    0.45    0.44
  -4   0 -14    0.63    0.43
  -4   0 -14    0.90    0.40
   4   0  14   -0.04    0.44
   4   0  14    0.52    0.43
  -5   0 -14    0.11    0.42
  -5   0 -14    0.38    0.40
  -5   0 -14    0.25    0.42
  -5   0 -14    0.82    0.42
   5   0  14   -0.11    0.43
   5   0  14    0.67    0.54
   4  -1 -14    3.24    0.72
  -4   1  14    2.95    0.83
   3  -1 -14   -0.32    0.38
   3  -1 -14    0.37    0.36
   3  -1 -14    0.42    0.40
  -3   1  14    0.47    0.61
  -3   1  14    0.40    0.55
   2  -1 -14    0.97    0.45
   2  -1 -14    1.17    0.43
   2  -1 -14    1.37    0.44
  -2   1  14    1.37    0.55
  -2   1  14    1.48    0.52
  -2   1  14    1.12    0.58
   1  -1 -14    7.19    0.74
   1  -1 -14    7.08    0.72
   1  -1 -14    8.58    0.90
   1  -1 -14    6.49    0.69
  -1   1  14    7.92    0.75
  -1   1  14    8.72    0.83
  -1   1  14    9.51    0.94
   0  -1 -14   12.56    0.97
   0  -1 -14   13.67    0.91
   0  -1 -14   12.67    0.79
   0  -1 -14   12.79    0.80
   0  -1 -14   12.05    0.78
   0  -1 -14   10.99    0.62
   0   1  14   10.35    0.87
   0   1  14   13.46    0.77
   0   1  14   14.09    1.05
  -1  -1 -14    8.32    0.81
  -1  -1 -14    6.42    0.74
  -1  -1 -14    6.08    0.59
  -1  -1 -14    5.96    0.66
  -1  -1 -14    6.42    0.59
  -1  -1 -14    6.10    0.74
  -1  -1 -14    6.45    0.69
  -1  -1 -14    6.75    0.54
   1   1  14    6.67    0.78
   1   1  14    7.66    0.85
  -2  -1 -14   11.18    0.81
  -2  -1 -14   12.45    0.81
  -2  -1 -14   11.50    0.79
  -2  -1 -14   10.99    0.86
  -2  -1 -14   11.50    0.88
   2   1  14   12.06    0.91
   2   1  14    9.50    0.95
  -3  -1 -14    8.62    0.80
  -3  -1 -14    8.35    0.84
  -3  -1 -14    6.79    0.74
  -3  -1 -14    8.21    0.83
  -3  -1 -14    8.49    0.79
   3   1  14    8.21    0.69
   3   1  14    7.18    0.87
  -4  -1 -14    1.04    0.45
  -4  -1 -14    1.74    0.47
  -4  -1 -14    1.22    0.48
  -4  -1 -14    1.23    0.51
   4   1  14    0.59    0.52
   4   1  14    1.49    0.46
  -5  -1 -14    1.71    0.55
  -5  -1 -14    1.92    0.51
  -5  -1 -14    0.99    0.57
  -5  -1 -14    2.24    0.53
   5   1  14    1.49    0.66
   5   1  14    1.85    0.56
   4  -2 -14    0.84    0.48
  -4   2  14    0.31    0.55
  -4   2  14    0.18    0.62
   3  -2 -14    2.00    0.58
   3  -2 -14    1.74    0.49
   3  -2 -14    2.21    0.56
  -3   2  14    2.76    0.77
  -3   2  14    2.38    0.57
   2  -2 -14    1.56    0.47
   2  -2 -14    1.18    0.42
   2  -2 -14    2.31    0.60
  -2   2  14   -0.17    0.51
  -2   2  14    1.46    0.60
  -2   2  14    0.74    0.46
   1  -2 -14    3.39    0.54
   1  -2 -14    4.09    0.57
   1  -2 -14    3.95    0.66
   1  -2 -14    3.62    0.55
  -1   2  14    4.82    0.65
  -1   2  14    4.76    0.72
  -1   2  14    4.60    0.71
   0  -2 -14   21.56    0.99
   0  -2 -14   23.28    1.24
   0  -2 -14   21.96    1.05
   0  -2 -14   22.44    1.26
   0  -2 -14   21.26    1.09
   0  -2 -14   21.97    0.88
   0  -2 -14   22.86    1.11
   0   2  14   21.71    1.15
   0   2  14   23.85    1.03
   0   2  14   20.58    1.24
  -1  -2 -14    2.66    0.40
  -1  -2 -14    2.77    0.44
  -1  -2 -14    2.90    0.57
  -1  -2 -14    2.07    0.45
  -1  -2 -14    1.84    0.45
  -1  -2 -14    2.77    0.45
  -1  -2 -14    2.80    0.52
  -1  -2 -14    2.08    0.45
   1   2  14    1.86    0.56
   1   2  14    2.03    0.55
  -2  -2 -14    6.71    0.71
  -2  -2 -14    7.74    0.81
  -2  -2 -14    9.14    0.88
  -2  -2 -14    6.85    0.75
  -2  -2 -14    6.43    0.70
   2   2  14    8.13    0.81
   2   2  14    6.57    0.81
  -3  -2 -14    9.85    0.77
  -3  -2 -14    9.49    0.83
  -3  -2 -14   10.92    0.83
  -3  -2 -14    9.25    0.90
  -3  -2 -14   10.11    0.80
   3   2  14    9.96    1.00
  -4  -2 -14    0.35    0.42
  -4  -2 -14    0.11    0.37
  -4  -2 -14    1.10    0.43
  -4  -2 -14    0.10    0.34
   4   2  14    1.08    0.64
   4   2  14    0.31    0.37
  -5  -2 -14    0.91    0.45
  -5  -2 -14    0.92    0.52
  -5  -2 -14    1.21    0.47
  -5  -2 -14    0.96    0.44
   5   2  14    1.21    0.51
   5   2  14    1.30    0.67
  -6  -2 -14    3.14    0.67
  -6  -2 -14    2.04    0.54
  -6  -2 -14    2.11    0.53
  -6  -2 -14    2.20    0.63
   6   2  14    3.17    0.77
   6   2  14    1.82    0.59
   3  -3 -14    0.57    0.42
   3  -3 -14   -0.53    0.37
   3  -3 -14   -0.54    0.43
  -3   3  14   -0.16    0.48
  -3   3  14   -0.93    0.50
   2  -3 -14    5.04    0.73
   2  -3 -14    6.77    0.86
   2  -3 -14    5.16    0.71
  -2   3  14    5.40    0.84
  -2   3  14    4.86    0.76
  -2   3  14    4.49    0.72
   1  -3 -14    6.73    0.84
   1  -3 -14    4.62    0.64
   1  -3 -14    4.55    0.66
  -1   3  14    5.22    0.74
  -1   3  14    4.18    0.67
  -1   3  14    4.34    0.77
   0  -3 -14    2.39    0.41
   0  -3 -14    2.36    0.46
   0  -3 -14    2.57    0.50
   0  -3 -14    3.58    0.53
   0  -3 -14    2.77    0.56
   0  -3 -14    3.10    0.51
   0  -3 -14    3.44    0.67
   0   3  14    2.64    0.51
   0   3  14    1.86    0.59
   0   3  14    3.02    0.64
  -1  -3 -14    5.81    0.66
  -1  -3 -14    6.40    0.68
  -1  -3 -14    5.60    0.69
  -1  -3 -14    5.46    0.60
  -1  -3 -14    4.65    0.68
  -1  -3 -14    4.49    0.69
  -1  -3 -14    6.38    0.71
   1   3  14    6.22    0.79
   1   3  14    4.80    0.73
  -2  -3 -14    1.61    0.43
  -2  -3 -14    1.66    0.46
  -2  -3 -14    1.93    0.43
  -2  -3 -14    2.04    0.48
  -2  -3 -14    1.14    0.41
  -2  -3 -14    1.55    0.46
   2   3  14    1.82    0.50
   2   3  14    0.48    0.52
  -3  -3 -14    0.13    0.34
  -3  -3 -14    0.51    0.41
  -3  -3 -14    0.09    0.56
  -3  -3 -14    0.21    0.34
  -3  -3 -14    0.55    0.36
   3   3  14    0.08    0.45
  -4  -3 -14    0.57    0.44
  -4  -3 -14    0.52    0.40
  -4  -3 -14    0.28    0.35
  -4  -3 -14    1.39    0.49
   4   3  14    0.89    0.59
  -5  -3 -14    1.93    0.50
  -5  -3 -14    2.10    0.57
  -5  -3 -14    0.97    0.44
  -5  -3 -14    2.07    0.60
   5   3  14    0.89    0.57
   5   3  14    1.78    0.52
  -6  -3 -14    3.77    0.68
  -6  -3 -14    3.83    0.73
  -6  -3 -14    2.69    0.54
  -6  -3 -14    3.04    0.58
   6   3  14    2.40    0.70
   6   3  14    3.18    0.68
   3  -4 -14    1.44    0.48
   3  -4 -14    2.62    0.72
   3  -4 -14    1.62    0.53
  -3   4  14    2.24    0.78
  -3   4  14    1.79    0.65
   2  -4 -14    5.50    0.73
   2  -4 -14    6.26    0.86
   2  -4 -14    5.48    0.75
  -2   4  14    6.37    0.89
  -2   4  14    4.86    0.80
   1  -4 -14    0.11    0.37
   1  -4 -14    1.01    0.49
   1  -4 -14    0.42    0.36
  -1   4  14   -0.60    0.39
  -1   4  14    0.64    0.54
  -1   4  14   -0.06    0.47
   0  -4 -14    7.87    0.74
   0  -4 -14    6.87    0.78
   0  -4 -14    8.16    0.73
   0  -4 -14    8.73    0.95
   0   4  14    7.30    0.87
   0   4  14    7.90    0.78
   0   4  14    6.51    0.83
  -1  -4 -14    0.53    0.35
  -1  -4 -14   -0.20    0.30
  -1  -4 -14    0.18    0.38
  -1  -4 -14   -0.49    0.27
  -1  -4 -14    0.02    0.29
  -1  -4 -14    0.56    0.37
   1   4  14    0.68    0.49
  -2  -4 -14    1.67    0.47
  -2  -4 -14    0.61    0.37
  -2  -4 -14    1.38    0.40
  -2  -4 -14    1.36    0.48
  -2  -4 -14    0.76    0.39
  -2  -4 -14    1.14    0.41
   2   4  14    0.43    0.51
  -3  -4 -14    3.16    0.59
  -3  -4 -14    3.74    0.61
  -3  -4 -14    4.06    0.61
  -3  -4 -14    2.85    0.57
  -3  -4 -14    2.97    0.54
   3   4  14    2.77    0.73
  -4  -4 -14    0.23    0.38
  -4  -4 -14   -0.08    0.34
  -4  -4 -14   -0.15    0.38
  -4  -4 -14    0.34    0.35
   4   4  14   -0.41    0.53
  -5  -4 -14    1.54    0.58
  -5  -4 -14    3.16    0.59
  -5  -4 -14    2.27    0.58
  -5  -4 -14    2.92    0.55
   5   4  14    2.30    0.65
  -6  -4 -14    1.34    0.43
   2  -5 -14    8.00    1.01
   2  -5 -14    5.72    0.82
   2  -5 -14    5.77    0.81
  -2   5  14    7.83    1.02
  -2   5  14    6.21    0.90
   1  -5 -14   -0.14    0.30
   1  -5 -14    0.12    0.34
   1  -5 -14   -0.27    0.47
   1  -5 -14    0.32    0.41
  -1   5  14    0.59    0.53
  -1   5  14   -0.10    0.53
  -1   5  14   -0.26    0.43
   0  -5 -14    2.21    0.52
   0  -5 -14    1.68    0.44
   0  -5 -14    1.35    0.40
   0  -5 -14    3.15    0.65
   0   5  14    1.84    0.62
   0   5  14    1.04    0.54
   0   5  14    2.47    0.56
  -1  -5 -14   13.30    0.95
  -1  -5 -14   13.78    0.87
  -1  -5 -14   12.69    1.02
  -1  -5 -14   14.83    1.01
   1   5  14   16.31    1.13
   1   5  14   13.88    1.09
  -2  -5 -14    1.26    0.47
  -2  -5 -14    0.73    0.42
  -2  -5 -14    1.19    0.39
  -2  -5 -14    1.14    0.47
  -2  -5 -14    1.98    0.48
   2   5  14    1.56    0.66
  -3  -5 -14    5.67    0.76
  -3  -5 -14    6.76    0.68
  -3  -5 -14    6.73    0.79
  -3  -5 -14    6.60    0.76
  -3  -5 -14    5.94    0.75
   3   5  14    6.00    0.86
  -4  -5 -14    3.60    0.67
  -4  -5 -14    4.21    0.63
  -4  -5 -14    3.14    0.61
  -4  -5 -14    3.73    0.60
  -4  -5 -14    3.22    0.55
   4   5  14    4.07    0.76
  -5  -5 -14    4.59    0.67
  -5  -5 -14    7.12    0.78
  -5  -5 -14    5.82    0.81
  -5  -5 -14    5.34    0.77
  -5  -5 -14    6.77    0.77
   5   5  14    5.20    0.83
   1  -6 -14    0.00    0.38
   1  -6 -14   -0.44    0.45
   1  -6 -14   -0.17    0.31
   1  -6 -14    0.15    0.38
  -1   6  14    0.18    0.56
  -1   6  14   -0.10    0.53
   0  -6 -14   -0.05    0.36
   0  -6 -14   -0.01    0.36
   0  -6 -14    0.06    0.47
   0  -6 -14    0.28    0.54
   0   6  14   -0.72    0.45
   0   6  14   -0.65    0.49
   0   6  14    0.12    0.46
  -1  -6 -14    5.50    0.81
  -1  -6 -14    4.33    0.70
  -1  -6 -14    5.94    0.73
  -1  -6 -14    4.58    0.71
   1   6  14    4.73    0.80
   1   6  14    5.25    0.73
  -2  -6 -14    0.13    0.39
  -2  -6 -14    0.25    0.43
  -2  -6 -14    0.03    0.37
  -2  -6 -14    0.15    0.39
   2   6  14   -0.77    0.56
  -3  -6 -14   -0.34    0.37
  -3  -6 -14   -0.09    0.37
  -3  -6 -14    0.59    0.41
  -3  -6 -14    0.03    0.38
   3   6  14    0.96    0.57
  -4  -6 -14    1.65    0.50
  -4  -6 -14    1.35    0.51
  -4  -6 -14    1.12    0.44
  -4  -6 -14    1.13    0.47
   4   6  14    1.64    0.65
  -5  -6 -14    2.10    0.59
  -5  -6 -14    2.05    0.48
  -5  -6 -14    1.94    0.63
  -5  -6 -14    2.82    0.56
   5   6  14    1.15    0.63
   0  -7 -14   -0.18    0.34
   0  -7 -14   -0.24    0.48
   0  -7 -14    0.46    0.41
   0   7  14    0.06    0.52
  -1  -7 -14    2.96    0.65
  -1  -7 -14    3.29    0.64
  -1  -7 -14    2.60    0.57
  -1  -7 -14    3.08    0.73
   1   7  14    1.71    0.69
   1   7  14    3.31    0.77
  -2  -7 -14    2.55    0.59
  -2  -7 -14    2.33    0.58
  -2  -7 -14    2.96    0.64
  -2  -7 -14    2.02    0.61
   2   7  14    1.74    0.70
   2   7  14    2.18    0.77
  -3  -7 -14    3.18    0.61
  -3  -7 -14    2.55    0.60
  -3  -7 -14    2.37    0.63
  -3  -7 -14    1.76    0.52
   3   7  14    2.05    0.77
   3   7  14    2.18    0.67
  -4  -7 -14    0.30    0.39
  -4  -7 -14    0.02    0.35
  -4  -7 -14    0.05    0.45
  -4  -7 -14    0.55    0.50
   4   7  14   -0.61    0.52
  -2  -8 -14    0.59    0.49
  -2  -5  15   -0.60    0.55
  -2  -5  15   -0.21    0.55
   1   5 -15    1.22    0.51
  -1  -5  15    0.31    0.62
  -1  -5  15    0.92    0.54
  -1  -5  15    0.48    0.59
   0   5 -15    2.47    0.62
   0   5 -15    4.72    0.82
   0  -5  15    2.29    0.75
   0  -5  15    2.19    0.64
   0  -5  15    2.30    0.74
  -1   5 -15    7.56    0.93
  -1   5 -15    7.34    1.00
   1  -5  15    7.34    1.05
   1  -5  15    5.01    0.95
   1  -5  15    4.64    0.81
   3   4 -15    0.27    0.43
  -3  -4  15   -0.85    0.54
  -3  -4  15    0.35    0.57
  -3  -4  15   -0.48    0.51
   2   4 -15    0.50    0.48
  -2  -4  15    0.29    0.51
  -2  -4  15    0.76    0.53
  -2  -4  15    0.78    0.59
   1   4 -15    2.10    0.56
   1   4 -15    0.91    0.52
  -1  -4  15    0.57    0.46
  -1  -4  15    1.89    0.66
  -1  -4  15    1.07    0.63
   0   4 -15    0.95    0.51
   0   4 -15   -0.09    0.38
   0  -4  15   -0.29    0.50
   0  -4  15   -0.18    0.48
   0  -4  15    1.56    0.67
  -1   4 -15    1.42    0.62
  -1   4 -15    1.12    0.48
   1  -4  15    0.83    0.65
   1  -4  15    1.06    0.57
   1  -4  15    1.13    0.67
  -2   4 -15    0.02    0.43
  -2   4 -15    0.27    0.42
   2  -4  15    0.11    0.55
   2  -4  15    0.40    0.56
   2  -4  15   -0.22    0.57
   3   3 -15    7.02    0.89
  -3  -3  15    7.17    0.92
  -3  -3  15    7.50    0.93
  -3  -3  15    9.12    1.04
   2   3 -15    0.82    0.48
  -2  -3  15    0.09    0.59
  -2  -3  15    1.13    0.55
  -2  -3  15    0.76    0.54
  -2  -3  15    0.75    0.61
   1   3 -15    2.98    0.61
   1   3 -15    2.73    0.61
   1   3 -15    2.66    0.64
  -1  -3  15    3.17    0.63
  -1  -3  15    3.09    0.73
  -1  -3  15    2.96    0.65
   0   3 -15    1.36    0.55
   0   3 -15    1.83    0.52
   0  -3  15    1.89    0.59
   0  -3  15    1.84    0.54
   0  -3  15    1.32    0.63
  -1   3 -15    1.07    0.50
  -1   3 -15    0.13    0.36
  -1   3 -15    0.50    0.43
   1  -3  15    0.01    0.46
   1  -3  15    0.81    0.60
  -2   3 -15    0.48    0.49
  -2   3 -15   -0.09    0.44
   2  -3  15    0.70    0.62
   2  -3  15    0.24    0.50
  -3   3 -15    0.04    0.43
  -3   3 -15    0.49    0.54
   3  -3  15    0.88    0.62
   4   2 -15   -0.13    0.46
  -4  -2  15    0.28    0.58
  -4  -2  15   -0.02    0.52
  -4  -2  15    1.13    0.70
   3   2 -15    0.86    0.48
  -3  -2  15    0.82    0.59
  -3  -2  15    0.98    0.58
  -3  -2  15    0.30    0.60
   2   2 -15    4.44    0.75
   2   2 -15    2.14    0.54
  -2  -2  15    2.62    0.63
  -2  -2  15    2.37    0.54
  -2  -2  15    2.47    0.64
   1   2 -15    3.69    0.70
   1   2 -15    3.49    0.50
   1   2 -15    3.65    0.63
   1   2 -15    3.13    0.58
  -1  -2  15    4.10    0.79
  -1  -2  15    3.74    0.68
   0   2 -15   -0.53    0.35
   0   2 -15    0.14    0.34
   0   2 -15   -0.25    0.27
   0   2 -15   -0.45    0.35
   0   2 -15   -0.09    0.28
   0  -2  15    0.28    0.46
   0  -2  15   -0.52    0.49
  -1   2 -15    7.83    0.74
  -1   2 -15    8.65    0.96
  -1   2 -15    6.95    0.68
  -1   2 -15    7.38    0.85
   1  -2  15    7.56    0.88
   1  -2  15    9.71    0.99
  -2   2 -15    0.57    0.42
  -2   2 -15    0.39    0.37
  -2   2 -15    1.00    0.38
  -2   2 -15    0.46    0.48
   2  -2  15    1.20    0.58
   2  -2  15   -0.10    0.46
  -3   2 -15    3.65    0.72
  -3   2 -15    2.52    0.65
  -3   2 -15    1.38    0.45
   3  -2  15    2.98    0.72
  -4   2 -15    6.25    0.97
  -4   2 -15    5.45    0.74
  -4   2 -15    7.92    0.99
   4  -2  15    5.13    0.92
   4   1 -15    0.41    0.45
  -4  -1  15    1.05    0.56
  -4  -1  15    0.12    0.52
  -4  -1  15    1.10    0.66
   3   1 -15    5.56    0.65
   3   1 -15    4.54    0.74
  -3  -1  15    4.05    0.79
  -3  -1  15    5.31    0.83
   2   1 -15    6.27    0.81
   2   1 -15    7.82    0.91
   2   1 -15    6.92    0.69
  -2  -1  15    6.30    0.73
  -2  -1  15    6.66    0.91
  -2  -1  15    7.78    0.85
   1   1 -15   -0.27    0.40
   1   1 -15   -0.18    0.28
   1   1 -15   -0.27    0.29
   1   1 -15    0.04    0.41
   1   1 -15    0.55    0.33
  -1  -1  15    0.13    0.51
  -1  -1  15   -0.20    0.36
  -1  -1  15   -0.69    0.40
   0   1 -15    3.99    0.56
   0   1 -15    4.01    0.70
   0   1 -15    2.71    0.57
   0   1 -15    3.66    0.52
   0   1 -15    3.04    0.52
   0  -1  15    3.74    0.72
   0  -1  15    3.64    0.71
  -1   1 -15    4.76    0.72
  -1   1 -15    4.64    0.61
  -1   1 -15    4.05    0.70
  -1   1 -15    4.49    0.58
   1  -1  15    4.01    0.67
   1  -1  15    5.10    0.83
  -2   1 -15   -0.24    0.38
  -2   1 -15   -0.03    0.32
  -2   1 -15    0.21    0.42
  -2   1 -15   -0.71    0.27
   2  -1  15   -0.16    0.50
   2  -1  15   -0.12    0.45
  -3   1 -15    3.60    0.55
  -3   1 -15    3.60    0.63
  -3   1 -15    4.27    0.74
  -3   1 -15    3.27    0.66
   3  -1  15    2.64    0.73
  -4   1 -15    1.52    0.53
  -4   1 -15    0.87    0.54
  -4   1 -15    1.24    0.53
  -4   1 -15    1.50    0.51
   4  -1  15    1.19    0.52
   4  -1  15    1.37    0.70
   4   0 -15    8.54    1.00
  -4   0  15    9.79    1.10
  -4   0  15    9.74    1.12
   3   0 -15    1.11    0.44
   3   0 -15    0.81    0.48
  -3   0  15    1.10    0.64
  -3   0  15    1.75    0.67
   2   0 -15    8.74    0.96
   2   0 -15    9.26    0.95
   2   0 -15    9.35    0.83
  -2   0  15    8.36    0.96
  -2   0  15    9.38    0.86
  -2   0  15    6.52    0.81
   1   0 -15   12.23    0.92
   1   0 -15   10.91    0.83
   1   0 -15   14.11    0.87
   1   0 -15   11.93    0.84
   1   0 -15   12.66    1.05
  -1   0  15   13.57    0.91
  -1   0  15   12.25    0.88
  -1   0  15   14.53    1.16
   0   0 -15    0.15    0.37
   0   0 -15   -0.04    0.30
   0   0 -15   -0.06    0.26
   0   0 -15    0.55    0.38
   0   0 -15    0.41    0.32
   0   0  15    0.20    0.45
   0   0  15   -0.07    0.48
  -1   0 -15    9.86    0.94
  -1   0 -15   11.13    0.79
  -1   0 -15    9.24    0.70
  -1   0 -15   10.81    0.80
  -1   0 -15   11.40    0.97
   1   0  15   11.64    0.98
   1   0  15   10.29    1.00
  -2   0 -15   -0.25    0.31
  -2   0 -15   -0.44    0.33
  -2   0 -15    0.37    0.38
  -2   0 -15   -0.07    0.38
  -2   0 -15   -0.58    0.29
   2   0  15    0.71    0.51
   2   0  15   -0.49    0.42
  -3   0 -15    0.18    0.35
  -3   0 -15    0.71    0.45
  -3   0 -15   -0.24    0.30
  -3   0 -15   -0.06    0.38
   3   0  15    0.32    0.50
  -4   0 -15    2.02    0.58
  -4   0 -15    1.87    0.54
  -4   0 -15    2.47    0.63
  -4   0 -15    1.97    0.55
   4   0  15    1.81    0.65
   4   0  15    0.95    0.47
  -5   0 -15   -0.34    0.39
  -5   0 -15    0.67    0.46
  -5   0 -15   -0.29    0.37
  -5   0 -15    0.04    0.52
   5   0  15   -0.29    0.51
   5   0  15    0.42    0.50
   3  -1 -15    1.87    0.54
   3  -1 -15    1.13    0.46
   3  -1 -15    1.10    0.57
  -3   1  15    0.86    0.62
  -3   1  15   -0.07    0.54
   2  -1 -15    1.47    0.51
   2  -1 -15    2.58    0.53
   2  -1 -15    2.62    0.66
  -2   1  15    2.98    0.75
  -2   1  15    3.05    0.65
  -2   1  15    1.52    0.56
   1  -1 -15    2.10    0.58
   1  -1 -15    2.17    0.47
   1  -1 -15    2.64    0.54
  -1   1  15    1.96    0.55
  -1   1  15    1.45    0.63
  -1   1  15    2.36    0.60
   0  -1 -15    6.16    0.68
   0  -1 -15    6.28    0.74
   0  -1 -15    6.21    0.69
   0  -1 -15    5.62    0.77
   0  -1 -15    6.74    0.80
   0   1  15    6.49    0.87
   0   1  15    5.60    0.73
  -1  -1 -15    2.70    0.57
  -1  -1 -15    2.03    0.40
  -1  -1 -15    2.18    0.42
  -1  -1 -15    1.63    0.46
  -1  -1 -15    1.78    0.49
  -1  -1 -15    1.46    0.50
  -1  -1 -15    1.33    0.43
   1   1  15    1.72    0.62
   1   1  15    1.74    0.58
  -2  -1 -15    4.64    0.63
  -2  -1 -15    3.76    0.63
  -2  -1 -15    4.22    0.64
  -2  -1 -15    4.48    0.67
  -2  -1 -15    4.54    0.69
   2   1  15    4.78    0.75
   2   1  15    4.24    0.74
  -3  -1 -15   35.02    1.50
  -3  -1 -15   36.09    1.57
  -3  -1 -15   36.79    1.55
  -3  -1 -15   35.51    1.48
   3   1  15   32.65    1.63
  -4  -1 -15    0.45    0.42
  -4  -1 -15   -0.04    0.35
  -4  -1 -15    0.62    0.44
  -4  -1 -15    0.14    0.37
   4   1  15    0.69    0.41
   4   1  15    1.20    0.70
  -5  -1 -15    1.16    0.48
  -5  -1 -15    1.22    0.55
  -5  -1 -15    1.36    0.51
  -5  -1 -15    1.55    0.52
   5   1  15    1.96    0.58
   5   1  15    1.60    0.68
   3  -2 -15    9.17    0.95
   3  -2 -15    7.06    0.87
   3  -2 -15    9.52    1.08
  -3   2  15   11.05    1.17
   2  -2 -15    1.42    0.44
   2  -2 -15    0.68    0.57
   2  -2 -15    1.02    0.45
  -2   2  15    2.11    0.70
  -2   2  15    1.63    0.57
  -2   2  15    0.90    0.58
   1  -2 -15    3.27    0.60
   1  -2 -15    2.92    0.53
   1  -2 -15    6.62    0.88
  -1   2  15    4.36    0.68
  -1   2  15    4.85    0.83
  -1   2  15    4.04    0.72
   0  -2 -15    1.98    0.45
   0  -2 -15    2.45    0.59
   0  -2 -15    1.71    0.50
   0  -2 -15    1.46    0.48
   0   2  15    1.37    0.57
   0   2  15    1.11    0.59
  -1  -2 -15   23.86    1.26
  -1  -2 -15   20.38    1.08
  -1  -2 -15   21.48    1.12
  -1  -2 -15   20.22    0.93
  -1  -2 -15   21.20    1.10
   1   2  15   20.03    1.19
   1   2  15   20.57    1.18
  -2  -2 -15    0.49    0.36
  -2  -2 -15    0.10    0.32
  -2  -2 -15    0.84    0.45
  -2  -2 -15    0.64    0.38
  -2  -2 -15    1.12    0.45
   2   2  15    0.47    0.49
   2   2  15    0.76    0.51
  -3  -2 -15   15.22    1.05
  -3  -2 -15   13.55    1.01
  -3  -2 -15   18.23    1.08
  -3  -2 -15   13.44    0.97
   3   2  15   12.09    1.05
  -4  -2 -15    1.70    0.50
  -4  -2 -15    2.50    0.62
  -4  -2 -15    3.14    0.58
  -4  -2 -15    2.91    0.60
   4   2  15    4.28    0.82
  -5  -2 -15    0.71    0.46
  -5  -2 -15   -0.82    0.36
  -5  -2 -15    0.16    0.39
  -5  -2 -15    0.09    0.39
   5   2  15    0.16    0.63
   5   2  15    0.18    0.45
   3  -3 -15    1.94    0.58
   3  -3 -15    2.17    0.59
   3  -3 -15    2.78    0.69
  -3   3  15    2.01    0.73
  -3   3  15    2.00    0.67
   2  -3 -15    6.77    0.90
   2  -3 -15    4.37    0.69
   2  -3 -15    5.46    0.76
  -2   3  15    5.08    0.84
  -2   3  15    4.49    0.76
  -2   3  15    5.42    0.87
   1  -3 -15    4.41    0.68
   1  -3 -15    4.24    0.74
   1  -3 -15    4.55    0.68
  -1   3  15    4.51    0.73
  -1   3  15    5.50    0.83
  -1   3  15    5.18    0.81
   0  -3 -15    2.26    0.58
   0  -3 -15    2.24    0.47
   0  -3 -15    1.99    0.51
   0   3  15    1.58    0.61
   0   3  15    2.77    0.71
  -1  -3 -15    0.01    0.37
  -1  -3 -15    0.84    0.41
  -1  -3 -15    0.74    0.35
  -1  -3 -15    0.84    0.42
  -1  -3 -15    0.24    0.41
   1   3  15    0.26    0.48
   1   3  15    0.09    0.46
  -2  -3 -15   -0.78    0.32
  -2  -3 -15   -0.21    0.35
  -2  -3 -15    0.01    0.31
  -2  -3 -15    0.01    0.33
  -2  -3 -15   -0.05    0.33
   2   3  15    0.34    0.52
  -3  -3 -15   12.04    0.94
  -3  -3 -15   14.57    0.92
  -3  -3 -15   15.28    1.06
  -3  -3 -15   13.97    0.97
  -3  -3 -15   13.30    0.96
   3   3  15   12.85    1.10
  -4  -3 -15    3.80    0.65
  -4  -3 -15    2.72    0.58
  -4  -3 -15    4.14    0.66
  -4  -3 -15    4.17    0.67
   4   3  15    1.70    0.63
  -5  -3 -15    0.19    0.46
  -5  -3 -15    0.79    0.45
  -5  -3 -15    0.28    0.39
  -5  -3 -15    0.46    0.39
   5   3  15    1.24    0.63
   2  -4 -15    5.10    0.87
   2  -4 -15    3.92    0.70
   2  -4 -15    5.66    0.79
  -2   4  15    5.67    0.89
  -2   4  15    4.48    0.80
   1  -4 -15   13.60    0.97
   1  -4 -15   13.84    1.14
   1  -4 -15   11.50    0.90
  -1   4  15   12.03    1.19
  -1   4  15   10.44    1.03
  -1   4  15   13.24    0.98
   0  -4 -15    1.48    0.41
   0  -4 -15    2.11    0.58
   0  -4 -15    2.59    0.60
   0  -4 -15    2.54    0.46
   0   4  15    1.42    0.58
   0   4  15    0.59    0.59
   0   4  15    2.28    0.54
  -1  -4 -15   12.39    1.03
  -1  -4 -15   14.45    0.90
  -1  -4 -15   14.82    0.98
  -1  -4 -15   12.84    0.84
  -1  -4 -15   15.44    1.02
   1   4  15   14.90    1.18
  -2  -4 -15    4.07    0.68
  -2  -4 -15    3.45    0.57
  -2  -4 -15    3.95    0.64
  -2  -4 -15    3.51    0.62
  -2  -4 -15    4.31    0.64
   2   4  15    4.08    0.74
  -3  -4 -15    1.43    0.50
  -3  -4 -15    1.66    0.48
  -3  -4 -15    1.12    0.46
  -3  -4 -15    2.06    0.54
  -3  -4 -15    2.10    0.54
   3   4  15    1.65    0.68
  -4  -4 -15    0.09    0.37
  -4  -4 -15    0.18    0.38
  -4  -4 -15    0.44    0.39
  -4  -4 -15    0.34    0.39
  -4  -4 -15    0.64    0.41
   4   4  15    0.61    0.60
  -5  -4 -15    0.72    0.45
  -5  -4 -15    0.24    0.38
  -5  -4 -15   -0.30    0.41
  -5  -4 -15    0.95    0.44
   5   4  15    1.22    0.63
   1  -5 -15   13.58    1.01
   1  -5 -15   15.14    1.25
   1  -5 -15   10.91    0.93
  -1   5  15   10.47    1.13
  -1   5  15   14.25    1.06
  -1   5  15   14.30    1.23
   0  -5 -15    3.03    0.53
   0  -5 -15    2.97    0.61
   0  -5 -15    2.95    0.68
   0   5  15    3.26    0.72
   0   5  15    3.28    0.73
   0   5  15    3.35    0.64
  -1  -5 -15   -0.13    0.35
  -1  -5 -15   -0.20    0.35
  -1  -5 -15   -0.16    0.36
  -1  -5 -15    0.39    0.45
   1   5  15   -0.52    0.55
  -2  -5 -15    0.40    0.33
  -2  -5 -15   -0.59    0.35
  -2  -5 -15   -0.27    0.30
  -2  -5 -15   -0.10    0.35
  -2  -5 -15    1.18    0.48
   2   5  15    0.13    0.52
  -3  -5 -15    5.93    0.75
  -3  -5 -15    6.45    0.83
  -3  -5 -15    6.43    0.71
  -3  -5 -15    5.29    0.72
  -3  -5 -15    5.50    0.77
   3   5  15    8.64    1.07
  -4  -5 -15    2.34    0.52
  -4  -5 -15    1.46    0.50
  -4  -5 -15    1.92    0.52
  -4  -5 -15    1.73    0.54
  -4  -5 -15    1.63    0.53
   4   5  15    2.72    0.75
  -5  -5 -15   -0.03    0.35
  -5  -5 -15   -0.34    0.33
  -5  -5 -15   -0.23    0.45
  -5  -5 -15    0.15    0.42
   5   5  15   -0.16    0.58
   1  -6 -15    2.57    0.57
   0  -6 -15    2.33    0.57
   0  -6 -15    5.01    0.90
   0  -6 -15    3.51    0.63
   0   6  15    2.07    0.76
   0   6  15    4.53    0.75
  -1  -6 -15    1.88    0.58
  -1  -6 -15    0.82    0.39
  -1  -6 -15    0.40    0.44
  -1  -6 -15    1.80    0.57
   1   6  15    0.64    0.59
  -2  -6 -15    2.45    0.52
  -2  -6 -15    2.29    0.60
  -2  -6 -15    2.57    0.61
  -2  -6 -15    2.56    0.59
   2   6  15    2.01    0.76
  -3  -6 -15    0.22    0.38
  -3  -6 -15    0.55    0.46
  -3  -6 -15   -0.07    0.41
  -3  -6 -15    0.53    0.44
   3   6  15    0.55    0.60
  -4  -6 -15    0.39    0.43
  -4  -6 -15    0.36    0.40
  -4  -6 -15   -0.28    0.35
  -4  -6 -15    0.15    0.41
   4   6  15    0.86    0.60
  -1  -7 -15    0.25    0.43
  -1  -7 -15   -0.15    0.37
  -1  -7 -15   -0.47    0.43
   1   7  15   -0.29    0.61
  -2  -7 -15   -0.35    0.46
  -2  -7 -15    0.57    0.47
  -2  -7 -15   -0.40    0.41
  -2  -7 -15   -0.16    0.39
   2   7  15    0.57    0.62
  -3  -7 -15    4.81    0.74
  -3  -7 -15    3.15    0.63
  -3  -7 -15    3.37    0.73
  -3  -7 -15    3.02    0.63
   3   7  15    1.66    0.71
   2   4 -16    1.44    0.58
  -2  -4  16    2.40    0.76
  -2  -4  16    1.25    0.60
   1   4 -16    0.77    0.50
   1   4 -16    1.34    0.59
  -1  -4  16    1.84    0.59
  -1  -4  16    0.95    0.57
  -1  -4  16    1.15    0.71
   0   4 -16    3.36    0.75
   0   4 -16    1.91    0.54
   0  -4  16    3.22    0.75
   0  -4  16    2.15    0.74
   0  -4  16    1.25    0.61
  -1   4 -16    6.23    0.86
  -1   4 -16    5.76    0.89
   1  -4  16    4.92    0.97
   1  -4  16    4.97    0.90
   2   3 -16    0.50    0.46
  -2  -3  16    1.51    0.68
   1   3 -16    4.27    0.73
   1   3 -16    5.71    0.83
   1   3 -16    7.11    0.96
  -1  -3  16    4.87    0.76
  -1  -3  16    5.19    0.94
   0   3 -16    0.93    0.52
   0   3 -16    1.62    0.64
   0  -3  16   -0.22    0.45
   0  -3  16    0.41    0.63
  -1   3 -16    1.38    0.57
  -1   3 -16    0.72    0.46
   1  -3  16    0.60    0.54
   1  -3  16    1.23    0.65
  -2   3 -16    0.44    0.49
  -2   3 -16   -0.07    0.44
   2  -3  16    1.08    0.71
   2  -3  16    0.26    0.60
   3   2 -16    7.29    0.96
  -3  -2  16    7.76    0.99
  -3  -2  16    8.34    1.07
   2   2 -16    0.96    0.52
   2   2 -16    1.62    0.59
  -2  -2  16    1.46    0.65
   1   2 -16    0.49    0.43
   1   2 -16   -0.14    0.44
   1   2 -16    0.38    0.43
  -1  -2  16   -0.48    0.50
  -1  -2  16    0.53    0.52
   0   2 -16    0.15    0.45
   0   2 -16    0.12    0.38
   0   2 -16    0.01    0.40
   0  -2  16    0.22    0.48
   0  -2  16   -0.20    0.56
  -1   2 -16    0.61    0.44
  -1   2 -16    0.66    0.50
   1  -2  16    0.03    0.55
   1  -2  16    2.06    0.74
  -2   2 -16    3.91    0.68
  -2   2 -16    4.21    0.75
  -2   2 -16    3.62    0.74
   2  -2  16    3.49    0.81
   2  -2  16    4.51    0.87
  -3   2 -16   10.22    1.12
  -3   2 -16    8.72    0.83
  -3   2 -16   11.13    1.16
   3  -2  16    8.14    1.07
   3   1 -16   -0.08    0.39
  -3  -1  16    0.24    0.57
  -3  -1  16   -0.11    0.60
   2   1 -16   -0.76    0.40
   2   1 -16   -0.25    0.39
   2   1 -16   -0.28    0.30
  -2  -1  16   -0.84    0.50
  -2  -1  16   -0.14    0.50
  -2  -1  16    0.44    0.47
   1   1 -16   10.20    0.89
   1   1 -16   11.34    1.14
   1   1 -16   11.21    0.79
   1   1 -16   12.03    0.97
  -1  -1  16   12.18    0.97
  -1  -1  16   12.63    1.20
   0   1 -16    1.04    0.52
   0   1 -16    1.34    0.51
   0   1 -16    1.14    0.45
   0   1 -16    1.04    0.40
   0  -1  16    2.36    0.68
   0  -1  16    1.36    0.64
  -1   1 -16    1.45    0.56
  -1   1 -16    1.66    0.56
  -1   1 -16    1.20    0.42
   1  -1  16    0.81    0.64
   1  -1  16    1.43    0.66
  -2   1 -16    0.12    0.46
  -2   1 -16    0.23    0.33
  -2   1 -16   -0.36    0.35
   2  -1  16    0.47    0.52
   2  -1  16   -0.15    0.52
  -3   1 -16    0.53    0.50
  -3   1 -16    0.82    0.43
  -3   1 -16    0.98    0.52
   3  -1  16   -0.81    0.51
  -4   1 -16    1.31    0.51
  -4   1 -16    1.97    0.64
   3   0 -16    2.68    0.57
   3   0 -16    1.55    0.58
  -3   0  16    1.47    0.65
  -3   0  16    0.73    0.65
   2   0 -16   14.02    1.03
   2   0 -16   14.14    1.16
   2   0 -16   14.07    0.94
  -2   0  16   17.21    1.15
  -2   0  16   16.85    1.32
  -2   0  16   15.97    1.07
   1   0 -16    1.61    0.47
   1   0 -16    1.46    0.48
   1   0 -16    2.30    0.64
  -1   0  16    1.52    0.67
  -1   0  16    0.56    0.52
   0   0 -16   -0.23    0.41
   0   0 -16   -0.61    0.33
   0   0 -16   -0.03    0.31
   0   0 -16   -0.10    0.35
   0   0  16    0.45    0.57
   0   0  16   -0.17    0.47
  -1   0 -16    8.42    0.90
  -1   0 -16    8.28    0.73
  -1   0 -16    7.22    0.74
  -1   0 -16    7.99    0.93
   1   0  16    6.72    0.88
   1   0  16    8.47    0.98
  -2   0 -16   -0.10    0.39
  -2   0 -16   -0.34    0.34
  -2   0 -16   -0.46    0.34
   2   0  16    0.79    0.56
   2   0  16   -0.07    0.57
  -3   0 -16    3.29    0.57
  -3   0 -16    2.64    0.63
  -3   0 -16    3.19    0.69
  -3   0 -16    3.81    0.70
   3   0  16    2.20    0.72
  -4   0 -16    2.18    0.63
  -4   0 -16    2.08    0.59
  -4   0 -16    1.46    0.48
  -4   0 -16    1.19    0.49
   4   0  16    0.49    0.46
   4   0  16    1.72    0.66
   3  -1 -16    2.36    0.56
   3  -1 -16    1.57    0.59
  -3   1  16    2.09    0.69
  -3   1  16    1.46    0.73
   2  -1 -16    4.61    0.70
   2  -1 -16    3.72    0.68
   2  -1 -16    5.62    0.87
  -2   1  16    4.87    0.80
  -2   1  16    4.32    0.73
  -2   1  16    4.79    0.90
   1  -1 -16   12.08    1.14
   1  -1 -16   10.87    0.88
   1  -1 -16   10.67    0.82
  -1   1  16   11.14    1.12
  -1   1  16   11.60    0.98
   0  -1 -16    2.73    0.53
   0  -1 -16    1.42    0.45
   0  -1 -16    2.80    0.65
   0  -1 -16    1.72    0.54
   0   1  16    3.13    0.72
   0   1  16    1.75    0.57
  -1  -1 -16    4.44    0.75
  -1  -1 -16    4.67    0.69
  -1  -1 -16    4.04    0.66
   1   1  16    4.28    0.79
   1   1  16    5.29    0.84
  -2  -1 -16    1.06    0.52
  -2  -1 -16    0.69    0.47
  -2  -1 -16    1.29    0.53
  -2  -1 -16    1.03    0.46
   2   1  16    1.30    0.65
   2   1  16    1.37    0.60
  -3  -1 -16   -0.21    0.40
  -3  -1 -16    1.21    0.48
  -3  -1 -16    0.02    0.37
  -3  -1 -16   -0.72    0.37
   3   1  16   -0.27    0.53
  -4  -1 -16    2.96    0.69
  -4  -1 -16    2.88    0.61
  -4  -1 -16    3.63    0.65
  -4  -1 -16    2.73    0.62
   4   1  16    2.69    0.75
   2  -2 -16   24.92    1.37
   2  -2 -16   31.87    1.60
   2  -2 -16   28.91    1.41
  -2   2  16   29.68    1.53
  -2   2  16   29.10    1.41
  -2   2  16   32.49    1.68
   1  -2 -16    2.94    0.58
   1  -2 -16    4.06    0.63
   1  -2 -16    3.41    0.73
  -1   2  16    3.00    0.72
  -1   2  16    2.72    0.77
   0  -2 -16    0.39    0.41
   0  -2 -16    0.71    0.50
   0  -2 -16    0.31    0.38
   0  -2 -16    0.72    0.38
   0   2  16    0.61    0.50
   0   2  16    0.23    0.57
  -1  -2 -16    3.62    0.63
  -1  -2 -16    3.78    0.66
  -1  -2 -16    3.08    0.64
   1   2  16    2.77    0.70
   1   2  16    2.76    0.67
  -2  -2 -16    0.15    0.35
  -2  -2 -16    0.17    0.32
  -2  -2 -16    0.31    0.39
  -2  -2 -16   -0.33    0.39
  -2  -2 -16    0.87    0.47
   2   2  16    0.34    0.55
  -3  -2 -16    0.37    0.42
  -3  -2 -16   -0.37    0.41
  -3  -2 -16   -0.43    0.39
  -3  -2 -16   -0.29    0.36
   3   2  16    0.21    0.54
  -4  -2 -16    9.95    1.05
  -4  -2 -16   11.29    0.97
  -4  -2 -16   10.06    1.01
  -4  -2 -16   10.44    1.04
   4   2  16    9.35    1.14
   2  -3 -16    5.22    0.81
   2  -3 -16    4.06    0.72
   2  -3 -16    4.86    0.85
  -2   3  16    3.77    0.82
  -2   3  16    4.78    0.86
  -2   3  16    3.95    0.74
   1  -3 -16    2.36    0.70
   1  -3 -16    3.83    0.65
   1  -3 -16    3.83    0.63
  -1   3  16    2.80    0.67
  -1   3  16    2.41    0.65
   0  -3 -16    1.34    0.49
   0  -3 -16    1.69    0.58
   0  -3 -16    0.42    0.35
   0   3  16    1.67    0.66
   0   3  16    1.42    0.66
  -1  -3 -16    0.24    0.35
  -1  -3 -16    0.53    0.46
  -1  -3 -16    0.61    0.34
  -1  -3 -16    0.95    0.44
   1   3  16    0.26    0.54
   1   3  16    1.16    0.65
  -2  -3 -16    0.95    0.52
  -2  -3 -16    0.63    0.37
  -2  -3 -16    0.48    0.41
  -2  -3 -16    0.84    0.44
  -2  -3 -16    0.31    0.39
   2   3  16    1.03    0.59
  -3  -3 -16   -0.03    0.39
  -3  -3 -16    0.03    0.40
  -3  -3 -16   -0.09    0.38
  -3  -3 -16   -0.01    0.40
  -3  -3 -16    0.24    0.35
   3   3  16    0.09    0.51
  -4  -3 -16    0.74    0.44
  -4  -3 -16   -0.05    0.44
  -4  -3 -16   -0.30    0.37
  -4  -3 -16   -0.03    0.41
   4   3  16   -0.79    0.52
   1  -4 -16   16.37    1.29
   1  -4 -16   17.91    1.10
  -1   4  16   19.32    1.21
  -1   4  16   15.52    1.22
  -1   4  16   16.21    1.34
   0  -4 -16    1.60    0.63
   0  -4 -16    0.91    0.46
   0   4  16    1.78    0.62
   0   4  16    0.37    0.53
  -1  -4 -16    2.86    0.61
  -1  -4 -16    1.96    0.48
  -1  -4 -16    1.76    0.59
  -1  -4 -16    1.69    0.45
   1   4  16    1.67    0.65
  -2  -4 -16    6.90    0.88
  -2  -4 -16    8.94    0.99
  -2  -4 -16    7.51    0.81
  -2  -4 -16    6.94    0.77
  -2  -4 -16   10.03    1.01
   2   4  16    7.67    0.96
  -3  -4 -16    5.31    0.71
  -3  -4 -16    8.23    0.94
  -3  -4 -16    5.30    0.75
  -3  -4 -16    6.48    0.78
  -3  -4 -16    7.90    0.87
   3   4  16    4.44    0.88
  -4  -4 -16    0.15    0.40
  -4  -4 -16    1.63    0.50
  -4  -4 -16    0.52    0.50
  -4  -4 -16    1.77    0.57
  -4  -4 -16    0.47    0.43
   4   4  16    1.52    0.68
   0  -5 -16    4.39    0.79
   0  -5 -16    3.13    0.62
   0   5  16    3.27    0.75
   0   5  16    3.88    0.87
  -1  -5 -16    1.24    0.45
  -1  -5 -16    1.09    0.54
  -1  -5 -16    1.58    0.54
   1   5  16    0.42    0.59
  -2  -5 -16   -0.26    0.42
  -2  -5 -16    0.06    0.36
  -2  -5 -16    0.37    0.49
  -2  -5 -16   -0.30    0.36
   2   5  16   -0.52    0.57
  -3  -5 -16    2.06    0.59
  -3  -5 -16    1.42    0.54
  -3  -5 -16    1.53    0.57
  -3  -5 -16    0.93    0.45
   3   5  16    1.17    0.62
  -4  -5 -16    1.49    0.52
  -4  -5 -16    0.89    0.51
  -4  -5 -16    1.45    0.51
  -4  -5 -16    2.14    0.61
   4   5  16    0.16    0.56
  -1  -6 -16    1.92    0.55
  -1  -6 -16    2.55    0.68
  -1  -6 -16    2.48    0.62
   1   6  16    1.79    0.69
  -2  -6 -16    3.30    0.65
  -2  -6 -16    3.66    0.71
  -2  -6 -16    4.37    0.76
  -2  -6 -16    3.81    0.72
   2   6  16    3.61    0.84
  -3  -6 -16    3.04    0.63
   3   6  16    3.00    0.79
   1   3 -17    0.81    0.50
   0   3 -17    2.49    0.71
   0   3 -17    2.90    0.67
   0  -3  17    1.85    0.66
   0  -3  17    3.29    0.82
   1   2 -17   17.84    1.31
   1   2 -17   15.42    1.13
   1   2 -17   18.71    1.24
  -1  -2  17   20.19    1.43
  -1  -2  17   16.30    1.14
   0   2 -17    0.35    0.46
   0   2 -17   -0.23    0.35
   0   2 -17   -0.40    0.38
   0  -2  17   -1.01    0.48
   0  -2  17   -0.12    0.66
  -1   2 -17   -0.09    0.51
  -1   2 -17    1.48    0.55
   1  -2  17    1.23    0.60
   1  -2  17    0.22    0.64
  -2   2 -17    0.54    0.47
  -2   2 -17    1.85    0.62
   2  -2  17   -0.03    0.56
   2  -2  17    1.62    0.74
   2   1 -17   27.17    1.46
   2   1 -17   24.68    1.52
  -2  -1  17   28.18    1.66
   1   1 -17    5.08    0.72
   1   1 -17    7.23    0.97
  -1  -1  17    6.39    0.85
  -1  -1  17    4.76    0.89
   0   1 -17    8.29    0.98
   0   1 -17    7.47    0.84
   0   1 -17    6.25    0.72
   0   1 -17    6.12    0.90
   0  -1  17    6.41    0.97
   0  -1  17    6.63    0.93
  -1   1 -17    0.98    0.44
  -1   1 -17    2.00    0.66
  -1   1 -17    0.82    0.55
   1  -1  17    1.70    0.69
   1  -1  17    2.17    0.75
  -2   1 -17    2.14    0.54
  -2   1 -17    3.65    0.76
  -2   1 -17    1.77    0.60
   2  -1  17    3.03    0.82
   2  -1  17    2.65    0.75
   2   0 -17    3.88    0.71
   2   0 -17    5.08    0.84
   2   0 -17    4.60    0.68
  -2   0  17    4.16    0.86
  -2   0  17    4.40    0.72
   1   0 -17   12.82    0.98
   1   0 -17   14.84    1.25
   1   0 -17   15.08    0.98
  -1   0  17   15.97    1.38
  -1   0  17   11.38    1.11
   0   0 -17    1.89    0.65
   0   0 -17    1.64    0.48
   0   0 -17    1.28    0.50
   0   0 -17    1.51    0.53
   0   0  17    2.08    0.71
   0   0  17    0.63    0.51
  -1   0 -17   -0.24    0.41
  -1   0 -17   -0.09    0.38
  -1   0 -17   -0.37    0.36
   1   0  17   -0.43    0.55
   1   0  17   -0.06    0.50
  -2   0 -17    9.79    1.04
  -2   0 -17   11.32    1.00
  -2   0 -17   12.94    1.07
   2   0  17   11.09    1.18
  -3   0 -17   -0.13    0.42
  -3   0 -17   -0.29    0.49
  -3   0 -17   -0.19    0.42
   3   0  17   -0.29    0.62
   2  -1 -17   10.41    0.97
   2  -1 -17   11.17    1.22
   2  -1 -17   11.70    0.97
  -2   1  17   11.69    0.99
  -2   1  17    9.11    1.13
   1  -1 -17   21.56    1.20
   1  -1 -17   21.26    1.23
   1  -1 -17   25.89    1.50
  -1   1  17   22.63    1.31
  -1   1  17   23.64    1.58
   0  -1 -17    6.83    0.83
   0  -1 -17    6.59    0.79
   0  -1 -17    6.34    0.92
   0  -1 -17    7.08    0.77
   0   1  17    5.95    0.88
   0   1  17    7.83    0.99
  -1  -1 -17   -0.61    0.35
  -1  -1 -17   -0.66    0.30
  -1  -1 -17    0.20    0.42
   1   1  17    0.66    0.67
   1   1  17    0.73    0.55
  -2  -1 -17   14.24    1.12
  -2  -1 -17   16.05    1.12
  -2  -1 -17   15.82    1.05
   2   1  17   16.57    1.23
  -3  -1 -17    6.11    0.85
  -3  -1 -17    5.63    0.84
  -3  -1 -17    6.15    0.85
  -3  -1 -17    4.40    0.75
   3   1  17    4.56    0.91
   1  -2 -17    6.29    0.81
   1  -2 -17    7.76    1.03
   1  -2 -17    8.40    0.91
  -1   2  17    7.47    1.04
  -1   2  17    6.97    0.95
   0  -2 -17    2.21    0.57
   0  -2 -17    1.95    0.51
   0  -2 -17    2.00    0.55
   0  -2 -17    1.49    0.60
   0   2  17    2.12    0.67
   0   2  17    3.60    0.83
  -1  -2 -17    0.35    0.49
  -1  -2 -17    0.37    0.44
  -1  -2 -17    1.08    0.47
   1   2  17   -0.01    0.58
   1   2  17   -0.22    0.51
  -2  -2 -17    7.04    0.74
  -2  -2 -17    6.54    0.85
  -2  -2 -17    4.51    0.71
  -2  -2 -17    5.48    0.84
   2   2  17    3.31    0.76
  -3  -2 -17   -0.42    0.42
  -3  -2 -17    0.31    0.43
  -3  -2 -17    0.22    0.42
  -3  -2 -17    0.11    0.41
   3   2  17    0.26    0.57
   1  -3 -17    9.75    1.00
   1  -3 -17   10.23    0.99
   1  -3 -17   10.84    1.16
  -1   3  17   10.03    1.05
   0  -3 -17    1.32    0.50
   0  -3 -17    1.64    0.61
   0   3  17    1.36    0.73
   0   3  17    2.21    0.73
  -1  -3 -17    2.78    0.66
  -1  -3 -17    1.67    0.55
  -1  -3 -17    2.54    0.55
   1   3  17    1.56    0.64
  -2  -3 -17    2.35    0.52
  -2  -3 -17    3.57    0.71
  -2  -3 -17    2.52    0.60
  -2  -3 -17    2.20    0.61
  -2  -3 -17    2.51    0.57
   2   3  17    3.44    0.78
  -3  -3 -17    2.69    0.67
  -3  -3 -17    2.28    0.58
  -3  -3 -17    2.43    0.56
  -3  -3 -17    1.71    0.62
  -3  -3 -17    1.97    0.57
   3   3  17    1.73    0.67
   0  -4 -17   -0.42    0.44
   0  -4 -17    0.07    0.40
   0   4  17   -0.71    0.53
   0   4  17    0.20    0.52
  -1  -4 -17    0.17    0.46
  -1  -4 -17    0.43    0.45
  -1  -4 -17    0.32    0.39
   1   4  17    1.17    0.61
  -2  -4 -17    3.67    0.63
  -2  -4 -17    2.82    0.57
  -2  -4 -17    3.02    0.65
  -2  -4 -17    4.24    0.74
  -2  -4 -17    4.53    0.75
   2   4  17    4.22    0.83
  -3  -4 -17    0.87    0.50
  -3  -4 -17    1.63    0.54
  -3  -4 -17    1.88    0.57
  -3  -4 -17    2.50    0.60
  -3  -4 -17    1.14    0.56
   3   4  17    0.77    0.66
   0   0 -18    1.37    0.47
   0   0 -18    1.24    0.56
   0   0 -18    0.37    0.44
   0   0 -18    0.56    0.55
   0   0  18    0.95    0.70
   0   0  18    0.73    0.57
  -1   0 -18   -0.04    0.48
  -1   0 -18   -0.29    0.40
  -1   0 -18   -0.17    0.46
   1   0  18    0.52    0.62
   1   0  18    0.71    0.67
   0  -1 -18    2.14    0.53
   0  -1 -18    1.37    0.49
   0  -1 -18    2.95    0.74
   0  -1 -18    1.54    0.52
   0   1  18    1.59    0.72
   0   1  18    2.88    0.75
  -1  -1 -18    0.08    0.42
  -1  -1 -18    0.26    0.43
  -1  -1 -18   -0.35    0.47
   1   1  18   -0.05    0.51
   1   1  18   -0.16    0.62
  -2  -1 -18    1.32    0.51
   2   1  18    1.05    0.59
  -1  -2 -18   -0.18    0.35
  -1  -2 -18   -0.03    0.49
  -1  -2 -18    0.73    0.50
   1   2  18    0.59    0.63
  -2  -2 -18    0.67    0.50
   0   0   0    0.00    0.00

;
_shelx_hkl_checksum              4640
loop_
_space_group_symop_operation_xyz
'x, y, z'
'-x, -y, -z'
loop_
_atom_site_type_symbol
_atom_site_label
_atom_site_fract_x
_atom_site_fract_y
_atom_site_fract_z
_atom_site_U_iso_or_equiv
_atom_site_adp_type
_atom_site_calc_flag
_atom_site_refinement_flags_adp
_atom_site_refinement_flags_occupancy
_atom_site_refinement_flags_posn
_atom_site_occupancy
_atom_site_disorder_assembly
_atom_site_disorder_group
S S1 0.31532(7) 0.24578(5) 0.25084(3) 0.02455(12) Uani d . . . 1.0 . .
O O1 0.0384(2) 0.20885(15) 0.11654(8) 0.0227(2) Uani d . . . 1.0 . .
N N1 -0.0830(2) 0.20249(16) 0.21670(10) 0.0185(2) Uani d . . . 1.0 . .
C C1 0.0375(2) 0.22536(17) 0.29100(11) 0.0159(3) Uani d . . D 1.0 . .
C C2 0.2831(3) 0.15586(18) 0.12710(11) 0.0173(3) Uani d . . . 1.0 . .
H H2 0.3622 0.2118 0.0671 0.021 Uiso calc U . R 1.0 . .
C C3 -0.0645(16) 0.2357(18) 0.4013(6) 0.0110(14) Uani d U P D 0.495(3) A 1
C C4 0.0354(5) 0.3130(4) 0.4714(2) 0.0174(6) Uani d U P D 0.495(3) A 1
H H4 0.1626 0.3588 0.4475 0.021 Uiso calc U P R 0.495(3) A 1
C C5 -0.0519(6) 0.3231(4) 0.5770(2) 0.0213(7) Uani d U P D 0.495(3) A 1
H H5 0.0166 0.3758 0.6248 0.026 Uiso calc U P R 0.495(3) A 1
C C6 -0.2394(14) 0.2566(15) 0.6130(9) 0.0206(14) Uani d U P D 0.495(3) A 1
H H6 -0.3011 0.2654 0.6846 0.025 Uiso calc U P R 0.495(3) A 1
C C7 -0.3336(5) 0.1770(4) 0.5419(2) 0.0209(6) Uani d U P D 0.495(3) A 1
H H7 -0.4589 0.1291 0.5657 0.025 Uiso calc U P R 0.495(3) A 1
C C8 -0.2479(5) 0.1664(4) 0.4364(2) 0.0168(6) Uani d U P D 0.495(3) A 1
H H8 -0.3146 0.1119 0.3888 0.02 Uiso calc U P R 0.495(3) A 1
C C3A -0.0423(16) 0.2444(19) 0.4046(7) 0.0151(16) Uani d U P D 0.505(3) A 2
C C4A 0.1052(5) 0.1832(4) 0.4854(2) 0.0196(6) Uani d U P D 0.505(3) A 2
H H4A 0.2665 0.1297 0.4692 0.024 Uiso calc U P R 0.505(3) A 2
C C5A 0.0170(6) 0.2001(4) 0.5903(2) 0.0262(7) Uani d U P D 0.505(3) A 2
H H5A 0.1176 0.1586 0.646 0.031 Uiso calc U P R 0.505(3) A 2
C C6A -0.2144(16) 0.2767(16) 0.6124(9) 0.0261(17) Uani d U P D 0.505(3) A 2
H H6A -0.2735 0.2863 0.6843 0.031 Uiso calc U P R 0.505(3) A 2
C C7A -0.3673(6) 0.3415(4) 0.5334(2) 0.0256(7) Uani d U P D 0.505(3) A 2
H H7A -0.5279 0.3958 0.5507 0.031 Uiso calc U P R 0.505(3) A 2
C C8A -0.2794(5) 0.3250(4) 0.4285(2) 0.0194(6) Uani d U P D 0.505(3) A 2
H H8A -0.3803 0.3683 0.3731 0.023 Uiso calc U P R 0.505(3) A 2
C C9 0.3850(2) -0.04106(17) 0.12827(10) 0.0128(2) Uani d . . . 1.0 . .
C C10 0.2587(2) -0.14600(18) 0.09451(10) 0.0144(2) Uani d . . . 1.0 . .
H H10 0.1066 -0.094 0.0718 0.017 Uiso calc U . R 1.0 . .
C C11 0.3545(3) -0.32689(19) 0.09394(11) 0.0180(3) Uani d . . . 1.0 . .
H H11 0.2673 -0.3981 0.0712 0.022 Uiso calc U . R 1.0 . .
C C12 0.5773(3) -0.40369(19) 0.12654(11) 0.0203(3) Uani d . . . 1.0 . .
H H12 0.6422 -0.5273 0.1266 0.024 Uiso calc U . R 1.0 . .
C C13 0.7048(2) -0.2990(2) 0.15904(12) 0.0212(3) Uani d . . . 1.0 . .
H H13 0.8577 -0.3511 0.1809 0.025 Uiso calc U . R 1.0 . .
C C14 0.6097(2) -0.1184(2) 0.15978(11) 0.0180(3) Uani d . . . 1.0 . .
H H14 0.6981 -0.0474 0.1818 0.022 Uiso calc U . R 1.0 . .
loop_
_atom_site_aniso_label
_atom_site_aniso_U_11
_atom_site_aniso_U_22
_atom_site_aniso_U_33
_atom_site_aniso_U_12
_atom_site_aniso_U_13
_atom_site_aniso_U_23
S1 0.0298(2) 0.0283(2) 0.02145(19) -0.01885(16) 0.00842(14) -0.00909(14)
O1 0.0258(5) 0.0229(5) 0.0123(5) 0.0043(4) -0.0012(4) 0.0003(4)
N1 0.0185(6) 0.0155(6) 0.0177(6) 0.0021(4) -0.0055(4) 0.0010(4)
C1 0.0199(6) 0.0110(6) 0.0144(6) -0.0020(5) 0.0021(5) 0.0003(5)
C2 0.0230(7) 0.0151(6) 0.0121(6) -0.0045(5) 0.0040(5) -0.0002(5)
C3 0.017(2) 0.009(3) 0.006(2) -0.0022(19) -0.0047(16) -0.0003(16)
C4 0.0227(14) 0.0184(14) 0.0130(12) -0.0093(11) -0.0005(10) -0.0003(10)
C5 0.0324(16) 0.0209(16) 0.0119(12) -0.0086(13) -0.0019(11) -0.0036(10)
C6 0.024(2) 0.020(3) 0.014(2) -0.004(2) 0.0080(16) 0.0022(18)
C7 0.0182(13) 0.0226(14) 0.0195(13) -0.0047(11) 0.0023(10) 0.0054(11)
C8 0.0169(12) 0.0171(13) 0.0166(12) -0.0054(10) -0.0021(10) 0.0005(10)
C3A 0.016(2) 0.013(3) 0.017(3) -0.0056(19) 0.0048(18) -0.001(2)
C4A 0.0244(14) 0.0181(15) 0.0169(12) -0.0062(11) -0.0036(10) -0.0005(10)
C5A 0.0433(18) 0.0241(17) 0.0131(13) -0.0121(14) -0.0057(12) 0.0009(11)
C6A 0.043(3) 0.024(3) 0.014(2) -0.016(2) 0.004(2) -0.0037(18)
C7A 0.0269(15) 0.0292(16) 0.0235(14) -0.0129(13) 0.0088(11) -0.0110(12)
C8A 0.0187(13) 0.0233(14) 0.0179(13) -0.0079(11) -0.0004(10) -0.0051(10)
C9 0.0144(6) 0.0145(6) 0.0085(5) -0.0037(5) 0.0015(4) 0.0004(4)
C10 0.0132(6) 0.0169(6) 0.0121(6) -0.0030(5) -0.0014(4) 0.0001(5)
C11 0.0217(7) 0.0171(6) 0.0156(6) -0.0066(5) 0.0012(5) -0.0022(5)
C12 0.0232(7) 0.0149(6) 0.0169(6) 0.0013(5) 0.0041(5) 0.0023(5)
C13 0.0134(6) 0.0275(8) 0.0175(6) 0.0008(5) -0.0005(5) 0.0038(5)
C14 0.0148(6) 0.0249(7) 0.0151(6) -0.0070(5) -0.0014(5) -0.0007(5)
loop_
_atom_type_symbol
_atom_type_description
_atom_type_scat_dispersion_real
_atom_type_scat_dispersion_imag
_atom_type_scat_source
C C 0.0033 0.0016 'International Tables Vol C Tables 4.2.6.8 and 6.1.1.4'
H H 0.0000 0.0000 'International Tables Vol C Tables 4.2.6.8 and 6.1.1.4'
N N 0.0061 0.0033 'International Tables Vol C Tables 4.2.6.8 and 6.1.1.4'
O O 0.0106 0.0060 'International Tables Vol C Tables 4.2.6.8 and 6.1.1.4'
S S 0.1246 0.1234 'International Tables Vol C Tables 4.2.6.8 and 6.1.1.4'
loop_
_geom_angle_atom_site_label_1
_geom_angle_atom_site_label_2
_geom_angle_atom_site_label_3
_geom_angle
C1 S1 C2 86.26(7)
N1 O1 C2 110.07(10)
C1 N1 O1 111.09(12)
N1 C1 C3A 126.5(4)
N1 C1 C3 119.9(4)
N1 C1 S1 115.91(11)
C3A C1 S1 117.6(4)
C3 C1 S1 124.2(4)
O1 C2 C9 112.57(12)
O1 C2 S1 104.19(9)
C9 C2 S1 112.50(10)
O1 C2 H2 109.1
C9 C2 H2 109.1
S1 C2 H2 109.1
C4 C3 C8 120.2(6)
C4 C3 C1 117.5(7)
C8 C3 C1 122.2(7)
C3 C4 C5 119.8(4)
C3 C4 H4 120.1
C5 C4 H4 120.1
C4 C5 C6 120.6(5)
C4 C5 H5 119.7
C6 C5 H5 119.7
C5 C6 C7 118.5(8)
C5 C6 H6 120.7
C7 C6 H6 120.7
C8 C7 C6 121.3(5)
C8 C7 H7 119.4
C6 C7 H7 119.4
C3 C8 C7 119.6(4)
C3 C8 H8 120.2
C7 C8 H8 120.2
C4A C3A C8A 120.0(6)
C4A C3A C1 123.0(7)
C8A C3A C1 117.0(7)
C3A C4A C5A 120.0(5)
C3A C4A H4A 120.0
C5A C4A H4A 120.0
C6A C5A C4A 119.5(5)
C6A C5A H5A 120.3
C4A C5A H5A 120.3
C5A C6A C7A 122.2(8)
C5A C6A H6A 118.9
C7A C6A H6A 118.9
C6A C7A C8A 118.4(5)
C6A C7A H7A 120.8
C8A C7A H7A 120.8
C7A C8A C3A 120.0(4)
C7A C8A H8A 120.0
C3A C8A H8A 120.0
C10 C9 C14 119.42(12)
C10 C9 C2 120.36(12)
C14 C9 C2 120.18(12)
C9 C10 C11 120.23(12)
C9 C10 H10 119.9
C11 C10 H10 119.9
C12 C11 C10 120.19(13)
C12 C11 H11 119.9
C10 C11 H11 119.9
C11 C12 C13 119.68(13)
C11 C12 H12 120.2
C13 C12 H12 120.2
C14 C13 C12 120.31(13)
C14 C13 H13 119.8
C12 C13 H13 119.8
C13 C14 C9 120.16(13)
C13 C14 H14 119.9
C9 C14 H14 119.9
loop_
_geom_bond_atom_site_label_1
_geom_bond_atom_site_label_2
_geom_bond_distance
S1 C1 1.7438(15)
S1 C2 1.8309(14)
O1 N1 1.4114(16)
O1 C2 1.4228(18)
N1 C1 1.2962(18)
C1 C3A 1.485(8)
C1 C3 1.476(8)
C2 C9 1.5118(19)
C2 H2 1.0
C3 C4 1.391(9)
C3 C8 1.387(10)
C4 C5 1.395(4)
C4 H4 0.95
C5 C6 1.398(9)
C5 H5 0.95
C6 C7 1.391(9)
C6 H6 0.95
C7 C8 1.391(4)
C7 H7 0.95
C8 H8 0.95
C3A C4A 1.385(10)
C3A C8A 1.400(10)
C4A C5A 1.390(4)
C4A H4A 0.95
C5A C6A 1.361(10)
C5A H5A 0.95
C6A C7A 1.391(10)
C6A H6A 0.95
C7A C8A 1.391(4)
C7A H7A 0.95
C8A H8A 0.95
C9 C10 1.3911(18)
C9 C14 1.3944(19)
C10 C11 1.3913(19)
C10 H10 0.95
C11 C12 1.388(2)
C11 H11 0.95
C12 C13 1.389(2)
C12 H12 0.95
C13 C14 1.388(2)
C13 H13 0.95
C14 H14 0.95
loop_
_geom_torsion_atom_site_label_1
_geom_torsion_atom_site_label_2
_geom_torsion_atom_site_label_3
_geom_torsion_atom_site_label_4
_geom_torsion
C2 O1 N1 C1 27.42(15)
O1 N1 C1 C3A 173.6(7)
O1 N1 C1 C3 175.8(6)
O1 N1 C1 S1 -3.18(15)
C2 S1 C1 N1 -15.64(11)
C2 S1 C1 C3A 167.3(6)
C2 S1 C1 C3 165.5(7)
N1 O1 C2 C9 85.25(13)
N1 O1 C2 S1 -36.93(12)
C1 S1 C2 O1 28.71(9)
C1 S1 C2 C9 -93.51(10)
N1 C1 C3 C4 -160.4(6)
C3A C1 C3 C4 5.(8)
S1 C1 C3 C4 18.5(12)
N1 C1 C3 C8 21.8(12)
C3A C1 C3 C8 -173.(10)
S1 C1 C3 C8 -159.3(6)
C8 C3 C4 C5 -1.0(13)
C1 C3 C4 C5 -178.8(6)
C3 C4 C5 C6 -0.1(9)
C4 C5 C6 C7 1.3(11)
C5 C6 C7 C8 -1.3(11)
C4 C3 C8 C7 1.0(13)
C1 C3 C8 C7 178.7(6)
C6 C7 C8 C3 0.2(9)
N1 C1 C3A C4A 146.7(7)
C3 C1 C3A C4A 131.(10)
S1 C1 C3A C4A -36.6(13)
N1 C1 C3A C8A -31.9(13)
C3 C1 C3A C8A -48.(8)
S1 C1 C3A C8A 144.8(7)
C8A C3A C4A C5A 0.7(14)
C1 C3A C4A C5A -177.8(7)
C3A C4A C5A C6A 0.1(10)
C4A C5A C6A C7A -0.9(12)
C5A C6A C7A C8A 0.8(12)
C6A C7A C8A C3A 0.1(9)
C4A C3A C8A C7A -0.8(14)
C1 C3A C8A C7A 177.8(6)
O1 C2 C9 C10 15.58(17)
S1 C2 C9 C10 132.94(11)
O1 C2 C9 C14 -166.66(12)
S1 C2 C9 C14 -49.30(15)
C14 C9 C10 C11 1.10(19)
C2 C9 C10 C11 178.88(12)
C9 C10 C11 C12 -0.3(2)
C10 C11 C12 C13 -0.5(2)
C11 C12 C13 C14 0.5(2)
C12 C13 C14 C9 0.3(2)
C10 C9 C14 C13 -1.1(2)
C2 C9 C14 C13 -178.85(12)
