#------------------------------------------------------------------------------
#$Date: 2015-10-06 14:08:10 +0300 (Tue, 06 Oct 2015) $
#$Revision: 160462 $
#$URL: svn://www.crystallography.net/cod/cif/1/53/41/1534110.cif $
#------------------------------------------------------------------------------
#
# This file is available in the Crystallography Open Database (COD),
# http://www.crystallography.net/
#
# All data on this site have been placed in the public domain by the
# contributors.
#
data_1534110
loop_
_publ_author_name
'Tripathi, Chandra Bhushan'
'Mukherjee, Santanu'
_publ_section_title
;
 Catalytic Enantioselective 1,4-Iodofunctionalizations of Conjugated
 Dienes.
;
_journal_issue                   18
_journal_name_full               'Organic letters'
_journal_page_first              4424
_journal_page_last               4427
_journal_paper_doi               10.1021/acs.orglett.5b02026
_journal_volume                  17
_journal_year                    2015
_chemical_absolute_configuration ad
_chemical_formula_moiety         'C24 H20 I N3 O4 S, C H2 Cl2'
_chemical_formula_sum            'C25 H22 Cl2 I N3 O4 S'
_chemical_formula_weight         658.31
_chemical_name_systematic
;
 ?
;
_space_group_crystal_system      monoclinic
_space_group_IT_number           4
_space_group_name_Hall           'P 2yb'
_space_group_name_H-M_alt        'P 1 21 1'
_symmetry_space_group_name_Hall  'P 2yb'
_symmetry_space_group_name_H-M   'P 1 21 1'
_atom_sites_solution_hydrogens   geom
_atom_sites_solution_primary     iterative
_audit_creation_date             2014-10-01
_audit_creation_method
;
Olex2 1.2
(compiled 2014.09.19 svn.r3010 for OlexSys, GUI svn.r4874)
;
_cell_angle_alpha                90
_cell_angle_beta                 92.129(15)
_cell_angle_gamma                90
_cell_formula_units_Z            2
_cell_length_a                   10.469(3)
_cell_length_b                   11.122(3)
_cell_length_c                   11.473(4)
_cell_measurement_reflns_used    6337
_cell_measurement_temperature    100
_cell_volume                     1335.0(7)
_computing_cell_refinement       'SAINT v8.27A (Bruker, 2012)'
_computing_data_reduction        'SAINT v8.27A (Bruker, 2012)'
_computing_molecular_graphics    'Olex2 (Dolomanov et al., 2009)'
_computing_publication_material  'Olex2 (Dolomanov et al., 2009)'
_computing_structure_refinement  'ShelXL (Sheldrick, 2008)'
_computing_structure_solution    'olex2.solve (Bourhis et al., 2013)'
_diffrn_ambient_temperature      100
_diffrn_detector                 'Bruker APEX2 area detector'
_diffrn_detector_area_resol_mean 7.9
_diffrn_detector_type            'CCD area detector'
_diffrn_measured_fraction_theta_full 1.000
_diffrn_measured_fraction_theta_max 1.000
_diffrn_measurement_device       'three-circle diffractometer'
_diffrn_radiation_probe          x-ray
_diffrn_radiation_type           MoK\a
_diffrn_radiation_wavelength     0.71073
_diffrn_reflns_av_R_equivalents  0.0797
_diffrn_reflns_av_unetI/netI     0.0857
_diffrn_reflns_laue_measured_fraction_full 1.000
_diffrn_reflns_laue_measured_fraction_max 1.000
_diffrn_reflns_limit_h_max       13
_diffrn_reflns_limit_h_min       -13
_diffrn_reflns_limit_k_max       14
_diffrn_reflns_limit_k_min       -14
_diffrn_reflns_limit_l_max       14
_diffrn_reflns_limit_l_min       -14
_diffrn_reflns_number            21799
_diffrn_reflns_point_group_measured_fraction_full 0.997
_diffrn_reflns_point_group_measured_fraction_max 0.995
_diffrn_reflns_theta_full        25.000
_diffrn_reflns_theta_max         27.494
_diffrn_reflns_theta_min         1.776
_diffrn_source                   'microfocus sealed X-ray tube'
_diffrn_source_type              'Incoatec I\ms'
_diffrn_standards_number         0
_exptl_absorpt_coefficient_mu    1.514
_exptl_absorpt_correction_T_max  0.7456
_exptl_absorpt_correction_T_min  0.5802
_exptl_absorpt_correction_type   multi-scan
_exptl_absorpt_process_details
;
SADABS-2012/1 (Bruker,2012) was used for absorption correction.
wR2(int) was 0.1127 before and 0.0932 after correction.
The Ratio of minimum to maximum transmission is 0.7782.
The \l/2 correction factor is 0.0015.
;
_exptl_crystal_colour            'clear light colourless'
_exptl_crystal_colour_lustre     clear
_exptl_crystal_colour_modifier   light
_exptl_crystal_colour_primary    colourless
_exptl_crystal_density_diffrn    1.638
_exptl_crystal_description       block
_exptl_crystal_F_000             656
_exptl_crystal_size_max          0.23
_exptl_crystal_size_mid          0.21
_exptl_crystal_size_min          0.21
_refine_diff_density_max         0.703
_refine_diff_density_min         -1.257
_refine_diff_density_rms         0.103
_refine_ls_abs_structure_details
;
 Flack x determined using 1700 quotients [(I+)-(I-)]/[(I+)+(I-)]
 (Parsons, Flack and Wagner, Acta Cryst. B69 (2013) 249-259).
;
_refine_ls_abs_structure_Flack   0.036(18)
_refine_ls_extinction_method     none
_refine_ls_goodness_of_fit_ref   0.999
_refine_ls_hydrogen_treatment    constr
_refine_ls_matrix_type           full
_refine_ls_number_parameters     325
_refine_ls_number_reflns         6106
_refine_ls_number_restraints     1
_refine_ls_restrained_S_all      0.999
_refine_ls_R_factor_all          0.0720
_refine_ls_R_factor_gt           0.0503
_refine_ls_shift/su_max          0.001
_refine_ls_shift/su_mean         0.000
_refine_ls_structure_factor_coef Fsqd
_refine_ls_weighting_details
'w=1/[\s^2^(Fo^2^)+(0.0508P)^2^] where P=(Fo^2^+2Fc^2^)/3'
_refine_ls_weighting_scheme      calc
_refine_ls_wR_factor_gt          0.1055
_refine_ls_wR_factor_ref         0.1149
_reflns_Friedel_coverage         0.892
_reflns_friedel_fraction_full    0.994
_reflns_friedel_fraction_max     0.989
_reflns_number_gt                4660
_reflns_number_total             6106
_reflns_threshold_expression     'I > 2\s(I)'
_cod_data_source_file            ol5b02026_si_004.cif
_cod_data_source_block           5a
_cod_database_code               1534110
_shelxl_version_number           2014-1
_shelx_space_group_comment
;
The symmetry employed for this shelxl refinement is uniquely defined
by the following loop, which should always be used as a source of
symmetry information in preference to the above space-group names.
They are only intended as comments.
;
_olex2_refinement_description
;
1. Fixed Uiso
 At 1.2 times of:
  All C(H) groups, All C(H,H) groups
2.a Secondary CH2 refined with riding coordinates:
 C18(H18A,H18B), C19(H19A,H19B), C11(H11A,H11B)
2.b Aromatic/amide H refined with riding coordinates:
 C4(H4), C1(H1), C2(H2), C3(H3), C8(H8), C9(H9), C12(H12), C13(H13), C14(H14),
 C15(H15), C17(H17), C21(H21), C22(H22), C23(H23), C24(H24), C25(H25)
;
_shelx_res_file
;
TITL 5a in P2(1)
CELL 0.71073 10.4694 11.122 11.4728 90 92.129 90
ZERR 2 0.0029 0.0029 0.0035 0 0.015 0
LATT -1
SYMM -X,0.5+Y,-Z

SFAC C H Cl I N O S
UNIT 50 44 4 2 6 8 2

L.S. 5
PLAN  10
TEMP -173.15
HTAB
BOND $H
CONF
fmap 2
acta 50
OMIT 0 55
REM <HKL>C:/Documents%20and%20Settings/Smart/Desktop/CBT/work/RED.hkl</HKL>

WGHT    0.050800
FVAR       0.16707
I1    4    1.030863    0.245060    0.472024    11.00000    0.04414    0.04057 =
         0.05163   -0.00339   -0.01292    0.01471
S1    7    0.465946    0.562796    0.444402    11.00000    0.02471    0.01527 =
         0.02841    0.00061    0.00387   -0.00032
O1    6    0.383129    0.664292    0.448561    11.00000    0.02906    0.02731 =
         0.03233    0.00084    0.00202    0.00554
CL2S  3    1.191433    0.669924    0.153529    11.00000    0.07683    0.07156 =
         0.19815   -0.01255   -0.01186    0.01059
O2    6    0.413900    0.445016    0.423105    11.00000    0.02971    0.02073 =
         0.02684    0.00004   -0.00058   -0.00887
N1    5    0.615492    0.703217    0.337622    11.00000    0.02751    0.01403 =
         0.02455    0.00250   -0.00122   -0.00256
N2    5    0.562414    0.586613    0.336764    11.00000    0.02278    0.01250 =
         0.02798    0.00186    0.00083   -0.00078
O3    6    0.824278    0.644345    0.921207    11.00000    0.05576    0.07199 =
         0.04527   -0.02233   -0.01600    0.00141
C4    1    0.712603    0.420049    0.383320    11.00000    0.02724    0.01694 =
         0.02396    0.00466    0.00166    0.00311
AFIX  43
H4    2    0.662573    0.356444    0.412819    11.00000   -1.20000
AFIX   0
C1    1    0.905075    1.029047    0.198396    11.00000    0.04364    0.04267 =
         0.06098    0.01531   -0.00384   -0.02216
AFIX  43
H1    2    0.945526    1.102826    0.180265    11.00000   -1.20000
AFIX   0
C2    1    0.930780    0.927543    0.137183    11.00000    0.05252    0.06001 =
         0.03356    0.00379    0.00795   -0.02116
AFIX  43
H2    2    0.989998    0.930928    0.076504    11.00000   -1.20000
AFIX   0
C3    1    0.871040    0.817714    0.162356    11.00000    0.03801    0.03858 =
         0.03265    0.00019    0.00195   -0.00672
AFIX  43
H3    2    0.890612    0.747035    0.120086    11.00000   -1.20000
AFIX   0
C5    1    0.783870    0.814245    0.249100    11.00000    0.02960    0.02837 =
         0.02420    0.00725   -0.00291   -0.00148
C6    1    0.715792    0.701089    0.274971    11.00000    0.02654    0.01995 =
         0.02742   -0.00080   -0.00419   -0.00009
C7    1    0.555667    0.559653    0.576092    11.00000    0.02686    0.02579 =
         0.02339   -0.00311    0.00641    0.00503
C8    1    0.567806    0.453246    0.637958    11.00000    0.03584    0.02404 =
         0.02553   -0.00045    0.00133   -0.00196
AFIX  43
H8    2    0.529975    0.381413    0.608088    11.00000   -1.20000
AFIX   0
C9    1    0.635530    0.452538    0.743648    11.00000    0.04505    0.03034 =
         0.02509    0.00467    0.00730    0.00222
AFIX  43
H9    2    0.642574    0.381168    0.788925    11.00000   -1.20000
AFIX   0
C10   1    0.692104    0.556784    0.781521    11.00000    0.03610    0.03856 =
         0.01938   -0.00206    0.00108    0.00020
N10   5    0.764389    0.553102    0.893432    11.00000    0.03815    0.05033 =
         0.03271   -0.01422    0.00024    0.00277
O11   6    0.761685    0.461729    0.951426    11.00000    0.06543    0.07220 =
         0.03281    0.01263   -0.00942   -0.00574
C12   1    0.759728    0.917287    0.314067    11.00000    0.03315    0.02684 =
         0.04797   -0.00660    0.00134   -0.00219
AFIX  43
H12   2    0.702471    0.913837    0.376307    11.00000   -1.20000
AFIX   0
C13   1    0.818736    1.023624    0.288015    11.00000    0.04358    0.02233 =
         0.06091   -0.00320    0.00025   -0.00627
AFIX  43
H13   2    0.800674    1.094029    0.331298    11.00000   -1.20000
AFIX   0
C14   1    0.682876    0.664307    0.720112    11.00000    0.04463    0.03306 =
         0.02930   -0.01001    0.00203   -0.01062
AFIX  43
H14   2    0.723645    0.734979    0.749434    11.00000   -1.20000
AFIX   0
C15   1    0.613730    0.666228    0.616378    11.00000    0.04280    0.02264 =
         0.03376    0.00019    0.00385   -0.00305
AFIX  43
H15   2    0.605262    0.738432    0.572531    11.00000   -1.20000
AFIX   0
C16   1    0.652299    0.494693    0.286653    11.00000    0.02457    0.01971 =
         0.02537    0.00300   -0.00191    0.00467
C17   1    0.827791    0.434334    0.430891    11.00000    0.03550    0.02141 =
         0.03063   -0.00115   -0.00350    0.00254
AFIX  43
H17   2    0.881315    0.494784    0.400456    11.00000   -1.20000
AFIX   0
C18   1    0.877985    0.360274    0.530004    11.00000    0.03112    0.03523 =
         0.03463   -0.00252   -0.00363    0.00792
AFIX  23
H18A  2    0.808400    0.310388    0.560523    11.00000   -1.20000
H18B  2    0.910776    0.413291    0.593650    11.00000   -1.20000
AFIX   0
C19   1    0.743447    0.580677    0.225316    11.00000    0.02586    0.02387 =
         0.02678   -0.00097    0.00250   -0.00161
AFIX  23
H19A  2    0.833683    0.557789    0.241888    11.00000   -1.20000
H19B  2    0.726402    0.579975    0.139862    11.00000   -1.20000
AFIX   0
C20   1    0.581448    0.416280    0.196434    11.00000    0.02899    0.02199 =
         0.02104   -0.00117    0.00275   -0.00365
C21   1    0.476391    0.459444    0.131785    11.00000    0.03644    0.03022 =
         0.03073   -0.00264   -0.00305    0.00155
AFIX  43
H21   2    0.442046    0.536238    0.148883    11.00000   -1.20000
AFIX   0
C22   1    0.421832    0.391119    0.042867    11.00000    0.04247    0.04500 =
         0.03182   -0.00119   -0.00361   -0.00586
AFIX  43
H22   2    0.351704    0.422033   -0.002741    11.00000   -1.20000
AFIX   0
C23   1    0.468788    0.277964    0.019921    11.00000    0.05585    0.05406 =
         0.03682   -0.01690   -0.00099   -0.02038
AFIX  43
H23   2    0.429358    0.229856   -0.039628    11.00000   -1.20000
AFIX   0
C24   1    0.572997    0.235161    0.083718    11.00000    0.05156    0.03382 =
         0.05032   -0.02235    0.00068   -0.00336
AFIX  43
H24   2    0.607518    0.158460    0.066538    11.00000   -1.20000
AFIX   0
C25   1    0.626929    0.303297    0.172066    11.00000    0.03503    0.03493 =
         0.03967   -0.01073   -0.00295    0.00210
AFIX  43
H25   2    0.697063    0.271933    0.217360    11.00000   -1.20000
AFIX   0

CL4   3    1.076005    0.434697    0.180897    11.00000    0.08191    0.09228 =
         0.07128    0.00935    0.01386    0.01459
C11   1    1.154185    0.551087    0.250974    11.00000    0.06655    0.21677 =
         0.05489   -0.02951    0.00563   -0.03529
AFIX  23
H11A  2    1.234242    0.520548    0.288902    11.00000   -1.20000
H11B  2    1.099905    0.582896    0.312735    11.00000   -1.20000
AFIX   0
HKLF 4

REM  RED in P2(1)
REM R1 =  0.0503 for    4660 Fo > 4sig(Fo)  and  0.0720 for all    6106 data
REM    325 parameters refined using      1 restraints

END

WGHT      0.0508      0.0000

REM Instructions for potential hydrogen bonds
EQIV $1 -x+1, y-1/2, -z+1
HTAB C8 N1_$1
EQIV $2 -x+2, y-1/2, -z+1
HTAB C9 Cl2S_$2
EQIV $3 -x+1, y+1/2, -z+1
HTAB C15 O2_$3
EQIV $4 -x+2, y+1/2, -z+1
HTAB C17 I1_$4
HTAB C18 O1_$1
HTAB C19 Cl4
EQIV $5 x, y, z-1
HTAB C19 O11_$5
EQIV $6 x+1, y, z
HTAB C11 S1_$6
HTAB C11 O2_$6

REM Highest difference peak  0.703,  deepest hole -1.257,  1-sigma level  0.103
Q1    1   0.9085  0.2418  0.4113  11.00000  0.05    0.70
Q2    1   1.1602  0.2576  0.5372  11.00000  0.05    0.63
Q3    1   1.0919  0.2494  0.3584  11.00000  0.05    0.52
Q4    1   1.0173  0.2448  0.3395  11.00000  0.05    0.51
Q5    1   1.1517  0.2454  0.4153  11.00000  0.05    0.40
Q6    1   0.6992  1.0131  0.3362  11.00000  0.05    0.38
Q7    1   1.0587  0.7453  0.3189  11.00000  0.05    0.38
Q8    1   0.9600  0.2520  0.5767  11.00000  0.05    0.36
Q9    1   0.9645  0.2987  0.5714  11.00000  0.05    0.36
Q10   1   0.6603  0.5742  0.4352  11.00000  0.05    0.36
;
_shelx_res_checksum              73267
_shelx_hkl_file
;
  -1   0   0    1.48    0.32
  -1   0   0    1.68    0.37
  -1   0   0    1.38    0.28
   1   0   0    2.73    0.50
   1   0   0    1.25    0.30
   1   0   0    2.05    0.37
   1   0   0    2.41    0.33
   1   0   0    1.93    0.41
  -1   0   0    2.32    0.37
  -1   0   0    2.27    0.46
  -2   0   0  116.07   10.19
  -2   0   0  142.82   11.26
  -2   0   0  117.37   10.45
   2   0   0  110.72   11.23
   2   0   0  125.08   10.23
   2   0   0  138.90   10.27
   2   0   0  124.22   11.68
   2   0   0  132.15   12.01
  -2   0   0  127.55   11.98
  -2   0   0  132.45   11.68
  -2   0   0  119.75   10.22
   3   0   0    5.56    1.14
   3   0   0    3.73    0.83
  -3   0   0    5.29    0.86
   3   0   0    8.01    1.01
   3   0   0    5.95    0.99
   3   0   0    6.23    1.10
  -3   0   0    8.32    1.23
  -3   0   0    8.95    1.50
  -3   0   0   10.04    1.49
  -3   0   0    8.16    1.18
  -3   0   0    5.01    0.97
  -3   0   0    7.57    1.01
  -4   0   0   19.87    2.34
   4   0   0   16.23    2.23
  -4   0   0   16.89    1.88
   4   0   0   17.36    1.83
  -4   0   0   14.63    1.70
   4   0   0   16.61    1.81
   4   0   0   20.02    1.95
  -4   0   0   16.03    2.05
  -4   0   0   13.33    1.73
   4   0   0   12.73    1.87
  -4   0   0   17.07    1.95
   5   0   0  105.68   10.19
   5   0   0  103.46    9.33
  -5   0   0  107.60   10.20
  -5   0   0  110.87    9.16
  -5   0   0  106.84    9.22
   5   0   0  103.47    9.18
   5   0   0   98.51   10.70
  -5   0   0  121.76   10.83
  -5   0   0  109.37    9.30
   5   0   0  117.32    9.26
   6   0   0    3.53    1.03
   6   0   0    3.94    0.78
  -6   0   0    0.90    0.83
   6   0   0    3.06    0.82
  -6   0   0    2.55    1.08
  -6   0   0    5.06    1.06
   6   0   0    1.28    0.65
   6   0   0    2.89    1.03
  -6   0   0    3.09    1.02
   7   0   0    1.54    0.73
  -7   0   0    1.16    0.69
   7   0   0    2.32    1.11
  -7   0   0    4.82    1.18
   7   0   0    5.84    1.50
  -7   0   0    7.15    1.66
   7   0   0    1.85    0.86
  -7   0   0    1.37    0.87
   7   0   0    1.43    0.65
  -8   0   0    8.48    1.74
   8   0   0    9.09    1.85
   8   0   0    2.62    1.07
   8   0   0    9.09    1.30
   8   0   0    7.82    1.92
   8   0   0    6.14    1.42
  -8   0   0    7.61    1.77
  -8   0   0    3.80    1.51
  -9   0   0    0.32    1.02
  -9   0   0    2.30    1.18
  -9   0   0    1.16    0.85
   9   0   0    0.60    0.96
   9   0   0    1.23    1.18
 -10   0   0    8.84    2.14
 -10   0   0    4.35    1.99
  10   0   0    5.79    1.82
  11   0   0   -0.44    0.75
 -11   0   0   -0.15    0.98
 -11   0   0    0.98    1.53
 -12   0   0    6.34    2.38
 -13   0   0   -0.68    1.34
   0  -1   0    0.05    0.23
   0   1   0    0.04    0.19
   0   1   0    0.07    0.14
  -1  -1   0   67.48    7.07
   1  -1   0   75.42    6.06
   1  -1   0   69.34    5.94
   1  -1   0   71.83    6.97
  -1  -1   0   68.89    6.84
  -1  -1   0   71.34    5.87
  -1  -1   0   79.35    5.89
  -1  -1   0   74.17    6.50
   1  -1   0   74.85    6.54
  -1  -1   0   85.72    6.55
  -1   1   0   84.14    6.55
   1   1   0   66.39    5.88
  -1   1   0   73.95    6.07
   1   1   0   85.05    6.50
   1   1   0   68.11    5.90
  -1   1   0   70.83    5.95
  -1   1   0   69.25    5.95
   1   1   0   77.98    6.52
  -1   1   0   70.77    6.96
   1   1   0   66.34    6.83
   1   1   0   73.41    7.11
  -2  -1   0  163.13   12.81
   2  -1   0  168.93   12.91
  -2  -1   0  145.61   14.08
  -2  -1   0  156.81   13.09
  -2  -1   0  157.27   14.12
   2  -1   0  144.51   14.91
   2  -1   0  166.36   13.17
   2  -1   0  181.74   14.19
   2  -1   0  161.76   12.89
  -2  -1   0  146.21   12.82
  -2   1   0  163.77   12.93
  -2   1   0  142.89   14.12
   2   1   0  152.49   12.85
   2   1   0  150.75   13.13
  -2   1   0  165.22   12.89
   2   1   0  173.54   14.10
  -2   1   0  163.06   14.92
   2   1   0  153.27   15.20
   2   1   0  156.36   14.68
   2   1   0  163.49   12.84
  -2   1   0  183.66   15.05
  -2   1   0  154.08   13.20
   3  -1   0  130.28   12.28
  -3  -1   0  120.63   10.59
   3  -1   0  133.32   10.70
   3  -1   0  119.72   12.42
  -3  -1   0  130.51   10.81
   3  -1   0  118.38   10.66
  -3  -1   0  139.74   11.80
   3  -1   0  123.11   10.87
  -3  -1   0  132.16   12.70
  -3  -1   0  132.69   11.75
  -3   1   0  133.74   12.40
  -3   1   0  140.86   12.32
   3   1   0  126.12   10.66
   3   1   0  140.01   12.65
   3   1   0  134.60   10.87
   3   1   0  117.12   10.62
  -3   1   0  131.64   11.78
  -3   1   0  143.86   10.77
  -3   1   0  128.37   10.91
   4  -1   0  142.31   11.86
  -4  -1   0  135.96   11.97
  -4  -1   0  151.17   11.79
   4  -1   0  130.73   12.04
   4  -1   0  149.64   13.58
   4  -1   0  149.03   11.89
   4  -1   0  140.83   13.81
  -4  -1   0  135.95   13.03
   4   1   0  143.49   11.85
  -4   1   0  136.42   11.88
  -4   1   0  138.18   13.72
  -4   1   0  140.70   12.07
   4   1   0  140.52   12.06
  -4   1   0  144.29   13.08
   4   1   0  153.16   14.02
  -4   1   0  158.17   13.63
   4   1   0  139.44   11.84
  -4   1   0  152.39   11.89
  -5  -1   0  170.24   15.32
   5  -1   0  155.11   14.68
   5  -1   0  155.07   12.98
  -5  -1   0  165.31   14.27
   5  -1   0  144.04   13.14
  -5  -1   0  171.73   13.06
  -5  -1   0  134.77   12.82
   5  -1   0  157.45   15.11
   5  -1   0  166.21   13.01
  -5   1   0  144.57   12.90
   5   1   0  172.62   13.20
  -5   1   0  168.42   14.73
   5   1   0  132.48   12.86
  -5   1   0  170.60   15.05
  -5   1   0  160.29   13.24
  -5   1   0  141.56   13.00
  -5   1   0  146.37   14.25
   5   1   0  168.89   13.00
   5   1   0  131.32   15.12
  -6  -1   0   48.20    5.37
   6  -1   0   49.06    4.58
  -6  -1   0   47.25    4.52
   6  -1   0   45.28    5.21
   6  -1   0   47.70    4.92
   6  -1   0   47.12    4.59
   6  -1   0   44.41    4.56
  -6  -1   0   44.40    5.07
   6   1   0   41.17    5.30
  -6   1   0   48.60    5.16
  -6   1   0   51.11    4.64
  -6   1   0   52.66    4.63
   6   1   0   49.08    4.65
  -6   1   0   51.63    5.25
   6   1   0   52.91    4.59
   6   1   0   49.58    4.59
  -6   1   0   46.28    4.63
   7  -1   0   37.74    4.13
   7  -1   0   38.58    4.67
  -7  -1   0   37.76    4.01
   7  -1   0   37.61    4.09
  -7  -1   0   40.98    4.69
  -7  -1   0   47.76    4.92
   7  -1   0   39.77    4.27
  -7   1   0   38.44    4.61
   7   1   0   37.49    4.05
   7   1   0   45.49    4.20
  -7   1   0   39.69    4.69
  -7   1   0   37.28    4.20
   7   1   0   41.26    4.88
  -7   1   0   49.80    4.18
  -8  -1   0   54.91    6.27
   8  -1   0   61.93    5.88
  -8  -1   0   68.08    5.75
  -8  -1   0   52.51    6.40
   8  -1   0   46.14    6.20
   8  -1   0   63.07    5.73
  -8   1   0   55.02    6.32
  -8   1   0   47.66    5.48
   8   1   0   65.49    5.64
  -8   1   0   58.72    6.23
  -8   1   0   61.81    5.56
   8   1   0   58.61    6.57
   8   1   0   52.47    5.55
   8   1   0   54.22    5.52
  -9  -1   0   13.76    3.26
  -9  -1   0   24.06    3.79
  -9  -1   0   21.60    2.98
   9  -1   0   23.43    3.81
   9  -1   0   26.48    2.82
   9  -1   0   21.78    3.05
  -9   1   0   21.28    3.41
  -9   1   0   23.58    4.13
   9   1   0   22.62    3.44
   9   1   0   21.59    3.80
  -9   1   0   24.84    3.33
 -10  -1   0   21.38    4.31
  10  -1   0   36.50    4.66
 -10  -1   0   36.68    4.51
 -10   1   0   31.83    5.18
 -10   1   0   32.06    4.13
  10   1   0   38.44    4.89
 -11  -1   0    8.64    2.79
 -11  -1   0    8.21    2.34
  11   1   0   13.41    2.86
 -11   1   0    6.36    2.53
 -11   1   0    9.11    2.21
 -12  -1   0    7.20    2.69
 -12  -1   0    4.53    1.95
 -12   1   0    5.62    2.44
 -13  -1   0    0.23    1.68
 -13   1   0    2.06    1.83
   0   2   0    9.86    0.87
   0   2   0    8.30    1.21
   0   2   0    6.77    1.10
  -1  -2   0  227.95   24.71
   1  -2   0  252.41   24.43
   1  -2   0  253.38   20.83
   1  -2   0  301.76   22.87
  -1  -2   0  230.21   24.26
  -1  -2   0  285.36   22.78
   1   2   0  283.36   22.76
   1   2   0  240.12   24.74
  -1   2   0  264.19   22.84
  -1   2   0  258.18   20.87
  -1   2   0  282.64   20.88
   1   2   0  241.67   24.30
  -1   2   0  279.14   24.45
   1   2   0  267.17   22.76
  -2  -2   0  107.08    8.88
   2  -2   0  120.27    9.97
   2  -2   0   99.34   10.62
   2  -2   0  113.30    9.04
   2  -2   0  100.91    9.19
  -2  -2   0  108.78   10.36
  -2  -2   0  111.05    8.90
   2  -2   0  102.74    9.02
  -2  -2   0  114.84    9.89
  -2  -2   0  103.13   10.80
   2   2   0  104.49   10.80
  -2   2   0  112.66   10.62
  -2   2   0  106.92    9.08
   2   2   0  111.94    8.94
   2   2   0  107.02   10.35
  -2   2   0   98.30    9.20
   2   2   0  123.22    9.90
  -2   2   0  116.50    9.07
   2   2   0  126.02    8.99
  -2   2   0  131.69   10.00
  -3  -2   0  204.19   19.44
   3  -2   0  232.81   16.45
   3  -2   0  178.96   18.00
  -3  -2   0  190.88   17.90
  -3  -2   0  198.79   16.20
  -3  -2   0  200.90   17.94
  -3  -2   0  215.79   16.27
   3  -2   0  170.04   19.00
  -3   2   0  220.23   16.47
   3   2   0  214.93   16.32
   3   2   0  185.18   18.66
  -3   2   0  210.66   19.06
   3   2   0  193.00   16.65
   3   2   0  181.80   19.36
  -3   2   0  211.81   16.40
  -3   2   0  204.18   19.05
  -3   2   0  197.32   16.78
  -3   2   0  222.74   18.05
   3   2   0  214.72   16.34
   4  -2   0   27.02    3.12
  -4  -2   0   28.82    3.16
  -4  -2   0   24.28    3.27
  -4  -2   0   29.30    2.60
   4  -2   0   27.54    2.79
   4  -2   0   36.31    2.88
  -4  -2   0   29.89    3.13
  -4  -2   0   32.91    2.75
   4   2   0   24.63    2.62
  -4   2   0   33.35    3.31
  -4   2   0   28.62    2.78
  -4   2   0   26.78    3.13
  -4   2   0   22.97    2.66
   4   2   0   26.41    2.67
  -4   2   0   26.16    2.91
   4   2   0   26.00    2.72
   4   2   0   27.06    3.37
   5  -2   0   86.38    8.03
   5  -2   0   81.99    9.08
  -5  -2   0   89.73    9.52
   5  -2   0   98.90    8.09
  -5  -2   0  109.99    8.97
  -5  -2   0   89.10    7.95
  -5   2   0   91.24    9.09
  -5   2   0   87.10    8.11
  -5   2   0   97.16    8.97
  -5   2   0   97.71    8.14
   5   2   0   89.75    8.07
  -5   2   0  100.03    8.10
   5   2   0   99.53    8.05
   5   2   0   94.76    9.58
   5   2   0   89.86    7.98
  -5   2   0   96.66    9.23
  -6  -2   0   50.71    6.52
   6  -2   0   77.70    6.81
   6  -2   0   60.42    5.63
   6  -2   0   62.19    6.26
  -6  -2   0   61.15    5.50
  -6  -2   0   57.45    6.14
   6   2   0   52.35    5.51
  -6   2   0   59.93    6.24
  -6   2   0   58.54    6.15
   6   2   0   58.96    5.54
   6   2   0   61.03    6.62
  -6   2   0   61.48    5.72
   6   2   0   58.92    5.53
  -6   2   0   67.02    5.62
  -6   2   0   69.37    6.41
  -6   2   0   57.23    5.55
   7  -2   0    5.66    1.72
  -7  -2   0    2.94    1.34
   7  -2   0    3.90    1.21
  -7  -2   0    4.05    1.07
   7  -2   0    3.46    1.09
  -7  -2   0    4.41    1.49
  -7   2   0    2.85    1.00
   7   2   0    5.39    1.21
  -7   2   0    1.74    0.84
  -7   2   0    4.43    1.18
  -7   2   0    5.38    1.39
   7   2   0    4.22    1.13
   7   2   0    4.21    1.07
  -7   2   0   10.53    2.28
  -7   2   0    2.76    1.19
   7   2   0    2.05    1.08
   8  -2   0    4.05    1.26
  -8  -2   0    5.44    1.61
  -8  -2   0    3.92    1.50
   8  -2   0    3.63    1.26
  -8  -2   0    4.72    1.21
   8  -2   0    5.10    1.89
  -8   2   0    5.09    1.70
  -8   2   0    5.68    1.47
   8   2   0    4.58    1.68
   8   2   0    4.92    1.17
  -8   2   0    4.72    1.47
   8   2   0    9.15    1.84
  -8   2   0    3.74    1.20
   8   2   0    2.70    1.13
  -8   2   0    0.86    1.24
  -9  -2   0    3.14    1.53
  -9  -2   0    9.09    2.32
   9  -2   0   11.38    1.97
   9  -2   0    5.37    1.63
  -9   2   0    5.03    2.02
  -9   2   0    5.80    1.51
  -9   2   0    9.11    2.06
   9   2   0    6.15    1.75
 -10  -2   0    0.05    1.00
  10  -2   0   -0.03    0.81
 -10  -2   0   -0.05    1.06
 -10   2   0   -0.33    1.16
 -10   2   0    0.71    0.88
 -10   2   0   -0.25    0.84
  10   2   0    0.61    1.06
 -11  -2   0   15.28    3.03
 -11  -2   0    5.49    2.12
  11   2   0    8.88    2.11
 -11   2   0    9.85    2.65
 -12  -2   0   12.81    3.07
 -12  -2   0   13.19    3.38
 -12   2   0    3.77    2.04
  12   2   0   11.05    2.81
 -13  -2   0    3.15    2.10
 -13   2   0    3.92    2.27
   0  -3   0   -0.31    0.18
   0  -3   0   -0.31    0.51
   0   3   0    0.08    0.48
   0   3   0   -0.12    0.18
   0   3   0   -0.29    0.56
  -1  -3   0    7.22    0.86
   1  -3   0    7.99    1.02
  -1  -3   0    6.59    1.32
  -1  -3   0    7.56    0.93
   1  -3   0   10.24    1.66
  -1  -3   0    9.58    1.49
   1   3   0    7.73    1.41
  -1   3   0    8.64    0.93
   1   3   0    8.96    0.86
  -1   3   0    8.19    0.94
  -1   3   0    7.52    1.10
  -1   3   0   10.52    1.77
   1   3   0    7.47    0.86
   1   3   0    8.88    1.51
  -2  -3   0   26.61    2.91
   2  -3   0   29.26    2.49
  -2  -3   0   27.89    3.22
  -2  -3   0   26.59    2.72
   2  -3   0   25.71    3.15
   2  -3   0   27.28    2.85
   2  -3   0   28.97    2.45
   2   3   0   30.82    2.40
  -2   3   0   29.16    3.30
  -2   3   0   28.71    2.61
  -2   3   0   25.21    2.46
   2   3   0   25.45    2.35
  -2   3   0   24.60    2.51
  -2   3   0   36.64    2.96
   2   3   0   26.64    2.95
   2   3   0   26.38    3.29
  -3  -3   0   69.27    6.00
  -3  -3   0   71.30    5.20
   3  -3   0   58.71    6.43
  -3  -3   0   60.82    5.15
   3  -3   0   75.13    5.48
  -3  -3   0   67.80    5.97
   3  -3   0   69.04    5.44
   3  -3   0   51.35    6.02
  -3  -3   0   64.71    6.13
  -3  -3   0   63.97    6.64
  -3   3   0   65.68    6.51
   3   3   0   54.35    6.55
   3   3   0   65.63    5.35
  -3   3   0   58.29    5.42
   3   3   0   61.10    5.30
  -3   3   0   67.44    6.10
  -3   3   0   63.83    5.52
   3   3   0   59.02    6.08
  -3   3   0   54.25    5.49
  -4  -3   0   44.34    3.35
  -4  -3   0   35.78    3.90
  -4  -3   0   29.63    3.79
   4  -3   0   40.78    3.69
  -4  -3   0   39.73    4.42
   4  -3   0   38.26    4.19
  -4   3   0   40.74    4.08
  -4   3   0   39.53    3.84
  -4   3   0   40.83    4.26
   4   3   0   33.88    3.41
   4   3   0   36.04    3.45
   4   3   0   37.22    3.40
  -4   3   0   31.43    3.59
   4   3   0   37.83    4.38
   4   3   0   36.64    3.67
  -4   3   0   39.41    3.56
  -4   3   0   39.59    3.59
  -5  -3   0   16.20    2.56
  -5  -3   0   16.69    1.78
   5  -3   0   15.18    2.19
  -5  -3   0   15.98    2.70
   5  -3   0   17.19    2.66
  -5   3   0   18.18    1.96
  -5   3   0   17.17    2.67
   5   3   0   14.45    2.06
  -5   3   0   18.44    2.80
   5   3   0   16.17    2.15
   5   3   0   17.02    2.78
  -5   3   0   12.91    2.25
   5   3   0   16.75    1.82
  -5   3   0   15.52    1.91
  -5   3   0   19.30    2.11
   6  -3   0   31.44    4.00
   6  -3   0   32.98    3.54
  -6  -3   0   31.30    4.22
  -6  -3   0   31.95    3.88
  -6  -3   0   30.26    3.27
  -6   3   0   36.13    3.71
  -6   3   0   34.03    3.53
   6   3   0   35.41    4.37
   6   3   0   36.95    3.56
   6   3   0   38.63    3.58
  -6   3   0   42.79    3.74
   6   3   0   35.39    3.45
  -6   3   0   37.63    4.18
  -6   3   0   36.88    3.75
   7  -3   0   88.51    8.86
  -7  -3   0  100.09    7.66
   7  -3   0   87.50    7.86
  -7  -3   0   83.28    9.32
  -7  -3   0   91.47    8.72
   7   3   0   94.78    9.47
   7   3   0   84.88    7.78
  -7   3   0   88.14    8.67
   7   3   0   87.05    7.85
  -7   3   0   87.48    7.91
   7   3   0   80.19    7.70
  -7   3   0   82.90    7.95
  -7   3   0   72.89    8.66
   8  -3   0   35.11    3.75
  -8  -3   0   37.15    4.36
  -8  -3   0   30.99    3.15
  -8  -3   0   28.42    4.25
   8  -3   0   29.81    3.45
   8   3   0   24.97    3.44
  -8   3   0   25.21    4.16
  -8   3   0   22.52    3.50
   8   3   0   31.58    3.30
  -8   3   0   29.98    3.43
  -8   3   0   29.29    3.43
   8   3   0   24.35    3.62
   9  -3   0   47.73    5.59
   9  -3   0   54.35    6.06
  -9  -3   0   58.57    6.76
  -9  -3   0   42.94    6.06
   9   3   0   55.31    5.57
  -9   3   0   66.86    6.11
  -9   3   0   63.58    5.92
  -9   3   0   52.71    6.41
  10  -3   0    6.21    1.82
 -10  -3   0    4.37    1.92
 -10  -3   0    2.84    1.64
 -10   3   0    9.65    2.83
  10   3   0    6.99    1.70
 -10   3   0    8.37    2.12
 -11  -3   0   43.34    5.28
 -11  -3   0   25.08    4.88
 -11   3   0   32.36    5.45
  11   3   0   32.05    4.41
 -12  -3   0    2.55    1.72
 -12   3   0    0.99    1.49
  12   3   0    2.58    1.56
 -13  -3   0    1.45    1.67
 -13   3   0    5.14    2.39
   0  -4   0  232.32   21.72
   0  -4   0  243.49   19.92
   0   4   0  214.17   21.82
   0   4   0  230.76   19.91
   0   4   0  224.28   21.67
   1  -4   0   96.55    9.42
  -1  -4   0   94.10    9.27
  -1   4   0   97.49    7.69
  -1   4   0   94.21    9.42
   1   4   0  101.80    8.29
   1   4   0   88.04    9.26
   1   4   0   95.05    9.44
  -1   4   0   87.68    9.23
   2  -4   0  142.06   11.74
  -2  -4   0  162.82   12.88
   2  -4   0  128.42   13.09
  -2  -4   0  145.43   13.93
   2  -4   0  141.14   14.16
  -2  -4   0  152.07   14.40
  -2  -4   0  157.61   12.92
  -2   4   0  128.07   11.88
   2   4   0  133.90   13.93
  -2   4   0  156.16   14.23
  -2   4   0  159.34   11.95
   2   4   0  152.41   14.47
   3  -4   0  160.89   13.34
   3  -4   0  167.88   12.02
  -3  -4   0  155.94   14.60
   3  -4   0  150.30   14.31
  -3  -4   0  161.94   13.96
  -3  -4   0  153.77   13.13
  -3  -4   0  174.77   13.15
   3   4   0  135.84   11.91
   3   4   0  147.58   14.50
  -3   4   0  127.60   14.17
  -3   4   0  140.68   12.26
  -3   4   0  128.76   12.01
  -3   4   0  152.58   12.16
   3   4   0  138.06   13.88
   3   4   0  136.38   11.84
  -3   4   0  125.97   13.20
  -4  -4   0   65.21    6.82
  -4  -4   0   74.78    6.92
   4  -4   0   69.93    6.25
  -4  -4   0   62.57    7.66
   4  -4   0   65.41    7.49
  -4   4   0   77.10    6.41
  -4   4   0   72.73    6.44
   4   4   0   74.87    6.24
  -4   4   0   83.64    7.18
   4   4   0   74.59    7.04
  -4   4   0   76.69    6.38
   4   4   0   75.25    6.16
   4   4   0   72.27    7.72
   4   4   0   73.37    6.19
   5  -4   0   46.91    4.20
  -5  -4   0   47.47    5.29
  -5  -4   0   52.49    3.88
  -5  -4   0   44.53    4.68
  -5  -4   0   55.50    4.72
   5  -4   0   48.45    5.10
  -5   4   0   48.02    4.82
  -5   4   0   38.26    4.18
   5   4   0   44.63    4.05
  -5   4   0   40.26    4.39
  -5   4   0   41.72    4.22
   5   4   0   36.91    4.02
  -5   4   0   44.21    4.29
   5   4   0   42.80    3.99
   5   4   0   45.03    5.21
   5   4   0   39.70    4.30
   6  -4   0   10.32    2.22
  -6  -4   0   14.01    1.67
  -6  -4   0    9.30    2.27
  -6  -4   0   11.65    2.14
  -6   4   0   11.89    2.10
   6   4   0   14.26    2.03
  -6   4   0   11.85    2.46
  -6   4   0   12.36    2.06
   6   4   0   10.51    1.62
  -6   4   0   11.99    1.91
  -6   4   0   10.40    1.45
   6   4   0   11.17    1.75
   6   4   0   14.39    2.78
  -7  -4   0    0.83    0.86
   7  -4   0    0.54    0.90
   7  -4   0    0.57    0.70
  -7  -4   0    0.79    1.04
  -7  -4   0    0.25    0.48
   7   4   0    0.55    0.56
  -7   4   0    0.39    0.44
  -7   4   0    0.19    0.54
   7   4   0    1.18    0.70
  -7   4   0    0.02    0.55
  -7   4   0   -0.17    0.56
  -7   4   0    0.55    1.01
   7   4   0    0.30    0.58
   8  -4   0    0.37    0.86
   8  -4   0    2.58    1.09
  -8  -4   0    0.13    0.54
  -8  -4   0    0.29    1.03
  -8  -4   0    1.22    1.10
  -8   4   0   -0.22    0.88
   8   4   0    1.20    0.74
   8   4   0    0.13    0.68
  -8   4   0    0.48    0.74
  -8   4   0    1.29    0.69
   8   4   0    0.44    0.73
  -8   4   0    1.94    1.25
  -8   4   0    0.33    0.73
   9  -4   0   16.66    2.87
  -9  -4   0   12.81    2.91
  -9  -4   0    7.65    2.21
   9   4   0   10.29    2.30
  -9   4   0    9.21    2.72
  -9   4   0   10.30    1.77
  -9   4   0    9.79    2.12
 -10  -4   0   14.56    3.30
  10  -4   0   17.42    3.10
 -10  -4   0   12.16    2.81
  10   4   0   10.96    2.33
 -10   4   0   11.05    3.02
 -10   4   0   12.52    2.47
 -11  -4   0    0.60    1.52
 -11  -4   0    0.11    1.24
  11   4   0    0.49    0.95
 -11   4   0    1.10    1.40
 -12  -4   0    7.76    2.47
  12   4   0    3.18    1.64
 -12   4   0    4.48    2.32
 -13  -4   0   -0.01    1.30
 -13   4   0    2.33    2.01
  13   4   0    2.74    1.78
   0  -5   0   -0.31    0.51
   0   5   0   -0.12    0.18
   0   5   0    0.21    0.54
   0   5   0   -0.20    0.63
  -1  -5   0   10.83    1.91
   1  -5   0    8.03    1.84
   1  -5   0    8.08    1.05
  -1   5   0    7.95    1.89
  -1   5   0    9.48    1.10
  -1   5   0    9.77    1.55
   1   5   0    9.79    1.81
  -1   5   0    9.35    0.97
   1   5   0    6.05    1.53
  -2  -5   0   53.80    4.48
  -2  -5   0   42.77    5.41
  -2  -5   0   47.15    4.43
   2  -5   0   46.15    5.42
   2  -5   0   47.88    4.71
  -2  -5   0   41.00    5.11
   2   5   0   55.55    5.60
   2   5   0   57.00    5.28
  -2   5   0   49.81    4.29
  -2   5   0   53.10    4.73
  -2   5   0   49.07    5.04
  -2   5   0   49.37    4.27
  -3  -5   0   46.16    4.26
   3  -5   0   44.37    4.47
  -3  -5   0   47.34    5.23
  -3  -5   0   45.50    4.71
  -3  -5   0   40.37    4.21
   3  -5   0   47.71    5.15
  -3   5   0   47.27    3.99
   3   5   0   42.77    3.76
   3   5   0   43.17    3.84
   3   5   0   48.11    5.17
  -3   5   0   46.49    4.12
   3   5   0   51.55    4.83
  -3   5   0   36.04    4.41
  -3   5   0   46.54    4.06
   4  -5   0  123.24   11.36
  -4  -5   0  116.72   11.45
  -4  -5   0  114.55   10.14
   4  -5   0  135.76    9.33
   4  -5   0  115.96   10.40
  -4  -5   0  104.42   10.06
  -4  -5   0  106.77   10.71
  -4   5   0  122.42    9.40
   4   5   0  108.65   10.63
   4   5   0   99.48    9.14
   4   5   0   95.60    9.06
  -4   5   0  110.69    9.44
  -4   5   0  112.09    9.43
   4   5   0  117.47   11.40
  -4   5   0   89.39   10.22
   5  -5   0   79.50    7.47
  -5  -5   0   65.63    6.55
  -5  -5   0   64.34    6.54
   5  -5   0   71.31    5.95
  -5  -5   0   71.52    7.54
   5   5   0   76.62    7.62
  -5   5   0   63.07    6.78
   5   5   0   63.64    5.92
   5   5   0   63.81    5.81
  -5   5   0   66.46    6.16
  -5   5   0   70.70    6.12
   5   5   0   73.58    6.65
  -5   5   0   61.93    6.60
  -5   5   0   69.53    6.09
   5   5   0   62.09    5.84
  -6  -5   0   72.28    7.67
   6  -5   0   81.99    8.40
   6  -5   0   90.86    7.09
  -6  -5   0   77.37    7.73
  -6  -5   0   85.77    8.78
  -6   5   0   82.26    7.17
  -6   5   0   76.48    7.22
  -6   5   0   83.97    7.66
   6   5   0   82.87    6.97
  -6   5   0   79.28    7.22
  -6   5   0   71.75    7.92
   6   5   0   62.65    6.84
   6   5   0   72.71    6.94
   6   5   0   81.91    7.55
   7  -5   0   14.34    2.70
  -7  -5   0   15.13    3.08
  -7  -5   0    7.37    1.99
   7  -5   0   14.41    2.19
   7   5   0   11.43    1.72
  -7   5   0   12.72    1.46
  -7   5   0    6.95    2.20
   7   5   0   10.11    1.76
  -7   5   0   10.81    2.09
   7   5   0   10.63    1.97
  -7   5   0    8.29    1.92
  -7   5   0   16.85    2.31
   8  -5   0   31.03    3.91
  -8  -5   0   33.49    5.05
  -8  -5   0   25.57    4.10
  -8   5   0   23.85    3.82
  -8   5   0   24.74    4.31
   8   5   0   26.67    3.63
   8   5   0   29.44    3.21
  -8   5   0   27.76    3.32
  -8   5   0   28.53    3.03
   9  -5   0   18.04    3.24
  -9  -5   0   12.15    2.60
  -9  -5   0   16.44    3.49
  -9   5   0    7.77    2.70
   9   5   0   10.18    2.08
  -9   5   0   19.08    3.26
 -10  -5   0   10.48    2.70
 -10  -5   0   14.21    3.56
  10  -5   0   21.20    3.65
  10   5   0   14.96    2.71
 -10   5   0   15.10    3.40
 -10   5   0   16.01    2.96
  11  -5   0    6.89    2.24
 -11  -5   0    2.07    1.55
  11   5   0    4.01    1.47
 -11   5   0    3.58    2.11
 -12  -5   0    2.99    1.82
 -12   5   0    1.75    1.95
  12   5   0    1.83    1.49
   0  -6   0  180.98   17.94
   0   6   0  183.76   16.14
   0   6   0  192.90   18.06
   1  -6   0   26.28    2.65
   1  -6   0   27.19    3.49
  -1  -6   0   33.02    3.57
  -1   6   0   26.37    2.67
   1   6   0   28.45    3.51
  -1   6   0   28.43    3.25
  -2  -6   0  193.77   19.36
   2  -6   0  214.08   19.73
  -2   6   0  207.07   19.43
  -2   6   0  198.94   16.39
  -2   6   0  199.42   17.95
   2   6   0  204.67   19.43
  -2   6   0  204.58   16.43
   3  -6   0   28.61    3.55
   3  -6   0   29.68    4.18
  -3  -6   0   33.75    3.32
  -3  -6   0   36.89    4.01
  -3  -6   0   38.17    3.38
  -3   6   0   37.56    3.20
   3   6   0   34.77    3.95
  -3   6   0   34.79    3.37
  -3   6   0   35.73    3.74
  -3   6   0   36.82    3.34
   3   6   0   39.73    4.45
  -3   6   0   34.10    3.63
  -4  -6   0  106.46   11.11
   4  -6   0  103.26   11.56
   4  -6   0  126.76   10.69
  -4  -6   0   87.65   11.71
  -4  -6   0  131.66   10.46
  -4  -6   0  107.25   10.34
  -4   6   0  121.32    9.73
   4   6   0  120.24   11.18
   4   6   0  119.23   11.88
  -4   6   0  114.07    9.79
  -4   6   0  116.27   10.69
   4   6   0  125.02    9.51
   4   6   0  111.38    9.39
  -4   6   0  108.02    9.74
  -5  -6   0    1.03    0.70
  -5  -6   0   -0.47    0.83
  -5  -6   0    2.16    0.90
   5  -6   0   -0.09    0.83
   5  -6   0    1.03    0.59
   5   6   0    0.69    0.54
  -5   6   0    1.71    0.79
  -5   6   0    1.24    0.66
   5   6   0    0.37    0.48
   5   6   0    1.06    0.69
  -5   6   0    2.46    1.01
  -5   6   0    1.12    0.74
  -6  -6   0    9.09    1.78
   6  -6   0    9.01    1.51
  -6  -6   0    7.90    1.75
  -6  -6   0   11.54    2.57
   6  -6   0   16.37    2.93
  -6   6   0    5.06    1.40
  -6   6   0    8.92    1.67
  -6   6   0    9.92    1.66
   6   6   0    7.36    1.40
   6   6   0    7.34    1.22
  -6   6   0    8.89    1.11
   6   6   0    8.28    1.49
   6   6   0    6.46    1.34
  -6   6   0    4.01    1.54
  -7  -6   0   23.51    3.33
   7  -6   0   17.36    3.67
  -7  -6   0   20.19    3.98
   7   6   0   21.59    2.88
   7   6   0   19.98    2.36
  -7   6   0   18.36    2.81
   7   6   0   20.32    2.70
  -7   6   0   20.76    3.31
  -7   6   0   21.60    3.65
   8  -6   0    3.57    1.69
  -8  -6   0    3.95    1.50
  -8  -6   0    6.08    2.15
   8   6   0    4.36    1.17
  -8   6   0    2.95    1.37
  -8   6   0    4.46    1.42
   8   6   0    3.19    1.23
  -8   6   0    6.91    2.14
  -9  -6   0    3.88    1.55
   9  -6   0    2.10    1.59
  -9  -6   0    4.31    2.01
  -9   6   0    3.88    1.42
  -9   6   0   -0.16    1.10
   9   6   0    1.43    0.98
  10  -6   0   16.89    3.47
 -10  -6   0    6.52    2.11
  10   6   0    9.18    2.16
 -10   6   0   14.04    3.42
 -10   6   0   11.96    2.41
 -11  -6   0    2.15    1.52
  11  -6   0    4.90    2.13
 -11   6   0   -0.02    1.48
  11   6   0    1.78    1.26
 -12  -6   0    0.41    1.45
 -12   6   0    1.07    1.69
  12   6   0   -0.05    1.22
   0  -7   0    0.53    0.82
   0   7   0   -0.43    0.49
  -1  -7   0   16.69    2.76
   1  -7   0   18.26    3.15
   1  -7   0   11.06    1.32
  -1   7   0   12.36    1.41
   1   7   0   14.49    2.60
  -1   7   0   15.40    2.33
   2  -7   0   18.61    2.22
  -2  -7   0   22.94    3.42
   2  -7   0   19.03    3.47
   2   7   0   23.18    3.56
  -2   7   0   19.34    2.10
  -2   7   0   22.92    2.11
  -2   7   0   21.27    2.30
  -2   7   0   21.39    2.65
   3  -7   0   24.78    2.90
  -3  -7   0   23.35    2.43
  -3  -7   0   26.78    2.49
   3  -7   0   30.18    3.84
  -3  -7   0   24.95    3.32
   3   7   0   23.88    3.90
  -3   7   0   29.73    3.10
  -3   7   0   28.71    2.46
  -3   7   0   29.72    2.77
  -3   7   0   27.32    2.67
  -3   7   0   25.16    2.92
   4  -7   0    6.75    1.44
  -4  -7   0    5.95    1.52
  -4  -7   0    5.68    1.04
   4  -7   0    6.82    2.05
  -4  -7   0    4.97    0.95
   4   7   0    5.55    0.88
  -4   7   0    5.43    1.16
  -4   7   0    6.36    1.16
   4   7   0    5.58    0.97
  -4   7   0    4.29    1.26
  -4   7   0    5.36    0.99
  -4   7   0    4.27    1.10
  -5  -7   0   32.12    3.39
   5  -7   0   39.38    5.47
  -5  -7   0   25.46    3.24
  -5   7   0   34.09    3.37
  -5   7   0   33.57    3.42
   5   7   0   29.48    3.06
   5   7   0   30.25    2.99
  -5   7   0   36.02    3.30
  -5   7   0   31.49    3.30
   5   7   0   31.83    3.68
  -5   7   0   28.96    3.64
   6  -7   0   47.01    5.85
  -6  -7   0   46.99    4.96
   6   7   0   48.87    4.31
  -6   7   0   38.07    5.14
  -6   7   0   50.30    4.70
  -6   7   0   50.52    4.65
  -6   7   0   51.13    4.95
   6   7   0   42.45    4.37
  -6   7   0   46.22    4.69
   6   7   0   51.82    4.55
  -6   7   0   43.21    4.73
   7  -7   0   37.78    4.96
  -7  -7   0   34.64    4.20
  -7   7   0   42.65    4.10
   7   7   0   38.48    3.87
   7   7   0   35.08    3.60
  -7   7   0   36.60    4.13
  -7   7   0   30.63    4.81
   7   7   0   35.23    3.72
   8  -7   0   33.58    5.00
  -8  -7   0   19.30    3.54
  -8   7   0   32.42    3.50
   8   7   0   28.50    3.18
  -8   7   0   24.26    3.62
   8   7   0   28.16    3.01
  -8   7   0   18.39    3.84
  -9  -7   0   15.79    3.09
   9  -7   0   22.07    4.10
  -9   7   0   24.46    3.46
  -9   7   0   18.34    3.84
   9   7   0   17.73    2.95
  10  -7   0    3.81    2.17
 -10  -7   0    3.32    1.62
 -10   7   0    4.61    2.18
 -10   7   0    3.64    1.51
  10   7   0    3.42    1.55
  11  -7   0    1.72    1.90
 -11  -7   0    2.62    1.40
  11   7   0    4.27    1.65
   0  -8   0   17.42    3.34
   0   8   0   24.36    3.69
   1  -8   0   94.18   11.24
  -1  -8   0   99.13   11.17
  -1   8   0  115.81   11.16
  -1   8   0  114.14    9.70
   1   8   0  116.68   11.46
   2  -8   0   38.99    3.96
  -2  -8   0   49.21    5.18
   2  -8   0   35.97    5.05
  -2   8   0   40.80    4.08
  -2   8   0   39.08    3.76
  -2   8   0   45.10    3.80
   2   8   0   44.77    5.18
  -2   8   0   40.72    4.68
   3  -8   0   54.19    6.23
  -3  -8   0   45.44    5.65
  -3   8   0   52.51    5.42
  -3   8   0   47.38    5.01
  -3   8   0   54.64    4.65
  -3   8   0   49.29    4.63
  -3   8   0   50.49    4.38
   4  -8   0   13.00    3.00
  -4  -8   0   17.05    2.75
  -4  -8   0    9.98    1.30
  -4  -8   0   13.75    1.38
   4   8   0   13.56    1.51
  -4   8   0   10.90    1.56
  -4   8   0   11.92    1.89
  -4   8   0    9.65    2.01
   4   8   0   12.42    1.34
  -4   8   0   16.30    2.34
  -4   8   0   13.43    1.97
   5  -8   0    3.94    1.76
  -5  -8   0    7.05    1.27
   5   8   0    6.67    1.28
  -5   8   0    7.04    1.47
  -5   8   0    5.94    1.17
   5   8   0    6.11    1.06
  -5   8   0    7.01    1.68
  -5   8   0    5.40    1.40
  -5   8   0    7.49    1.39
   6  -8   0   15.31    3.26
  -6  -8   0   12.36    1.97
   6   8   0   11.09    1.86
  -6   8   0    9.87    1.99
  -6   8   0   11.06    1.81
  -6   8   0   12.05    2.58
   6   8   0   12.40    1.81
   7  -8   0    8.13    2.50
  -7  -8   0    6.39    1.54
  -7   8   0    6.96    2.04
  -7   8   0    6.78    1.94
   7   8   0    4.07    1.07
   7   8   0    7.45    1.50
  -7   8   0    7.75    1.81
   8  -8   0    4.38    2.18
  -8  -8   0    4.08    1.42
   8   8   0    5.78    1.44
   8   8   0    5.07    1.24
  -8   8   0    4.90    1.46
  -8   8   0    6.01    1.71
  -9  -8   0    5.69    1.73
   9  -8   0    6.77    2.48
   9   8   0    3.49    1.29
  -9   8   0    3.60    1.49
 -10  -8   0    1.15    1.16
  10  -8   0    1.90    1.93
  10   8   0    2.88    1.26
 -10   8   0    0.85    1.23
 -11  -8   0    3.73    1.74
  11  -8   0    8.66    3.07
  11   8   0    4.68    1.77
 -11   8   0    4.30    1.83
   0  -9   0    0.01    0.92
   0   9   0   -0.05    0.80
   1  -9   0    4.09    1.75
  -1  -9   0    1.98    1.41
  -1   9   0    2.24    1.22
  -1   9   0    2.10    0.64
   1   9   0    1.49    1.18
   2  -9   0    4.47    2.03
   2  -9   0    2.30    0.62
  -2  -9   0    6.17    1.89
  -2   9   0    3.39    0.82
  -2   9   0    2.77    0.79
  -2   9   0    2.80    1.19
  -3  -9   0   17.90    3.29
   3  -9   0   17.36    3.64
  -3   9   0   13.09    2.06
  -3   9   0   12.27    2.44
  -3   9   0   14.98    2.07
   4  -9   0   11.48    2.88
  -4  -9   0   13.01    2.66
  -4   9   0   10.33    1.81
  -4   9   0   10.00    1.46
  -4   9   0   10.25    1.83
  -4   9   0   10.30    2.02
   5  -9   0   13.37    3.28
  -5   9   0   13.01    2.18
   5   9   0    7.85    1.34
  -5   9   0    9.91    1.57
   5   9   0    9.99    1.54
   6  -9   0   13.97    3.54
  -6  -9   0   11.38    1.76
  -6   9   0   13.66    2.14
   6   9   0   12.76    1.86
   6   9   0   14.28    2.04
  -6   9   0   10.11    2.18
   7  -9   0   41.51    6.11
  -7  -9   0   26.10    3.34
  -7   9   0   36.25    3.64
   7   9   0   30.23    3.22
   7   9   0   29.17    3.06
  -7   9   0   27.31    4.08
   8  -9   0   11.16    3.30
  -8  -9   0    7.36    1.87
  -8   9   0   11.33    2.40
   8   9   0   13.10    2.02
  -8   9   0   13.81    2.40
   8   9   0   10.60    2.09
   9  -9   0   14.08    3.80
  -9  -9   0    7.56    1.99
  -9   9   0   15.54    2.95
   9   9   0    7.67    1.94
 -10  -9   0    3.51    1.37
  10  -9   0    1.36    2.03
 -10   9   0    2.39    1.48
  10   9   0    1.95    1.13
   0 -10   0   70.12    8.14
   1 -10   0   41.53    5.48
  -1 -10   0   42.00    5.39
  -1  10   0   41.49    5.04
  -1  10   0   39.24    3.65
  -2 -10   0   39.18    5.32
   2 -10   0   43.52    5.76
  -2  10   0   41.19    5.03
  -2  10   0   42.50    4.00
  -2  10   0   43.86    3.98
   3 -10   0   10.09    2.98
  -3 -10   0    9.45    2.55
  -3  10   0    5.01    1.31
  -3  10   0   10.96    1.76
   4 -10   0    7.68    2.67
  -4 -10   0   12.18    2.74
  -4  10   0    9.80    1.95
  -4  10   0    9.77    1.89
  -4  10   0    9.14    1.42
   5 -10   0    5.48    2.55
   5  10   0    6.49    1.18
  -5  10   0    3.30    1.23
   5  10   0    3.68    0.90
  -5  10   0    4.86    1.16
   6 -10   0    1.41    1.78
  -6  10   0    1.97    0.96
   6  10   0    2.83    0.91
   6  10   0    1.44    0.74
  -6  10   0    4.36    1.50
  -7 -10   0    2.43    0.87
   7 -10   0    1.44    1.81
   7  10   0    3.19    1.05
  -7  10   0    1.95    1.19
  -7  10   0    0.82    0.88
   7  10   0    2.48    0.77
  -8 -10   0    0.25    0.81
   8 -10   0   -0.67    1.83
  -8  10   0    2.37    1.33
   8  10   0    1.55    0.73
   8  10   0    0.33    0.77
  -8  10   0    0.58    0.93
  -9 -10   0    0.14    0.85
   9 -10   0   -0.05    1.72
  -9  10   0    0.80    1.27
   9  10   0   -0.45    0.74
   0 -11   0   -0.50    1.13
   1 -11   0    4.05    2.17
  -1 -11   0    2.50    1.62
  -1  11   0    1.19    0.59
  -2 -11   0   18.07    3.78
   2 -11   0   16.54    3.87
  -2  11   0   18.31    2.26
  -2  11   0   13.10    2.05
  -3 -11   0    7.30    2.37
   3 -11   0    5.18    2.35
  -3  11   0    4.85    1.25
  -3  11   0    7.97    1.55
   4 -11   0   22.24    4.71
  -4 -11   0   36.85    5.35
  -4  11   0   22.95    3.33
  -4  11   0   27.01    2.75
   5 -11   0    6.42    2.75
  -5  11   0    5.64    1.57
   5  11   0    4.89    1.02
   5  11   0    5.59    1.26
  -5  11   0    5.31    1.24
   6 -11   0   22.04    4.68
   6  11   0   17.57    2.41
  -6  11   0   19.82    2.82
  -6  11   0   23.93    3.42
   7 -11   0    2.28    1.99
   7  11   0    1.90    0.74
   7  11   0    1.53    0.81
  -7  11   0    2.37    1.24
  -7  11   0    3.14    1.45
   8 -11   0    7.78    3.14
   8  11   0    6.32    1.60
  -8  11   0    5.65    1.88
   8  11   0    5.98    1.35
  -8  11   0    7.35    2.12
   0 -12   0   27.67    5.41
   1 -12   0   12.19    3.44
  -1 -12   0   15.08    3.77
   2 -12   0   12.53    3.76
  -2 -12   0    8.50    2.92
  -2  12   0    9.63    1.70
  -2  12   0    8.62    1.56
   3 -12   0    9.06    3.17
  -3 -12   0   11.25    3.03
  -3  12   0    6.74    1.47
   4 -12   0    8.39    3.04
  -4 -12   0   10.32    3.23
  -4  12   0   12.32    2.13
  -4  12   0   11.73    1.78
   5 -12   0    1.94    1.96
  -5  12   0    4.87    1.43
  -5  12   0    4.44    1.24
   6 -12   0    3.59    2.48
  -6  12   0    3.57    1.31
  -6  12   0    1.99    1.02
   6  12   0    3.14    1.01
   7 -12   0   -0.25    1.79
  -7  12   0    0.70    1.07
  -7  12   0    0.91    1.09
   7  12   0    0.56    0.71
   0 -13   0   -0.92    1.54
   1 -13   0   -0.22    1.41
  -1 -13   0   -0.92    1.37
   2 -13   0    0.07    1.78
  -2 -13   0    0.14    1.63
  -2  13   0    1.48    0.72
   3 -13   0    4.17    2.77
  -3 -13   0    4.19    2.42
  -3  13   0    4.43    1.26
   4 -13   0    0.41    1.80
  -4  13   0    0.67    0.68
  -4  13   0    1.24    1.02
   5 -13   0    6.46    3.10
  -5  13   0    7.57    1.58
  -5  13   0    5.35    1.69
   0 -14   0    6.06    2.82
  -1 -14   0   11.74    3.82
   1 -14   0   17.04    4.61
  -2 -14   0    3.42    2.47
   2 -14   0    1.72    2.19
  -2  14   0    1.44    0.79
   3 -14   0    3.05    2.43
  -3 -14   0    6.68    3.22
  -3  14   0    3.38    1.00
  -3  14   0    3.03    1.07
 -13   0   1    2.09    1.97
 -12   0   1    9.87    2.57
 -12   0   1    4.38    2.27
 -11   0   1    3.96    1.70
 -11   0   1    3.45    1.80
  11   0  -1    3.11    1.38
  10   0  -1    3.21    1.52
 -10   0   1    1.18    1.24
 -10   0   1    5.21    1.64
  -9   0   1    3.24    1.10
   9   0  -1    2.94    0.86
   9   0  -1    1.03    0.86
   9   0  -1    0.28    1.08
  -9   0   1    3.08    1.34
  -9   0   1    1.39    1.25
  -8   0   1    2.03    0.94
   8   0  -1    2.58    1.00
   8   0  -1    3.36    1.14
   8   0  -1    1.21    1.20
   8   0  -1    2.55    0.82
  -8   0   1    3.53    1.59
   8   0  -1    1.14    0.79
  -8   0   1    2.00    1.15
  -7   0   1    0.90    0.95
   7   0  -1    1.23    0.65
  -7   0   1    1.34    0.85
   7   0  -1    0.34    0.57
   7   0  -1    0.52    0.64
  -7   0   1    1.00    0.60
   7   0  -1    1.14    0.73
   7   0  -1    1.26    0.98
  -7   0   1    0.21    0.54
  -6   0   1    8.94    1.52
   6   0  -1    4.23    0.99
  -6   0   1    8.06    1.61
  -6   0   1    8.28    1.73
   6   0  -1    6.38    1.18
  -6   0   1    5.03    1.02
   6   0  -1    3.97    1.11
   6   0  -1    4.34    1.13
   6   0  -1    6.93    1.73
  -5   0   1   22.83    2.69
   5   0  -1   20.15    2.27
   5   0  -1   21.02    2.25
  -5   0   1   20.15    2.19
   5   0  -1   22.25    2.30
  -5   0   1   17.14    2.10
  -5   0   1   16.60    2.50
   5   0  -1   15.84    2.29
   5   0  -1   21.47    2.79
  -5   0   1   22.00    2.71
   4   0  -1   28.18    2.53
  -4   0   1   21.83    2.81
   4   0  -1   25.13    2.62
   4   0  -1   26.51    3.12
  -4   0   1   24.87    2.40
  -4   0   1   25.44    2.51
  -4   0   1   30.23    2.98
   4   0  -1   17.57    2.35
   4   0  -1   23.50    2.55
  -3   0   1   68.65    7.31
  -3   0   1   79.13    6.24
  -3   0   1   61.87    6.16
   3   0  -1   76.42    6.24
  -3   0   1   71.23    6.91
   3   0  -1   87.44    6.31
  -3   0   1   65.93    6.26
   3   0  -1   79.70    7.47
   3   0  -1   76.06    7.06
  -2   0   1  255.19   20.64
   2   0  -1  251.78   24.38
  -2   0   1  271.75   22.62
   2   0  -1  282.25   20.68
   2   0  -1  278.03   22.60
  -2   0   1  241.19   20.61
  -2   0   1  264.40   21.17
  -2   0   1  221.63   24.32
   1   0  -1   22.29    2.26
  -1   0   1   21.35    2.05
  -1   0   1   23.07    2.04
  -1   0   1   27.64    2.31
   1   0  -1   21.74    2.06
  -1   0   1   24.69    2.08
  -1   0   1   16.08    2.53
   1   0  -1   22.33    2.04
   0   0  -1  267.89   21.60
   0   0  -1  269.05   22.20
   0   0  -1  292.81   23.64
   0   0  -1  232.51   21.58
   0   0   1  280.96   23.63
   0   0   1  291.42   22.20
   1   0   1   25.70    2.33
  -1   0  -1   22.97    2.05
   1   0   1   23.54    2.24
   1   0   1   23.37    2.06
  -1   0  -1   21.40    2.02
   1   0   1   21.78    2.02
  -1   0  -1   23.77    2.24
  -1   0  -1   21.78    2.00
  -1   0  -1   22.25    2.29
  -2   0  -1  507.19   39.54
  -2   0  -1  462.68   36.11
   2   0   1  423.40   42.44
  -2   0  -1  521.32   39.62
  -2   0  -1  428.95   37.10
   2   0   1  410.00   36.14
  -2   0  -1  437.14   41.75
   2   0   1  406.67   37.09
   2   0   1  453.85   36.13
  -2   0  -1  470.60   36.15
   2   0   1  512.55   39.53
   2   0   1  421.69   39.54
   3   0   1  324.42   25.59
  -3   0  -1  303.83   26.24
   3   0   1  306.20   30.03
   3   0   1  321.80   25.60
  -3   0  -1  305.26   29.42
  -3   0  -1  346.32   25.64
   3   0   1  316.84   26.28
  -3   0  -1  313.67   30.02
   3   0   1  359.13   28.18
  -3   0  -1  301.22   25.55
  -4   0  -1   19.88    2.07
  -4   0  -1   25.94    2.75
   4   0   1   17.91    2.08
  -4   0  -1   24.71    2.32
   4   0   1   19.41    2.18
  -4   0  -1   17.30    2.32
   4   0   1   20.73    2.44
  -4   0  -1   19.08    2.08
   4   0   1   22.42    2.18
  -4   0  -1   18.36    2.11
  -5   0  -1   55.61    4.85
   5   0   1   48.57    4.86
  -5   0  -1   53.67    5.57
  -5   0  -1   60.67    5.02
  -5   0  -1   55.57    5.48
   5   0   1   53.00    5.60
  -5   0  -1   51.20    4.85
   5   0   1   54.10    4.91
   5   0   1   49.90    4.84
  -5   0  -1   52.57    5.17
   6   0   1   29.99    3.16
  -6   0  -1   30.87    3.07
  -6   0  -1   31.95    3.22
   6   0   1   29.54    3.16
   6   0   1   28.43    3.51
  -6   0  -1   32.07    3.64
   6   0   1   24.96    2.98
  -6   0  -1   30.28    3.48
  -6   0  -1   29.88    3.06
   7   0   1   90.99    7.54
  -7   0  -1   90.64    8.48
  -7   0  -1   79.97    7.42
  -7   0  -1   83.75    7.57
   7   0   1   83.29    7.51
  -7   0  -1   80.53    8.51
   7   0   1   71.34    7.42
   7   0   1   83.07    8.62
   8   0   1    1.13    0.87
  -8   0  -1    0.32    0.74
  -8   0  -1    0.35    0.96
   8   0   1    0.05    0.66
   8   0   1    0.11    0.57
   8   0   1    0.48    0.93
  -8   0  -1    0.64    0.74
   9   0   1    1.06    1.09
  -9   0  -1    0.88    0.96
  -9   0  -1    0.82    0.94
  -9   0  -1    0.13    0.83
   9   0   1   -0.31    0.73
  10   0   1    4.95    2.01
  10   0   1    4.66    1.53
 -10   0  -1    0.72    1.10
 -11   0  -1    0.87    1.49
 -12   0  -1    9.41    2.98
 -13   0  -1    1.23    1.89
 -13  -1   1   -0.39    1.22
 -13   1   1    1.19    1.60
 -12  -1   1   13.78    3.31
 -12  -1   1   11.35    3.05
 -12   1   1   12.75    3.47
 -11  -1   1    5.23    2.12
 -11  -1   1    7.51    2.16
 -11   1   1    6.06    1.91
  11   1  -1    2.41    1.49
 -11   1   1    3.69    1.93
  10  -1  -1   22.38    3.58
 -10  -1   1   16.28    3.56
  10  -1  -1   22.55    2.89
  10  -1  -1   24.51    5.16
 -10  -1   1   23.11    3.88
 -10   1   1   15.97    3.54
 -10   1   1   25.17    3.73
  10   1  -1   23.16    3.53
  -9  -1   1   10.54    2.06
   9  -1  -1   11.66    1.88
   9  -1  -1    5.61    2.53
  -9  -1   1    8.56    2.22
   9  -1  -1   11.15    2.23
  -9  -1   1    6.35    2.07
   9   1  -1    9.70    2.17
  -9   1   1    8.05    2.33
  -9   1   1    8.92    1.91
  -9   1   1   13.16    2.44
   8  -1  -1   48.20    5.70
   8  -1  -1   41.02    4.43
   8  -1  -1   45.66    4.52
  -8  -1   1   37.42    4.15
  -8  -1   1   40.45    4.99
  -8  -1   1   43.10    5.30
   8   1  -1   41.26    5.27
   8   1  -1   42.86    4.42
  -8   1   1   45.83    4.88
  -8   1   1   29.68    5.15
  -8   1   1   44.91    4.52
  -8   1   1   45.94    4.34
   8   1  -1   42.62    4.14
   8   1  -1   31.97    4.18
   8   1  -1   39.71    4.26
  -7  -1   1   37.04    4.76
   7  -1  -1   28.17    5.23
   7  -1  -1   46.09    4.61
   7  -1  -1   38.24    4.27
  -7  -1   1   42.57    4.20
  -7  -1   1   43.60    5.06
  -7   1   1   45.38    4.32
   7   1  -1   47.65    5.29
  -7   1   1   53.86    4.64
   7   1  -1   45.32    4.27
  -7   1   1   49.87    5.15
   7   1  -1   46.66    4.39
   7   1  -1   35.04    4.17
  -7   1   1   41.35    4.81
   6  -1  -1  109.12   10.73
   6  -1  -1  125.04   10.88
   6  -1  -1  143.18   10.94
  -6  -1   1  130.31   12.72
  -6  -1   1  121.14   11.88
  -6  -1   1  123.49   10.67
   6  -1  -1  126.63   12.16
   6  -1  -1  135.30   12.89
   6   1  -1  119.48   10.73
  -6   1   1  129.66   10.85
  -6   1   1  120.58   11.95
   6   1  -1  128.74   10.93
   6   1  -1  131.92   11.90
  -6   1   1  129.91   10.96
   6   1  -1  121.48   10.75
  -6   1   1  123.30   10.78
   6   1  -1  123.52   12.80
  -6   1   1  132.18   12.57
  -5  -1   1   50.66    5.82
   5  -1  -1   56.27    5.06
   5  -1  -1   55.61    5.56
   5  -1  -1   43.74    4.92
  -5  -1   1   61.01    5.65
   5  -1  -1   52.83    4.97
   5  -1  -1   38.89    5.84
  -5   1   1   59.72    5.09
  -5   1   1   55.17    5.64
  -5   1   1   59.22    5.05
  -5   1   1   57.62    5.76
   5   1  -1   65.07    5.08
   5   1  -1   54.75    5.00
   5   1  -1   52.72    4.97
   5   1  -1   58.27    5.33
  -5   1   1   55.66    5.00
   5   1  -1   53.90    5.94
  -4  -1   1   63.03    6.81
  -4  -1   1   72.43    7.35
   4  -1  -1   70.75    7.59
  -4  -1   1   72.73    6.16
   4  -1  -1   69.96    6.24
   4  -1  -1   77.46    7.10
  -4  -1   1   85.16    6.21
   4  -1  -1   62.16    6.19
   4  -1  -1   75.69    6.27
  -4   1   1   61.62    6.24
  -4   1   1   72.97    7.22
   4   1  -1   62.57    6.17
  -4   1   1   79.91    6.25
   4   1  -1   66.72    7.36
  -4   1   1   74.60    6.28
   4   1  -1   72.00    6.21
  -4   1   1   88.16    7.12
   4   1  -1   71.42    6.25
   3  -1  -1  218.37   16.16
   3  -1  -1  185.97   18.61
  -3  -1   1  178.65   17.61
  -3  -1   1  205.73   16.03
  -3  -1   1  203.84   16.02
   3  -1  -1  198.97   16.11
   3  -1  -1  207.73   16.45
  -3  -1   1  204.88   16.37
  -3  -1   1  200.37   19.08
  -3   1   1  210.50   16.51
   3   1  -1  210.32   16.45
   3   1  -1  166.15   16.03
   3   1  -1  198.86   19.06
  -3   1   1  189.38   18.60
  -3   1   1  219.60   16.14
  -3   1   1  195.66   17.72
   3   1  -1  199.34   16.06
  -3   1   1  183.97   16.10
  -2  -1   1   61.34    5.10
  -2  -1   1   63.14    5.66
  -2  -1   1   62.39    5.14
   2  -1  -1   52.12    5.16
   2  -1  -1   60.97    6.02
   2  -1  -1   56.16    5.17
  -2  -1   1   68.32    5.11
  -2  -1   1   68.30    6.23
   2  -1  -1   58.32    5.67
  -2  -1   1   63.49    5.13
   2  -1  -1   63.47    5.23
   2   1  -1   60.70    5.20
   2   1  -1   61.22    5.63
   2   1  -1   58.11    5.12
  -2   1   1   56.77    5.20
  -2   1   1   63.82    5.72
  -2   1   1   64.31    6.05
  -2   1   1   60.66    5.25
  -2   1   1   68.08    5.21
   2   1  -1   68.74    5.13
   2   1  -1   52.44    6.15
  -1  -1   1   23.45    1.89
   1  -1  -1   22.59    1.94
  -1  -1   1   19.61    1.64
  -1  -1   1   20.87    1.63
  -1  -1   1   20.09    2.14
   1  -1  -1   18.01    2.11
   1  -1  -1   20.30    1.72
  -1   1   1   14.89    1.69
   1   1  -1   16.75    1.65
  -1   1   1   19.24    1.92
   1   1  -1   19.42    1.84
  -1   1   1   16.64    1.69
   1   1  -1   18.64    2.13
   1   1  -1   16.73    1.63
  -1   1   1   14.80    2.06
   0  -1   1   28.02    2.47
   0  -1  -1   24.75    2.75
   0  -1   1   26.08    2.23
   0  -1  -1   24.43    2.27
   0  -1  -1   23.51    2.25
   0  -1   1   27.11    2.49
   0  -1  -1   29.28    2.54
   0   1  -1   29.10    2.75
   0   1   1   23.74    2.27
   0   1  -1   29.23    2.47
   0   1   1   28.15    2.29
   0   1  -1   27.69    2.24
   0   1  -1   27.10    2.48
   0   1   1   27.50    2.54
   1  -1   1   18.09    1.69
  -1  -1  -1   17.19    1.70
  -1  -1  -1   14.90    1.45
   1  -1   1   18.00    1.51
  -1  -1  -1   15.55    1.72
  -1  -1  -1   15.72    1.46
   1  -1   1   15.13    1.49
   1  -1   1   16.04    1.87
  -1  -1  -1   13.74    1.51
   1  -1   1   12.82    1.74
  -1   1  -1   16.35    1.85
   1   1   1   13.49    1.48
   1   1   1   20.48    1.72
  -1   1  -1   16.97    1.52
  -1   1  -1   17.24    1.54
   1   1   1   15.10    1.50
   1   1   1   14.51    1.48
  -1   1  -1   19.03    1.75
  -1   1  -1   20.22    1.72
  -1   1  -1   17.17    1.52
   1   1   1   17.35    1.76
  -2  -1  -1  112.66    8.77
   2  -1   1   97.26   10.00
   2  -1   1  126.19    9.64
  -2  -1  -1  112.36    8.59
   2  -1   1  103.41    8.83
   2  -1   1  106.82    8.67
   2  -1   1  100.39    8.62
   2  -1   1  106.12    9.97
  -2  -1  -1  106.94    9.51
   2  -1   1  110.32    9.54
   2   1   1  103.98    9.53
   2   1   1  112.36    9.48
   2   1   1   94.08    8.59
   2   1   1  100.51   10.21
  -2   1  -1  103.58    8.67
  -2   1  -1  106.07    8.66
  -2   1  -1  100.29    9.52
   2   1   1  100.38    8.80
  -2   1  -1  127.81    9.62
  -2   1  -1  105.34    8.87
  -2   1  -1   92.31    9.97
   3  -1   1   29.16    2.89
  -3  -1  -1   21.77    2.62
   3  -1   1   23.83    2.46
   3  -1   1   23.20    2.27
  -3  -1  -1   26.81    2.77
   3  -1   1   24.33    2.38
  -3  -1  -1   24.79    2.63
   3  -1   1   26.79    2.58
  -3  -1  -1   24.39    2.20
   3  -1   1   22.95    2.32
  -3  -1  -1   24.86    2.19
   3   1   1   24.29    2.67
  -3   1  -1   24.88    2.70
   3   1   1   21.46    2.29
   3   1   1   23.10    2.75
  -3   1  -1   21.85    2.51
  -3   1  -1   21.27    2.25
  -3   1  -1   19.18    2.40
   3   1   1   19.82    2.24
  -3   1  -1   22.40    2.30
  -3   1  -1   26.01    2.40
   3   1   1   21.43    2.28
  -4  -1  -1   68.35    6.80
  -4  -1  -1   74.85    6.05
   4  -1   1   67.05    6.93
  -4  -1  -1   72.72    6.14
   4  -1   1   70.66    6.17
   4  -1   1   74.62    6.18
  -4  -1  -1   76.56    6.12
   4  -1   1   74.72    6.90
  -4  -1  -1   71.08    7.15
   4  -1   1   73.08    6.15
  -4   1  -1   65.53    6.88
   4   1   1   70.96    6.17
  -4   1  -1   72.52    6.22
   4   1   1   57.52    6.72
  -4   1  -1   69.32    6.90
   4   1   1   73.22    7.19
  -4   1  -1   62.75    6.06
   4   1   1   74.20    6.12
  -4   1  -1   71.33    6.93
  -4   1  -1   64.51    6.14
   4   1   1   71.85    6.14
  -5  -1  -1   92.76    8.01
  -5  -1  -1   92.29    8.99
   5  -1   1   96.81    8.13
   5  -1   1   92.99    9.09
   5  -1   1   92.71    8.19
   5  -1   1  109.77    9.38
  -5  -1  -1   94.95    9.50
  -5  -1  -1   93.06    8.11
  -5  -1  -1   87.94    8.07
   5  -1   1   94.19    8.19
   5   1   1   96.99    8.16
   5   1   1   99.57    8.26
  -5   1  -1   98.92    9.10
   5   1   1   97.03    8.15
  -5   1  -1   79.34    8.92
   5   1   1   81.92    9.40
  -5   1  -1   94.71    8.12
  -5   1  -1   91.37    8.16
  -5   1  -1   94.94    8.22
  -5   1  -1   98.29    9.26
   6  -1   1  110.38   10.11
   6  -1   1  110.49    9.10
  -6  -1  -1  111.70   10.61
   6  -1   1  109.80    9.09
   6  -1   1  103.08    9.21
  -6  -1  -1   92.99    9.00
   6  -1   1  100.71   10.31
  -6  -1  -1   94.18    9.95
  -6   1  -1  108.33    9.06
  -6   1  -1  107.20   10.12
   6   1   1  110.49   10.68
   6   1   1  100.09    9.05
   6   1   1   93.80    9.01
  -6   1  -1  105.27   10.09
  -6   1  -1  106.55   10.33
   7  -1   1   40.55    3.75
  -7  -1  -1   29.97    4.02
  -7  -1  -1   38.67    3.68
   7  -1   1   42.19    3.82
  -7  -1  -1   37.89    4.17
   7  -1   1   35.35    4.03
   7   1   1   30.56    3.56
  -7   1  -1   33.57    3.70
  -7   1  -1   33.97    3.50
   7   1   1   36.14    4.22
  -7   1  -1   30.21    4.06
   7   1   1   28.07    3.52
   7   1   1   24.26    3.32
  -7   1  -1   40.62    3.79
  -7   1  -1   31.79    3.85
   8  -1   1   68.38    6.90
  -8  -1  -1   60.47    7.53
   8  -1   1   75.98    7.48
  -8  -1  -1   78.28    6.99
  -8  -1  -1   79.19    8.12
   8  -1   1   82.50    7.99
  -8   1  -1   76.80    7.10
   8   1   1   74.92    6.96
   8   1   1   75.78    8.15
  -8   1  -1   72.42    6.90
  -8   1  -1   74.68    7.75
   8   1   1   64.93    6.91
   8   1   1   87.49    7.07
  -8   1  -1   66.28    7.76
  -9  -1  -1   21.61    4.06
  -9  -1  -1   24.35    3.83
   9  -1   1   26.49    3.82
  -9  -1  -1   30.15    4.08
   9  -1   1   32.14    4.05
  -9   1  -1   33.52    3.84
  -9   1  -1   31.11    4.74
   9   1   1   30.05    4.07
  -9   1  -1   37.09    3.89
   9   1   1   25.64    3.67
 -10  -1  -1   23.58    4.20
  10  -1   1   26.92    4.04
  10   1   1   25.34    3.52
 -10   1  -1   21.06    4.21
 -11  -1  -1    6.92    2.35
  11   1   1    8.07    2.01
 -11   1  -1    7.20    2.47
 -12  -1  -1    5.50    2.24
 -12   1  -1    8.56    2.85
 -13  -1  -1    2.34    1.97
 -13   1  -1    3.85    2.22
 -13  -2   1    5.10    2.54
 -13   2   1    6.49    2.61
 -12  -2   1    8.62    2.58
 -12  -2   1    5.57    2.34
  12   2  -1    6.04    2.00
 -12   2   1    5.43    2.44
 -11  -2   1    3.75    1.79
 -11  -2   1    2.93    1.78
  11   2  -1    6.67    2.00
 -11   2   1    4.20    2.11
 -11   2   1    5.22    1.85
 -10  -2   1    4.49    1.79
 -10  -2   1    2.01    1.41
  10  -2  -1    7.01    1.64
  10   2  -1    3.91    1.62
 -10   2   1    3.47    1.41
 -10   2   1    3.35    1.84
   9  -2  -1    5.83    1.48
   9  -2  -1    4.16    1.45
  -9  -2   1    5.99    1.88
  -9  -2   1    1.77    1.37
  -9   2   1    6.23    1.86
   9   2  -1    4.06    1.28
  -9   2   1    3.78    1.56
  -9   2   1    6.29    1.61
   8  -2  -1    2.41    0.99
  -8  -2   1    1.97    1.19
  -8  -2   1    2.91    1.36
   8  -2  -1    2.59    1.11
  -8  -2   1    3.66    1.03
   8   2  -1    1.85    1.03
   8   2  -1    3.73    1.15
  -8   2   1    2.29    0.94
  -8   2   1    0.65    0.53
  -8   2   1    3.80    1.24
   8   2  -1    2.97    1.01
  -8   2   1    5.00    1.79
   7  -2  -1   20.63    2.99
  -7  -2   1   14.54    2.80
  -7  -2   1   27.50    4.02
  -7  -2   1   20.48    2.24
   7  -2  -1   25.84    2.80
  -7   2   1   20.58    2.84
  -7   2   1   20.62    2.37
  -7   2   1   18.88    2.52
  -7   2   1   10.16    2.60
   7   2  -1   21.69    2.37
   7   2  -1   19.25    2.58
  -7   2   1   16.49    2.77
   7   2  -1   13.66    2.48
   7   2  -1   20.86    3.36
   6  -2  -1    4.67    1.25
  -6  -2   1    4.84    1.41
   6  -2  -1    9.94    1.78
  -6  -2   1    6.38    1.77
  -6  -2   1    7.57    1.27
  -6   2   1    3.83    1.41
  -6   2   1    9.16    1.66
   6   2  -1    6.72    1.30
  -6   2   1    4.37    1.42
  -6   2   1    7.90    1.47
   6   2  -1    6.89    1.31
  -6   2   1    6.89    1.37
   6   2  -1    7.36    1.24
   6   2  -1    8.58    1.95
  -6   2   1   10.76    1.51
   6   2  -1    8.11    0.97
   5  -2  -1   41.67    4.47
  -5  -2   1   45.68    4.41
   5  -2  -1   42.11    3.93
   5  -2  -1   43.68    3.98
  -5  -2   1   50.49    3.84
  -5  -2   1   37.89    4.64
   5   2  -1   36.83    3.84
  -5   2   1   31.28    4.27
  -5   2   1   48.55    4.63
  -5   2   1   39.27    4.50
  -5   2   1   35.95    3.87
   5   2  -1   38.12    3.80
   5   2  -1   42.33    4.83
  -5   2   1   48.20    4.11
   5   2  -1   43.60    3.89
  -5   2   1   37.86    3.86
  -4  -2   1   51.96    4.20
  -4  -2   1   43.50    5.17
  -4  -2   1   50.54    4.81
   4  -2  -1   46.84    4.97
   4  -2  -1   50.14    4.38
   4  -2  -1   53.06    4.40
  -4  -2   1   45.73    4.16
  -4   2   1   41.43    4.26
   4   2  -1   43.57    4.26
  -4   2   1   47.36    4.98
   4   2  -1   45.95    5.24
   4   2  -1   47.84    4.30
  -4   2   1   47.73    4.37
  -4   2   1   51.01    4.96
   4   2  -1   42.40    4.26
  -4   2   1   53.59    5.14
  -4   2   1   51.00    4.46
   3  -2  -1  394.36   33.34
   3  -2  -1  430.43   38.79
  -3  -2   1  458.85   33.22
  -3  -2   1  429.08   36.48
  -3  -2   1  417.77   39.44
  -3  -2   1  423.77   33.21
  -3   2   1  399.54   34.24
   3   2  -1  395.30   33.29
   3   2  -1  396.00   34.10
  -3   2   1  459.79   38.80
   3   2  -1  424.91   39.48
  -3   2   1  364.74   33.37
  -3   2   1  467.81   36.60
  -3   2   1  386.07   33.35
   2  -2  -1  109.72    8.38
  -2  -2   1  115.41    9.12
  -2  -2   1  116.26    8.18
   2  -2  -1   92.64    9.78
  -2  -2   1  112.22   10.04
   2  -2  -1  111.72    9.21
  -2  -2   1  109.12    8.18
  -2   2   1   95.86    9.83
   2   2  -1  101.90    8.24
   2   2  -1   89.88    8.24
  -2   2   1   95.86    9.19
  -2   2   1   87.42    8.36
   2   2  -1   93.66   10.01
  -2   2   1   89.04    8.50
   1  -2  -1  770.40   60.55
  -1  -2   1  831.35   66.07
   1  -2  -1  673.70   70.38
  -1  -2   1  706.94   71.42
   1  -2  -1  734.74   66.17
   1   2  -1  748.96   71.46
  -1   2   1  790.41   70.47
   1   2  -1  862.63   66.08
  -1   2   1  811.58   66.18
   1   2  -1  707.36   70.32
   0  -2  -1  115.03    9.26
   0  -2   1  121.33   11.07
   0  -2  -1  127.96   10.23
   0  -2   1  109.89   10.98
   0  -2  -1  117.69   11.00
   0  -2   1  122.74   10.16
   0  -2  -1  102.46    9.25
   0   2   1  115.21    9.30
   0   2   1  112.56   10.98
   0   2  -1  109.98   10.99
   0   2   1  125.10   10.21
   0   2  -1  130.15   10.14
   0   2  -1  123.51   10.11
   0   2   1  103.26    9.28
   0   2  -1  101.02   11.03
  -1  -2  -1  421.85   35.32
  -1  -2  -1  373.42   32.20
   1  -2   1  427.47   35.37
   1  -2   1  389.98   32.24
  -1  -2  -1  381.32   35.29
   1  -2   1  382.96   37.65
   1  -2   1  453.85   35.31
  -1  -2  -1  408.15   32.24
   1  -2   1  417.99   32.26
  -1   2  -1  402.57   37.65
   1   2   1  375.83   35.31
   1   2   1  362.42   32.26
   1   2   1  349.09   37.52
   1   2   1  446.67   35.30
  -1   2  -1  424.34   32.31
  -1   2  -1  405.04   35.31
   1   2   1  408.33   32.25
  -1   2  -1  436.69   32.29
  -1   2  -1  459.15   35.36
  -2  -2  -1  323.08   26.39
  -2  -2  -1  304.14   27.80
   2  -2   1  342.67   24.06
  -2  -2  -1  315.23   23.95
  -2  -2  -1  287.72   26.32
   2  -2   1  283.73   28.04
   2  -2   1  315.86   24.07
  -2  -2  -1  311.82   24.01
  -2   2  -1  266.20   28.00
   2   2   1  319.09   28.52
  -2   2  -1  283.56   24.08
   2   2   1  323.24   24.07
   2   2   1  299.87   24.60
   2   2   1  304.09   24.00
  -2   2  -1  265.58   24.68
   2   2   1  285.32   26.34
   2   2   1  289.48   27.78
  -2   2  -1  297.92   26.36
  -3  -2  -1  190.78   14.97
  -3  -2  -1  164.41   14.85
   3  -2   1  200.16   16.52
  -3  -2  -1  198.58   17.91
  -3  -2  -1  181.79   16.45
   3  -2   1  191.45   15.02
  -3  -2  -1  180.76   16.48
  -3  -2  -1  186.88   17.08
   3  -2   1  180.99   17.45
   3   2   1  192.04   17.84
  -3   2  -1  181.39   15.04
   3   2   1  176.07   16.47
  -3   2  -1  206.30   17.54
   3   2   1  167.44   14.93
  -3   2  -1  198.31   15.09
  -3   2  -1  197.45   15.41
   3   2   1  181.14   15.29
   3   2   1  162.98   14.97
  -4  -2  -1   87.91    7.23
  -4  -2  -1   84.94    8.80
   4  -2   1   70.83    8.28
   4  -2   1   87.52    8.51
  -4  -2  -1   88.22    7.34
   4  -2   1   84.58    7.44
   4  -2   1   93.57    7.45
  -4  -2  -1   97.06    8.24
  -4  -2  -1  111.45    8.61
   4   2   1   73.29    7.29
   4   2   1  109.54    8.40
  -4   2  -1   79.47    7.47
  -4   2  -1   85.14    7.44
  -4   2  -1   85.06    8.28
   4   2   1   86.35    8.84
   4   2   1   90.85    7.45
  -4   2  -1   91.86    8.55
  -4   2  -1   87.20    7.41
   4   2   1   73.59    7.30
  -4   2  -1   92.02    8.25
  -5  -2  -1   20.64    3.16
   5  -2   1   21.49    2.79
  -5  -2  -1   26.42    2.68
  -5  -2  -1   27.49    3.14
   5  -2   1   23.51    2.69
   5  -2   1   27.20    2.80
   5  -2   1   23.20    2.98
  -5   2  -1   30.01    3.06
  -5   2  -1   29.07    2.89
   5   2   1   28.52    2.74
   5   2   1   24.99    3.18
  -5   2  -1   27.07    2.78
  -5   2  -1   29.24    3.22
   5   2   1   29.85    2.69
  -5   2  -1   21.30    2.65
   5   2   1   29.53    2.79
  -6  -2  -1   17.71    2.95
  -6  -2  -1   21.68    3.14
   6  -2   1   14.55    2.19
  -6  -2  -1   18.07    2.40
   6  -2   1   22.34    2.38
   6  -2   1   18.12    2.74
  -6   2  -1   19.27    2.39
  -6   2  -1   26.56    3.13
  -6   2  -1   15.27    2.18
   6   2   1   18.95    2.48
   6   2   1   18.43    2.94
  -6   2  -1   23.23    3.20
   6   2   1   17.32    2.47
  -6   2  -1   18.61    2.65
   6   2   1   15.51    2.28
  -6   2  -1   16.26    2.13
   7  -2   1    6.28    1.42
   7  -2   1    3.37    1.07
  -7  -2  -1    6.39    1.44
  -7  -2  -1    6.47    1.68
  -7  -2  -1    4.21    1.51
   7  -2   1    3.91    1.23
  -7   2  -1    3.67    1.38
   7   2   1    5.63    1.25
   7   2   1    1.93    0.86
  -7   2  -1    3.32    1.17
  -7   2  -1    4.60    1.26
  -7   2  -1    4.07    1.28
  -7   2  -1    3.34    0.97
  -7   2  -1    4.50    1.06
   7   2   1    2.69    0.95
   7   2   1    5.40    1.55
  -8  -2  -1   20.77    2.66
   8  -2   1   17.85    2.78
  -8  -2  -1   18.34    3.21
  -8  -2  -1   17.40    3.12
   8  -2   1   19.67    2.88
   8  -2   1   13.22    2.35
  -8   2  -1   16.93    2.59
   8   2   1   17.61    2.62
   8   2   1   16.87    3.13
  -8   2  -1   22.41    3.31
   8   2   1   14.78    2.43
   8   2   1   20.32    2.99
  -8   2  -1   15.69    2.59
  -8   2  -1   22.31    3.52
  -8   2  -1   17.28    2.52
  -9  -2  -1    3.91    1.71
  -9  -2  -1    2.41    1.47
   9  -2   1    2.65    1.16
   9  -2   1    3.41    1.68
   9  -2   1    7.11    1.54
  -9   2  -1    6.26    1.51
   9   2   1    3.67    1.33
  -9   2  -1    4.34    1.39
  -9   2  -1    2.48    1.50
 -10  -2  -1    0.48    1.08
  10   2   1   -0.33    0.86
 -10   2  -1    0.93    1.37
 -11  -2  -1   12.06    3.04
  11   2   1   11.97    2.49
 -11   2  -1   10.93    2.85
 -12  -2  -1    2.91    2.10
  12   2   1    3.99    2.08
 -12   2  -1    4.29    2.11
 -13  -2  -1    0.33    1.51
 -13   2  -1    5.37    2.55
 -13  -3   1    1.82    1.86
 -13   3   1    0.21    1.86
 -12  -3   1    1.03    1.44
 -12  -3   1    0.37    1.28
  12   3  -1    0.01    1.14
 -12   3   1    2.19    1.79
 -11  -3   1   14.87    3.60
 -11  -3   1   19.44    3.91
 -11   3   1   18.34    3.99
  11   3  -1   12.67    2.91
 -10  -3   1    4.49    1.93
 -10  -3   1    1.24    1.26
  10  -3  -1    1.43    1.05
 -10   3   1    1.76    1.19
  10   3  -1    1.64    1.08
 -10   3   1    1.19    1.44
 -10   3   1    1.23    0.98
   9  -3  -1   46.49    5.22
   9  -3  -1   45.24    4.96
  -9  -3   1   38.54    5.96
  -9  -3   1   45.61    5.90
  -9   3   1   52.85    5.26
  -9   3   1   49.37    5.25
   9   3  -1   47.10    4.87
  -9   3   1   39.21    6.03
   8  -3  -1   36.91    4.61
   8  -3  -1   43.40    4.43
  -8  -3   1   37.70    4.82
  -8  -3   1   46.15    5.30
  -8  -3   1   39.36    4.00
  -8   3   1   36.55    4.47
   8   3  -1   40.09    4.25
  -8   3   1   29.72    5.31
   8   3  -1   38.57    4.22
  -8   3   1   42.72    4.29
  -8   3   1   50.67    4.60
   8   3  -1   45.77    4.23
   7  -3  -1   82.46    7.63
   7  -3  -1   96.30    8.81
  -7  -3   1   69.42    8.31
  -7  -3   1   80.65    9.09
  -7  -3   1   86.31    7.36
  -7   3   1   78.36    7.64
   7   3  -1   87.05    7.60
  -7   3   1   91.62    7.77
   7   3  -1   92.95    9.43
  -7   3   1   85.60    8.55
   7   3  -1   84.87    7.57
  -7   3   1   80.13    8.64
   7   3  -1   79.41    7.50
   6  -3  -1   53.18    5.84
   6  -3  -1   57.61    5.14
  -6  -3   1   54.66    4.80
  -6  -3   1   61.95    6.35
  -6  -3   1   60.04    5.73
   6   3  -1   48.78    5.00
   6   3  -1   45.72    4.88
  -6   3   1   56.45    5.68
  -6   3   1   62.28    5.28
   6   3  -1   52.03    5.13
  -6   3   1   56.24    5.12
  -6   3   1   47.67    5.10
  -6   3   1   53.11    5.83
   6   3  -1   47.61    6.07
   6   3  -1   55.94    5.04
   5  -3  -1  129.60   11.13
  -5  -3   1  107.00    9.19
  -5  -3   1  104.92   10.40
   5  -3  -1  120.54    9.50
  -5  -3   1  112.94   10.41
   5   3  -1  124.20   11.49
  -5   3   1  117.27    9.63
  -5   3   1  119.74    9.69
  -5   3   1  100.52    9.43
   5   3  -1  100.96    9.36
   5   3  -1   98.25    9.44
  -5   3   1  116.93   10.93
   5   3  -1  105.65    9.37
   5   3  -1  111.59   10.47
  -5   3   1  107.25   11.01
  -4  -3   1  122.33    9.50
   4  -3  -1  106.48    9.87
  -4  -3   1   98.84   10.61
  -4  -3   1  143.59   12.03
   4  -3  -1  116.82   11.44
  -4  -3   1  120.05   10.73
  -4   3   1  102.49    9.91
  -4   3   1  117.76   10.81
  -4   3   1   98.33    9.84
   4   3  -1  119.47   11.79
  -4   3   1  129.36   11.56
  -4   3   1  112.59    9.78
   4   3  -1  132.67    9.71
   4   3  -1  112.46    9.76
  -4   3   1  103.56   11.49
   4   3  -1  123.14   11.03
   4   3  -1  127.80    9.72
   3  -3  -1   95.45    8.82
   3  -3  -1   90.91    7.97
   3  -3  -1   98.61    7.97
   3  -3  -1   88.15    9.45
  -3  -3   1   97.12    8.69
  -3  -3   1   95.94    7.68
  -3   3   1   97.80    9.59
  -3   3   1   91.80    7.99
   3   3  -1  103.18    9.18
  -3   3   1   88.56    8.79
  -3   3   1  103.79    8.17
   3   3  -1   95.60    7.85
  -3   3   1   96.86    8.14
   3   3  -1   93.50    9.69
   3   3  -1   95.50    7.88
   2  -3  -1   81.91    8.10
  -2  -3   1   86.10    7.32
   2  -3  -1   73.23    7.42
  -2  -3   1   68.11    8.20
   2  -3  -1   88.79    6.78
  -2   3   1   80.16    6.88
  -2   3   1   94.87    8.30
   2   3  -1   83.87    6.59
  -2   3   1   81.48    7.48
   2   3  -1   84.53    7.91
   2   3  -1   77.17    8.28
  -2   3   1   81.52    6.83
  -2   3   1   81.19    6.79
   2   3  -1   78.67    6.60
   1  -3  -1   70.33    5.59
   1  -3  -1   68.66    6.87
  -1  -3   1   73.14    7.03
  -1  -3   1   65.27    6.74
   1  -3  -1   68.22    5.59
   1  -3  -1   67.35    6.23
   1   3  -1   65.65    6.73
   1   3  -1   75.50    6.06
  -1   3   1   72.12    6.23
  -1   3   1   66.23    6.91
  -1   3   1   70.52    5.69
   1   3  -1   56.46    6.82
   0  -3   1    1.82    0.65
   0  -3   1    1.99    0.77
   0  -3   1    0.87    0.29
   0  -3   1    2.01    0.43
   0  -3  -1    0.80    0.69
   0   3  -1    1.54    0.30
   0   3  -1    1.80    0.35
   0   3   1    3.32    1.06
   0   3  -1    2.09    0.85
   0   3   1    1.74    0.40
   0   3   1    1.39    0.47
   0   3  -1    1.25    0.62
   0   3   1    2.11    0.40
   1  -3   1   82.15    8.47
   1  -3   1   87.10    8.70
  -1  -3  -1   79.35    8.54
  -1  -3  -1   89.13    7.88
   1   3   1   85.17    7.12
  -1   3  -1   87.91    8.50
   1   3   1   95.93    7.92
   1   3   1   93.39    7.16
   1   3   1   89.25    8.58
  -1   3  -1   93.49    8.74
  -1   3  -1   92.45    7.19
  -1   3  -1   79.43    7.15
  -1   3  -1   92.86    7.90
   1   3   1   91.44    7.87
   2  -3   1   19.41    1.70
  -2  -3  -1   16.89    1.90
  -2  -3  -1   18.54    2.03
  -2  -3  -1   14.72    1.92
   2  -3   1   14.41    1.59
   2  -3   1   16.15    1.90
   2  -3   1   16.13    2.25
   2   3   1   18.16    1.66
  -2   3  -1   17.02    2.05
   2   3   1   18.04    1.71
  -2   3  -1   17.06    1.85
   2   3   1   20.29    2.11
   2   3   1   15.03    1.87
  -2   3  -1   19.33    2.35
  -2   3  -1   20.13    1.83
   2   3   1   18.43    2.37
  -2   3  -1   16.94    1.77
  -2   3  -1   19.58    1.67
  -3  -3  -1   72.55    5.38
  -3  -3  -1   63.04    5.28
  -3  -3  -1   55.60    6.00
   3  -3   1   59.56    6.05
   3  -3   1   71.27    6.64
  -3  -3  -1   71.02    6.18
   3  -3   1   64.07    5.43
  -3  -3  -1   57.68    6.01
   3  -3   1   62.48    5.49
   3   3   1   64.13    5.43
  -3   3  -1   63.00    5.54
   3   3   1   72.18    6.22
   3   3   1   60.35    6.68
  -3   3  -1   62.30    5.56
  -3   3  -1   53.59    6.05
   3   3   1   60.64    5.45
  -3   3  -1   74.56    5.62
   3   3   1   55.14    5.38
   3   3   1   67.26    6.10
  -3   3  -1   69.73    6.61
   4  -3   1   29.11    2.80
  -4  -3  -1   26.90    3.51
  -4  -3  -1   29.35    2.67
  -4  -3  -1   29.85    3.19
  -4  -3  -1   23.08    3.01
   4  -3   1   26.56    3.34
  -4  -3  -1   25.32    2.76
  -4   3  -1   32.81    3.29
   4   3   1   30.31    3.62
  -4   3  -1   28.86    2.80
  -4   3  -1   27.73    2.87
   4   3   1   26.85    2.66
   4   3   1   30.33    2.78
   4   3   1   31.01    3.22
   4   3   1   29.11    2.72
  -4   3  -1   30.30    3.39
  -4   3  -1   29.71    2.85
  -5  -3  -1   69.02    6.45
  -5  -3  -1   76.01    7.19
   5  -3   1   68.47    6.76
   5  -3   1   59.67    5.71
  -5  -3  -1   76.97    5.71
   5   3   1   71.99    5.81
  -5   3  -1   60.23    6.19
   5   3   1   62.17    6.90
  -5   3  -1   57.17    5.75
   5   3   1   64.94    5.73
  -5   3  -1   66.41    5.90
  -5   3  -1   55.39    6.41
  -5   3  -1   64.42    6.67
  -5   3  -1   60.34    5.81
   5   3   1   61.81    5.69
  -6  -3  -1   36.65    4.34
   6  -3   1   35.22    4.00
  -6  -3  -1   32.48    3.29
  -6  -3  -1   31.86    3.87
   6  -3   1   34.88    3.52
  -6   3  -1   35.95    3.53
  -6   3  -1   37.47    3.65
   6   3   1   32.17    3.45
  -6   3  -1   36.40    4.07
  -6   3  -1   37.38    3.53
  -6   3  -1   24.01    3.33
   6   3   1   29.33    3.39
   6   3   1   38.21    4.32
   6   3   1   35.40    3.41
  -7  -3  -1   75.71    7.93
   7  -3   1   83.37    8.16
  -7  -3  -1   76.38    6.95
   7  -3   1   80.31    7.21
  -7  -3  -1   75.33    8.55
   7   3   1   74.86    8.50
  -7   3  -1   84.98    7.32
  -7   3  -1   75.21    7.72
   7   3   1   85.45    7.15
  -7   3  -1   76.20    7.22
   7   3   1   82.73    7.19
   7   3   1   75.12    7.11
  -7   3  -1   78.14    7.16
  -7   3  -1   72.07    7.98
   8  -3   1   17.76    2.67
  -8  -3  -1   10.57    2.56
  -8  -3  -1   10.71    1.87
   8  -3   1   13.38    2.31
  -8  -3  -1   10.99    2.46
  -8   3  -1   12.91    2.53
   8   3   1    8.54    1.74
  -8   3  -1    8.40    1.72
   8   3   1   10.89    2.13
  -8   3  -1    7.19    1.76
  -8   3  -1    5.38    1.77
   8   3   1   13.32    2.05
   9  -3   1   26.11    3.43
  -9  -3  -1   25.38    4.22
   9   3   1   23.24    3.45
  -9   3  -1   27.42    4.59
  10  -3   1   24.89    3.50
 -10  -3  -1   14.15    3.19
 -10   3  -1   16.34    3.61
 -10   3  -1   23.85    3.86
  10   3   1   24.51    3.46
 -11  -3  -1   16.52    3.72
  11   3   1   22.49    3.40
 -11   3  -1   13.01    3.46
 -12  -3  -1    2.93    2.00
 -12   3  -1    2.06    1.85
  12   3   1    2.70    1.61
 -13  -3  -1    2.76    2.07
 -13   3  -1    1.98    2.11
 -13  -4   1    1.65    1.91
 -13   4   1    3.92    2.27
  13   4  -1    4.80    1.88
 -12  -4   1    0.53    1.30
  12   4  -1    1.00    1.31
 -12   4   1   -0.98    1.47
 -11  -4   1    5.11    2.21
 -11  -4   1    2.12    1.58
  11   4  -1    5.01    1.80
 -11   4   1    3.01    1.72
 -10  -4   1   11.20    2.93
  10  -4  -1   12.53    2.54
 -10  -4   1    5.97    2.05
  10   4  -1    8.24    1.93
 -10   4   1    8.82    2.28
 -10   4   1    5.57    2.39
   9  -4  -1   13.99    2.58
  -9  -4   1   15.31    3.16
  -9   4   1   11.24    2.50
  -9   4   1   10.49    1.90
   9   4  -1    8.74    2.05
  -9   4   1    5.20    2.20
  -8  -4   1   26.63    2.93
   8  -4  -1   29.41    3.40
  -8  -4   1   35.83    4.47
   8  -4  -1   30.67    3.84
  -8   4   1   22.12    4.02
   8   4  -1   20.02    3.24
   8   4  -1   27.70    3.27
  -8   4   1   32.16    3.56
  -8   4   1   28.66    3.37
  -8   4   1   32.47    3.45
   8   4  -1   30.76    3.23
   7  -4  -1    7.91    2.06
  -7  -4   1    8.55    2.32
  -7  -4   1   11.46    2.35
  -7  -4   1   11.01    1.55
   7  -4  -1    8.14    1.62
  -7   4   1   11.77    1.91
  -7   4   1    9.27    1.77
  -7   4   1   10.24    1.99
  -7   4   1   13.27    2.41
   7   4  -1    8.54    1.69
  -7   4   1    8.67    1.63
   7   4  -1    9.68    1.60
   7   4  -1    7.60    1.59
  -6  -4   1   26.51    4.14
   6  -4  -1   28.03    4.20
  -6  -4   1   32.30    3.38
  -6  -4   1   26.23    2.50
  -6   4   1   24.32    3.02
   6   4  -1   27.47    2.79
  -6   4   1   22.29    2.88
   6   4  -1   25.47    2.79
  -6   4   1   21.14    2.97
   6   4  -1   25.37    2.66
   6   4  -1   24.40    2.69
  -6   4   1   27.84    3.42
  -6   4   1   29.33    2.97
   6   4  -1   29.21    4.19
  -5  -4   1   22.60    3.74
  -5  -4   1   27.00    2.26
  -5  -4   1   32.53    3.09
   5  -4  -1   30.18    2.68
  -5  -4   1   26.90    2.96
   5  -4  -1   19.84    3.44
   5   4  -1   25.52    2.55
  -5   4   1   22.48    2.54
   5   4  -1   23.73    2.63
  -5   4   1   17.42    2.78
  -5   4   1   17.60    2.75
  -5   4   1   23.73    2.65
   5   4  -1   26.09    3.47
   5   4  -1   23.56    2.38
   5   4  -1   28.92    2.62
  -5   4   1   23.29    3.01
   4  -4  -1   24.06    3.41
  -4  -4   1   25.22    2.97
  -4  -4   1   30.06    3.05
   4  -4  -1   29.83    2.79
  -4  -4   1   26.11    3.59
   4   4  -1   27.48    2.63
   4   4  -1   28.24    3.59
   4   4  -1   26.67    2.98
  -4   4   1   26.70    2.83
  -4   4   1   33.92    3.29
  -4   4   1   28.61    2.77
  -4   4   1   27.34    2.93
   4   4  -1   30.26    2.69
   3  -4  -1   93.50    9.59
  -3  -4   1  108.46    8.65
  -3  -4   1   98.97    9.79
   3  -4  -1   86.10    8.72
   3   4  -1   98.41    7.77
   3   4  -1   94.43    9.76
  -3   4   1  100.95    8.10
   3   4  -1   95.18    7.77
   3   4  -1   87.02    9.15
  -3   4   1   88.72    8.08
  -3   4   1   99.95    8.03
  -3   4   1   87.71    8.78
  -3   4   1   98.21    9.67
   2  -4  -1  122.43   12.56
  -2  -4   1  138.94   11.29
  -2  -4   1  126.62   12.33
   2  -4  -1  123.93   10.38
  -2  -4   1  124.88   11.28
  -2  -4   1  125.68   12.69
   2  -4  -1  129.42   11.52
  -2   4   1  120.49   10.46
  -2   4   1  127.09   10.54
  -2   4   1  139.70   11.55
  -2   4   1  139.62   12.65
   2   4  -1  134.25   12.31
   2   4  -1  115.40   12.61
  -1  -4   1  271.02   27.11
   1  -4  -1  309.28   24.92
  -1  -4   1  259.90   26.67
   1  -4  -1  275.78   26.85
  -1   4   1  306.40   24.92
   1   4  -1  288.31   27.11
  -1   4   1  310.97   26.89
  -1   4   1  252.90   22.76
   1   4  -1  291.99   26.71
   0  -4  -1   97.49    9.65
   0  -4   1   89.89    9.61
   0  -4   1   94.07    9.58
   0   4  -1  111.82    8.56
   0   4   1  103.44    8.70
   0   4   1   94.81    7.88
   0   4   1   95.57    9.62
   0   4  -1   99.11    9.63
   0   4  -1   93.56    8.54
   0   4  -1   92.76    9.58
   1  -4   1  151.83   15.91
  -1  -4  -1  176.93   15.92
  -1  -4  -1  165.86   14.58
  -1  -4  -1  183.34   14.61
   1   4   1  163.63   14.63
  -1   4  -1  166.56   15.95
  -1   4  -1  171.54   13.33
   1   4   1  164.77   16.15
  -1   4  -1  155.93   15.84
  -1   4  -1  169.80   14.63
  -1   4  -1  160.21   13.30
   1   4   1  165.61   15.83
   2  -4   1   88.21    9.56
  -2  -4  -1  100.51    8.65
   2  -4   1  101.32    7.81
   2  -4   1  107.13    8.77
  -2  -4  -1   86.73    9.31
   2   4   1   96.67    7.81
   2   4   1   90.58    9.66
  -2   4  -1   91.22    9.18
   2   4   1   98.38    9.36
  -2   4  -1   91.20    8.72
  -2   4  -1  102.44    9.73
   2   4   1  105.96    8.69
   2   4   1  102.18    7.87
  -2   4  -1   93.50    7.93
  -2   4  -1   85.41    7.94
   3  -4   1  214.25   15.13
  -3  -4  -1  191.29   17.53
  -3  -4  -1  189.80   16.55
   3  -4   1  182.92   17.88
  -3  -4  -1  202.07   16.55
   3  -4   1  200.07   16.68
   3   4   1  171.48   18.12
  -3   4  -1  173.15   15.44
   3   4   1  191.12   16.60
   3   4   1  176.74   17.50
   3   4   1  161.26   14.98
   3   4   1  189.89   15.09
  -3   4  -1  199.48   16.74
  -3   4  -1  170.08   15.17
   4  -4   1   68.04    5.57
   4  -4   1   55.42    6.61
  -4  -4  -1   65.44    6.20
  -4  -4  -1   70.49    6.19
  -4  -4  -1   56.22    6.13
  -4  -4  -1   58.71    5.26
  -4   4  -1   66.53    5.71
  -4   4  -1   57.28    5.58
   4   4   1   63.93    5.45
   4   4   1   64.19    6.99
   4   4   1   62.32    5.45
  -4   4  -1   65.76    6.31
   4   4   1   71.61    5.58
  -4   4  -1   65.97    5.66
   4   4   1   66.92    6.21
  -5  -4  -1  151.61   12.87
  -5  -4  -1  142.92   11.38
   5  -4   1  129.18   11.61
   5  -4   1  129.72   13.65
  -5  -4  -1  152.07   12.93
   5   4   1  137.52   11.75
  -5   4  -1  140.08   11.93
   5   4   1  136.80   11.62
  -5   4  -1  126.52   11.73
   5   4   1  142.04   14.03
   5   4   1  140.78   11.59
  -5   4  -1  145.54   13.00
  -5   4  -1  135.26   11.73
  -6  -4  -1   28.20    4.25
   6  -4   1   28.20    3.39
  -6  -4  -1   28.55    3.26
   6  -4   1   21.87    2.72
  -6  -4  -1   24.19    2.51
   6   4   1   27.10    2.75
   6   4   1   25.95    2.75
   6   4   1   29.15    2.90
  -6   4  -1   26.78    3.34
  -6   4  -1   25.25    2.81
   6   4   1   20.75    3.66
  -6   4  -1   23.06    2.83
  -6   4  -1   25.26    2.91
  -7  -4  -1    8.23    1.35
  -7  -4  -1    9.56    2.08
   7  -4   1    7.46    1.93
   7  -4   1    5.18    1.45
  -7   4  -1    5.69    1.61
  -7   4  -1    3.94    1.22
   7   4   1    6.77    1.51
   7   4   1    5.34    1.29
  -7   4  -1    4.15    1.11
  -7   4  -1    6.41    1.34
   7   4   1    3.48    1.00
   8  -4   1    6.34    1.75
   8  -4   1    5.86    1.54
  -8  -4  -1    8.56    2.11
  -8   4  -1    4.55    1.49
   8   4   1    2.19    1.08
   8   4   1    4.18    1.18
  -8   4  -1    4.57    1.57
  -8   4  -1    4.58    1.21
  -8   4  -1    3.09    1.04
   8   4   1    3.72    1.21
  -9  -4  -1    2.79    1.49
   9  -4   1    4.09    1.69
  -9   4  -1    2.51    1.20
  -9   4  -1    2.81    1.51
   9   4   1    4.43    1.53
  10  -4   1    2.04    1.42
 -10  -4  -1    7.29    2.20
 -10   4  -1    6.09    2.09
 -10   4  -1    5.51    1.87
  10   4   1    2.75    1.39
 -11  -4  -1    1.78    1.48
  11   4   1    4.04    1.70
 -11   4  -1    2.04    1.76
 -12  -4  -1    3.30    2.08
  12   4   1    5.16    2.02
 -12   4  -1    8.49    2.97
 -13  -4  -1    1.60    1.91
 -13   4  -1    2.05    2.03
 -12  -5   1    5.77    2.31
  12   5  -1    3.16    1.68
 -12   5   1    4.91    2.45
 -11  -5   1    1.63    1.38
  11  -5  -1    1.48    1.61
  11   5  -1    0.66    1.07
 -11   5   1    1.22    1.65
  10  -5  -1   48.66    5.52
 -10  -5   1   44.63    5.98
 -10  -5   1   32.24    5.37
 -10   5   1   47.06    5.23
  10   5  -1   43.12    4.75
 -10   5   1   39.90    6.16
   9  -5  -1   17.42    3.13
  -9  -5   1   11.71    2.73
  -9  -5   1   18.51    3.67
   9   5  -1   13.20    2.33
  -9   5   1   10.67    2.86
  -9   5   1   12.70    2.52
  -8  -5   1   31.51    4.58
   8  -5  -1   38.28    5.12
  -8  -5   1   39.98    5.39
  -8   5   1   52.40    4.73
  -8   5   1   42.67    4.49
   8   5  -1   37.53    4.22
   8   5  -1   47.20    4.36
  -8   5   1   43.42    4.49
  -8   5   1   37.96    5.03
   7  -5  -1   18.65    2.35
  -7  -5   1   23.91    3.78
  -7  -5   1   13.79    2.53
   7  -5  -1   19.96    3.18
   7   5  -1   11.87    1.98
  -7   5   1   10.33    2.07
   7   5  -1    8.72    1.81
  -7   5   1   15.31    2.32
  -7   5   1   14.51    2.43
  -7   5   1   10.91    2.52
   7   5  -1   13.56    1.60
   7   5  -1   12.34    1.94
  -7   5   1   16.75    2.03
   6  -5  -1   58.27    5.34
  -6  -5   1   59.44    5.94
  -6  -5   1   57.99    6.79
  -6  -5   1   58.54    5.90
   6  -5  -1   59.36    6.53
   6   5  -1   55.60    5.27
  -6   5   1   60.06    5.51
  -6   5   1   54.86    5.44
   6   5  -1   58.37    5.23
   6   5  -1   59.01    5.74
  -6   5   1   56.39    6.00
   6   5  -1   59.35    5.29
  -6   5   1   51.08    6.04
  -6   5   1   59.90    5.62
   5  -5  -1   28.08    4.08
  -5  -5   1   23.25    2.73
  -5  -5   1   26.05    3.98
   5  -5  -1   28.02    2.64
  -5  -5   1   21.63    2.70
  -5   5   1   16.46    2.95
   5   5  -1   18.15    3.44
   5   5  -1   23.42    2.45
   5   5  -1   24.16    2.77
   5   5  -1   23.33    2.26
   5   5  -1   22.94    2.40
  -5   5   1   21.77    2.59
  -5   5   1   24.58    2.82
  -5   5   1   29.04    2.65
  -4  -5   1   36.12    3.71
  -4  -5   1   36.59    4.56
  -4  -5   1   35.69    3.72
   4  -5  -1   39.46    4.59
   4   5  -1   36.13    3.31
  -4   5   1   44.56    3.77
  -4   5   1   37.24    3.51
  -4   5   1   36.42    4.01
  -4   5   1   30.69    3.50
   4   5  -1   39.11    4.68
   4   5  -1   38.90    4.00
   4   5  -1   37.39    3.32
   3  -5  -1   45.38    5.04
  -3  -5   1   42.91    4.04
  -3  -5   1   38.75    4.90
   3  -5  -1   46.51    4.40
  -3  -5   1   40.91    4.03
  -3   5   1   49.64    4.45
   3   5  -1   40.28    4.91
   3   5  -1   41.45    3.62
  -3   5   1   43.56    3.93
  -3   5   1   42.07    3.86
   3   5  -1   44.22    3.65
   3   5  -1   45.00    4.61
  -3   5   1   41.27    3.97
   2  -5  -1   23.94    3.25
  -2  -5   1   21.71    2.52
   2  -5  -1   13.14    1.77
  -2  -5   1   19.36    2.25
  -2   5   1   14.33    1.62
   2   5  -1   16.73    2.17
  -2   5   1   14.95    1.71
  -2   5   1   12.32    1.80
   2   5  -1   19.61    2.44
  -1  -5   1   54.67    5.64
  -1  -5   1   51.16    5.58
   1  -5  -1   53.53    5.72
  -1   5   1   47.36    4.84
   1   5  -1   56.32    5.58
   1   5  -1   54.29    5.62
  -1   5   1   53.07    4.47
   0  -5  -1   34.25    3.31
   0  -5  -1   35.71    4.13
   0  -5  -1   35.24    3.34
   0  -5   1   33.32    3.91
   0  -5   1   36.84    4.15
   0   5  -1   35.30    4.05
   0   5   1   40.53    3.38
   0   5   1   37.14    4.13
   0   5  -1   30.29    3.86
   0   5   1   34.94    4.02
  -1  -5  -1   10.27    1.08
   1  -5   1    8.36    2.01
   1  -5   1    9.13    1.05
  -1  -5  -1   11.18    1.97
  -1  -5  -1   10.58    1.14
  -1   5  -1    9.13    1.11
  -1   5  -1    8.59    1.48
  -1   5  -1    8.90    0.96
   1   5   1    9.33    1.12
   1   5   1    7.88    1.67
   1   5   1    7.57    1.71
   2  -5   1    6.53    1.82
  -2  -5  -1    7.82    1.58
  -2  -5  -1    7.31    1.12
   2  -5   1    8.66    1.24
  -2  -5  -1    7.72    1.09
  -2   5  -1   10.51    1.24
  -2   5  -1    8.14    1.12
   2   5   1    5.42    1.57
   2   5   1    7.37    0.98
   2   5   1    6.76    0.82
   2   5   1   10.92    1.80
  -2   5  -1    6.42    1.15
  -2   5  -1    9.92    1.35
   2   5   1    9.37    1.11
   3  -5   1   64.73    4.71
  -3  -5  -1   56.85    5.20
   3  -5   1   52.62    5.31
  -3  -5  -1   56.01    5.61
   3  -5   1   52.28    5.99
   3   5   1   49.24    5.19
  -3   5  -1   55.22    4.77
   3   5   1   53.13    4.65
   3   5   1   59.32    5.69
  -3   5  -1   55.27    4.83
  -3   5  -1   53.08    5.34
   3   5   1   48.31    4.67
   3   5   1   59.60    6.17
  -3   5  -1   59.24    5.39
  -3   5  -1   52.23    4.82
   4  -5   1   27.28    3.48
  -4  -5  -1   28.81    3.41
   4  -5   1   31.94    3.09
  -4  -5  -1   33.85    3.53
   4  -5   1   34.37    4.11
  -4  -5  -1   30.95    3.52
   4   5   1   30.50    3.49
   4   5   1   44.97    4.56
  -4   5  -1   33.66    3.14
  -4   5  -1   34.36    3.24
   4   5   1   33.45    3.01
  -4   5  -1   29.33    3.54
   4   5   1   35.61    3.58
   4   5   1   37.07    3.17
  -4   5  -1   33.42    3.26
   5  -5   1   21.76    2.20
  -5  -5  -1   21.27    2.18
  -5  -5  -1   15.23    2.57
  -5  -5  -1   14.22    2.49
   5  -5   1   24.26    3.52
   5   5   1   19.35    1.98
   5   5   1   14.65    2.17
  -5   5  -1   24.83    2.32
  -5   5  -1   10.89    2.45
  -5   5  -1   21.16    2.65
   5   5   1   20.61    3.26
   5   5   1   17.93    2.03
  -5   5  -1   20.02    2.63
  -6  -5  -1   67.81    7.05
  -6  -5  -1   64.09    7.32
   6  -5   1   77.80    7.76
   6  -5   1   78.09    6.46
   6   5   1   70.35    6.33
  -6   5  -1   63.99    6.41
   6   5   1   75.91    6.43
   6   5   1   67.01    6.28
  -6   5  -1   72.73    7.29
  -6   5  -1   60.46    6.42
  -6   5  -1   80.65    6.64
  -7  -5  -1    6.52    1.75
   7  -5   1   10.96    2.44
   7  -5   1    8.47    1.77
  -7   5  -1    8.87    1.83
   7   5   1   11.87    2.05
   7   5   1    9.70    1.74
  -7   5  -1   10.59    1.90
  -7   5  -1    5.64    1.55
  -7   5  -1   13.22    2.61
   7   5   1    7.82    1.56
  -8  -5  -1   66.54    7.87
   8  -5   1   76.09    8.50
   8   5   1   82.99    7.29
   8   5   1   85.90    7.36
  -8   5  -1   74.70    8.30
  -8   5  -1   81.56    7.46
  -8   5  -1   79.16    7.51
  -9  -5  -1    8.93    2.46
   9  -5   1   18.48    3.24
  -9   5  -1   12.83    2.77
  -9   5  -1    9.49    2.66
   9   5   1   14.31    2.49
  10  -5   1   26.81    4.18
 -10  -5  -1   18.28    3.66
 -10   5  -1   18.26    3.73
  10   5   1   15.81    2.87
 -10   5  -1   22.98    3.60
 -11  -5  -1    1.80    1.70
 -11   5  -1    6.98    2.54
  11   5   1    6.30    1.80
 -12  -5  -1    4.91    2.14
  12   5   1    6.98    2.23
 -12   5  -1    3.90    2.16
 -12  -6   1    3.23    1.88
  12   6  -1    1.11    1.52
 -12   6   1    3.45    2.05
 -11  -6   1    2.22    1.62
  11  -6  -1    3.24    1.88
  11   6  -1    1.98    1.33
 -11   6   1    2.05    1.93
 -10  -6   1    2.83    1.54
  10  -6  -1    8.82    2.49
 -10  -6   1    9.08    2.99
 -10   6   1    4.86    2.20
 -10   6   1    1.93    1.33
  10   6  -1    5.86    1.65
  -9  -6   1    2.20    1.21
  -9  -6   1    3.15    1.74
   9  -6  -1    3.67    1.65
   9   6  -1    1.96    1.12
   9   6  -1    3.22    1.28
  -9   6   1    2.14    1.24
  -9   6   1    0.91    1.26
  -8  -6   1    7.35    1.82
  -8  -6   1    5.68    2.13
   8  -6  -1    6.35    2.08
   8   6  -1    4.88    1.44
   8   6  -1    5.94    1.38
  -8   6   1    5.82    2.01
  -8   6   1    8.45    1.82
  -8   6   1    5.88    1.57
  -7  -6   1    1.33    0.95
   7  -6  -1    1.54    1.43
  -7  -6   1    2.20    1.56
  -7   6   1    2.46    1.06
  -7   6   1    2.66    1.17
  -7   6   1    1.64    1.14
   7   6  -1    2.38    0.96
  -7   6   1    1.81    0.74
   7   6  -1    2.13    0.90
   7   6  -1    1.58    0.65
   6  -6  -1   26.96    3.95
  -6  -6   1   17.80    3.42
  -6  -6   1   20.67    2.81
  -6  -6   1   22.62    2.91
  -6   6   1   12.50    2.35
   6   6  -1   16.97    2.53
  -6   6   1   21.41    3.39
   6   6  -1   18.15    2.10
  -6   6   1   20.91    2.65
  -6   6   1   20.50    2.77
   6   6  -1   14.76    2.20
  -6   6   1   12.90    2.26
   6   6  -1   17.97    1.92
   5  -6  -1   10.53    2.55
  -5  -6   1   13.67    2.05
  -5  -6   1   11.04    1.88
  -5  -6   1   11.54    2.66
  -5   6   1   14.13    2.40
  -5   6   1   12.06    1.89
   5   6  -1   12.90    1.73
  -5   6   1   10.59    1.87
   5   6  -1   10.65    1.59
  -5   6   1   10.60    1.65
   5   6  -1   15.18    2.22
  -4  -6   1   41.26    3.70
   4  -6  -1   44.94    4.14
  -4  -6   1   34.06    4.57
   4  -6  -1   40.02    4.70
  -4  -6   1   42.73    3.73
  -4   6   1   30.88    3.42
   4   6  -1   35.02    4.13
   4   6  -1   32.85    4.64
  -4   6   1   34.90    3.58
  -4   6   1   33.52    3.65
  -4   6   1   43.32    4.15
   4   6  -1   33.81    3.26
   4   6  -1   36.34    3.29
   3  -6  -1    3.51    1.42
  -3  -6   1    3.12    1.16
   3  -6  -1    2.81    0.92
  -3  -6   1    2.72    0.55
  -3  -6   1    3.84    1.30
  -3  -6   1    3.73    0.62
  -3   6   1    1.37    0.70
   3   6  -1    0.88    0.78
  -3   6   1    1.84    0.53
   3   6  -1    2.67    1.17
  -3   6   1    1.58    0.70
  -3   6   1    2.57    0.75
   2  -6  -1   52.70    5.42
  -2  -6   1   38.20    4.94
   2  -6  -1   43.42    4.33
  -2  -6   1   44.49    4.92
  -2   6   1   47.08    3.94
  -2   6   1   46.50    4.34
   2   6  -1   39.09    5.00
  -2   6   1   43.85    3.96
   1  -6  -1  104.54    9.33
   1  -6  -1  110.07   10.68
  -1  -6   1  103.72   10.57
  -1  -6   1  107.11   10.50
  -1   6   1  105.32    9.40
  -1   6   1   93.85    8.56
   1   6  -1  110.61   10.60
   0  -6  -1  150.33   12.77
   0  -6  -1  142.48   14.23
   0  -6  -1  154.77   12.76
   0  -6   1  142.31   14.30
   0   6   1  149.74   12.82
   0   6   1  131.09   14.21
   0   6  -1  136.82   14.19
  -1  -6  -1   43.66    3.84
   1  -6   1   40.68    3.84
  -1  -6  -1   40.73    3.81
   1  -6   1   38.38    4.83
  -1  -6  -1   40.75    4.72
  -1   6  -1   42.64    4.55
   1   6   1   46.17    3.92
   1   6   1   40.03    4.75
  -1   6  -1   42.49    3.90
  -2  -6  -1  109.51    9.01
  -2  -6  -1  104.46    8.96
   2  -6   1  102.40   10.37
  -2  -6  -1   96.95   10.05
   2   6   1  101.16   10.06
  -2   6  -1   97.93    8.32
  -2   6  -1   95.22    9.84
  -2   6  -1  100.72    8.32
   2   6   1  106.52    9.06
   2   6   1   88.06   10.31
  -2   6  -1   98.34    9.12
   3  -6   1   37.68    5.01
  -3  -6  -1   40.21    4.07
  -3  -6  -1   39.98    4.20
   3  -6   1   34.61    4.22
  -3  -6  -1   44.45    4.68
   3   6   1   42.68    4.18
   3   6   1   42.87    4.71
  -3   6  -1   46.51    4.40
   3   6   1   41.50    3.67
   3   6   1   45.63    3.80
   3   6   1   52.93    5.29
  -3   6  -1   48.04    4.38
  -3   6  -1   43.44    3.92
  -3   6  -1   43.20    3.91
  -3   6  -1   42.04    3.76
  -4  -6  -1  141.75   12.70
   4  -6   1  138.44   13.31
  -4  -6  -1  137.15   11.90
  -4  -6  -1  131.13   11.80
   4  -6   1  120.99   11.97
   4   6   1  123.22   10.69
   4   6   1  136.47   13.54
  -4   6  -1  128.19   12.32
  -4   6  -1  123.76   12.07
  -4   6  -1  125.32   11.00
   4   6   1  138.31   12.70
  -4   6  -1  129.19   11.08
  -4   6  -1  125.63   10.98
   4   6   1  134.35   10.84
  -5  -6  -1   14.45    2.27
   5  -6   1   13.65    1.91
  -5  -6  -1   10.95    2.13
  -5  -6  -1   13.73    1.94
   5  -6   1   16.00    3.07
  -5   6  -1   13.97    2.46
   5   6   1   15.79    2.11
  -5   6  -1   20.30    2.57
  -5   6  -1   17.51    2.47
  -5   6  -1   20.31    2.06
   5   6   1   14.51    2.05
   5   6   1   16.44    1.81
   5   6   1   16.56    1.64
  -6  -6  -1   28.50    3.33
   6  -6   1   30.27    4.58
  -6  -6  -1   31.58    3.30
   6  -6   1   19.98    2.70
   6   6   1   26.55    2.82
  -6   6  -1   27.88    3.00
  -6   6  -1   21.64    3.14
  -6   6  -1   33.35    3.69
   6   6   1   24.83    2.66
  -6   6  -1   25.44    3.01
   6   6   1   27.27    2.91
   7  -6   1   15.22    3.18
  -7  -6  -1   10.67    2.20
  -7   6  -1   10.06    2.02
  -7   6  -1   12.44    2.07
   7   6   1   10.86    1.97
  -7   6  -1   15.52    2.97
   7   6   1   11.55    1.94
   7   6   1   11.49    1.80
   8  -6   1   10.93    2.68
  -8  -6  -1    7.03    1.95
   8   6   1    9.04    1.63
  -8   6  -1    5.23    1.91
  -8   6  -1    6.81    1.72
   8   6   1    6.05    1.52
  -8   6  -1    9.91    1.87
  -9  -6  -1    7.95    2.25
   9  -6   1    8.41    2.46
   9   6   1    7.19    1.83
  -9   6  -1    8.56    2.43
  -9   6  -1    6.16    1.87
  10  -6   1    5.42    2.18
 -10  -6  -1    2.02    1.31
  10   6   1    3.24    1.23
 -10   6  -1    1.65    1.60
 -10   6  -1    3.66    1.67
  11  -6   1    3.86    2.03
 -11  -6  -1    3.25    1.84
  11   6   1    2.58    1.34
 -11   6  -1    5.19    2.26
 -12  -6  -1    5.22    2.34
  12   6   1    5.97    2.22
 -12   6  -1    5.40    2.78
  11  -7  -1    2.97    2.11
 -11  -7   1    3.73    1.75
 -11   7   1    2.56    1.82
  11   7  -1    3.11    1.54
  10  -7  -1    6.77    2.49
 -10  -7   1    3.33    1.75
 -10   7   1    5.37    1.99
  10   7  -1    5.01    1.62
 -10   7   1    6.44    2.60
   9  -7  -1   18.12    3.73
  -9  -7   1   15.99    3.79
  -9  -7   1   16.62    3.02
  -9   7   1   18.35    3.11
  -9   7   1   12.57    3.26
   9   7  -1   16.87    2.59
   9   7  -1   12.73    2.38
  -8  -7   1   18.56    3.09
  -8  -7   1   17.39    3.74
   8  -7  -1   20.90    3.92
  -8   7   1   18.40    3.62
  -8   7   1   16.83    2.76
  -8   7   1   20.58    3.00
   8   7  -1   11.79    2.42
   8   7  -1   18.36    2.49
  -7  -7   1   34.10    3.89
  -7  -7   1   30.96    5.29
   7  -7  -1   32.87    5.24
   7   7  -1   24.51    3.32
  -7   7   1   36.75    3.80
  -7   7   1   34.46    4.97
   7   7  -1   31.48    3.49
   7   7  -1   34.79    3.37
  -7   7   1   35.68    4.51
  -7   7   1   36.56    3.72
  -6  -7   1   28.03    3.38
   6  -7  -1   37.01    4.63
  -6  -7   1   35.74    5.28
   6   7  -1   31.46    2.92
  -6   7   1   29.93    3.26
   6   7  -1   28.23    3.13
   6   7  -1   26.92    3.02
  -6   7   1   30.42    3.51
  -6   7   1   28.63    4.26
  -6   7   1   30.35    3.86
  -6   7   1   35.93    3.50
   5  -7  -1   66.99    7.27
  -5  -7   1   54.62    5.85
  -5  -7   1   60.91    5.95
  -5  -7   1   77.59    7.56
  -5   7   1   56.07    6.35
  -5   7   1   58.13    5.75
  -5   7   1   71.40    5.78
   5   7  -1   59.06    5.42
   5   7  -1   62.76    5.50
  -5   7   1   67.34    5.96
  -4  -7   1   26.90    2.84
   4  -7  -1   22.07    3.65
  -4  -7   1   27.06    2.85
  -4  -7   1   35.96    4.25
   4  -7  -1   32.35    4.13
  -4   7   1   30.47    2.90
  -4   7   1   28.37    3.16
  -4   7   1   29.51    3.02
  -4   7   1   26.10    3.30
   4   7  -1   31.71    2.68
   4   7  -1   30.84    2.71
  -3  -7   1   31.68    3.59
  -3  -7   1   29.08    3.80
   3  -7  -1   22.26    2.95
   3  -7  -1   29.53    3.87
   3   7  -1   27.08    3.70
  -3   7   1   26.12    2.73
  -3   7   1   26.31    2.84
  -3   7   1   29.19    3.06
  -2  -7   1    8.89    2.16
  -2  -7   1    9.82    2.27
   2  -7  -1   15.12    2.77
   2   7  -1    7.99    1.96
  -2   7   1    8.08    1.80
  -2   7   1   13.64    1.79
  -2   7   1   10.84    1.57
  -2   7   1   11.86    1.48
  -1  -7   1    8.23    2.07
   1  -7  -1   10.67    1.40
   1  -7  -1    9.46    2.20
  -1   7   1    8.86    1.23
   1   7  -1    8.68    1.94
  -1   7   1    8.02    1.71
  -1   7   1    9.94    1.39
   0  -7  -1   19.60    3.31
   0  -7   1   20.98    3.50
   0  -7  -1   19.88    1.81
   0  -7  -1   15.49    1.74
   0   7   1   20.22    2.64
   0   7  -1   20.21    2.58
   0   7   1   16.51    1.84
   1  -7   1    1.01    1.11
  -1  -7  -1    1.06    1.02
   1  -7   1    1.98    0.39
  -1   7  -1    1.61    0.83
  -1   7  -1    1.36    0.45
   1   7   1    1.27    0.43
   1   7   1    1.06    0.85
   2  -7   1   10.35    2.39
  -2  -7  -1   10.49    1.24
  -2  -7  -1   10.10    1.14
  -2  -7  -1   13.93    2.37
   2  -7   1    9.82    1.30
  -2   7  -1   10.48    1.57
  -2   7  -1   14.03    1.59
   2   7   1   10.74    1.27
  -2   7  -1   11.36    1.31
   2   7   1   12.52    2.43
  -2   7  -1   13.78    1.97
  -3  -7  -1   27.54    3.34
  -3  -7  -1   25.51    2.61
  -3  -7  -1   23.31    2.64
   3  -7   1   28.62    4.38
   3  -7   1   26.62    2.85
  -3   7  -1   28.66    2.47
  -3   7  -1   25.46    2.67
  -3   7  -1   21.16    2.86
  -3   7  -1   30.93    3.02
   3   7   1   26.16    2.40
   3   7   1   30.93    2.52
   3   7   1   23.03    4.05
   3   7   1   23.81    2.73
  -3   7  -1   29.14    2.69
   4  -7   1   15.06    3.11
  -4  -7  -1   12.54    1.80
  -4  -7  -1   16.63    2.59
  -4  -7  -1   11.73    1.84
   4  -7   1    9.87    1.99
  -4   7  -1   17.17    2.21
  -4   7  -1    9.04    1.99
   4   7   1   17.17    1.69
   4   7   1   11.93    1.44
  -4   7  -1   12.72    1.57
  -4   7  -1   16.71    2.14
  -4   7  -1   14.68    1.58
  -5  -7  -1   13.99    2.19
  -5  -7  -1   13.80    2.36
   5  -7   1   10.87    2.77
   5   7   1   13.37    2.27
  -5   7  -1   17.51    2.33
  -5   7  -1   15.63    2.43
  -5   7  -1   13.26    2.48
   5   7   1   14.53    1.85
   5   7   1   14.58    1.99
  -5   7  -1   15.35    2.10
  -6  -7  -1    8.57    1.82
   6  -7   1    9.40    2.63
  -6   7  -1   10.53    1.92
  -6   7  -1   15.33    2.79
  -6   7  -1   11.25    2.01
   6   7   1   11.22    1.73
  -6   7  -1   15.58    2.30
   6   7   1   13.96    1.94
   6   7   1    8.12    1.37
   7  -7   1   41.32    4.74
  -7  -7  -1   26.91    3.89
   7   7   1   26.82    3.12
  -7   7  -1   30.56    3.33
  -7   7  -1   31.08    4.75
  -7   7  -1   21.52    3.38
   7   7   1   27.70    3.08
   7   7   1   26.25    2.97
  -8  -7  -1   14.66    2.86
   8  -7   1   21.76    3.98
   8   7   1   17.23    2.55
  -8   7  -1   12.25    3.14
  -8   7  -1   26.68    3.81
  -8   7  -1   17.21    2.81
   8   7   1   17.97    2.67
   9  -7   1   36.03    5.51
  -9  -7  -1   21.54    3.96
  -9   7  -1   37.41    4.97
   9   7   1   25.52    3.68
  -9   7  -1   36.85    5.48
 -10  -7  -1    7.40    2.34
  10  -7   1    9.28    2.87
 -10   7  -1    9.31    2.75
  10   7   1    7.02    1.89
 -10   7  -1    6.50    2.50
  11  -7   1    7.98    2.80
 -11  -7  -1    5.20    2.00
  11   7   1    6.82    2.32
  11  -8  -1    9.48    3.21
 -11  -8   1    8.34    2.30
  11   8  -1    7.58    2.07
  10  -8  -1    2.52    2.05
 -10  -8   1    1.98    1.33
  10   8  -1    0.55    0.97
 -10   8   1    3.01    1.59
  -9  -8   1    4.42    1.59
   9  -8  -1    5.44    2.51
   9   8  -1    2.59    1.14
   9   8  -1    4.07    1.33
  -9   8   1    4.84    1.91
  -8  -8   1    0.90    1.74
   8  -8  -1    5.37    2.10
  -8  -8   1    1.12    0.97
  -8   8   1    1.09    1.03
  -8   8   1    2.38    1.15
  -8   8   1    1.20    1.42
   8   8  -1    2.15    0.98
   8   8  -1    3.78    1.06
   7  -8  -1    1.34    1.51
  -7  -8   1    4.33    1.19
  -7  -8   1    3.09    1.86
  -7   8   1    1.14    0.91
  -7   8   1    4.14    1.39
   7   8  -1    3.66    0.95
   7   8  -1    4.72    1.15
  -7   8   1    5.94    1.86
   6  -8  -1    2.13    1.58
  -6  -8   1    3.75    1.00
  -6  -8   1    2.40    1.56
  -6   8   1    5.46    1.60
   6   8  -1    2.04    0.84
  -6   8   1    4.69    1.33
   6   8  -1    1.54    0.71
  -6   8   1    2.50    0.93
  -5  -8   1    4.50    2.04
  -5  -8   1    4.81    1.00
  -5  -8   1    6.82    1.10
   5  -8  -1    4.76    2.08
  -5   8   1    7.08    1.64
   5   8  -1    5.57    1.10
  -5   8   1    6.17    1.29
  -5   8   1    5.20    1.50
   5   8  -1    5.05    1.00
  -5   8   1    3.67    1.26
  -4  -8   1    7.98    2.40
   4  -8  -1    6.07    2.20
  -4   8   1    4.24    1.18
   4   8  -1    6.97    1.10
  -4   8   1    4.68    1.31
  -4   8   1    5.67    1.48
  -4   8   1    6.50    1.19
  -4   8   1    6.82    1.40
   3  -8  -1   58.71    6.19
  -3  -8   1   60.64    6.95
   3  -8  -1   61.91    7.35
  -3   8   1   67.86    5.74
  -3   8   1   65.16    6.78
  -3   8   1   63.24    6.25
  -3   8   1   69.41    5.81
   2  -8  -1    6.47    2.05
  -2  -8   1    7.93    2.02
   2  -8  -1    5.83    1.17
  -2   8   1    3.79    0.89
  -2   8   1    6.69    1.54
   2   8  -1    7.25    1.93
  -2   8   1    6.78    1.18
  -2   8   1    6.49    1.28
   1  -8  -1  147.02   14.87
  -1  -8   1  152.07   14.75
   1  -8  -1  137.92   12.92
  -1   8   1  148.62   14.56
  -1   8   1  145.50   11.91
   1   8  -1  159.15   14.80
  -1   8   1  141.25   12.98
   0  -8  -1   24.79    3.75
   0  -8   1   26.45    3.99
   0   8   1   13.17    1.68
   0   8   1   22.05    3.25
   0   8  -1   22.48    3.15
  -1  -8  -1  133.24   13.54
   1  -8   1  133.47   13.86
  -1   8  -1  134.25   11.86
  -1   8  -1  136.74   13.44
   1   8   1  137.13   13.76
  -2  -8  -1   29.94    3.81
   2  -8   1   34.14    4.34
   2  -8   1   29.92    2.86
  -2   8  -1   30.69    2.77
  -2   8  -1   27.49    3.40
  -2   8  -1   26.61    2.90
   2   8   1   27.11    2.74
  -2   8  -1   28.76    2.74
  -3  -8  -1   33.15    2.88
   3  -8   1   34.41    5.25
  -3  -8  -1   30.68    3.86
  -3  -8  -1   28.99    2.80
  -3   8  -1   29.66    2.98
  -3   8  -1   28.16    3.22
  -3   8  -1   27.38    3.36
  -3   8  -1   30.41    3.00
  -4  -8  -1   18.50    2.08
   4  -8   1   21.40    4.03
  -4  -8  -1   17.22    2.00
  -4  -8  -1   21.50    3.32
  -4   8  -1   19.82    2.24
  -4   8  -1   16.72    2.35
  -4   8  -1   16.51    1.97
   4   8   1   18.47    1.92
   4   8   1   20.41    2.06
  -4   8  -1   19.36    2.76
  -4   8  -1   20.27    2.67
  -5  -8  -1   12.85    2.41
  -5  -8  -1   15.64    2.09
   5  -8   1   14.49    3.31
   5   8   1   10.74    1.67
  -5   8  -1   12.22    2.00
  -5   8  -1   10.16    1.80
  -5   8  -1   13.33    2.46
  -5   8  -1   13.41    2.26
   5   8   1   14.41    1.93
  -6  -8  -1    9.16    1.72
   6  -8   1    5.74    2.35
  -6   8  -1    7.94    1.54
  -6   8  -1    7.07    1.74
  -6   8  -1    9.22    2.14
   6   8   1    8.55    1.48
   6   8   1    7.03    1.44
   6   8   1    7.28    1.24
   7  -8   1    8.42    2.70
  -7  -8  -1    7.44    1.73
  -7   8  -1    5.11    1.51
  -7   8  -1    4.41    1.75
   7   8   1    4.29    1.05
  -7   8  -1    4.78    1.38
   7   8   1    4.79    1.30
   8  -8   1   10.26    2.99
  -8  -8  -1    9.36    2.07
  -8   8  -1    9.29    2.07
   8   8   1    5.19    1.50
   8   8   1    8.06    1.62
  -8   8  -1    9.91    2.23
   9  -8   1    5.44    2.46
  -9  -8  -1    3.28    1.39
  -9   8  -1    2.65    1.56
   9   8   1    2.75    1.20
  10  -8   1    0.49    1.74
 -10  -8  -1    1.02    1.07
 -10   8  -1   -0.96    1.04
  10   8   1    0.58    1.00
 -11  -8  -1   -0.40    1.15
  11  -8   1    0.82    2.07
 -11   8  -1    2.16    1.73
  11   8   1    1.42    1.24
  10  -9  -1    3.88    2.49
 -10  -9   1    0.49    1.12
  10   9  -1    1.10    1.09
 -10   9   1    0.23    1.25
   9  -9  -1   14.36    3.91
  -9  -9   1   10.73    2.27
  -9   9   1   12.66    2.73
   9   9  -1   10.61    2.11
   9   9  -1    8.10    1.87
   8  -9  -1   10.57    3.17
  -8  -9   1    7.33    1.78
   8   9  -1   10.49    1.72
   8   9  -1   11.45    2.01
  -8   9   1   12.48    2.67
  -8   9   1   12.73    2.52
   7  -9  -1   18.21    3.88
  -7  -9   1   11.96    2.02
   7   9  -1   13.16    2.12
  -7   9   1   16.66    2.83
  -7   9   1   13.58    2.32
   7   9  -1   15.51    1.77
   6  -9  -1   13.89    3.42
  -6  -9   1    6.93    1.32
  -6   9   1    8.58    1.73
  -6   9   1    8.84    1.90
   6   9  -1   10.54    1.70
   6   9  -1    7.81    1.40
   5  -9  -1   38.61    5.82
  -5   9   1   35.76    3.48
   5   9  -1   30.99    3.13
   5   9  -1   30.87    3.21
  -5   9   1   38.86    3.78
   4  -9  -1   39.64    5.22
  -4   9   1   33.03    3.81
  -4   9   1   41.06    3.94
  -4   9   1   39.38    3.69
  -4   9   1   38.34    4.40
  -3  -9   1    5.59    2.04
   3  -9  -1    5.87    2.17
  -3   9   1    7.00    1.64
  -3   9   1    6.32    1.29
  -3   9   1    7.13    1.40
   2  -9  -1    7.97    2.43
  -2  -9   1    9.27    2.36
   2  -9  -1    6.20    1.17
  -2   9   1    7.45    1.25
  -2   9   1    8.72    1.35
  -2   9   1    6.39    1.72
   1  -9  -1    7.74    2.30
   1  -9  -1    7.53    0.98
   1  -9  -1    7.42    0.98
  -1  -9   1   13.12    2.94
  -1   9   1    9.08    1.33
   1   9  -1    7.55    1.99
  -1   9   1    9.72    2.16
   0  -9   1   17.07    3.38
   0  -9  -1   19.00    3.58
   0   9   1   14.67    1.55
   0   9   1   17.17    2.97
   0   9  -1   16.02    2.92
  -1  -9  -1    0.35    0.91
   1  -9   1    1.37    1.35
  -1   9  -1    1.04    0.87
  -2  -9  -1   28.92    4.41
   2  -9   1   24.58    2.57
   2  -9   1   23.96    4.64
  -2   9  -1   26.50    2.62
  -2   9  -1   28.59    3.40
  -2   9  -1   29.20    2.65
  -3  -9  -1   34.23    3.92
   3  -9   1   29.02    5.12
  -3   9  -1   26.26    3.17
  -3   9  -1   21.11    2.68
   3   9   1   27.37    2.48
  -3   9  -1   24.91    2.70
  -4  -9  -1   11.47    2.50
  -4  -9  -1    9.22    1.17
   4  -9   1   11.69    3.13
  -4   9  -1   14.41    2.07
   4   9   1   13.11    1.41
   4   9   1   12.49    1.63
  -4   9  -1   16.42    2.22
  -4   9  -1   10.97    1.56
  -5  -9  -1   28.82    3.49
  -5  -9  -1   21.35    2.63
   5  -9   1   30.59    5.18
  -5   9  -1   25.63    2.78
   5   9   1   25.36    2.57
   5   9   1   24.30    2.76
  -5   9  -1   28.18    3.53
   6  -9   1   11.89    3.36
  -6  -9  -1   15.08    2.20
   6   9   1   11.08    1.83
   6   9   1   12.35    1.49
   6   9   1   13.14    2.08
  -6   9  -1    9.77    2.15
  -6   9  -1   14.11    2.15
  -7  -9  -1   13.96    2.62
   7  -9   1   20.63    4.47
  -7   9  -1   23.74    3.62
   7   9   1   21.33    2.27
  -7   9  -1   18.10    2.95
   7   9   1   19.63    2.71
   8  -9   1   13.02    3.47
  -8  -9  -1    5.56    1.56
   8   9   1    3.72    1.18
   8   9   1    7.74    1.56
  -8   9  -1    7.76    1.80
  -8   9  -1    8.74    2.15
  -9  -9  -1   11.01    2.46
   9  -9   1   25.58    4.79
  -9   9  -1   14.50    3.16
   9   9   1   12.50    2.50
 -10  -9  -1    2.85    1.41
  10  -9   1    5.29    2.61
  10   9   1    3.84    1.58
 -10   9  -1    5.54    2.04
   9 -10  -1    2.32    2.16
  -9 -10   1    0.97    0.86
  -9  10   1    2.21    1.28
   9  10  -1    1.19    0.99
   8 -10  -1    0.55    1.89
  -8 -10   1    1.43    0.88
   8  10  -1    0.29    0.64
  -8  10   1    0.31    1.11
   8  10  -1    0.79    0.79
  -8  10   1   -0.29    0.87
   7 -10  -1    4.53    2.35
  -7 -10   1    3.06    0.88
   7  10  -1    1.20    0.67
  -7  10   1    3.00    1.36
  -7  10   1    1.86    1.08
   7  10  -1    3.08    1.09
   6 -10  -1    1.00    1.49
  -6  10   1    4.68    1.57
  -6  10   1    2.29    0.99
   6  10  -1    2.31    0.81
   6  10  -1    1.82    0.86
   5 -10  -1    4.14    1.84
  -5  10   1    4.42    1.31
  -5  10   1    3.35    1.02
   5  10  -1    2.55    0.84
   4 -10  -1    5.47    2.21
  -4  10   1    4.46    1.23
  -4  10   1    3.89    0.97
   3 -10  -1    6.41    2.52
  -3 -10   1    6.72    2.19
  -3  10   1    4.92    1.20
  -3  10   1    4.48    1.19
  -2 -10   1   81.15    8.49
   2 -10  -1   73.62    8.52
  -2  10   1   71.43    6.48
  -2  10   1   71.87    6.49
  -2  10   1   75.37    8.07
  -1 -10   1   37.63    5.61
   1 -10  -1   38.44    4.89
  -1  10   1   33.37    4.40
  -1  10   1   30.31    3.06
   0 -10  -1   46.23    5.74
   0 -10   1   42.64    5.77
   0  10  -1   43.66    5.43
  -1 -10  -1   48.07    6.06
   1 -10   1   49.19    6.36
  -1  10  -1   51.09    5.81
  -2 -10  -1   24.19    4.19
   2 -10   1   17.54    4.10
  -2  10  -1   18.09    2.12
  -2  10  -1   21.35    3.26
  -2  10  -1   19.57    2.17
  -3 -10  -1   27.39    4.37
   3 -10   1   26.64    4.99
  -3  10  -1   22.26    2.51
  -3  10  -1   20.92    2.51
  -4 -10  -1   30.51    4.41
   4 -10   1   21.33    4.36
  -4  10  -1   20.97    2.84
  -4  10  -1   20.10    2.19
   4  10   1   16.60    2.07
  -4  10  -1   21.14    2.89
  -5 -10  -1   24.76    3.81
   5 -10   1   21.97    4.60
   5  10   1   15.09    2.11
   5  10   1   13.81    1.98
  -5  10  -1   13.76    2.51
  -5  10  -1   18.96    2.16
   6 -10   1    4.07    2.26
  -6 -10  -1    7.08    1.20
  -6  10  -1    2.97    1.06
  -6  10  -1    4.99    1.62
   6  10   1    5.80    1.30
  -7 -10  -1    3.46    1.10
   7 -10   1    4.68    2.47
  -7  10  -1    4.21    1.42
   7  10   1    3.20    1.13
  -7  10  -1    3.25    1.54
   7  10   1    2.21    0.83
  -8 -10  -1    2.27    1.15
   8 -10   1    3.24    2.44
  -8  10  -1    0.91    0.99
  -8  10  -1   -1.59    0.79
   8  10   1    2.23    0.98
   8  10   1    0.89    0.70
  -9 -10  -1    0.54    0.98
   9 -10   1   -0.69    1.92
  -9  10  -1   -0.84    1.00
   9  10   1    0.21    0.82
   8 -11  -1    8.97    3.24
   8  11  -1    7.07    1.47
  -8  11   1    4.08    1.77
   8  11  -1    6.42    1.65
  -8  11   1    6.44    1.89
   7 -11  -1    8.29    3.15
   7  11  -1    7.47    1.62
  -7  11   1   11.41    2.11
  -7  11   1    7.84    2.10
   6 -11  -1    6.40    2.77
  -6  11   1   10.21    2.01
  -6  11   1   15.09    2.66
   6  11  -1    8.24    1.54
   5 -11  -1    5.06    2.46
  -5  11   1    6.55    1.41
  -5  11   1    7.78    1.85
   4 -11  -1    9.08    2.95
  -4  11   1    8.15    1.47
  -4  11   1    7.07    1.64
  -3 -11   1   12.80    3.36
   3 -11  -1   19.25    4.18
  -3  11   1   14.92    2.19
   2 -11  -1    2.96    1.92
  -2 -11   1    6.95    2.34
  -2  11   1    1.58    0.73
  -2  11   1    2.45    0.89
   1 -11  -1    3.41    2.02
  -1 -11   1    2.12    1.74
  -1  11   1    2.98    0.75
  -1  11   1    2.65    0.82
   0 -11  -1    5.00    2.23
   0 -11   1    4.33    2.36
   1 -11   1    0.40    1.51
  -1 -11  -1    0.85    1.24
  -2 -11  -1    1.19    1.57
   2 -11   1    1.55    1.72
  -2  11  -1    1.52    0.69
  -2  11  -1    1.32    0.67
  -3 -11  -1   -0.81    1.08
   3 -11   1   -1.30    1.26
  -3  11  -1   -0.27    0.55
  -3  11  -1    0.12    0.59
   4 -11   1    7.50    3.01
  -4 -11  -1    8.08    2.57
   4  11   1    5.65    1.04
  -4  11  -1    5.51    1.12
  -4  11  -1    4.92    1.43
  -5 -11  -1    8.90    2.49
   5 -11   1    6.99    2.78
  -5  11  -1    6.45    1.37
   5  11   1    5.91    1.21
  -5  11  -1    7.42    1.78
   5  11   1    7.27    1.37
   6 -11   1   18.90    4.29
  -6  11  -1   16.62    2.47
  -6  11  -1   15.65    2.81
   6  11   1   10.78    1.88
   7 -11   1    0.79    1.82
  -7  11  -1    1.44    1.34
   7  11   1    1.54    0.76
  -7  11  -1    3.51    1.34
   7  11   1    2.13    0.88
   8 -11   1   18.95    4.70
   8  11   1   17.71    2.48
  -8  11  -1   14.91    2.84
  -8  11  -1   12.18    2.83
   8  11   1   13.78    2.40
   7 -12  -1    5.11    2.80
   7  12  -1    1.27    0.86
  -7  12   1    2.88    1.30
  -7  12   1    0.75    0.90
   6 -12  -1    8.49    3.25
  -6  12   1    4.86    1.45
  -6  12   1    6.47    1.66
   5 -12  -1    1.09    1.99
  -5  12   1    4.23    1.31
  -5  12   1    4.86    1.29
   4 -12  -1   15.82    4.12
  -4  12   1    7.14    1.51
  -4  12   1   10.47    1.90
   3 -12  -1    4.19    2.55
  -3  12   1    5.81    1.34
  -3  12   1    5.63    1.05
   2 -12  -1   19.83    4.38
  -2 -12   1   12.02    3.45
  -2  12   1   12.57    1.88
  -1 -12   1    7.23    2.80
   1 -12  -1    7.12    2.81
  -1  12   1    8.62    1.47
  -1  12   1    7.27    1.34
   0 -12   1   18.24    4.21
   0 -12  -1   20.89    4.44
   1 -12   1    4.82    2.50
  -1 -12  -1    7.50    2.72
   2 -12   1   26.43    5.24
  -2 -12  -1   28.25    4.89
  -2  12  -1   21.78    2.80
  -2  12  -1   20.84    2.46
  -3 -12  -1   12.39    3.26
   3 -12   1   10.93    3.52
  -3  12  -1    9.46    1.88
  -4 -12  -1   21.16    4.11
   4 -12   1   20.29    4.71
  -4  12  -1   16.62    2.75
  -4  12  -1   16.46    2.29
   5 -12   1    0.66    1.74
  -5  12  -1    0.23    0.63
  -5  12  -1    0.22    1.02
   6 -12   1    1.75    2.34
  -6  12  -1    3.77    1.52
   6  12   1    5.49    1.25
  -6  12  -1    5.22    1.46
   7 -12   1    1.69    2.41
   7  12   1    0.56    0.64
  -7  12  -1    1.29    1.25
   7  12   1    1.12    0.80
  -7  12  -1    1.06    1.01
   5 -13  -1    9.07    3.36
  -5  13   1    8.47    1.78
  -5  13   1    8.00    1.89
   4 -13  -1    1.06    2.06
  -4  13   1    1.53    0.87
  -4  13   1   -0.01    0.79
   3 -13  -1    6.51    3.21
  -3  13   1    7.71    1.64
  -3  13   1    9.63    1.49
  -2 -13   1    5.73    2.91
   2 -13  -1   10.04    3.44
  -2  13   1    7.58    1.53
   1 -13  -1    0.65    1.75
  -1 -13   1    0.28    1.66
  -1  13   1    0.99    0.64
   0 -13  -1    1.65    1.87
   0 -13   1   -0.90    1.64
   1 -13   1    1.60    1.94
  -1 -13  -1    2.86    1.98
   2 -13   1   -0.26    1.44
  -2 -13  -1    1.89    2.07
  -2  13  -1   -0.13    0.63
   3 -13   1    2.27    2.37
  -3 -13  -1    0.10    1.68
  -3  13  -1    2.21    1.10
   4 -13   1    0.06    2.01
  -4 -13  -1    1.98    1.94
  -4  13  -1    1.57    1.04
  -4  13  -1    2.60    0.94
   5 -13   1   12.93    3.98
  -5  13  -1    6.47    1.87
  -5  13  -1   11.94    2.08
   3 -14  -1    8.37    3.44
  -3  14   1    7.18    1.73
  -3  14   1    9.63    1.60
   2 -14  -1    5.12    2.69
  -2  14   1    6.47    1.50
   1 -14  -1    7.24    2.98
  -1 -14   1    4.70    2.78
  -1  14   1    4.60    1.16
   0 -14  -1    0.67    1.97
   0 -14   1    0.60    1.94
   1 -14   1   20.60    5.05
  -1 -14  -1   24.69    5.44
   2 -14   1    0.08    1.79
  -2 -14  -1    1.17    1.92
   3 -14   1   17.27    5.04
  -3 -14  -1   14.45    3.84
  -3  14  -1   10.54    1.96
 -13   0   2    2.00    1.72
 -12   0   2   12.21    2.82
 -12   0   2    5.11    2.41
 -11   0   2    2.75    1.93
  11   0  -2   13.36    2.64
 -11   0   2    9.98    2.54
  10   0  -2   27.35    4.07
 -10   0   2   23.12    4.19
   9   0  -2   13.79    2.09
  -9   0   2   12.77    2.15
  -9   0   2   10.27    2.61
   9   0  -2    8.41    2.07
  -9   0   2    9.87    2.33
  -8   0   2    1.49    0.73
   8   0  -2    2.48    0.92
   8   0  -2    1.49    0.84
   8   0  -2    2.67    1.60
   8   0  -2    2.17    0.90
  -8   0   2    0.42    0.87
  -8   0   2    2.76    1.18
   8   0  -2    0.98    0.82
   7   0  -2    5.73    1.43
  -7   0   2   10.27    1.72
  -7   0   2    9.20    2.08
   7   0  -2    7.57    1.52
   7   0  -2    6.33    2.04
  -7   0   2    7.64    1.91
   7   0  -2   10.27    1.68
   7   0  -2    6.49    1.41
   6   0  -2   16.50    2.19
  -6   0   2   11.89    1.81
  -6   0   2   12.47    1.77
  -6   0   2   20.99    2.85
   6   0  -2   11.84    1.89
   6   0  -2   14.12    2.67
   6   0  -2    9.31    1.65
  -6   0   2   14.26    2.45
   6   0  -2   12.32    1.88
   5   0  -2   15.27    2.20
   5   0  -2   13.64    1.98
   5   0  -2   23.48    2.44
  -5   0   2   13.26    2.08
  -5   0   2   26.82    3.19
   5   0  -2   16.90    2.92
  -5   0   2   13.87    2.04
  -5   0   2   19.34    2.46
   5   0  -2   14.70    2.02
  -5   0   2   17.59    1.96
   4   0  -2   46.53    4.60
  -4   0   2   51.44    4.62
  -4   0   2   46.09    4.59
  -4   0   2   62.47    5.34
   4   0  -2   53.59    5.92
   4   0  -2   57.34    4.75
  -4   0   2   49.26    4.65
  -4   0   2   53.85    5.55
  -3   0   2  187.38   14.71
   3   0  -2  148.74   13.33
  -3   0   2  159.93   13.62
   3   0  -2  162.95   13.32
  -3   0   2  166.27   15.87
  -3   0   2  170.10   13.34
  -3   0   2  152.69   13.30
   2   0  -2  824.07   62.06
  -2   0   2  843.63   63.76
  -2   0   2  729.51   62.03
  -2   0   2  803.53   62.07
  -2   0   2  808.06   67.86
  -2   0   2  681.66   73.22
   1   0  -2  154.59   12.28
  -1   0   2  163.78   12.27
   1   0  -2  142.98   12.58
  -1   0   2  154.89   12.59
   1   0  -2  154.02   13.48
  -1   0   2  144.16   12.57
  -1   0   2  154.94   13.52
   0   0   2   33.56    3.20
   0   0   2   45.20    3.66
   0   0  -2   41.93    3.24
   0   0  -2   34.89    3.27
   0   0  -2   44.16    3.60
   0   0   2   33.37    3.26
   0   0  -2   38.09    3.60
   0   0  -2   36.36    3.25
  -1   0  -2    1.33    0.55
  -1   0  -2    1.42    0.41
   1   0   2    2.82    0.74
   1   0   2    2.71    0.59
   1   0   2    1.80    0.41
  -1   0  -2    1.79    0.47
   1   0   2    1.34    0.43
  -1   0  -2    1.96    0.45
  -1   0  -2    2.40    0.68
   1   0   2    2.78    0.51
  -2   0  -2  267.31   21.32
  -2   0  -2  289.18   23.34
   2   0   2  230.17   21.29
  -2   0  -2  275.39   23.45
  -2   0  -2  277.30   21.88
   2   0   2  261.18   23.39
   2   0   2  251.71   21.29
   2   0   2  298.31   23.37
  -2   0  -2  244.13   21.26
   3   0   2  338.39   34.25
   3   0   2  344.96   29.18
   3   0   2  363.28   29.20
   3   0   2  429.75   32.15
  -3   0  -2  378.74   29.16
  -3   0  -2  348.01   29.95
  -3   0  -2  354.44   31.96
  -4   0  -2  176.59   14.87
  -4   0  -2  184.95   14.84
   4   0   2  186.28   14.88
   4   0   2  178.99   16.43
   4   0   2  174.68   17.31
  -4   0  -2  171.95   16.89
  -4   0  -2  181.37   15.17
  -4   0  -2  190.34   16.42
   4   0   2  172.71   15.18
   4   0   2  198.23   14.93
   5   0   2  134.32   12.24
   5   0   2  134.44   10.94
  -5   0  -2  140.03   10.90
  -5   0  -2  135.27   11.10
   5   0   2  119.59   10.89
  -5   0  -2  137.91   12.10
  -5   0  -2  120.69   10.90
  -5   0  -2  124.09   12.16
   5   0   2  127.66   12.63
   5   0   2  124.83   11.13
  -6   0  -2    9.71    1.62
  -6   0  -2   15.46    2.62
   6   0   2    8.66    1.72
  -6   0  -2   11.44    1.55
  -6   0  -2   12.47    2.03
   6   0   2   10.75    1.93
   6   0   2    8.25    1.57
   6   0   2    6.59    1.40
  -7   0  -2   13.97    1.81
  -7   0  -2   15.37    2.75
  -7   0  -2   15.35    2.38
   7   0   2   13.51    2.14
   7   0   2   17.19    2.58
   7   0   2   15.43    2.53
   7   0   2   17.58    2.63
  -7   0  -2   16.63    2.39
  -8   0  -2   14.13    2.80
   8   0   2   11.52    2.22
   8   0   2   11.75    2.06
   8   0   2   10.22    2.18
  -9   0  -2    8.35    2.33
   9   0   2    6.39    1.81
  -9   0  -2    8.40    2.11
   9   0   2    9.09    2.17
  10   0   2    0.42    0.96
 -10   0  -2   -1.14    1.01
 -11   0  -2    0.38    1.06
 -12   0  -2    1.27    1.71
 -13   0  -2    1.31    1.58
 -13  -1   2    0.82    1.57
 -13   1   2   -1.12    1.28
 -12  -1   2    6.86    2.66
 -12  -1   2    6.75    2.43
 -12   1   2    6.41    2.58
 -11  -1   2    4.08    1.79
 -11  -1   2    0.53    1.39
 -11   1   2    1.36    1.14
 -11   1   2    0.78    1.46
  11   1  -2    2.53    1.62
 -10  -1   2   12.72    3.11
  10  -1  -2   16.20    3.05
  10  -1  -2   18.13    2.65
 -10  -1   2   14.98    3.31
 -10   1   2   18.38    3.62
  10   1  -2   11.49    2.51
 -10   1   2   14.83    2.92
   9  -1  -2   14.35    2.51
  -9  -1   2   13.18    2.93
  -9  -1   2   17.80    3.40
   9  -1  -2   18.59    2.75
  -9   1   2   11.31    2.68
  -9   1   2   14.15    2.41
  -9   1   2   17.44    2.95
   9   1  -2   15.91    2.92
   9   1  -2   15.69    1.97
  -8  -1   2   28.03    3.21
   8  -1  -2   29.60    3.40
  -8  -1   2   20.21    3.79
   8  -1  -2   27.92    3.39
  -8  -1   2   29.29    3.90
   8   1  -2   23.95    3.39
   8   1  -2   25.81    4.37
  -8   1   2   28.86    3.29
   8   1  -2   29.64    3.34
   8   1  -2   30.37    3.14
  -8   1   2   32.93    3.30
  -8   1   2   24.37    4.01
  -8   1   2   28.05    3.67
   7  -1  -2   74.93    6.59
  -7  -1   2   76.84    7.84
  -7  -1   2   72.18    7.41
   7  -1  -2   60.25    6.52
   7  -1  -2   71.07    7.29
   7  -1  -2   63.32    6.55
  -7  -1   2   91.29    6.73
  -7   1   2   77.34    6.64
  -7   1   2   61.60    6.49
   7   1  -2   63.85    6.53
   7   1  -2   78.58    8.10
  -7   1   2   69.71    7.41
   7   1  -2   79.21    7.16
  -7   1   2   67.95    7.58
   7   1  -2   72.60    6.65
   7   1  -2   66.83    6.53
   6  -1  -2  122.73   11.29
  -6  -1   2  140.47   13.34
   6  -1  -2  117.00   11.22
  -6  -1   2  132.79   12.42
   6  -1  -2  140.17   12.82
   6  -1  -2  129.15   11.25
  -6   1   2  120.18   11.17
   6   1  -2  131.28   11.39
   6   1  -2  137.36   13.52
   6   1  -2  135.17   11.28
  -6   1   2  138.94   13.20
  -6   1   2  133.93   12.48
  -6   1   2  124.01   11.20
   6   1  -2  142.54   11.35
  -6   1   2  137.29   11.40
   5  -1  -2   61.18    5.25
   5  -1  -2   48.08    5.07
   5  -1  -2   57.65    5.93
   5  -1  -2   57.39    5.22
  -5  -1   2   53.65    6.11
  -5  -1   2   50.03    5.66
   5   1  -2   58.51    5.24
   5   1  -2   62.35    5.24
   5   1  -2   66.44    5.30
   5   1  -2   58.11    6.33
  -5   1   2   49.60    5.72
  -5   1   2   52.56    5.16
  -5   1   2   55.09    6.03
  -5   1   2   60.12    5.21
  -5   1   2   67.03    5.28
   4  -1  -2   63.25    5.98
   4  -1  -2   52.91    5.11
   4  -1  -2   64.25    5.27
  -4  -1   2   68.65    5.82
   4  -1  -2   56.05    5.17
  -4  -1   2   58.34    5.06
  -4  -1   2   50.96    6.08
  -4   1   2   59.10    5.16
   4   1  -2   50.90    5.16
  -4   1   2   64.37    5.22
  -4   1   2   64.48    5.28
   4   1  -2   47.80    6.17
   4   1  -2   67.41    5.25
   4   1  -2   64.21    5.22
  -4   1   2   44.48    6.00
  -4   1   2   56.54    5.75
  -3  -1   2  112.29   10.75
  -3  -1   2  133.07   10.60
  -3  -1   2  132.73   10.59
   3  -1  -2  131.33   10.69
   3  -1  -2  136.10   10.71
  -3  -1   2  106.01   12.60
   3  -1  -2  126.33   10.84
  -3  -1   2  135.45   11.70
   3  -1  -2  119.62   12.34
  -3   1   2  146.07   10.74
   3   1  -2  137.10   10.63
  -3   1   2  139.99   10.74
   3   1  -2  135.59   10.88
  -3   1   2  130.61   10.92
   3   1  -2  132.97   10.66
   3   1  -2  118.89   12.75
  -3   1   2  129.92   11.73
   2  -1  -2  470.17   36.87
  -2  -1   2  406.03   36.78
  -2  -1   2  410.57   43.52
   2  -1  -2  498.05   37.85
   2  -1  -2  391.59   40.29
  -2  -1   2  476.60   36.80
  -2  -1   2  477.21   37.74
  -2  -1   2  513.58   40.32
  -2   1   2  517.35   40.39
  -2   1   2  461.94   36.88
  -2   1   2  475.90   36.88
   2   1  -2  516.85   43.67
  -2   1   2  426.33   37.85
   2   1  -2  443.20   37.79
   2   1  -2  458.37   36.81
   2   1  -2  467.13   37.80
  -1  -1   2   93.91    8.01
  -1  -1   2   76.07    8.73
  -1  -1   2  101.35    7.30
   1  -1  -2   91.72    8.07
  -1  -1   2   87.50    7.27
  -1  -1   2   90.25    7.38
   1  -1  -2   84.25    7.32
  -1  -1   2   90.73    7.38
   1   1  -2   82.34    7.30
  -1   1   2   86.48    8.08
  -1   1   2   98.60    7.35
   1   1  -2   99.02    8.01
   1   1  -2   81.34    7.40
   1   1  -2   89.71    7.27
   1   1  -2   87.11    7.43
   0  -1  -2    8.97    1.37
   0  -1   2   10.48    1.15
   0  -1   2   10.90    1.08
   0  -1   2   12.24    1.42
   0  -1   2   11.53    1.10
   0  -1  -2    9.21    1.13
   0  -1  -2    7.66    1.14
   0  -1  -2   12.32    1.19
   0  -1   2   18.85    2.07
   0   1  -2   16.30    1.39
   0   1   2   11.59    1.17
   0   1   2   11.68    1.22
   0   1   2   13.76    1.27
   0   1  -2   12.75    1.18
   0   1  -2   12.37    1.15
  -1  -1  -2  201.69   18.82
  -1  -1  -2  213.25   17.63
  -1  -1  -2  226.25   17.20
   1  -1   2  200.53   17.18
   1  -1   2  225.90   18.94
   1  -1   2  240.71   18.83
  -1  -1  -2  234.26   18.89
   1   1   2  214.14   17.19
   1   1   2  225.09   18.90
  -1   1  -2  206.73   17.66
   1   1   2  198.02   17.64
  -1   1  -2  215.33   18.88
  -1   1  -2  183.82   17.19
   1   1   2  229.09   17.24
  -1   1  -2  211.79   17.19
   1   1   2  209.73   18.83
  -2  -1  -2  284.87   22.37
   2  -1   2  270.16   22.37
   2  -1   2  285.49   24.60
  -2  -1  -2  254.66   24.50
   2  -1   2  287.18   22.99
  -2  -1  -2  272.11   22.94
  -2  -1  -2  312.86   24.61
  -2  -1  -2  280.44   22.40
   2   1   2  277.80   22.98
   2   1   2  288.42   22.38
  -2   1  -2  249.13   24.49
  -2   1  -2  273.67   22.40
  -2   1  -2  296.29   22.44
  -3  -1  -2   44.55    4.23
   3  -1   2   45.49    4.24
  -3  -1  -2   40.55    4.18
   3  -1   2   51.78    4.93
   3  -1   2   48.84    4.22
   3  -1   2   47.19    4.73
   3  -1   2   41.37    4.21
  -3  -1  -2   45.75    4.14
  -3  -1  -2   46.97    4.74
   3   1   2   58.06    4.28
   3   1   2   50.86    4.28
   3   1   2   45.16    4.82
   3   1   2   53.00    5.07
  -3   1  -2   49.68    4.31
  -3   1  -2   51.52    4.86
  -3   1  -2   48.44    4.22
  -3   1  -2   47.93    4.31
   3   1   2   43.98    4.19
  -3   1  -2   50.13    4.77
  -4  -1  -2    0.82    0.44
   4  -1   2    1.45    0.90
  -4  -1  -2    1.12    0.46
   4  -1   2    1.84    0.73
  -4  -1  -2    0.84    0.83
   4  -1   2    1.27    0.64
   4  -1   2    0.54    0.46
   4  -1   2    1.36    0.52
  -4  -1  -2    1.15    0.55
   4   1   2    1.27    0.84
   4   1   2    1.59    0.53
  -4   1  -2    1.17    0.57
  -4   1  -2    0.83    0.72
   4   1   2    1.76    0.95
   4   1   2    1.43    0.67
  -4   1  -2    2.01    0.54
  -4   1  -2    1.59    0.70
   4   1   2    1.11    0.54
  -4   1  -2    0.83    0.68
   5  -1   2   19.62    3.37
  -5  -1  -2   23.64    3.17
   5  -1   2   26.19    3.06
   5  -1   2   24.17    2.89
   5  -1   2   27.54    2.84
  -5  -1  -2   28.72    2.75
  -5  -1  -2   25.58    2.87
   5  -1   2   31.38    2.97
  -5  -1  -2   27.41    2.75
  -5   1  -2   32.25    3.44
   5   1   2   25.52    2.85
  -5   1  -2   29.52    2.90
  -5   1  -2   32.42    2.96
   5   1   2   28.47    3.40
  -5   1  -2   30.94    3.09
   5   1   2   25.99    2.96
  -5   1  -2   30.01    2.98
   5   1   2   31.56    3.48
   6  -1   2   40.97    4.00
   6  -1   2   42.43    4.36
  -6  -1  -2   43.26    4.02
   6  -1   2   41.59    4.05
  -6  -1  -2   43.56    4.63
   6   1   2   44.02    4.17
  -6   1  -2   41.58    4.72
   6   1   2   32.29    4.43
   6   1   2   37.94    4.51
  -6   1  -2   41.58    3.97
  -6   1  -2   36.59    4.01
  -6   1  -2   39.92    3.94
   6   1   2   32.39    3.87
  -6   1  -2   42.41    4.23
  -7  -1  -2   51.64    6.37
  -7  -1  -2   60.32    5.79
   7  -1   2   69.24    6.55
   7  -1   2   64.03    5.90
   7   1   2   59.61    5.81
  -7   1  -2   69.17    6.30
   7   1   2   54.70    5.87
   7   1   2   62.84    6.72
  -7   1  -2   60.25    5.85
  -7   1  -2   57.00    6.51
  -7   1  -2   62.20    5.83
   7   1   2   61.32    5.85
  -8  -1  -2   61.10    5.75
   8  -1   2   58.30    5.69
  -8  -1  -2   52.82    6.30
   8  -1   2   55.03    6.21
  -8   1  -2   57.85    6.47
  -8   1  -2   60.92    5.70
  -8   1  -2   57.98    5.97
   8   1   2   65.19    5.95
   8   1   2   57.48    6.52
  -8   1  -2   53.70    5.66
   8   1   2   58.05    5.73
   8   1   2   58.08    5.63
   9  -1   2   28.58    3.54
  -9  -1  -2   23.74    4.09
   9  -1   2   24.66    3.22
  -9   1  -2   19.18    3.15
   9   1   2   22.28    3.66
  -9   1  -2   16.24    3.41
   9   1   2   22.23    3.14
 -10  -1  -2   12.96    2.97
  10  -1   2   12.38    2.43
 -10   1  -2   13.43    2.99
  10   1   2   12.50    2.55
 -11  -1  -2   10.48    2.62
  11   1   2   10.92    2.38
 -11   1  -2    5.05    2.21
 -12  -1  -2    4.34    2.21
 -12   1  -2    5.65    2.42
 -13  -1  -2    6.67    2.76
 -13   1  -2    3.21    2.06
 -13  -2   2    4.91    2.29
 -13   2   2    2.99    2.03
 -12  -2   2   -0.07    1.38
 -12  -2   2   -0.26    1.27
 -12   2   2   -1.04    1.24
  12   2  -2   -0.68    0.96
 -11  -2   2    1.52    1.45
 -11  -2   2    1.35    1.68
 -11   2   2    3.95    1.74
 -11   2   2    1.11    1.51
  11   2  -2    1.81    1.32
 -10  -2   2    8.54    2.56
 -10  -2   2    8.77    2.56
  10  -2  -2   15.27    2.48
 -10   2   2   11.42    2.34
  10   2  -2   13.51    2.70
 -10   2   2    3.43    1.95
  -9  -2   2   10.63    2.69
   9  -2  -2   20.91    2.99
  -9  -2   2   18.72    3.43
   9  -2  -2   13.38    2.43
  -9   2   2    9.67    2.08
  -9   2   2   13.04    2.53
   9   2  -2   13.76    2.52
  -9   2   2    9.80    2.75
  -8  -2   2   11.29    2.54
  -8  -2   2    9.02    2.25
   8  -2  -2   11.54    2.08
  -8  -2   2    9.38    1.68
   8  -2  -2   13.87    2.43
  -8   2   2   10.79    2.22
   8   2  -2    9.93    2.03
  -8   2   2   12.62    2.69
  -8   2   2   14.50    2.08
   8   2  -2   11.86    2.12
   8   2  -2   10.19    2.02
   8   2  -2   12.45    1.55
  -8   2   2   10.98    2.17
   7  -2  -2    8.47    1.84
  -7  -2   2    7.87    1.38
  -7  -2   2    5.08    1.52
  -7  -2   2    6.05    1.83
   7  -2  -2    7.57    1.49
  -7   2   2    6.56    1.36
  -7   2   2    6.57    1.59
   7   2  -2    5.53    1.33
   7   2  -2    5.47    1.44
   7   2  -2    4.64    1.08
  -7   2   2    9.76    2.18
   7   2  -2    4.71    1.17
  -7   2   2    4.82    1.25
   7   2  -2    8.00    2.17
   6  -2  -2    3.26    1.05
  -6  -2   2    3.39    0.87
  -6  -2   2    3.13    1.22
   6  -2  -2    3.09    1.14
  -6  -2   2    3.69    1.22
   6   2  -2    3.27    1.00
   6   2  -2    3.66    1.48
  -6   2   2    3.29    0.93
  -6   2   2    4.06    1.32
  -6   2   2    2.21    0.95
   6   2  -2    3.09    0.98
  -6   2   2    4.09    1.10
  -6   2   2    2.74    0.88
   6   2  -2    2.62    0.74
   5  -2  -2    8.36    1.48
   5  -2  -2    7.66    1.42
  -5  -2   2   14.36    2.16
   5  -2  -2   11.10    1.87
  -5  -2   2    9.47    1.33
  -5  -2   2    8.89    1.86
  -5   2   2    6.14    1.29
  -5   2   2    8.56    1.78
   5   2  -2    7.05    1.38
   5   2  -2    5.73    1.13
   5   2  -2    7.01    1.81
   5   2  -2    9.23    1.49
  -5   2   2    7.18    1.63
  -5   2   2    6.62    1.31
  -5   2   2    7.74    1.44
   4  -2  -2   22.81    2.92
  -4  -2   2   23.52    2.30
   4  -2  -2   17.96    2.42
   4  -2  -2   25.32    2.55
  -4  -2   2   21.84    2.77
  -4  -2   2   22.09    3.09
   4   2  -2   23.79    2.39
  -4   2   2   25.18    2.58
   4   2  -2   26.92    2.43
   4   2  -2   25.38    3.25
   4   2  -2   27.05    2.53
  -4   2   2   18.34    3.18
  -4   2   2   28.96    2.61
  -4   2   2   20.12    2.80
  -4   2   2   30.45    2.55
   3  -2  -2  126.52   10.92
  -3  -2   2  119.37    9.09
  -3  -2   2  132.69   10.16
   3  -2  -2  112.20    9.27
  -3  -2   2  116.33    9.10
   3  -2  -2  118.06    9.34
  -3  -2   2   94.80   10.96
   3   2  -2   97.03   11.07
   3   2  -2  109.46    9.30
   3   2  -2   99.93    9.30
  -3   2   2  118.22   10.21
  -3   2   2  114.89    9.28
  -3   2   2  102.53    9.23
   3   2  -2  109.75    9.15
  -3   2   2  104.25    9.40
   3   2  -2  105.98    9.17
   2  -2  -2  174.62   15.67
  -2  -2   2  190.01   18.62
  -2  -2   2  200.23   15.52
   2  -2  -2  214.23   17.25
   2  -2  -2  185.38   18.31
  -2  -2   2  216.19   15.50
  -2  -2   2  188.01   17.09
   2   2  -2  183.85   15.90
   2   2  -2  201.56   15.90
  -2   2   2  199.32   15.69
   2   2  -2  178.38   15.57
   2   2  -2  209.85   15.57
  -2   2   2  180.79   16.05
  -2   2   2  174.24   15.68
   2   2  -2  229.27   18.81
  -2   2   2  182.71   17.19
   1  -2  -2  101.61    8.58
  -1  -2   2  111.61    9.39
  -1  -2   2  110.84    8.45
   1  -2  -2  111.07   10.24
   1  -2  -2  106.26    9.47
  -1  -2   2  108.37   10.34
  -1  -2   2   96.92    8.44
   1   2  -2   89.57   10.27
   1   2  -2  107.82    8.50
   1   2  -2  116.72    9.36
   1   2  -2  103.03    8.50
  -1   2   2  101.11    8.62
   0  -2   2  329.71   25.93
   0  -2  -2  295.89   27.68
   0  -2   2  260.65   27.97
   0  -2   2  306.32   23.60
   0  -2  -2  294.95   23.68
   0   2  -2  296.00   23.63
   0   2  -2  301.52   25.86
   0   2   2  300.58   23.71
   0   2  -2  296.24   28.02
   0   2   2  292.43   25.98
   0   2   2  277.00   23.72
   0   2  -2  313.81   25.91
  -1  -2  -2  455.47   36.99
  -1  -2  -2  399.49   36.95
  -1  -2  -2  451.95   39.31
   1  -2   2  430.21   33.77
   1  -2   2  437.88   33.73
   1  -2   2  442.78   36.94
  -1  -2  -2  421.77   33.78
   1  -2   2  436.21   39.75
   1  -2   2  410.79   37.02
  -1   2  -2  441.75   33.80
  -1   2  -2  410.74   33.77
  -1   2  -2  452.22   36.96
   1   2   2  365.20   33.75
   1   2   2  429.33   34.68
   1   2   2  443.90   37.03
  -1   2  -2  410.70   34.66
   1   2   2  381.60   33.78
  -1   2  -2  429.46   39.40
   2  -2   2  267.75   21.76
  -2  -2  -2  278.63   25.21
   2  -2   2  282.21   21.80
   2  -2   2  266.98   23.85
   2  -2   2  233.54   23.87
  -2  -2  -2  258.93   23.88
  -2  -2  -2  286.04   21.72
  -2  -2  -2  263.13   23.85
  -2  -2  -2  278.37   21.78
  -2   2  -2  262.40   22.36
   2   2   2  265.90   21.78
  -2   2  -2  256.11   21.79
   2   2   2  277.96   21.78
   2   2   2  286.09   23.96
  -2   2  -2  282.56   21.82
   2   2   2  287.20   22.33
  -2   2  -2  282.29   25.43
   3  -2   2  131.25   10.12
  -3  -2  -2  142.75   11.17
   3  -2   2  131.41   11.30
  -3  -2  -2  117.49   11.17
   3  -2   2  127.33   11.94
   3  -2   2  117.54   11.51
  -3  -2  -2  117.24   10.00
  -3   2  -2  122.07   10.16
  -3   2  -2  106.10   10.16
  -3   2  -2  127.18   11.76
   3   2   2  114.99   10.09
  -3   2  -2  125.62   10.38
   3   2   2  131.51   12.12
  -3   2  -2  127.12   11.21
   3   2   2  117.08   10.28
   3   2   2  104.50   10.03
   3   2   2  128.34   11.21
   4  -2   2  104.50    8.94
  -4  -2  -2  115.66    8.92
  -4  -2  -2  116.95    9.87
  -4  -2  -2  106.76    9.86
   4  -2   2  109.67    8.89
   4  -2   2  101.52    9.97
   4  -2   2  105.41   10.04
   4  -2   2  108.93   10.37
   4   2   2  100.85    9.02
  -4   2  -2   97.63    9.81
  -4   2  -2  109.08    9.12
  -4   2  -2  106.40    8.96
   4   2   2   94.74    8.89
   4   2   2   96.35   10.51
  -4   2  -2  104.80   10.29
   4   2   2   98.11    8.83
   4   2   2  108.63    9.93
   5  -2   2   67.61    6.05
   5  -2   2   72.12    5.64
  -5  -2  -2   55.62    6.03
   5  -2   2   62.84    6.33
  -5  -2  -2   64.66    5.47
  -5   2  -2   74.70    6.42
   5   2   2   55.96    6.52
  -5   2  -2   48.30    6.14
  -5   2  -2   59.82    5.56
   5   2   2   58.79    5.47
  -5   2  -2   61.63    5.58
   5   2   2   60.85    5.52
  -5   2  -2   57.33    5.51
   5   2   2   64.56    6.26
   5   2   2   51.33    5.48
   6  -2   2   47.18    4.78
   6  -2   2   45.56    5.38
  -6  -2  -2   40.50    4.57
  -6  -2  -2   54.62    5.47
   6  -2   2   50.85    5.12
  -6   2  -2   48.87    4.79
  -6   2  -2   48.25    4.84
  -6   2  -2   48.43    4.78
   6   2   2   52.12    4.78
   6   2   2   49.58    4.74
   6   2   2   48.43    5.57
   6   2   2   52.53    5.49
   6   2   2   60.41    4.98
  -6   2  -2   60.85    5.63
  -6   2  -2   49.87    5.29
   7  -2   2    6.63    1.50
  -7  -2  -2   14.14    2.52
   7  -2   2    6.31    1.52
  -7   2  -2    8.82    1.88
  -7   2  -2   10.42    1.85
   7   2   2   14.17    2.30
   7   2   2    9.57    2.05
  -7   2  -2   12.30    1.92
   7   2   2    8.26    1.52
   7   2   2    9.44    1.71
  -7   2  -2   11.05    2.35
  -7   2  -2    7.35    1.54
  -8  -2  -2    6.27    1.83
   8  -2   2    4.30    1.27
   8  -2   2    3.11    1.23
   8   2   2    5.49    1.56
   8   2   2    4.59    1.67
  -8   2  -2    4.21    1.33
  -8   2  -2    4.90    1.69
   8   2   2    3.98    1.19
  -8   2  -2    5.76    1.62
   8   2   2    2.42    1.23
  -8   2  -2    4.79    1.30
   9  -2   2    9.18    1.99
  -9  -2  -2    7.62    2.27
  -9   2  -2    5.24    1.52
   9   2   2    3.31    1.39
  -9   2  -2    5.73    1.96
 -10  -2  -2    3.45    1.63
 -10   2  -2    2.05    1.23
  10   2   2    2.23    1.23
 -11  -2  -2    3.97    1.85
 -11   2  -2    2.60    1.73
  11   2   2    2.80    1.44
 -12  -2  -2   -0.65    1.12
 -12   2  -2    0.62    1.53
 -13  -2  -2    3.40    2.20
 -13   2  -2    8.38    2.93
 -13  -3   2    3.42    1.89
 -13   3   2    3.87    2.26
 -12  -3   2   -0.34    1.11
 -12   3   2   -0.25    1.49
  12   3  -2    0.53    1.09
 -11  -3   2    6.29    2.33
 -11  -3   2    2.25    1.84
  11   3  -2    6.08    1.94
 -11   3   2    3.93    2.04
  10  -3  -2    3.71    1.53
 -10  -3   2    5.85    1.95
 -10  -3   2    4.22    1.73
 -10   3   2    2.42    1.28
 -10   3   2    3.80    1.42
  10   3  -2    2.71    1.37
 -10   3   2    2.03    1.51
  -9  -3   2   69.12    7.73
  -9  -3   2   74.64    8.38
   9  -3  -2   75.66    7.84
   9  -3  -2   79.86    7.17
   9   3  -2   65.46    6.80
  -9   3   2   68.10    7.87
  -9   3   2   69.08    6.97
  -9   3   2   72.76    7.72
   8  -3  -2    4.05    1.34
   8  -3  -2    3.52    1.48
  -8  -3   2    4.06    1.60
  -8  -3   2    5.88    2.07
  -8  -3   2    3.90    1.11
  -8   3   2    5.91    1.47
   8   3  -2    4.94    0.95
   8   3  -2    4.54    1.39
  -8   3   2    5.28    1.41
  -8   3   2    4.10    1.63
   8   3  -2    6.35    1.00
  -8   3   2    7.44    1.78
   8   3  -2    2.25    0.90
   8   3  -2    4.32    1.36
   7  -3  -2   55.47    5.82
  -7  -3   2   48.97    5.55
  -7  -3   2   54.52    6.20
  -7  -3   2   54.73    4.78
   7  -3  -2   51.26    5.05
  -7   3   2   53.39    5.82
  -7   3   2   52.75    5.11
  -7   3   2   51.79    5.13
  -7   3   2   50.45    5.08
   7   3  -2   50.57    4.96
   7   3  -2   49.87    4.94
  -7   3   2   52.01    5.75
   7   3  -2   45.25    4.92
   6  -3  -2   19.95    2.71
  -6  -3   2   15.84    2.68
   6  -3  -2   18.61    3.05
  -6  -3   2   22.75    2.14
  -6  -3   2   24.09    3.06
   6   3  -2   20.81    2.33
   6   3  -2   18.26    2.51
  -6   3   2   20.84    2.67
  -6   3   2   15.38    2.36
   6   3  -2   19.09    2.18
   6   3  -2   20.29    3.43
  -6   3   2   19.17    2.69
  -6   3   2   18.84    2.92
  -6   3   2   17.03    3.01
   5  -3  -2   96.64   10.33
  -5  -3   2  116.08   10.82
  -5  -3   2  104.11    8.60
  -5  -3   2  111.08    9.80
   5  -3  -2  110.14    8.89
   5   3  -2   99.08    8.87
  -5   3   2  102.78    8.95
  -5   3   2   95.12    9.85
   5   3  -2  102.03    8.77
  -5   3   2   90.10    8.87
  -5   3   2  108.59    9.06
   5   3  -2  106.74   10.79
   5   3  -2  109.31    8.85
  -4  -3   2  155.84   14.45
  -4  -3   2  162.92   15.85
   4  -3  -2  154.33   15.50
  -4  -3   2  164.22   12.95
   4  -3  -2  133.92   13.17
  -4   3   2  159.35   13.52
  -4   3   2  174.90   13.35
  -4   3   2  170.06   13.35
   4   3  -2  180.19   13.16
   4   3  -2  180.46   16.02
  -4   3   2  161.22   14.64
  -4   3   2  173.83   15.70
   4   3  -2  137.57   13.34
   4   3  -2  151.68   13.13
  -3  -3   2   12.35    1.12
  -3  -3   2   10.33    1.11
   3  -3  -2   13.60    1.48
   3  -3  -2   11.47    2.05
  -3  -3   2   12.05    2.14
  -3  -3   2   10.30    1.63
  -3   3   2   14.84    2.39
  -3   3   2    9.59    1.46
   3   3  -2   14.68    2.41
   3   3  -2   12.41    1.31
  -3   3   2   10.96    1.50
   3   3  -2   11.74    1.17
  -3   3   2   12.81    1.40
   3   3  -2   12.30    1.39
  -3   3   2    9.25    1.68
   2  -3  -2  206.90   17.44
   2  -3  -2  221.72   20.54
  -2  -3   2  233.98   19.00
   2  -3  -2  180.74   19.09
  -2  -3   2  212.38   20.78
  -2   3   2  230.41   17.49
  -2   3   2  210.04   19.13
   2   3  -2  200.39   20.40
  -2   3   2  209.28   17.48
   2   3  -2  215.23   17.31
   2   3  -2  232.17   17.28
   2   3  -2  244.49   20.96
  -1  -3   2   57.32    5.95
   1  -3  -2   58.44    4.83
   1  -3  -2   58.39    5.94
   1  -3  -2   58.92    4.84
  -1  -3   2   63.32    5.26
   1  -3  -2   53.45    5.34
   1   3  -2   55.04    4.70
  -1   3   2   61.26    6.09
  -1   3   2   55.16    4.87
   1   3  -2   57.93    5.83
   1   3  -2   60.36    5.96
  -1   3   2   53.89    5.40
   0  -3  -2  102.46    7.89
   0  -3  -2   86.07    8.51
   0  -3   2   77.94    8.48
   0  -3  -2   77.00    7.00
   0  -3  -2   92.36    7.04
   0  -3   2   89.02    7.75
   0   3   2   82.16    7.08
   0   3   2   97.28    7.89
   0   3   2   80.21    7.09
   0   3  -2   84.57    6.98
   0   3   2   89.75    8.55
   0   3  -2   86.84    7.67
   0   3  -2   85.90    8.51
   0   3  -2   83.41    8.52
  -1  -3  -2    7.97    1.16
  -1  -3  -2    6.74    0.81
   1  -3   2    7.16    1.24
  -1  -3  -2    6.92    1.38
   1  -3   2    6.10    1.57
   1  -3   2    7.14    0.76
  -1  -3  -2    7.83    1.20
   1  -3   2   10.34    1.21
  -1  -3  -2    7.03    0.86
   1  -3   2    7.56    1.10
   1   3   2    7.28    1.34
  -1   3  -2    6.37    0.91
   1   3   2    4.93    0.84
   1   3   2    7.30    1.14
  -1   3  -2    5.29    0.87
  -1   3  -2    6.39    1.12
   1   3   2    4.39    0.85
  -1   3  -2    6.10    1.52
  -1   3  -2    7.22    1.05
   2  -3   2   30.28    3.05
  -2  -3  -2   35.62    3.19
   2  -3   2   33.49    3.51
   2  -3   2   31.71    2.98
  -2  -3  -2   24.75    3.03
  -2  -3  -2   30.78    2.62
   2  -3   2   32.49    3.29
  -2  -3  -2   29.16    2.67
   2  -3   2   28.68    2.66
   2  -3   2   30.72    2.74
  -2  -3  -2   34.40    3.30
   2   3   2   28.94    2.69
  -2   3  -2   27.71    2.77
  -2   3  -2   27.02    3.05
   2   3   2   32.84    2.76
  -2   3  -2   31.89    2.77
  -2   3  -2   32.81    2.82
  -2   3  -2   27.04    3.39
   2   3   2   25.56    3.12
   2   3   2   30.13    2.77
  -3  -3  -2   20.10    2.51
  -3  -3  -2   17.43    2.42
   3  -3   2   20.75    2.73
   3  -3   2   24.92    2.87
  -3  -3  -2   19.66    2.12
   3  -3   2   22.87    2.17
   3  -3   2   23.68    2.27
   3  -3   2   21.56    2.47
  -3  -3  -2   23.00    2.44
  -3   3  -2   24.53    2.26
  -3   3  -2   23.32    2.39
  -3   3  -2   23.95    2.57
   3   3   2   22.44    2.23
  -3   3  -2   22.04    2.74
   3   3   2   22.79    2.16
   3   3   2   22.42    2.21
   3   3   2   19.67    2.49
   3   3   2   24.17    2.92
  -3   3  -2   24.57    2.30
   4  -3   2   33.58    3.78
   4  -3   2   29.20    3.11
  -4  -3  -2   27.33    3.51
  -4  -3  -2   33.96    3.25
  -4  -3  -2   28.85    3.50
  -4  -3  -2   32.48    3.06
  -4   3  -2   29.04    3.17
   4   3   2   34.64    3.97
  -4   3  -2   30.48    3.58
   4   3   2   33.81    3.10
   4   3   2   29.78    3.17
   4   3   2   33.54    3.59
  -4   3  -2   33.17    3.19
  -4   3  -2   37.88    3.78
  -4   3  -2   32.89    3.15
   4   3   2   35.35    3.08
   5  -3   2  131.76   11.99
  -5  -3  -2   95.48   11.14
  -5  -3  -2  112.00   10.12
   5   3   2  119.31   11.40
  -5   3  -2  130.92   11.95
  -5   3  -2  108.71   11.44
  -5   3  -2  119.82   10.33
   5   3   2  121.52   10.31
  -5   3  -2  144.47   10.52
   5   3   2  114.22   10.17
  -5   3  -2  115.52   10.51
   5   3   2  140.93   12.41
   5   3   2  129.14   10.42
   6  -3   2   22.98    3.04
   6  -3   2   24.35    2.71
  -6  -3  -2   21.57    2.53
  -6  -3  -2   16.75    3.09
   6   3   2   27.96    2.80
  -6   3  -2   25.17    2.74
   6   3   2   18.96    3.39
   6   3   2   27.09    3.36
   6   3   2   24.85    2.63
  -6   3  -2   16.85    2.72
  -6   3  -2   27.27    2.77
   6   3   2   24.43    2.65
  -7  -3  -2   84.42    8.60
   7  -3   2   90.11    7.81
  -7  -3  -2   93.37    7.68
   7  -3   2   83.07    8.76
   7   3   2   93.14    7.79
   7   3   2   91.35    9.25
  -7   3  -2   77.46    7.81
  -7   3  -2   82.05    7.84
  -7   3  -2   73.28    7.67
   7   3   2   89.41    7.82
   7   3   2   83.90    7.77
  -7   3  -2   88.89    8.79
   8  -3   2   11.95    2.18
  -8  -3  -2    8.99    2.23
   8  -3   2   13.65    2.75
  -8  -3  -2   17.18    2.43
  -8   3  -2   13.07    2.14
   8   3   2   12.53    2.24
  -8   3  -2   13.27    2.33
  -8   3  -2   12.61    2.51
  -8   3  -2    9.13    2.39
   8   3   2   13.07    2.19
   8   3   2   12.24    2.18
  -9  -3  -2   24.82    4.16
  -9   3  -2   30.65    4.34
   9   3   2   27.77    3.71
  -9   3  -2   27.18    4.57
 -10  -3  -2    8.67    2.54
  10   3   2   14.14    2.67
 -10   3  -2    7.48    2.41
 -10   3  -2   13.28    2.80
 -11  -3  -2    4.57    1.95
 -11   3  -2    8.60    2.67
  11   3   2   10.20    2.28
 -12  -3  -2    3.15    1.75
 -12   3  -2    3.18    1.82
  12   3   2    0.98    1.44
 -13  -3  -2    1.51    1.88
 -13   3  -2    1.98    1.89
 -13  -4   2    2.12    1.75
 -13   4   2    4.83    2.43
  13   4  -2    1.46    1.31
 -12  -4   2    3.16    1.92
 -12   4   2    4.01    2.14
  12   4  -2    6.06    2.10
 -11  -4   2    9.77    2.84
 -11  -4   2    1.84    1.44
  11  -4  -2    7.59    2.11
  11   4  -2    4.04    1.62
 -11   4   2    3.09    1.95
 -10  -4   2    8.09    2.44
  10  -4  -2   15.00    3.05
 -10  -4   2   20.60    3.84
  10   4  -2   12.78    2.64
 -10   4   2    9.57    2.91
 -10   4   2   16.80    2.96
  -9  -4   2    1.38    1.35
   9  -4  -2    1.14    1.20
  -9  -4   2    1.51    1.35
  -9   4   2    1.49    1.54
   9   4  -2    2.11    1.09
  -9   4   2    3.78    1.23
  -9   4   2    0.84    1.01
  -8  -4   2    5.77    1.85
   8  -4  -2   13.57    2.62
  -8  -4   2    9.12    2.42
   8  -4  -2    8.66    1.74
  -8   4   2    8.19    1.71
  -8   4   2    5.75    1.66
   8   4  -2    9.27    1.65
  -8   4   2    9.40    1.98
   8   4  -2    6.97    1.60
  -8   4   2    6.17    1.62
   8   4  -2    5.63    1.51
  -8   4   2    3.92    1.78
  -7  -4   2   18.56    3.83
   7  -4  -2   22.73    3.56
   7  -4  -2   22.72    2.81
  -7  -4   2   18.92    3.13
  -7  -4   2   20.63    2.13
   7   4  -2   15.63    2.40
   7   4  -2   19.33    2.84
   7   4  -2   17.41    2.62
  -7   4   2   18.35    2.93
  -7   4   2   22.59    3.00
  -7   4   2   23.48    3.24
  -7   4   2   18.71    3.38
  -7   4   2   21.07    2.98
   7   4  -2   21.19    2.31
   6  -4  -2    0.82    0.60
  -6  -4   2    0.61    0.80
  -6  -4   2    2.45    1.35
  -6  -4   2    1.49    0.54
   6  -4  -2    3.36    1.43
  -6   4   2    0.84    0.86
   6   4  -2    1.81    0.77
  -6   4   2    0.63    0.65
  -6   4   2    1.24    1.01
   6   4  -2    0.14    1.00
   6   4  -2    1.28    0.72
  -6   4   2    1.41    0.72
   6   4  -2    1.09    0.70
   6   4  -2    1.12    0.62
  -6   4   2    0.65    0.68
   5  -4  -2   27.99    3.92
  -5  -4   2   24.09    2.12
  -5  -4   2   21.20    3.53
  -5  -4   2   23.87    2.78
   5  -4  -2   18.59    2.41
  -5   4   2   21.39    3.65
  -5   4   2   23.02    2.60
  -5   4   2   24.81    2.69
   5   4  -2   23.82    2.42
  -5   4   2   19.84    2.48
   5   4  -2   24.80    2.48
   5   4  -2   22.48    2.30
   5   4  -2   24.86    3.88
  -5   4   2   25.10    3.03
   5   4  -2   22.74    2.67
  -4  -4   2   86.24    9.88
  -4  -4   2   96.82    8.86
   4  -4  -2  100.53    9.79
   4   4  -2   88.28    9.98
   4   4  -2   93.09    9.38
  -4   4   2   90.86    8.30
   4   4  -2  101.56    8.04
   4   4  -2   92.77    8.03
   4   4  -2   98.55    8.00
   4   4  -2   93.03    8.03
  -4   4   2  103.04    8.28
  -4   4   2  106.26    8.34
  -3  -4   2   16.25    3.09
   3  -4  -2   22.64    3.04
  -3  -4   2   27.37    2.56
   3  -4  -2   22.45    2.70
  -3   4   2   22.37    2.45
   3   4  -2   26.62    2.23
  -3   4   2   22.68    2.39
  -3   4   2   24.87    2.46
   3   4  -2   24.49    2.86
   3   4  -2   28.13    3.35
   3   4  -2   22.66    2.25
  -3   4   2   28.09    2.85
   2  -4  -2   65.57    5.80
  -2  -4   2   52.66    6.34
  -2  -4   2   66.74    5.54
   2  -4  -2   61.47    6.43
  -2   4   2   67.24    5.84
   2   4  -2   58.45    6.19
  -2   4   2   58.77    5.22
  -2   4   2   66.57    5.32
   2   4  -2   48.32    6.35
  -2   4   2   55.85    6.43
  -1  -4   2  150.08   15.05
   1  -4  -2  161.10   12.48
   1  -4  -2  158.83   12.46
   1  -4  -2  146.57   14.94
   1  -4  -2  167.03   13.83
  -1  -4   2  166.01   13.57
   1   4  -2  142.88   14.86
   1   4  -2  153.21   13.54
  -1   4   2  152.25   12.59
   1   4  -2  149.62   15.08
  -1   4   2  150.23   13.82
   0  -4   2   75.00    7.86
   0  -4   2   80.73    7.06
   0  -4   2   77.88    8.06
   0  -4  -2   85.35    7.19
   0  -4  -2   80.09    7.20
   0  -4  -2   76.60    7.94
   0   4  -2   75.31    7.01
   0   4   2   81.15    6.53
   0   4   2   83.30    7.24
   0   4  -2   72.67    7.88
   0   4   2   73.30    6.51
   0   4   2   83.53    8.02
   0   4  -2   83.30    8.00
   1  -4   2  135.60   12.16
  -1  -4  -2  141.26   12.15
  -1  -4  -2  138.38   12.16
   1  -4   2  134.16   13.27
   1  -4   2  136.97   13.08
  -1  -4  -2  113.40   13.04
  -1   4  -2  129.56   13.24
   1   4   2  120.90   11.01
   1   4   2  146.43   11.06
  -1   4  -2  138.50   13.09
   1   4   2  138.98   13.16
  -1   4  -2  133.58   12.09
  -1   4  -2  140.25   11.01
  -1   4  -2  145.91   11.05
   1   4   2  149.57   12.22
  -2  -4  -2  262.95   24.39
   2  -4   2  252.49   23.00
   2  -4   2  250.53   20.77
   2  -4   2  258.12   24.40
  -2  -4  -2  270.37   22.91
   2  -4   2  224.94   24.59
   2  -4   2  259.74   22.87
  -2  -4  -2  274.98   22.90
  -2   4  -2  276.67   21.34
  -2   4  -2  270.32   20.97
  -2   4  -2  277.36   22.94
  -2   4  -2  264.75   20.89
   2   4   2  219.27   22.91
  -2   4  -2  268.71   24.61
   2   4   2  250.52   20.84
   2   4   2  289.86   20.92
  -2   4  -2  248.53   24.45
  -3  -4  -2  111.81    9.94
   3  -4   2  100.97   10.84
  -3  -4  -2   95.69   10.43
  -3  -4  -2  110.33    9.94
   3  -4   2  110.32    9.96
   3  -4   2  117.28    9.04
  -3  -4  -2  111.51    8.89
  -3   4  -2  119.70   10.13
  -3   4  -2  108.37    9.23
  -3   4  -2  109.58    9.17
   3   4   2  113.45    9.07
   3   4   2  103.74   10.99
   3   4   2  112.65    9.12
   3   4   2  106.07    8.99
  -3   4  -2  110.57    9.14
   3   4   2   99.27    9.95
  -4  -4  -2  103.97    8.94
  -4  -4  -2  112.14   10.10
   4  -4   2  119.00    9.18
   4  -4   2   94.89   10.78
  -4  -4  -2  104.98   10.32
  -4  -4  -2  113.70   10.09
   4   4   2  107.80    9.16
  -4   4  -2  100.75    9.31
   4   4   2   90.24    8.98
   4   4   2  132.99   10.27
  -4   4  -2  107.54    9.22
  -4   4  -2  115.82   10.34
   4   4   2  108.84   11.13
  -4   4  -2  120.64    9.31
   4   4   2  105.90    9.19
   5  -4   2   86.32    8.73
   5  -4   2   98.36    7.41
  -5  -4  -2   91.99    8.17
  -5  -4  -2   81.96    7.15
  -5  -4  -2   82.63    7.93
   5   4   2   88.46    7.34
  -5   4  -2   84.62    7.45
   5   4   2   77.68    8.85
  -5   4  -2  100.46    8.40
  -5   4  -2   78.59    7.35
   5   4   2   85.69    7.38
   5   4   2   83.37    8.17
  -5   4  -2   69.57    7.31
   5   4   2   71.00    7.15
  -6  -4  -2   17.69    1.99
  -6  -4  -2   26.33    3.54
   6  -4   2   18.15    2.49
   6  -4   2   20.47    3.21
  -6   4  -2   18.18    2.60
   6   4   2   11.30    2.48
  -6   4  -2   18.53    2.67
   6   4   2   14.37    2.27
   6   4   2   13.16    2.03
   6   4   2   20.42    2.71
  -6   4  -2   23.18    3.34
  -6   4  -2   18.27    2.68
   6   4   2   15.65    2.98
  -7  -4  -2   28.32    3.42
   7  -4   2   24.67    3.81
  -7  -4  -2   23.94    2.64
  -7   4  -2   25.91    2.96
   7   4   2   26.44    3.02
  -7   4  -2   32.32    4.45
   7   4   2   25.54    2.90
  -7   4  -2   21.35    3.22
  -7   4  -2   21.01    3.23
   7   4   2   23.52    2.79
  -8  -4  -2   18.87    3.36
   8  -4   2   23.80    3.58
   8   4   2   20.74    2.86
  -8   4  -2   19.59    3.16
   8   4   2   21.15    3.17
  -8   4  -2   13.02    2.99
  -8   4  -2   22.35    3.20
  -9  -4  -2    1.45    1.11
   9  -4   2    2.02    1.45
   9   4   2    0.65    0.91
  -9   4  -2    1.99    1.25
  -9   4  -2    0.31    0.94
 -10  -4  -2   21.70    3.96
  10   4   2   17.74    3.22
 -10   4  -2   18.02    3.31
 -10   4  -2   13.68    3.22
 -11  -4  -2    3.92    1.92
 -11   4  -2    4.10    1.97
  11   4   2    9.92    2.52
 -12  -4  -2    0.08    1.34
 -12   4  -2    2.68    1.88
  12   4   2    2.81    1.61
 -12  -5   2    5.09    2.27
  12   5  -2    4.55    1.72
 -12   5   2    3.55    2.20
 -11  -5   2    3.00    1.69
  11  -5  -2    4.18    1.88
  11   5  -2    2.88    1.47
 -11   5   2    5.25    2.07
 -10  -5   2   17.30    3.95
 -10  -5   2   16.19    3.54
  10  -5  -2   18.73    3.80
  10   5  -2   20.73    3.19
 -10   5   2   15.81    3.74
 -10   5   2   24.45    3.80
  -9  -5   2    7.20    2.44
   9  -5  -2    4.72    1.85
  -9  -5   2    1.63    1.15
   9   5  -2    3.19    1.25
  -9   5   2    3.67    1.44
  -9   5   2    2.54    1.16
  -9   5   2    2.98    1.60
  -8  -5   2   43.75    5.47
  -8  -5   2   32.07    4.52
   8  -5  -2   42.90    5.16
   8   5  -2   37.78    4.10
  -8   5   2   38.80    5.00
   8   5  -2   40.17    4.03
  -8   5   2   37.57    4.51
  -8   5   2   37.07    4.29
  -8   5   2   43.77    4.34
  -7  -5   2   23.88    4.29
  -7  -5   2   24.88    3.72
   7  -5  -2   27.91    4.22
   7  -5  -2   24.54    3.28
   7   5  -2   19.56    3.06
  -7   5   2   23.86    3.22
  -7   5   2   28.79    3.06
  -7   5   2   15.36    3.36
  -7   5   2   29.93    3.78
   7   5  -2   27.08    2.81
   7   5  -2   27.85    2.91
   7   5  -2   24.10    2.77
  -7   5   2   23.93    3.18
  -6  -5   2   67.50    6.95
   6  -5  -2   82.07    7.93
  -6  -5   2   72.69    7.00
  -6  -5   2   73.37    8.05
   6  -5  -2   72.35    6.49
  -6   5   2   67.22    6.46
  -6   5   2   73.07    6.66
  -6   5   2   76.62    6.54
   6   5  -2   73.77    7.03
   6   5  -2   62.80    6.22
  -6   5   2   62.39    7.40
  -6   5   2   62.86    7.16
   6   5  -2   67.87    6.32
   6   5  -2   72.35    6.27
  -5  -5   2   46.65    5.09
   5  -5  -2   40.30    4.79
  -5  -5   2   40.37    4.08
  -5  -5   2   34.33    3.91
   5   5  -2   34.13    3.41
  -5   5   2   38.08    3.72
  -5   5   2   39.85    4.28
   5   5  -2   39.77    3.62
  -5   5   2   35.99    3.90
   5   5  -2   43.21    4.19
  -5   5   2   43.26    3.92
   5   5  -2   29.43    3.49
   5   5  -2   41.46    5.02
  -4  -5   2   31.29    3.77
  -4  -5   2   33.66    3.87
  -4  -5   2   27.77    5.12
   4  -5  -2   42.18    4.77
  -4   5   2   40.91    3.68
   4   5  -2   41.12    3.52
   4   5  -2   43.90    4.90
   4   5  -2   37.48    3.43
  -4   5   2   45.47    3.84
   4   5  -2   44.68    4.29
  -4   5   2   44.43    3.91
  -4   5   2   34.36    4.09
   3  -5  -2  139.83   13.97
  -3  -5   2  133.58   12.47
  -3  -5   2  110.36   14.04
   3  -5  -2  128.22   12.74
  -3  -5   2  145.48   12.48
   3   5  -2  139.59   11.37
  -3   5   2  154.35   11.68
   3   5  -2  151.21   11.34
   3   5  -2  146.26   14.15
   3   5  -2  147.90   13.60
  -3   5   2  137.55   11.65
  -3   5   2  144.84   11.78
  -3   5   2  137.63   12.77
   2  -5  -2   14.12    2.37
   2  -5  -2   10.33    1.56
  -2  -5   2    6.36    1.76
   2  -5  -2    9.20    1.02
  -2   5   2    7.17    1.16
   2   5  -2    5.82    1.58
  -2   5   2    7.11    1.36
   2   5  -2    9.27    1.82
  -1  -5   2   60.55    6.27
   1  -5  -2   54.55    6.24
   1  -5  -2   66.35    5.59
   1   5  -2   63.65    6.31
  -1   5   2   49.36    4.96
  -1   5   2   65.66    5.55
   1   5  -2   59.00    5.19
   1   5  -2   52.25    6.11
   0  -5  -2    2.35    0.70
   0  -5   2    2.03    0.99
   0  -5   2    3.03    0.90
   0  -5  -2    1.72    0.60
   0  -5  -2    2.90    1.16
   0   5   2    2.94    0.72
   0   5  -2    2.10    0.45
   0   5   2    2.48    1.08
   0   5   2    1.41    0.47
   0   5  -2    2.08    0.81
   0   5   2    2.85    0.55
  -1  -5  -2   19.43    1.92
  -1  -5  -2   14.24    2.57
  -1  -5  -2   12.96    1.74
   1  -5   2   14.40    2.00
   1  -5   2   14.96    2.73
   1  -5   2   20.92    1.79
   1   5   2   19.62    2.47
   1   5   2   14.53    1.56
  -1   5  -2   14.95    1.54
  -1   5  -2   16.25    2.06
  -1   5  -2   17.40    1.62
  -1   5  -2   17.44    1.78
   1   5   2   17.21    1.64
   1   5   2   19.43    1.96
  -2  -5  -2    2.32    0.72
  -2  -5  -2    2.14    0.66
  -2  -5  -2    2.45    0.96
   2  -5   2    0.46    0.85
   2  -5   2    2.89    0.72
  -2   5  -2    0.96    0.46
   2   5   2    1.60    0.50
   2   5   2    1.55    0.45
  -2   5  -2    1.28    0.48
   2   5   2    2.28    1.05
  -2   5  -2    2.46    0.63
  -2   5  -2    2.69    0.79
   2   5   2    2.14    0.98
   2   5   2    1.57    0.65
  -3  -5  -2    6.23    1.36
   3  -5   2   10.66    2.12
   3  -5   2   10.55    1.23
  -3  -5  -2   12.03    1.85
   3  -5   2    9.19    1.48
  -3  -5  -2    5.79    1.25
  -3   5  -2    8.40    1.13
   3   5   2    7.71    1.15
   3   5   2    7.77    1.43
  -3   5  -2    9.41    1.43
  -3   5  -2    9.78    1.47
  -3   5  -2    7.00    1.44
   3   5   2    9.40    1.25
   3   5   2    7.00    1.48
   3   5   2    8.26    1.82
  -4  -5  -2   68.92    6.61
  -4  -5  -2   63.89    6.54
   4  -5   2   62.65    7.29
   4  -5   2   71.69    5.91
  -4  -5  -2   65.16    6.74
   4   5   2   65.98    5.83
   4   5   2   73.85    6.01
  -4   5  -2   70.31    6.09
  -4   5  -2   71.82    6.77
  -4   5  -2   69.23    6.08
   4   5   2   70.94    6.68
   4   5   2   65.94    7.45
   4   5   2   65.98    5.88
  -4   5  -2   66.67    6.07
  -5  -5  -2    2.36    0.73
  -5  -5  -2    2.37    1.01
   5  -5   2    3.36    0.90
  -5  -5  -2    3.29    1.05
   5  -5   2    4.23    1.52
  -5   5  -2    1.78    0.70
   5   5   2    1.55    0.58
  -5   5  -2    0.88    0.62
  -5   5  -2    1.50    0.68
   5   5   2    1.08    0.80
   5   5   2    1.95    1.11
   5   5   2    0.52    0.52
  -5   5  -2    2.41    0.96
   5   5   2    1.20    0.72
   6  -5   2   44.52    4.55
   6  -5   2   51.14    5.72
  -6  -5  -2   43.88    5.22
   6   5   2   50.94    5.30
  -6   5  -2   48.12    4.72
  -6   5  -2   52.29    4.74
  -6   5  -2   43.52    4.70
  -6   5  -2   48.00    5.37
   6   5   2   51.93    4.75
   6   5   2   49.12    4.56
   6   5   2   44.91    4.51
   7  -5   2    4.46    1.26
  -7  -5  -2    4.35    1.48
   7  -5   2    4.95    1.81
   7   5   2    5.22    1.35
   7   5   2    4.40    1.09
  -7   5  -2    4.54    1.46
   7   5   2    4.45    1.20
  -7   5  -2    3.81    1.22
  -7   5  -2    5.90    1.35
  -7   5  -2    2.72    1.29
  -8  -5  -2   30.28    4.59
   8  -5   2   36.60    4.43
   8   5   2   34.31    3.60
  -8   5  -2   47.13    4.10
  -8   5  -2   27.85    4.00
   8   5   2   21.02    3.53
  -8   5  -2   31.91    4.77
   9  -5   2   31.39    4.59
  -9  -5  -2   24.31    4.24
  -9   5  -2   24.43    4.52
  -9   5  -2   29.53    4.43
   9   5   2   28.38    3.81
 -10  -5  -2   17.82    3.44
 -10   5  -2   15.28    3.47
  10   5   2   18.90    3.06
 -10   5  -2   27.57    4.35
 -11  -5  -2    4.00    1.93
 -11   5  -2    7.10    2.62
  11   5   2   10.52    2.51
 -12  -5  -2    4.70    2.12
 -12   5  -2    5.30    2.35
  12   5   2    5.32    2.11
 -12  -6   2    6.44    2.20
  12   6  -2    4.07    1.84
 -12   6   2    2.33    1.88
  11  -6  -2    5.19    2.19
 -11  -6   2   -0.06    1.20
 -11   6   2   -0.19    1.36
  11   6  -2    2.35    1.31
  10  -6  -2    5.94    2.08
 -10  -6   2    0.42    1.09
 -10   6   2    2.52    1.87
 -10   6   2    1.08    1.13
  10   6  -2    3.66    1.46
  -9  -6   2    0.40    1.01
   9  -6  -2    1.44    1.48
  -9  -6   2    1.50    1.50
  -9   6   2    1.34    1.22
  -9   6   2    0.35    1.13
   9   6  -2    1.01    0.78
  -8  -6   2    9.30    2.66
  -8  -6   2   10.83    2.35
   8  -6  -2   13.20    3.03
  -8   6   2   11.27    2.07
   8   6  -2   11.00    2.03
  -8   6   2   14.82    2.62
   8   6  -2   11.23    1.94
  -8   6   2   14.66    3.22
  -8   6   2   14.02    2.41
  -7  -6   2   12.91    2.53
  -7  -6   2   19.32    3.69
   7  -6  -2   28.09    4.28
   7   6  -2   16.54    2.49
   7   6  -2   17.93    2.55
  -7   6   2   19.63    2.74
  -7   6   2   16.94    2.75
  -7   6   2   13.20    2.92
  -7   6   2   24.94    3.37
   7   6  -2   16.91    2.28
  -6  -6   2   13.82    3.13
   6  -6  -2   18.25    3.53
  -6  -6   2   21.71    2.89
  -6  -6   2   19.76    2.76
  -6   6   2   17.78    2.65
  -6   6   2   15.72    2.48
  -6   6   2   17.51    3.21
  -6   6   2   19.56    3.01
   6   6  -2   17.39    2.34
   6   6  -2   15.56    1.85
  -6   6   2   16.60    2.57
   6   6  -2   17.91    2.43
   6   6  -2   16.32    2.23
  -5  -6   2    2.26    0.77
  -5  -6   2    0.76    0.62
   5  -6  -2    1.75    1.32
  -5  -6   2    1.43    1.17
   5   6  -2    1.36    0.61
  -5   6   2    2.04    0.95
  -5   6   2    2.46    0.84
   5   6  -2    2.86    0.76
  -5   6   2    1.20    0.85
   5   6  -2    2.51    1.07
  -5   6   2    2.10    0.94
  -4  -6   2   48.74    4.61
   4  -6  -2   54.46    5.83
  -4  -6   2   47.69    5.69
  -4  -6   2   44.70    4.58
  -4   6   2   43.93    4.95
   4   6  -2   45.78    5.70
   4   6  -2   45.67    4.19
   4   6  -2   51.76    4.18
   4   6  -2   47.11    5.39
  -4   6   2   47.50    4.54
  -4   6   2   50.43    4.62
  -4   6   2   47.90    4.48
  -3  -6   2    7.07    0.96
  -3  -6   2    5.59    0.89
   3  -6  -2    8.27    2.12
  -3  -6   2    6.76    1.82
   3  -6  -2    5.55    1.25
  -3   6   2    5.14    1.08
  -3   6   2    4.49    1.20
  -3   6   2    4.73    1.12
   3   6  -2    7.99    1.99
  -3   6   2    5.82    0.99
   2  -6  -2   50.27    4.48
   2  -6  -2   43.45    5.22
  -2  -6   2   40.34    5.10
  -2   6   2   44.11    4.00
  -2   6   2   47.03    4.46
   2   6  -2   39.29    5.08
   1  -6  -2   34.80    4.59
  -1  -6   2   38.33    4.61
  -1  -6   2   35.58    4.45
   1  -6  -2   45.41    3.93
   1   6  -2   41.74    4.60
  -1   6   2   45.04    4.01
  -1   6   2   34.65    3.45
   0  -6  -2  116.62   11.27
   0  -6   2  116.78   11.13
   0  -6   2  107.27   11.21
   0  -6  -2  113.20   10.03
   0   6  -2  103.81    9.74
   0   6  -2  107.83   11.11
   0   6   2  100.10    9.07
   0   6   2  117.85    9.14
   0   6   2  125.44   10.09
  -1  -6  -2   45.46    4.13
   1  -6   2   44.45    3.97
   1  -6   2   43.47    4.63
  -1  -6  -2   42.07    4.86
  -1  -6  -2   35.19    4.00
   1  -6   2   39.69    4.99
  -1   6  -2   42.60    3.63
  -1   6  -2   48.81    3.70
  -1   6  -2   44.19    4.04
   1   6   2   50.36    3.75
   1   6   2   37.98    3.65
   1   6   2   44.76    4.13
  -1   6  -2   39.09    4.57
   1   6   2   39.68    4.98
  -2  -6  -2  195.00   14.99
   2  -6   2  161.57   16.55
  -2  -6  -2  161.60   16.24
   2   6   2  191.30   15.08
  -2   6  -2  160.94   16.10
   2   6   2  164.39   16.70
  -2   6  -2  154.67   13.68
   2   6   2  164.68   13.62
   2   6   2  160.56   13.60
  -2   6  -2  168.55   15.01
  -2   6  -2  165.73   13.65
   3  -6   2   35.80    4.80
   3  -6   2   42.34    4.09
  -3  -6  -2   39.31    4.45
  -3  -6  -2   39.22    4.03
  -3  -6  -2   45.83    4.06
   3   6   2   40.29    4.16
  -3   6  -2   38.86    3.61
  -3   6  -2   40.77    3.76
   3   6   2   38.24    3.56
  -3   6  -2   39.18    4.07
   3   6   2   40.87    3.63
  -3   6  -2   40.21    3.74
  -3   6  -2   39.40    4.16
   3   6   2   44.97    4.96
   4  -6   2   24.40    3.94
  -4  -6  -2   21.83    2.44
   4  -6   2   20.16    2.50
  -4  -6  -2   16.89    2.52
   4  -6   2   22.87    2.10
  -4  -6  -2   20.46    2.42
  -4   6  -2   18.59    2.16
  -4   6  -2   21.49    2.35
   4   6   2   22.38    2.00
  -4   6  -2   26.75    2.82
  -4   6  -2   18.34    2.24
   4   6   2   21.41    2.22
   4   6   2   11.96    2.91
   4   6   2   18.34    2.63
   4   6   2   23.34    2.65
   4   6   2   20.04    2.11
  -5  -6  -2   50.07    4.63
  -5  -6  -2   43.44    4.52
   5  -6   2   42.13    3.95
  -5  -6  -2   45.95    4.61
   5  -6   2   42.69    5.29
  -5   6  -2   45.73    4.16
  -5   6  -2   38.05    4.16
   5   6   2   47.52    4.21
  -5   6  -2   36.88    4.12
  -5   6  -2   45.37    4.74
   5   6   2   42.85    4.64
   5   6   2   38.63    3.88
   5   6   2   40.15    3.93
  -6  -6  -2   46.96    4.79
  -6  -6  -2   44.80    5.06
   6  -6   2   49.59    5.89
   6  -6   2   47.29    4.51
  -6   6  -2   48.09    4.71
   6   6   2   49.37    4.51
   6   6   2   47.21    4.46
  -6   6  -2   45.54    4.74
  -6   6  -2   48.44    4.76
   6   6   2   53.85    4.81
  -6   6  -2   42.28    5.22
  -7  -6  -2   25.23    3.91
   7  -6   2   32.28    4.97
  -7   6  -2   39.47    5.10
  -7   6  -2   20.51    3.58
   7   6   2   36.17    3.64
   7   6   2   31.88    3.25
  -7   6  -2   28.63    3.38
   7   6   2   31.76    3.35
  -8  -6  -2    0.58    0.88
   8  -6   2    0.35    1.19
   8   6   2    0.42    0.62
  -8   6  -2    0.12    0.85
  -8   6  -2    0.29    0.75
   8   6   2    1.02    0.74
  -8   6  -2   -0.07    0.96
   9  -6   2   14.35    3.21
  -9  -6  -2   15.24    3.04
  -9   6  -2   15.94    3.58
   9   6   2   14.50    2.57
  -9   6  -2   15.49    2.97
 -10  -6  -2    0.83    1.21
  10  -6   2    3.70    2.07
 -10   6  -2    0.04    1.37
 -10   6  -2   -0.44    0.79
  10   6   2    1.00    1.10
 -11  -6  -2    2.00    1.60
  11   6   2    1.24    1.38
 -11   6  -2    1.09    1.61
 -12  -6  -2    1.10    1.54
  12   6   2    0.92    1.38
 -12   6  -2    1.77    1.80
 -11  -7   2    4.33    1.86
  11  -7  -2    7.56    2.70
  11   7  -2    2.82    1.33
 -11   7   2    2.16    1.80
 -10  -7   2    2.64    1.43
  10  -7  -2    5.26    2.41
 -10   7   2    3.38    1.88
 -10   7   2    3.02    1.49
  10   7  -2    2.06    1.13
  -9  -7   2    3.12    1.43
  -9  -7   2    3.62    2.31
   9  -7  -2    8.10    2.58
   9   7  -2    6.56    1.54
  -9   7   2    4.53    1.65
  -9   7   2    2.11    1.51
   9   7  -2    3.84    1.36
   8  -7  -2   30.49    4.78
  -8  -7   2   14.83    2.90
  -8  -7   2   18.57    4.02
   8   7  -2   19.28    2.89
  -8   7   2   24.93    3.64
   8   7  -2   26.30    2.72
  -8   7   2   15.10    3.47
  -8   7   2   28.29    3.77
   7  -7  -2   19.67    3.81
  -7  -7   2   11.51    2.22
  -7  -7   2   15.28    3.42
   7   7  -2   12.55    2.12
  -7   7   2   10.29    2.24
  -7   7   2   15.04    3.06
   7   7  -2   17.78    1.92
   7   7  -2   16.11    2.35
  -7   7   2   15.25    2.30
  -7   7   2   15.52    2.68
  -6  -7   2   26.53    3.16
  -6  -7   2   36.66    5.21
   6  -7  -2   40.27    5.57
   6   7  -2   27.14    2.96
  -6   7   2   22.95    3.81
   6   7  -2   27.36    2.74
  -6   7   2   31.35    3.40
  -6   7   2   28.23    3.84
   6   7  -2   30.49    3.02
  -6   7   2   27.24    3.15
  -5  -7   2   14.67    2.04
  -5  -7   2   15.16    2.06
  -5  -7   2   24.99    3.99
   5  -7  -2   20.58    3.91
  -5   7   2   16.79    2.51
  -5   7   2   18.43    2.17
   5   7  -2   19.16    1.97
  -5   7   2   24.13    3.05
  -5   7   2   19.54    2.98
   5   7  -2   16.58    1.92
  -4  -7   2   48.36    5.01
   4  -7  -2   63.47    6.64
  -4  -7   2   62.15    6.61
  -4  -7   2   56.58    5.09
   4  -7  -2   44.14    5.62
   4   7  -2   55.53    4.70
  -4   7   2   56.28    5.13
   4   7  -2   57.49    4.67
  -4   7   2   58.55    5.15
  -4   7   2   52.65    4.98
  -4   7   2   51.38    5.59
  -3  -7   2   49.22    5.66
   3  -7  -2   51.01    5.77
   3  -7  -2   43.50    4.78
  -3   7   2   50.32    4.90
  -3   7   2   43.48    4.35
  -3   7   2   46.79    4.38
   3   7  -2   50.87    5.78
   2  -7  -2   28.80    3.35
   2  -7  -2   37.03    4.42
  -2  -7   2   35.94    4.21
   2   7  -2   30.66    4.10
  -2   7   2   39.36    3.28
  -2   7   2   31.00    3.47
  -2   7   2   30.11    3.05
   1  -7  -2   20.22    3.61
  -1  -7   2   17.06    3.00
  -1  -7   2   25.01    3.76
  -1   7   2   20.42    2.06
   1   7  -2   22.25    2.95
  -1   7   2   21.38    2.34
   0  -7   2    5.89    1.55
   0  -7  -2    7.69    1.20
   0  -7  -2   10.22    1.35
   0  -7   2    7.66    2.09
   0  -7  -2    8.34    2.13
   0   7   2    6.99    1.06
   0   7   2   10.20    1.41
   0   7  -2    7.45    1.71
   0   7   2    8.06    1.94
  -1  -7  -2   18.07    1.94
   1  -7   2   19.99    1.83
   1  -7   2   17.55    3.28
  -1  -7  -2   17.15    3.22
  -1  -7  -2   21.17    2.04
   1   7   2   17.41    1.82
  -1   7  -2   18.01    1.91
   1   7   2   17.89    1.79
   1   7   2   19.09    2.10
  -1   7  -2   16.25    2.63
   1   7   2   18.80    3.05
   2  -7   2    6.52    1.90
  -2  -7  -2    6.43    1.02
  -2  -7  -2    8.32    1.88
   2  -7   2    5.97    1.04
  -2  -7  -2    5.51    1.02
  -2   7  -2    5.26    0.93
   2   7   2    3.99    0.80
  -2   7  -2    6.04    1.26
   2   7   2    5.67    0.92
  -2   7  -2    7.39    1.23
   2   7   2    7.44    1.28
  -2   7  -2    6.53    1.07
   2   7   2    7.15    1.92
   3  -7   2   12.17    1.76
   3  -7   2    8.02    2.49
  -3  -7  -2   11.23    1.56
  -3  -7  -2    8.15    1.94
  -3  -7  -2   10.13    1.54
   3   7   2    8.33    1.32
   3   7   2   12.03    1.75
   3   7   2    7.26    1.15
  -3   7  -2   10.21    1.49
  -3   7  -2    8.73    1.46
  -3   7  -2    6.73    1.29
  -3   7  -2    8.55    1.18
  -3   7  -2   12.54    1.80
   4  -7   2   18.30    3.51
  -4  -7  -2   24.44    2.64
  -4  -7  -2   16.02    2.37
   4  -7   2   14.52    2.39
  -4   7  -2   16.92    2.66
   4   7   2   19.21    1.98
  -4   7  -2   17.95    2.41
   4   7   2   15.05    2.41
  -4   7  -2   16.28    1.90
   4   7   2   16.12    1.83
  -4   7  -2   19.45    2.51
  -5  -7  -2   40.40    4.96
   5  -7   2   49.41    6.02
  -5  -7  -2   47.61    5.05
  -5  -7  -2   49.97    5.19
   5   7   2   43.75    5.02
  -5   7  -2   52.54    5.29
   5   7   2   43.81    4.34
   5   7   2   53.37    4.58
  -5   7  -2   45.51    4.64
   5   7   2   50.04    4.37
  -5   7  -2   59.00    4.77
  -5   7  -2   44.03    4.61
   6  -7   2   23.69    4.06
  -6  -7  -2   16.31    2.78
  -6  -7  -2   22.40    2.46
  -6   7  -2   15.87    2.66
   6   7   2   18.74    2.14
  -6   7  -2   15.58    3.11
   6   7   2   17.00    2.51
  -6   7  -2   22.56    2.95
  -6   7  -2   18.74    2.83
   6   7   2   18.06    2.42
  -7  -7  -2   25.53    4.08
   7  -7   2   34.35    5.38
  -7   7  -2   32.72    4.91
  -7   7  -2   29.13    3.92
   7   7   2   30.80    3.39
   7   7   2   35.46    3.42
  -7   7  -2   31.41    3.55
  -8  -7  -2   10.84    2.34
   8  -7   2   12.21    3.08
   8   7   2    8.42    1.71
  -8   7  -2   11.06    2.80
  -8   7  -2   10.39    2.07
   8   7   2    9.12    1.86
  -8   7  -2    8.49    2.21
  -9  -7  -2   12.67    2.83
   9  -7   2   22.96    4.20
   9   7   2   15.70    2.79
  -9   7  -2   19.68    3.25
  -9   7  -2   13.78    3.21
  10  -7   2   24.36    4.37
 -10  -7  -2   12.16    2.92
 -10   7  -2   11.36    3.57
  10   7   2   14.74    2.73
 -10   7  -2   19.11    3.74
 -11  -7  -2    2.99    1.76
  11   7   2    8.07    2.09
 -11  -8   2    6.29    2.07
  11  -8  -2    6.78    3.47
  11   8  -2    5.39    1.83
 -10  -8   2   -0.07    0.83
  10  -8  -2    2.93    1.85
 -10   8   2    0.11    1.11
  10   8  -2   -0.10    0.88
   9  -8  -2    5.56    2.41
  -9  -8   2    3.65    1.43
  -9   8   2    3.55    1.58
   9   8  -2    4.98    1.51
   9   8  -2    2.65    1.25
  -8  -8   2    2.58    1.74
   8  -8  -2    3.90    2.06
  -8  -8   2    0.43    0.81
  -8   8   2    2.93    1.27
  -8   8   2    1.64    1.10
   8   8  -2    2.07    0.88
   8   8  -2    2.51    1.09
  -8   8   2    1.58    1.58
  -7  -8   2   -0.31    1.03
   7  -8  -2    1.83    1.69
  -7  -8   2   -0.57    0.59
  -7   8   2   -0.06    0.98
   7   8  -2    0.16    0.63
   7   8  -2   -0.27    0.41
  -7   8   2   -0.31    0.66
  -7   8   2    0.00    0.68
  -6  -8   2   10.09    1.71
  -6  -8   2   12.15    3.04
   6  -8  -2   11.91    2.95
   6   8  -2   10.22    1.67
  -6   8   2    8.50    1.81
  -6   8   2    9.06    2.18
  -6   8   2    9.14    1.71
   6   8  -2    7.36    1.46
  -5  -8   2    2.14    1.33
   5  -8  -2   -0.80    0.97
  -5  -8   2    2.52    0.73
  -5  -8   2    2.55    0.71
   5   8  -2    2.61    0.76
  -5   8   2    1.89    1.17
  -5   8   2    2.59    1.04
  -5   8   2    1.93    0.87
  -5   8   2    2.46    0.96
   5   8  -2    3.44    0.85
  -4  -8   2    5.52    1.89
   4  -8  -2    8.68    2.43
  -4   8   2    6.27    1.49
  -4   8   2    6.70    1.36
  -4   8   2    4.94    1.13
  -4   8   2    6.56    1.45
   3  -8  -2   66.01    7.83
   3  -8  -2   69.97    6.72
  -3  -8   2   71.24    7.79
  -3   8   2   70.38    6.12
  -3   8   2   68.78    6.12
  -3   8   2   65.82    6.69
  -2  -8   2    2.33    1.21
   2  -8  -2    1.09    0.62
   2  -8  -2    3.45    1.76
  -2   8   2    3.43    0.79
  -2   8   2    3.01    0.85
   2   8  -2    3.74    1.36
  -2   8   2    1.43    0.76
   1  -8  -2   54.49    5.43
  -1  -8   2   57.77    6.55
  -1  -8   2   58.32    6.60
   1  -8  -2   58.40    6.74
   1   8  -2   58.46    6.52
  -1   8   2   60.75    5.06
  -1   8   2   61.39    5.57
  -1   8   2   51.00    6.38
   0  -8  -2   53.89    5.23
   0  -8  -2   67.27    6.64
   0  -8   2   64.58    6.69
   0  -8  -2   52.51    5.22
   0   8   2   53.71    5.31
   0   8   2   63.86    6.46
   0   8  -2   58.02    6.27
   0   8   2   53.75    4.81
  -1  -8  -2  115.77   10.72
  -1  -8  -2   94.52    9.10
  -1  -8  -2  105.69    9.15
   1  -8   2  120.30   11.10
  -1   8  -2   93.82    9.04
  -1   8  -2  111.64   10.46
   1   8   2  102.81    8.42
   1   8   2  114.40   10.90
   1   8   2   98.68    8.40
   1   8   2   93.24    9.21
  -2  -8  -2   45.34    4.65
   2  -8   2   58.78    6.33
   2  -8   2   49.72    4.69
  -2  -8  -2   51.26    4.74
  -2  -8  -2   58.53    5.91
  -2   8  -2   51.12    4.51
  -2   8  -2   54.02    4.51
   2   8   2   48.01    4.83
   2   8   2   44.01    4.29
  -2   8  -2   49.12    4.84
  -2   8  -2   52.28    5.42
   2   8   2   57.34    4.43
  -3  -8  -2   19.21    3.34
  -3  -8  -2   17.32    2.24
  -3  -8  -2   20.33    2.27
   3  -8   2   26.98    4.60
   3   8   2   17.93    2.03
  -3   8  -2   21.59    2.58
  -3   8  -2   24.14    2.57
  -3   8  -2   22.91    2.34
   3   8   2   24.72    2.21
   3   8   2   22.95    2.47
  -3   8  -2   22.04    2.31
  -4  -8  -2   39.05    4.25
   4  -8   2   33.19    5.37
  -4  -8  -2   31.50    3.59
  -4  -8  -2   32.53    3.50
   4   8   2   35.26    3.32
  -4   8  -2   31.10    3.28
  -4   8  -2   29.82    3.41
  -4   8  -2   36.16    3.89
  -4   8  -2   35.72    3.53
   4   8   2   37.99    3.27
  -4   8  -2   34.79    3.54
  -5  -8  -2   17.69    2.60
   5  -8   2   20.28    4.23
  -5  -8  -2   22.09    3.28
   5   8   2   22.18    2.25
  -5   8  -2   16.48    2.52
  -5   8  -2   17.37    2.57
   5   8   2   16.80    2.27
  -5   8  -2   18.26    2.19
  -5   8  -2   16.01    2.90
  -6  -8  -2   12.12    2.19
   6  -8   2   13.03    3.28
  -6  -8  -2   15.27    2.44
   6   8   2   11.29    1.95
  -6   8  -2   14.03    2.14
   6   8   2   11.06    1.67
   6   8   2   12.95    1.90
  -6   8  -2   11.30    2.48
  -6   8  -2   11.80    2.17
  -7  -8  -2    7.86    1.88
   7  -8   2    8.22    2.62
  -7   8  -2    5.93    1.59
  -7   8  -2    6.00    1.51
   7   8   2    6.30    1.51
   7   8   2    8.54    1.49
   8  -8   2    5.04    2.17
  -8  -8  -2    6.68    1.77
  -8   8  -2    5.71    1.57
   8   8   2    5.63    1.49
  -8   8  -2    2.05    1.11
   8   8   2    3.62    1.15
  -9  -8  -2    0.97    1.09
   9  -8   2    3.61    2.01
   9   8   2    1.30    1.03
  -9   8  -2    0.70    1.12
 -10  -8  -2    4.76    1.77
  10  -8   2    2.91    2.23
 -10   8  -2    5.30    2.12
  10   8   2    1.97    1.22
 -11  -8  -2    1.68    1.44
  11   8   2    1.92    1.47
 -11   8  -2    0.25    1.67
  10  -9  -2   -1.27    1.63
 -10  -9   2   -0.09    0.92
 -10   9   2    0.13    1.25
  10   9  -2   -0.11    0.99
   9  -9  -2    9.31    3.14
  -9  -9   2    5.68    1.60
   9   9  -2    7.79    1.75
   9   9  -2    7.21    1.66
  -9   9   2    8.10    2.26
  -8  -9   2    7.79    1.72
   8  -9  -2    8.55    2.91
   8   9  -2    7.92    1.51
  -8   9   2    6.26    1.82
  -8   9   2    6.60    1.92
   8   9  -2    6.49    1.53
   7  -9  -2   22.56    4.58
  -7  -9   2   16.74    3.99
  -7  -9   2   14.63    2.26
   7   9  -2   15.97    1.90
  -7   9   2   17.17    2.54
   7   9  -2   13.67    2.22
  -7   9   2   20.80    3.14
   6  -9  -2   12.07    3.38
  -6  -9   2   11.98    3.08
  -6  -9   2   10.32    1.61
   6   9  -2    9.95    1.70
  -6   9   2   10.45    1.83
   6   9  -2   13.47    1.94
  -6   9   2   11.58    2.22
  -5  -9   2   48.41    5.72
   5  -9  -2   40.96    6.24
  -5   9   2   33.10    3.75
   5   9  -2   39.57    3.62
   5   9  -2   38.59    3.55
  -5   9   2   34.13    3.94
  -4  -9   2   18.48    3.76
   4  -9  -2   21.98    4.32
  -4   9   2   20.36    2.20
  -4   9   2   17.43    2.56
  -4   9   2   14.14    2.40
   3  -9  -2   26.28    4.55
  -3  -9   2   18.34    3.61
  -3   9   2   16.67    2.46
  -3   9   2   20.16    2.58
  -3   9   2   21.49    3.37
   2  -9  -2   37.70    5.61
  -2   9   2   34.29    3.30
  -2   9   2   30.42    3.12
  -2   9   2   31.59    4.10
  -1  -9   2   16.34    3.31
   1  -9  -2   11.87    1.56
   1  -9  -2   14.43    3.22
   1  -9  -2   11.65    1.67
   1   9  -2   12.36    2.65
  -1   9   2   11.65    1.64
  -1   9   2   15.31    2.70
   0  -9  -2    6.10    1.00
   0  -9  -2    7.03    2.32
   0  -9   2    8.23    2.43
   0  -9  -2    7.45    1.08
   0   9  -2    8.70    2.03
   0   9   2    6.61    1.07
   1  -9   2    9.16    2.73
  -1  -9  -2    9.76    1.11
  -1  -9  -2   11.69    1.17
  -1  -9  -2    9.66    2.64
   1   9   2    8.52    1.27
   1   9   2   10.77    1.35
  -1   9  -2   10.70    2.23
   2  -9   2    6.62    0.98
  -2  -9  -2    7.41    1.02
  -2  -9  -2    7.53    2.11
   2  -9   2    6.38    2.48
  -2   9  -2    7.17    1.61
  -2   9  -2    6.87    1.22
   2   9   2    7.27    1.10
   2   9   2    6.31    1.02
  -2   9  -2    7.26    1.22
  -3  -9  -2    1.92    0.54
  -3  -9  -2    1.83    0.59
  -3  -9  -2    1.81    1.16
   3  -9   2    1.63    1.42
  -3   9  -2    1.79    0.72
  -3   9  -2    1.38    0.79
  -3   9  -2    0.86    0.64
   3   9   2    0.67    0.56
   3   9   2    2.16    0.57
  -4  -9  -2   10.13    2.24
   4  -9   2    7.86    2.66
  -4  -9  -2    5.97    1.13
   4   9   2    5.26    1.16
  -4   9  -2    6.51    1.14
   4   9   2    4.91    1.02
  -4   9  -2    3.95    1.13
  -4   9  -2    5.12    1.30
  -5  -9  -2    5.58    1.29
   5  -9   2    9.00    2.76
  -5  -9  -2   12.68    2.43
   5   9   2    6.74    1.38
  -5   9  -2    8.55    1.72
  -5   9  -2    9.53    1.56
   5   9   2    5.73    1.21
   6  -9   2   15.51    3.81
  -6  -9  -2   14.56    2.31
  -6   9  -2   13.38    2.36
   6   9   2   13.92    2.06
  -6   9  -2   17.99    2.81
   6   9   2   14.86    1.78
  -7  -9  -2   18.29    2.98
   7  -9   2   26.04    4.94
   7   9   2   17.60    2.74
  -7   9  -2   22.35    3.14
  -7   9  -2   23.24    3.55
   7   9   2   21.96    2.48
   8  -9   2    5.99    2.51
  -8  -9  -2    6.10    1.73
  -8   9  -2    7.64    1.91
  -8   9  -2   10.24    2.44
   8   9   2    4.80    1.45
   8   9   2    7.73    1.63
   9  -9   2   13.28    3.55
  -9  -9  -2   10.31    2.34
   9   9   2    7.58    1.94
  -9   9  -2   11.09    2.66
 -10  -9  -2    1.19    1.28
  10  -9   2    2.78    2.20
  10   9   2    5.02    1.64
 -10   9  -2    0.87    1.44
  -9 -10   2    1.42    1.03
   9 -10  -2    5.15    2.54
   9  10  -2    2.58    1.15
  -9  10   2    3.19    1.60
  -8 -10   2    0.72    0.75
   8 -10  -2    0.16    1.61
   8  10  -2    0.54    0.68
   8  10  -2    0.45    0.79
  -8  10   2   -0.01    1.06
   7 -10  -2    3.52    2.43
   7  10  -2    3.88    1.14
  -7  10   2    1.19    1.16
  -7  10   2    2.89    1.14
   7  10  -2    2.04    0.72
   6 -10  -2    1.48    1.47
   6  10  -2    2.49    0.85
   6  10  -2    1.73    0.77
  -6  10   2    1.12    0.88
  -6  10   2    1.45    1.04
   5 -10  -2    5.39    2.38
  -5  10   2    2.63    1.13
   5  10  -2    2.61    0.80
  -5  10   2    3.02    0.99
   4 -10  -2   16.73    3.98
  -4  10   2   14.48    2.10
  -4  10   2   13.57    2.19
   3 -10  -2   10.81    3.12
  -3  10   2    7.05    1.47
  -3  10   2    8.60    1.62
  -3  10   2    6.43    1.84
   2 -10  -2   41.20    5.66
  -2  10   2   41.12    5.20
  -2  10   2   47.51    4.15
  -2  10   2   39.54    4.00
   1 -10  -2    9.69    2.70
   1 -10  -2   10.27    1.38
  -1 -10   2   15.11    3.39
  -1  10   2    7.39    1.34
   0 -10   2   55.33    6.89
   0 -10  -2   54.95    6.77
   0  10  -2   53.37    6.56
   0  10   2   60.91    5.02
  -1 -10  -2   15.02    3.29
   1 -10   2   16.69    3.63
  -1  10  -2   17.22    2.88
   1  10   2   12.06    1.49
   2 -10   2    5.16    2.38
  -2 -10  -2    5.87    1.96
   2  10   2    3.70    0.82
   2  10   2    4.40    0.93
  -2  10  -2    5.14    1.07
  -2  10  -2    6.21    1.12
  -3 -10  -2   44.53    5.31
   3 -10   2   45.26    5.90
   3  10   2   42.74    3.84
  -3  10  -2   42.73    4.03
  -3  10  -2   38.54    3.97
   3  10   2   38.95    3.71
   4 -10   2   13.11    3.56
  -4 -10  -2    7.68    1.17
  -4 -10  -2   16.24    3.03
  -4  10  -2   10.24    1.57
   4  10   2    8.14    1.38
   4  10   2    9.11    1.56
  -4  10  -2    8.63    1.68
  -5 -10  -2   29.00    4.23
   5 -10   2   24.73    4.85
  -5 -10  -2   19.53    2.39
  -5  10  -2   22.37    2.54
  -5  10  -2   18.64    3.00
   5  10   2   22.08    2.41
   5  10   2   23.26    2.57
  -6 -10  -2    6.30    1.38
   6 -10   2    7.37    2.71
  -6  10  -2    7.08    1.62
  -6  10  -2    7.87    1.98
   6  10   2    5.36    1.08
   6  10   2    6.10    1.33
   7 -10   2    8.58    3.04
  -7 -10  -2    6.34    1.53
   7  10   2    4.42    1.34
  -7  10  -2    5.67    1.71
  -7  10  -2    5.68    1.64
   7  10   2    5.08    1.25
   8 -10   2    2.83    2.28
  -8 -10  -2    2.56    1.24
   8  10   2    2.28    1.14
  -8  10  -2    2.76    1.52
   8  10   2    2.64    0.98
  -8  10  -2    2.30    1.30
  -9 -10  -2    0.84    0.92
   9 -10   2   -0.03    1.75
  -9  10  -2   -0.94    1.18
   9  10   2   -0.01    0.90
   8 -11  -2   15.10    4.03
   8  11  -2   10.22    1.75
   8  11  -2    7.88    1.81
  -8  11   2   11.71    2.54
   7 -11  -2    4.87    2.46
  -7  11   2    1.37    1.12
   7  11  -2    3.22    1.06
  -7  11   2    3.94    1.43
   6 -11  -2   12.50    3.50
   6  11  -2   10.20    1.70
  -6  11   2   12.79    2.36
  -6  11   2   12.19    2.12
   5 -11  -2   11.09    3.41
  -5  11   2   13.10    2.06
  -5  11   2   11.74    2.19
   4 -11  -2    6.54    2.49
  -4  11   2    6.72    1.55
  -4  11   2    7.16    1.45
   3 -11  -2   12.63    3.35
  -3  11   2    8.03    1.61
   2 -11  -2    5.94    2.30
   2 -11  -2    4.23    1.04
  -2  11   2    7.60    1.44
  -2  11   2    7.59    1.39
  -1 -11   2    2.13    1.90
   1 -11  -2    1.15    1.52
  -1  11   2    1.64    0.66
   0 -11  -2    7.02    2.52
   0 -11   2    6.79    2.52
   1 -11   2    2.27    1.81
  -1 -11  -2    3.35    1.99
   1  11   2    3.31    0.75
  -2 -11  -2    1.64    1.57
   2 -11   2    4.59    2.20
  -2  11  -2    3.96    0.97
  -2  11  -2    4.12    1.03
  -3 -11  -2    1.50    1.49
   3 -11   2    2.38    1.89
   3  11   2    0.64    0.61
  -3  11  -2    1.51    0.74
   3  11   2    0.54    0.44
  -3  11  -2    0.86    0.74
   4 -11   2   10.51    3.30
  -4 -11  -2   13.96    3.20
  -4  11  -2   11.74    1.78
   4  11   2   11.80    1.80
   4  11   2   11.90    1.69
  -4  11  -2    8.59    1.87
   5 -11   2    3.67    2.26
  -5 -11  -2    3.96    1.77
  -5  11  -2    2.44    0.90
  -5  11  -2    0.35    0.85
   5  11   2    1.11    0.73
   6 -11   2   13.20    3.75
  -6  11  -2   10.94    2.33
   6  11   2    8.51    1.52
   6  11   2   12.48    1.93
  -6  11  -2   15.78    2.42
   7 -11   2    4.05    2.65
   7  11   2    2.54    1.09
  -7  11  -2    2.86    1.41
   7  11   2    2.05    0.84
  -7  11  -2    1.74    1.12
   8 -11   2   14.40    4.14
  -8  11  -2   11.85    2.40
   8  11   2   11.04    2.16
   8  11   2   11.79    2.17
  -8  11  -2   13.25    2.78
   7 -12  -2   -0.50    1.73
  -7  12   2   -0.41    0.80
   7  12  -2   -0.29    0.68
  -7  12   2   -0.23    0.80
   6 -12  -2    1.60    1.94
  -6  12   2    1.93    1.06
  -6  12   2    3.03    1.24
   5 -12  -2   -0.84    1.27
  -5  12   2    0.69    0.84
  -5  12   2    0.75    0.76
   4 -12  -2   10.40    3.39
  -4  12   2    8.34    1.60
  -4  12   2    7.50    1.75
   3 -12  -2    2.17    0.79
   3 -12  -2    4.95    2.38
  -3  12   2    2.18    0.98
   2 -12  -2   20.67    4.44
  -2  12   2   16.86    2.43
  -1 -12   2    7.06    3.03
   1 -12  -2    5.96    2.41
  -1  12   2    6.90    1.31
   0 -12   2   15.68    3.90
   0 -12  -2   13.86    3.47
   0  12   2    9.31    1.53
   1 -12   2    6.19    2.72
  -1 -12  -2    7.99    2.84
   1  12   2    6.74    1.17
  -2 -12  -2   17.87    3.84
   2 -12   2   13.06    3.94
  -2  12  -2   12.90    1.98
  -2  12  -2   12.14    1.92
   2  12   2   13.98    1.61
  -3 -12  -2   23.64    4.38
   3 -12   2   11.67    3.86
  -3  12  -2   15.27    2.32
   3  12   2   14.15    1.91
   3  12   2   17.31    2.10
  -4 -12  -2    8.02    2.67
   4 -12   2    4.67    2.64
  -4  12  -2    5.28    1.50
  -4  12  -2    5.04    1.11
   4  12   2    4.14    0.97
   5 -12   2    2.28    2.19
   5  12   2    4.93    1.11
  -5  12  -2    4.36    1.25
  -5  12  -2    5.32    1.60
   6 -12   2    3.65    2.67
  -6  12  -2    6.51    1.68
   6  12   2    5.87    1.34
  -6  12  -2    3.21    1.41
   6  12   2    5.17    1.15
   7 -12   2    2.22    2.41
  -7  12  -2    2.15    1.30
   7  12   2    3.44    1.16
  -7  12  -2    4.13    1.51
   7  12   2    5.65    1.45
   5 -13  -2    3.04    2.66
  -5  13   2    4.24    1.46
  -5  13   2    4.20    1.30
   4 -13  -2    7.72    2.96
  -4  13   2    5.42    1.38
  -4  13   2    3.66    1.30
   3 -13  -2    2.96    2.33
  -3  13   2    6.01    1.49
  -3  13   2    3.65    0.97
   2 -13  -2    6.92    3.11
  -2  13   2    2.55    1.01
   1 -13  -2    3.18    2.28
  -1  13   2    2.60    0.92
   0 -13   2    3.65    2.62
   0 -13  -2   11.64    3.21
   0  13   2    6.79    1.37
  -1 -13  -2    3.69    2.21
   1 -13   2    3.07    2.45
  -2 -13  -2    4.14    2.31
   2 -13   2    3.70    2.56
  -2  13  -2    1.83    0.87
   3 -13   2    0.53    1.89
  -3 -13  -2    2.16    2.06
  -3  13  -2    2.83    1.10
   4 -13   2    0.76    1.66
  -4 -13  -2    1.91    1.95
  -4  13  -2    0.50    0.90
   4  13   2    0.28    0.63
  -4  13  -2    1.60    0.79
   5 -13   2    7.24    3.20
  -5  13  -2    4.72    1.42
  -5  13  -2    3.40    1.45
   5  13   2    5.24    1.22
   2 -14  -2    0.95    1.91
  -2  14   2    2.52    1.02
   1 -14  -2    1.45    2.00
  -1  14   2    1.57    0.89
   0 -14  -2    1.31    2.06
   0  14   2    1.91    0.80
  -1 -14  -2    5.51    2.84
   1 -14   2   10.31    3.89
   2 -14   2    2.52    2.58
  -2 -14  -2   -0.15    1.70
  -2  14  -2    2.23    1.03
 -13   0   3    2.84    1.85
 -12   0   3    8.19    2.88
 -12   0   3    3.44    2.00
 -11   0   3    9.17    2.99
  11   0  -3    9.51    2.32
 -11   0   3   13.14    3.10
  10   0  -3    2.81    1.42
 -10   0   3    1.10    1.36
 -10   0   3    3.52    1.65
  10   0  -3    3.60    1.43
  -9   0   3   27.79    4.67
   9   0  -3   31.89    3.58
   9   0  -3   27.07    3.76
  -9   0   3   26.86    4.35
   8   0  -3    1.24    1.76
   8   0  -3    1.34    0.88
   8   0  -3    0.89    0.85
  -8   0   3    1.03    0.98
   8   0  -3    0.27    0.59
  -8   0   3    0.73    0.66
  -8   0   3   -0.79    0.69
   8   0  -3    1.00    0.95
   7   0  -3   16.85    3.82
   7   0  -3   20.21    2.52
  -7   0   3   19.75    2.56
  -7   0   3   20.87    3.19
   7   0  -3   14.64    2.16
   7   0  -3   16.07    2.56
   7   0  -3   17.32    2.64
  -7   0   3   12.02    2.56
   6   0  -3    1.79    1.11
  -6   0   3    3.65    1.27
   6   0  -3    2.02    0.64
   6   0  -3    3.42    1.77
  -6   0   3    4.37    0.97
   6   0  -3    2.03    0.84
   6   0  -3    2.89    1.03
  -6   0   3    1.59    0.96
  -6   0   3    1.01    0.66
  -5   0   3   88.81    8.26
   5   0  -3   78.41    7.41
   5   0  -3   87.51    7.46
  -5   0   3   79.47    8.84
  -5   0   3   92.85    7.45
  -5   0   3   85.74    7.47
   5   0  -3   86.12    7.47
   5   0  -3   81.69    9.53
   4   0  -3  136.81   10.00
  -4   0   3  125.91    9.95
   4   0  -3  116.81    9.92
  -4   0   3  133.18   11.05
  -4   0   3   99.02   11.79
  -4   0   3  102.78   10.03
  -3   0   3    1.90    0.54
   3   0  -3    1.48    0.58
  -3   0   3    1.01    0.46
  -3   0   3    1.81    0.65
  -3   0   3    1.65    0.62
  -3   0   3    1.37    0.88
  -3   0   3    2.25    0.93
   3   0  -3    1.69    0.66
  -2   0   3  237.41   21.12
  -2   0   3  253.39   21.13
  -2   0   3  251.28   20.60
   2   0  -3  263.14   20.65
  -2   0   3  287.62   22.68
  -2   0   3  250.53   20.63
   1   0  -3  101.01    8.76
  -1   0   3  105.46    8.76
  -1   0   3  119.48    9.57
   1   0  -3  107.96    8.59
  -1   0   3   89.78    8.73
  -1   0   3  107.25    8.58
   0   0  -3  358.25   26.80
   0   0  -3  356.83   29.33
   0   0   3  325.35   27.45
   0   0   3  306.65   26.74
   0   0  -3  282.77   27.47
   0   0   3  388.33   29.41
   1   0   3  946.83   76.88
  -1   0  -3  991.18   72.24
  -1   0  -3  806.88   76.80
   1   0   3  783.17   70.25
   1   0   3 1000.00   72.24
  -1   0  -3  966.82   70.26
   1   0   3  818.35   70.25
  -1   0  -3  773.79   70.26
   2   0   3  154.04   12.50
   2   0   3  163.51   12.55
  -2   0  -3  144.79   13.74
   2   0   3  157.06   12.82
  -2   0  -3  161.40   12.82
  -2   0  -3  138.67   12.50
   3   0   3  115.47    9.64
   3   0   3   98.08    8.71
  -3   0  -3  106.56    8.54
  -3   0  -3   99.38    8.69
  -3   0  -3   82.34    8.50
   3   0   3  108.14    8.57
   3   0   3  107.78    8.57
  -4   0  -3    4.70    1.21
   4   0   3    6.17    1.22
   4   0   3    6.09    1.33
   4   0   3    6.88    1.27
  -4   0  -3    6.68    1.49
   4   0   3    5.94    1.43
  -4   0  -3    7.10    1.22
  -4   0  -3    7.31    1.15
  -5   0  -3  146.85   15.36
  -5   0  -3  160.47   13.56
   5   0   3  174.58   15.24
  -5   0  -3  167.83   15.09
  -5   0  -3  180.72   13.92
   5   0   3  157.66   15.81
  -5   0  -3  171.79   13.69
   5   0   3  148.28   13.84
   5   0   3  170.69   13.65
  -6   0  -3   53.02    5.06
  -6   0  -3   53.83    5.30
   6   0   3   58.10    5.12
   6   0   3   42.12    5.59
   6   0   3   57.42    5.90
  -6   0  -3   50.85    4.98
   6   0   3   53.44    5.09
  -6   0  -3   57.49    5.73
   6   0   3   57.52    5.16
   7   0   3    3.73    1.18
  -7   0  -3    3.68    1.03
   7   0   3    4.07    1.05
  -7   0  -3    4.27    1.29
   7   0   3    6.55    1.46
   7   0   3    5.09    1.25
  -7   0  -3    3.62    0.96
   7   0   3    5.89    1.89
  -7   0  -3    8.06    1.92
   8   0   3    0.65    0.89
  -8   0  -3    2.42    1.06
   8   0   3    0.60    0.86
  -8   0  -3    2.02    1.30
   9   0   3    8.55    1.99
  -9   0  -3    9.82    1.97
   9   0   3   11.27    2.40
  -9   0  -3   15.99    3.17
  10   0   3    1.04    1.01
 -10   0  -3    0.60    1.28
 -11   0  -3    3.49    1.88
 -12   0  -3    1.71    1.48
 -13   0  -3    0.86    1.65
 -13  -1   3    0.65    1.41
 -13   1   3    1.13    1.74
 -12  -1   3    2.52    1.82
 -12  -1   3    2.60    1.92
 -12   1   3    5.61    2.25
 -12   1   3    0.44    1.56
 -11  -1   3    0.83    1.35
 -11  -1   3    0.08    1.33
  11   1  -3    4.68    1.84
 -11   1   3    1.76    1.61
 -11   1   3    0.35    1.14
 -10  -1   3   11.35    2.73
 -10  -1   3    9.81    2.74
  10  -1  -3   11.59    2.27
  10  -1  -3    9.44    2.32
 -10   1   3    9.34    2.38
 -10   1   3    5.98    2.41
  10   1  -3   10.12    2.17
  -9  -1   3    9.67    2.42
   9  -1  -3    5.62    1.57
   9  -1  -3   10.29    2.03
  -9  -1   3    8.60    2.26
  -9   1   3    9.00    2.41
   9   1  -3    8.86    1.71
  -9   1   3   13.73    2.48
   9   1  -3    8.74    2.09
  -9   1   3    6.19    1.95
  -8  -1   3   32.19    4.32
  -8  -1   3   36.51    3.59
   8  -1  -3   37.99    3.85
   8  -1  -3   35.43    3.99
  -8  -1   3   25.55    4.31
  -8   1   3   34.13    4.28
   8   1  -3   30.52    4.18
   8   1  -3   30.58    3.73
  -8   1   3   37.48    3.75
  -8   1   3   33.78    3.76
   8   1  -3   25.92    3.88
  -8   1   3   24.59    4.29
  -7  -1   3   52.74    6.19
   7  -1  -3   50.87    5.13
   7  -1  -3   48.41    5.66
  -7  -1   3   48.87    4.90
   7  -1  -3   59.37    5.30
   7  -1  -3   59.64    5.18
  -7  -1   3   53.10    5.78
  -7   1   3   51.72    6.03
  -7   1   3   57.24    5.93
   7   1  -3   59.25    5.26
  -7   1   3   56.82    5.24
  -7   1   3   44.87    4.95
   7   1  -3   46.51    5.06
   7   1  -3   46.65    4.93
   7   1  -3   61.42    6.63
   6  -1  -3   27.18    3.01
   6  -1  -3   23.14    3.20
   6  -1  -3   24.17    2.78
  -6  -1   3   26.43    3.56
  -6  -1   3   27.79    3.38
   6  -1  -3   25.93    2.94
  -6   1   3   31.86    2.99
  -6   1   3   28.90    3.03
   6   1  -3   25.24    4.19
  -6   1   3   25.54    3.46
   6   1  -3   29.29    2.99
   6   1  -3   28.47    3.02
   6   1  -3   24.26    2.77
  -6   1   3   26.03    3.81
   5  -1  -3  157.78   12.54
   5  -1  -3  151.55   12.65
   5  -1  -3  138.04   12.41
  -5  -1   3  130.24   13.57
  -5  -1   3  147.72   14.86
   5  -1  -3  127.15   14.27
  -5   1   3  172.83   12.59
   5   1  -3  166.21   12.53
  -5   1   3  163.90   12.50
  -5   1   3  136.55   13.64
   5   1  -3  143.61   12.48
   5   1  -3  152.20   12.61
  -4  -1   3  225.63   20.27
   4  -1  -3  261.11   21.53
  -4  -1   3  235.19   18.44
   4  -1  -3  246.20   18.53
   4  -1  -3  206.05   18.53
  -4  -1   3  243.24   22.01
   4  -1  -3  237.25   18.88
  -4   1   3  216.61   20.29
   4   1  -3  186.49   18.39
   4   1  -3  229.71   22.27
   4   1  -3  233.06   18.44
   4   1  -3  220.30   18.86
  -4   1   3  213.70   18.46
  -4   1   3  213.07   18.48
  -4   1   3  235.82   18.90
   3  -1  -3   87.72    7.34
  -3  -1   3   82.42    7.24
   3  -1  -3   67.99    7.23
   3  -1  -3   82.29    7.21
  -3  -1   3   66.49    8.60
  -3  -1   3   72.06    7.91
  -3  -1   3   84.40    7.18
  -3   1   3   84.58    7.25
  -3   1   3   89.14    8.02
   3   1  -3   93.25    7.27
  -3   1   3   95.32    7.33
   3   1  -3  100.75    7.34
   3   1  -3   90.79    7.22
   3   1  -3   80.36    9.14
  -3   1   3  102.51    7.42
  -3   1   3   77.28    9.13
  -2  -1   3  199.16   16.58
  -2  -1   3  212.00   19.84
  -2  -1   3  216.81   18.25
   2  -1  -3  210.02   16.63
  -2  -1   3  201.26   16.53
  -2  -1   3  188.49   16.90
   2   1  -3  201.99   16.56
  -2   1   3  218.67   16.68
  -2   1   3  191.43   17.02
   2   1  -3  207.62   16.98
  -2   1   3  222.07   18.27
   2   1  -3  217.66   16.64
  -2   1   3  190.80   16.59
   2   1  -3  205.06   16.96
  -1  -1   3   15.97    1.70
  -1  -1   3   14.92    1.34
  -1  -1   3   15.22    1.24
   1  -1  -3   16.22    1.41
  -1  -1   3   12.19    1.36
   1  -1  -3   16.66    1.82
  -1  -1   3   14.78    2.32
   1   1  -3    9.83    1.27
   1   1  -3    7.88    1.30
  -1   1   3    7.86    1.28
   1   1  -3   11.58    1.30
  -1   1   3   11.96    1.79
  -1   1   3    8.30    1.30
   0  -1  -3  109.89   11.22
   0  -1  -3  109.72   10.23
   0  -1  -3  120.36   10.23
   0  -1   3  106.83   10.38
   0  -1   3  147.06   11.35
   0  -1   3  123.16   10.37
   0  -1  -3  142.51   11.31
   0  -1  -3  110.68   10.43
   0   1  -3  129.68   10.45
   0   1   3  145.93   11.38
   0   1  -3  134.33   11.23
   0   1   3  143.86   10.31
   0   1  -3  121.18   10.20
  -1  -1  -3  227.25   18.24
   1  -1   3  170.13   18.19
  -1  -1  -3  196.28   16.99
   1  -1   3  191.70   16.97
  -1  -1  -3  199.92   16.63
   1  -1   3  239.76   18.18
   1  -1   3  216.45   16.59
  -1  -1  -3  242.63   18.29
  -1  -1  -3  206.68   16.58
  -1   1  -3  204.44   17.01
   1   1   3  188.85   16.57
  -1   1  -3  219.87   18.20
   1   1   3  200.80   16.63
  -1   1  -3  200.03   16.57
   1   1   3  193.23   18.24
  -1   1  -3  201.17   16.61
  -2  -1  -3   62.27    5.34
  -2  -1  -3   54.40    5.87
   2  -1   3   78.90    6.22
   2  -1   3   63.97    5.41
   2  -1   3   62.16    5.33
   2  -1   3   60.94    5.31
  -2  -1  -3   64.33    5.29
  -2  -1  -3   63.16    5.39
   2   1   3   62.37    6.05
   2   1   3   63.15    5.34
  -2   1  -3   64.66    5.46
   2   1   3   55.62    5.29
  -2   1  -3   50.42    5.82
  -2   1  -3   58.87    5.37
  -2   1  -3   70.77    5.34
   3  -1   3   59.41    5.66
  -3  -1  -3   53.91    4.92
  -3  -1  -3   53.61    5.44
   3  -1   3   54.15    4.95
  -3  -1  -3   57.54    4.98
   3  -1   3   57.45    4.93
   3  -1   3   58.41    5.01
  -3  -1  -3   49.98    4.83
  -3   1  -3   62.21    4.97
   3   1   3   56.24    5.58
  -3   1  -3   54.52    5.03
  -3   1  -3   64.56    5.57
  -3   1  -3   49.21    4.91
   3   1   3   57.29    4.98
   3   1   3   53.77    4.91
  -4  -1  -3   51.08    4.32
   4  -1   3   52.57    4.95
   4  -1   3   47.65    4.41
  -4  -1  -3   45.13    4.35
  -4  -1  -3   44.22    4.40
   4  -1   3   35.48    4.86
   4  -1   3   48.79    4.43
  -4  -1  -3   36.15    4.80
  -4   1  -3   56.06    4.59
  -4   1  -3   46.67    4.94
   4   1   3   53.66    4.47
   4   1   3   47.37    4.41
  -4   1  -3   57.18    5.08
  -4   1  -3   51.07    4.40
   4   1   3   45.43    5.17
  -4   1  -3   48.44    4.49
   5  -1   3   21.97    2.49
  -5  -1  -3   13.08    2.24
   5  -1   3   22.29    2.38
   5  -1   3   20.00    3.06
  -5  -1  -3   19.56    2.27
  -5  -1  -3   20.35    2.24
  -5  -1  -3   18.04    2.95
  -5   1  -3   26.75    2.50
  -5   1  -3   24.95    2.58
   5   1   3   21.98    2.42
  -5   1  -3   23.64    2.43
   5   1   3   14.50    2.85
  -5   1  -3   21.57    2.52
   5   1   3   22.69    2.74
  -5   1  -3   23.94    2.88
   5   1   3   24.99    2.40
  -6  -1  -3   30.90    3.74
   6  -1   3   32.25    3.39
   6  -1   3   35.00    4.08
  -6  -1  -3   31.25    3.37
   6  -1   3   31.84    3.57
  -6  -1  -3   32.71    3.23
  -6   1  -3   32.35    3.52
  -6   1  -3   35.81    3.44
  -6   1  -3   29.81    3.30
   6   1   3   29.37    3.87
   6   1   3   33.12    3.36
   6   1   3   27.08    4.18
   6   1   3   31.61    3.36
  -6   1  -3   24.27    4.01
  -6   1  -3   33.58    3.47
   6   1   3   33.40    3.35
   7  -1   3   18.19    2.47
  -7  -1  -3   13.16    2.34
   7  -1   3   18.66    2.75
  -7  -1  -3   21.26    3.43
  -7  -1  -3   20.65    2.02
  -7   1  -3   14.75    2.40
   7   1   3   10.12    2.59
   7   1   3   17.82    2.91
   7   1   3   18.21    2.45
   7   1   3   20.89    2.82
  -7   1  -3   20.57    3.43
  -7   1  -3   21.26    2.43
  -7   1  -3   20.51    2.59
  -8  -1  -3   36.99    4.00
   8  -1   3   39.38    4.08
  -8  -1  -3   30.60    5.11
   8  -1   3   39.41    4.30
   8   1   3   32.18    3.87
  -8   1  -3   25.83    4.61
   8   1   3   35.54    3.98
   8   1   3   40.76    4.56
  -8   1  -3   40.44    4.19
   9  -1   3   36.27    4.07
  -9  -1  -3   32.27    5.11
  -9   1  -3   36.34    4.08
  -9   1  -3   28.82    4.89
   9   1   3   32.54    4.39
   9   1   3   31.92    4.48
 -10  -1  -3   30.82    4.91
  10   1   3   35.25    4.59
 -10   1  -3   29.56    4.97
 -11  -1  -3    5.89    2.24
 -11   1  -3    4.31    2.00
 -12  -1  -3    5.27    2.26
 -12   1  -3    6.13    2.25
 -13  -1  -3    6.58    2.71
 -13   1  -3    6.47    2.78
 -13  -2   3    1.54    1.59
 -13   2   3    2.97    1.99
 -12  -2   3    2.29    1.76
 -12  -2   3    2.81    2.03
 -12   2   3    5.30    2.44
  12   2  -3    5.36    2.11
 -11  -2   3   13.10    3.12
 -11  -2   3    9.53    2.98
 -11   2   3   19.98    3.41
 -11   2   3    8.99    3.00
  11   2  -3   17.81    3.21
 -10  -2   3   10.16    2.86
 -10  -2   3   22.87    3.95
  10  -2  -3   13.85    2.79
  10   2  -3   15.09    2.80
 -10   2   3   19.22    3.27
 -10   2   3   15.13    3.49
  -9  -2   3    2.42    1.54
   9  -2  -3    2.36    1.34
   9  -2  -3    1.43    1.08
  -9  -2   3    0.64    1.17
  -9   2   3   -0.26    0.80
  -9   2   3    1.85    1.21
  -9   2   3    1.27    1.16
   9   2  -3    1.06    1.09
   9   2  -3    1.30    0.83
   8  -2  -3   22.12    3.21
  -8  -2   3   21.30    3.59
  -8  -2   3   16.92    3.24
   8  -2  -3   16.12    2.56
  -8  -2   3   13.04    2.20
  -8   2   3   13.18    3.07
   8   2  -3   18.06    2.61
  -8   2   3   18.21    2.69
  -8   2   3   17.48    2.75
   8   2  -3   16.01    2.55
  -8   2   3   21.83    3.34
   8   2  -3   19.44    2.89
  -7  -2   3    2.72    1.35
  -7  -2   3    0.60    0.57
  -7  -2   3    1.65    1.05
   7  -2  -3    1.72    0.89
   7  -2  -3    3.11    1.25
  -7   2   3    0.37    0.89
  -7   2   3    0.34    0.81
  -7   2   3    1.11    0.80
   7   2  -3    1.90    0.74
  -7   2   3    1.56    0.86
   7   2  -3    0.53    0.78
   7   2  -3    0.68    1.21
   7   2  -3    1.50    0.87
  -6  -2   3    2.50    1.17
   6  -2  -3    4.54    1.38
  -6  -2   3    5.67    1.06
  -6  -2   3    4.44    1.30
   6  -2  -3    3.75    1.10
   6   2  -3    6.71    1.88
   6   2  -3    4.66    0.97
  -6   2   3    3.71    1.03
  -6   2   3    4.92    1.40
  -6   2   3    6.77    1.72
  -6   2   3    4.11    1.11
   6   2  -3    3.76    0.99
  -6   2   3    4.75    1.15
   6   2  -3    4.39    1.07
  -5  -2   3   97.46    9.03
  -5  -2   3   99.36    8.00
   5  -2  -3   92.19    8.18
   5  -2  -3   78.90    9.45
  -5  -2   3   93.99    9.88
   5  -2  -3   96.92    8.29
  -5   2   3   86.03    8.23
   5   2  -3   88.05    8.21
  -5   2   3   95.78    9.12
   5   2  -3  104.42    8.24
  -5   2   3  112.30    8.41
   5   2  -3   95.33    8.13
  -5   2   3   96.55    8.33
   5   2  -3   92.62   10.02
   4  -2  -3   60.63    6.22
  -4  -2   3   60.96    4.99
   4  -2  -3   52.84    5.14
   4  -2  -3   58.60    5.19
  -4  -2   3   62.38    6.33
  -4  -2   3   64.25    5.69
  -4   2   3   55.92    5.75
   4   2  -3   57.95    5.10
   4   2  -3   48.24    5.06
  -4   2   3   66.46    5.27
  -4   2   3   50.44    5.13
  -4   2   3   56.31    5.17
   4   2  -3   58.43    6.41
   4   2  -3   52.91    5.04
  -4   2   3   59.39    6.77
  -3  -2   3   52.48    4.57
   3  -2  -3   57.03    4.76
  -3  -2   3   59.69    5.26
  -3  -2   3   54.99    4.56
   3  -2  -3   46.10    5.65
  -3  -2   3   47.65    5.75
   3   2  -3   50.73    4.65
  -3   2   3   49.49    4.72
  -3   2   3   54.44    4.76
  -3   2   3   49.61    4.74
   3   2  -3   54.34    4.65
   3   2  -3   57.41    5.98
   3   2  -3   51.90    4.68
   3   2  -3   52.83    4.63
  -3   2   3   60.39    5.34
   2  -2  -3   41.81    3.56
  -2  -2   3   32.65    3.92
   2  -2  -3   36.98    4.35
  -2  -2   3   33.19    4.36
  -2  -2   3   40.46    3.42
  -2  -2   3   41.11    3.44
   2   2  -3   45.96    3.55
   2   2  -3   38.54    3.46
   2   2  -3   37.53    3.45
  -2   2   3   38.61    3.98
  -2   2   3   39.83    3.62
  -2   2   3   40.77    3.56
   2   2  -3   38.34    4.60
   2   2  -3   39.23    3.50
  -2   2   3   45.39    3.71
   1  -2  -3  159.59   13.01
  -1  -2   3  158.85   15.52
  -1  -2   3  166.21   12.91
   1  -2  -3  154.48   14.27
  -1  -2   3  155.26   14.26
  -1  -2   3  165.77   12.88
   1   2  -3  156.64   13.20
  -1   2   3  151.99   14.35
   1   2  -3  168.56   12.95
   1   2  -3  163.01   13.22
   0  -2  -3   90.56    8.10
   0  -2  -3   74.68    8.04
   0  -2   3   93.03    7.21
   0  -2  -3   99.72    7.32
   0  -2   3   96.75    8.07
   0  -2   3   96.45    8.76
   0   2   3   86.78    7.35
   0   2  -3   82.10    7.37
   0   2   3   85.02    7.31
   0   2  -3   79.25    7.22
   0   2  -3   86.14    7.33
   0   2  -3   86.75    7.95
   0   2   3   86.20    7.45
   0   2   3   97.38    8.18
  -1  -2  -3  173.02   15.43
   1  -2   3  162.76   13.97
   1  -2   3  177.53   15.51
  -1  -2  -3  156.89   14.01
   1  -2   3  175.86   15.35
  -1  -2  -3  167.91   15.43
  -1  -2  -3  185.90   14.02
   1  -2   3  187.86   14.00
  -1   2  -3  179.37   14.37
  -1   2  -3  179.15   14.07
  -1   2  -3  171.93   15.36
  -1   2  -3  159.86   13.98
   1   2   3  192.65   14.10
   1   2   3  164.81   14.04
   1   2   3  166.69   14.37
   1   2   3  172.99   15.49
  -2  -2  -3  121.20    9.36
  -2  -2  -3  116.44   10.33
  -2  -2  -3   97.24    9.42
  -2  -2  -3   94.71   10.22
   2  -2   3  109.32   10.23
   2  -2   3  122.37   10.42
  -2  -2  -3  108.61    9.27
   2  -2   3  124.41    9.33
   2  -2   3  103.29    9.29
  -2   2  -3  105.94    9.29
  -2   2  -3  120.39   10.29
   2   2   3  113.28    9.54
  -2   2  -3  115.45    9.56
   2   2   3  105.43    9.34
  -2   2  -3  124.01   11.14
   2   2   3  128.09    9.42
  -2   2  -3  120.27    9.39
  -3  -2  -3   80.36    7.02
  -3  -2  -3   66.46    6.27
   3  -2   3   75.68    7.18
  -3  -2  -3   73.89    6.21
   3  -2   3   73.61    6.28
   3   2   3   71.84    7.11
  -3   2  -3   63.93    6.39
  -3   2  -3   83.82    7.50
  -3   2  -3   72.46    6.32
   3   2   3   78.76    6.43
   3   2   3   65.34    6.27
   3   2   3   73.44    6.28
  -3   2  -3   73.77    6.96
  -3   2  -3   79.96    6.41
   4  -2   3  218.92   16.70
  -4  -2  -3  232.21   18.39
   4  -2   3  212.24   19.20
   4  -2   3  205.90   18.53
   4  -2   3  206.59   16.72
   4   2   3  204.67   17.05
   4   2   3  169.45   18.36
  -4   2  -3  228.76   16.74
  -4   2  -3  225.05   19.36
   4   2   3  208.41   19.76
  -4   2  -3  194.26   17.06
   4   2   3  184.37   16.64
  -4   2  -3  175.58   16.70
   4   2   3  214.36   16.66
  -4   2  -3  168.97   18.24
  -5  -2  -3   69.65    6.67
   5  -2   3   61.55    6.45
   5  -2   3   62.67    6.74
   5  -2   3   60.72    5.93
  -5   2  -3   65.50    5.94
  -5   2  -3   66.14    6.63
  -5   2  -3   60.59    5.96
   5   2   3   74.83    6.04
   5   2   3   61.60    6.65
   5   2   3   71.48    7.05
   5   2   3   63.84    5.87
  -5   2  -3   64.83    6.00
   5   2   3   71.49    5.98
  -5   2  -3   67.33    6.72
  -6  -2  -3  115.29   10.81
   6  -2   3  112.68   11.03
  -6  -2  -3  115.83   10.52
   6  -2   3  120.39    9.88
   6  -2   3  114.21   10.99
  -6   2  -3   99.54    9.79
   6   2   3  111.79   11.50
  -6   2  -3  108.72   11.03
  -6   2  -3  115.53    9.98
   6   2   3  126.95    9.84
   6   2   3  110.42    9.88
  -6   2  -3  116.46    9.81
  -6   2  -3  109.36   10.89
   6   2   3  118.51   11.00
   6   2   3   97.60    9.68
  -7  -2  -3   33.10    4.10
   7  -2   3   36.42    3.62
   7  -2   3   33.59    3.55
   7   2   3   27.90    3.33
  -7   2  -3   31.06    3.59
   7   2   3   31.51    3.47
   7   2   3   40.81    4.44
  -7   2  -3   28.85    3.69
   7   2   3   36.98    3.62
   7   2   3   28.62    3.99
  -7   2  -3   28.16    3.40
  -7   2  -3   39.15    4.50
  -7   2  -3   27.62    3.41
   8  -2   3   28.93    3.42
   8  -2   3   27.71    3.77
  -8  -2  -3   28.29    4.46
  -8   2  -3   30.50    4.24
  -8   2  -3   30.66    4.56
   8   2   3   29.23    3.76
   8   2   3   31.10    3.52
  -8   2  -3   31.04    3.44
   8   2   3   26.11    4.23
   9  -2   3    8.10    2.03
  -9  -2  -3   13.02    2.80
  -9   2  -3    4.62    1.57
  -9   2  -3   14.60    2.92
   9   2   3    7.18    2.05
 -10  -2  -3    7.33    2.28
  10   2   3    9.97    2.18
 -10   2  -3    5.76    2.27
 -11  -2  -3    0.29    1.16
 -11   2  -3    4.21    2.08
  11   2   3   -0.59    1.03
 -12  -2  -3    2.55    1.61
 -12   2  -3   -0.50    1.28
 -13  -2  -3    5.05    2.55
 -13   2  -3    4.23    2.61
 -13  -3   3    2.36    1.78
 -13   3   3    2.58    1.67
 -12  -3   3    1.07    1.34
 -12   3   3    1.39    1.60
  12   3  -3    1.01    1.26
 -11  -3   3    2.53    1.96
 -11  -3   3    1.26    1.35
 -11   3   3    3.21    1.92
  11   3  -3    4.48    1.57
 -10  -3   3   16.75    3.82
  10  -3  -3   20.07    3.35
 -10  -3   3   13.96    3.21
 -10   3   3   11.38    3.17
 -10   3   3   15.13    2.84
  10   3  -3   14.64    2.67
  -9  -3   3   24.15    4.32
   9  -3  -3   30.69    4.50
  -9  -3   3   31.53    5.09
  -9   3   3   29.57    3.91
  -9   3   3   31.70    3.96
  -9   3   3   21.34    4.21
   9   3  -3   26.98    4.01
   8  -3  -3   12.18    2.65
   8  -3  -3   10.28    2.08
  -8  -3   3    8.39    2.19
  -8  -3   3   12.55    2.92
  -8   3   3   15.47    2.36
  -8   3   3   14.09    3.07
  -8   3   3   11.81    2.17
   8   3  -3   14.00    2.33
   8   3  -3   12.49    2.23
  -8   3   3   13.79    2.60
   8   3  -3   11.97    2.34
  -7  -3   3   36.65    3.97
   7  -3  -3   34.09    4.06
  -7  -3   3   38.25    4.51
   7  -3  -3   27.80    3.39
  -7  -3   3   32.43    3.17
  -7   3   3   30.39    3.49
   7   3  -3   36.33    3.46
   7   3  -3   27.38    3.38
  -7   3   3   34.19    3.58
   7   3  -3   32.71    3.53
  -7   3   3   25.43    4.15
  -7   3   3   32.66    3.58
  -7   3   3   24.19    4.20
  -6  -3   3   22.14    3.73
   6  -3  -3   26.92    3.35
   6  -3  -3   18.15    2.77
  -6  -3   3   26.71    2.47
  -6  -3   3   24.17    3.01
  -6   3   3   25.72    2.75
  -6   3   3   19.08    3.36
   6   3  -3   24.94    2.69
   6   3  -3   21.37    2.54
  -6   3   3   22.22    3.39
  -6   3   3   24.91    2.85
  -6   3   3   28.26    2.87
   6   3  -3   24.04    2.71
   6   3  -3   20.74    3.81
  -5  -3   3   24.22    2.35
  -5  -3   3   20.66    2.83
   5  -3  -3   26.28    3.25
   5  -3  -3   28.37    2.78
  -5  -3   3   28.26    3.44
  -5   3   3   23.33    3.97
  -5   3   3   24.55    2.72
   5   3  -3   24.78    2.50
   5   3  -3   21.37    2.47
  -5   3   3   23.65    2.63
   5   3  -3   23.34    2.56
   5   3  -3   26.94    4.11
  -5   3   3   21.97    2.65
  -5   3   3   25.44    3.55
  -4  -3   3   39.10    4.69
  -4  -3   3   40.29    3.45
   4  -3  -3   40.59    4.62
  -4  -3   3   37.94    4.06
   4   3  -3   35.48    3.58
   4   3  -3   38.04    3.59
  -4   3   3   35.22    4.15
  -4   3   3   38.76    3.75
   4   3  -3   46.74    4.94
   4   3  -3   40.37    3.65
  -4   3   3   37.76    3.77
  -4   3   3   45.79    3.92
   4   3  -3   40.01    3.67
   3  -3  -3   87.16    9.79
  -3  -3   3   96.02    9.03
  -3  -3   3  105.31    8.03
   3  -3  -3  119.48    8.42
  -3  -3   3   95.36   10.04
   3   3  -3   94.04    8.12
   3   3  -3   99.93    8.25
   3   3  -3   93.26    8.25
  -3   3   3   93.31    9.18
  -3   3   3  105.81    8.46
   3   3  -3   94.59    8.18
  -3   3   3   94.42    8.31
   3   3  -3  101.47   10.18
  -3   3   3   96.91    8.31
  -2  -3   3  167.08   16.42
   2  -3  -3  172.43   13.72
  -2  -3   3  166.36   13.46
   2  -3  -3  152.72   16.12
  -2  -3   3  166.39   14.97
  -2   3   3  173.57   13.78
   2   3  -3  174.02   13.60
   2   3  -3  164.52   13.59
  -2   3   3  181.85   15.15
   2   3  -3  163.45   16.51
  -1  -3   3   26.42    2.59
   1  -3  -3   20.26    2.28
   1  -3  -3   22.74    2.63
   1  -3  -3   24.90    3.11
  -1  -3   3   21.10    2.89
   1  -3  -3   22.92    2.32
   1   3  -3   27.70    3.12
  -1   3   3   28.48    2.81
  -1   3   3   27.84    2.42
   1   3  -3   25.80    2.24
   0  -3  -3   36.24    3.60
   0  -3   3   45.22    3.52
   0  -3   3   43.98    4.48
   0  -3  -3   43.90    3.67
   0  -3   3   39.72    3.47
   0  -3   3   42.72    4.07
   0  -3  -3   46.50    4.15
   0  -3  -3   41.00    4.15
   0  -3  -3   41.75    4.59
   0   3  -3   39.57    3.57
   0   3   3   40.59    4.17
   0   3   3   40.65    3.69
   0   3   3   40.37    3.73
   0   3  -3   53.89    4.74
   0   3  -3   41.35    3.96
  -1  -3  -3   54.77    5.81
   1  -3   3   61.85    4.69
  -1  -3  -3   50.77    4.67
  -1  -3  -3   59.30    5.35
   1  -3   3   56.67    5.20
   1  -3   3   61.56    5.65
   1  -3   3   63.22    5.40
  -1  -3  -3   61.42    4.74
  -1  -3  -3   45.27    5.24
   1   3   3   52.58    5.30
   1   3   3   44.50    4.73
  -1   3  -3   54.75    5.21
   1   3   3   48.30    4.77
  -1   3  -3   59.83    4.73
  -1   3  -3   61.57    5.91
  -1   3  -3   62.45    4.79
   1   3   3   53.22    4.79
  -1   3  -3   52.04    4.74
  -2  -3  -3   66.77    6.09
   2  -3   3   77.77    6.84
   2  -3   3   62.51    7.09
  -2  -3  -3   81.21    6.96
   2  -3   3   75.95    7.00
  -2  -3  -3   70.09    6.15
  -2  -3  -3   81.31    6.95
   2  -3   3   74.52    6.13
   2  -3   3   76.18    6.19
  -2   3  -3   75.04    6.86
  -2   3  -3   70.31    7.48
   2   3   3   71.23    6.19
   2   3   3   72.54    6.29
   2   3   3   78.80    6.99
  -2   3  -3   76.36    6.21
  -2   3  -3   75.11    6.22
   2   3   3   69.60    6.21
  -2   3  -3   71.67    6.31
   3  -3   3   24.94    3.17
  -3  -3  -3   29.03    2.70
  -3  -3  -3   31.18    3.33
  -3  -3  -3   24.94    3.00
   3  -3   3   25.45    2.78
   3  -3   3   32.78    2.81
   3   3   3   26.84    2.65
   3   3   3   31.54    2.75
  -3   3  -3   29.82    2.76
   3   3   3   24.95    3.14
  -3   3  -3   24.52    3.01
  -3   3  -3   32.24    2.83
  -3   3  -3   28.95    2.80
   3   3   3   23.93    2.66
  -3   3  -3   32.26    3.44
  -4  -3  -3   20.21    2.25
  -4  -3  -3   20.51    2.41
   4  -3   3   16.88    2.26
   4  -3   3   14.62    2.64
  -4  -3  -3   19.90    2.08
   4   3   3   23.13    2.65
   4   3   3   14.65    2.15
   4   3   3   21.12    2.74
  -4   3  -3   20.88    3.19
   4   3   3   19.58    2.14
  -4   3  -3   17.43    2.40
  -4   3  -3   19.69    2.17
   4   3   3   17.57    2.05
  -4   3  -3   20.00    2.52
  -4   3  -3   23.11    2.36
  -5  -3  -3   59.59    5.59
  -5  -3  -3   68.37    5.31
  -5  -3  -3   59.59    5.94
   5  -3   3   55.96    6.09
   5   3   3   62.88    6.42
   5   3   3   55.73    5.95
   5   3   3   54.88    5.19
  -5   3  -3   56.17    5.33
  -5   3  -3   66.78    5.39
  -5   3  -3   41.93    5.72
  -5   3  -3   55.01    5.32
   5   3   3   54.53    5.22
   5   3   3   54.31    5.26
   6  -3   3   20.59    2.79
  -6  -3  -3   15.43    2.86
   6  -3   3   18.39    2.16
  -6  -3  -3   21.12    2.41
  -6   3  -3   19.55    3.17
   6   3   3   21.31    2.47
   6   3   3   17.00    3.05
   6   3   3   24.02    2.54
  -6   3  -3   19.19    2.67
  -6   3  -3   25.93    2.62
  -6   3  -3   19.41    2.80
   6   3   3   27.45    2.61
   6   3   3   24.97    3.16
  -7  -3  -3   44.44    5.59
   7  -3   3   48.26    5.10
  -7  -3  -3   51.21    4.94
   7  -3   3   49.20    5.03
   7   3   3   47.79    5.03
  -7   3  -3   56.29    5.26
   7   3   3   48.47    5.82
   7   3   3   55.48    6.16
   7   3   3   55.12    5.11
   7   3   3   56.01    5.09
  -7   3  -3   49.64    5.79
  -7   3  -3   58.10    5.18
  -8  -3  -3   27.99    5.16
   8  -3   3   45.82    4.51
   8  -3   3   50.73    4.59
  -8   3  -3   32.88    5.29
  -8   3  -3   37.75    4.47
   8   3   3   34.03    4.26
  -8   3  -3   51.67    4.57
  -9  -3  -3   17.20    3.47
  -9   3  -3   32.00    4.27
  -9   3  -3   17.52    3.57
   9   3   3   26.13    3.53
 -10  -3  -3   18.02    3.87
  10   3   3   34.30    4.27
 -10   3  -3   20.59    3.94
 -10   3  -3   23.20    3.71
 -11  -3  -3    7.30    2.60
 -11   3  -3    7.48    2.45
  11   3   3   10.75    2.60
 -12  -3  -3   15.05    3.51
 -12   3  -3   11.61    3.27
 -12  -4   3    0.78    1.44
  12   4  -3    2.98    1.49
 -12   4   3    5.45    2.24
 -11  -4   3    5.38    2.08
  11  -4  -3    9.40    2.49
  11   4  -3    7.31    2.22
 -11   4   3    2.24    1.70
  10  -4  -3    8.11    2.41
 -10  -4   3    5.39    2.16
 -10  -4   3    3.20    1.60
 -10   4   3    1.49    1.55
 -10   4   3    5.28    1.72
  10   4  -3    2.42    1.10
  -9  -4   3    6.11    2.35
   9  -4  -3    7.75    2.32
  -9  -4   3    5.61    1.89
   9   4  -3    5.41    1.62
  -9   4   3    8.11    1.84
  -9   4   3    9.22    2.01
  -9   4   3    9.61    2.62
  -8  -4   3   57.74    6.10
   8  -4  -3   50.21    5.33
  -8  -4   3   31.61    4.60
   8  -4  -3   45.40    4.52
  -8   4   3   38.18    4.99
  -8   4   3   35.99    4.81
   8   4  -3   43.78    4.32
   8   4  -3   35.87    4.28
  -8   4   3   43.06    4.49
  -8   4   3   44.36    4.52
   7  -4  -3    8.28    2.18
  -7  -4   3    9.10    2.46
   7  -4  -3    6.29    1.49
  -7  -4   3    8.95    1.94
  -7  -4   3    8.38    1.34
   7   4  -3    8.17    1.56
  -7   4   3    8.57    1.68
  -7   4   3   10.74    1.85
   7   4  -3   11.81    1.83
   7   4  -3    6.29    1.48
  -7   4   3   10.40    2.22
  -7   4   3    6.47    1.69
  -7   4   3    5.60    1.73
   7   4  -3   10.09    1.75
  -6  -4   3    3.94    0.77
   6  -4  -3    4.01    1.45
  -6  -4   3    2.88    1.18
   6  -4  -3    3.89    1.10
  -6  -4   3    5.22    1.69
  -6   4   3    3.82    1.02
  -6   4   3    3.04    1.29
   6   4  -3    3.11    0.92
   6   4  -3    4.25    0.99
   6   4  -3    3.12    0.98
  -6   4   3    3.87    1.10
  -6   4   3    4.66    1.61
  -6   4   3    4.18    1.18
  -5  -4   3   23.75    3.77
   5  -4  -3   22.54    3.62
  -5  -4   3   24.45    2.23
  -5  -4   3   25.57    2.86
   5   4  -3   21.57    2.38
   5   4  -3   25.79    2.61
  -5   4   3   23.04    2.67
   5   4  -3   22.71    3.87
  -5   4   3   27.47    3.20
  -5   4   3   24.29    2.73
  -5   4   3   23.88    2.60
   5   4  -3   23.31    2.47
   4  -4  -3    1.46    1.06
  -4  -4   3    0.63    0.72
  -4  -4   3    1.64    0.71
  -4   4   3    2.53    1.02
  -4   4   3    1.17    0.61
  -4   4   3    0.91    0.58
  -4   4   3    0.62    0.45
   4   4  -3    0.54    0.37
   4   4  -3    0.43    0.35
   4   4  -3    1.10    0.55
   4   4  -3    1.02    0.50
   4   4  -3    1.57    1.06
  -3  -4   3   48.29    4.88
  -3  -4   3   52.25    5.70
   3  -4  -3   40.66    5.48
  -3   4   3   60.19    5.26
   3   4  -3   43.98    4.35
  -3   4   3   50.60    4.63
  -3   4   3   54.16    4.61
   3   4  -3   54.37    4.38
  -3   4   3   51.13    4.58
   3   4  -3   46.10    5.45
   3   4  -3   64.05    6.04
   2  -4  -3  108.21   10.94
  -2  -4   3   96.39   10.92
  -2  -4   3  127.37    9.86
   2  -4  -3   98.57    9.96
  -2   4   3   87.28    9.02
  -2   4   3  119.60   10.11
   2   4  -3  115.89    8.88
   2   4  -3  105.51    8.88
   2   4  -3  121.64   11.18
   2   4  -3  113.05   10.78
   1  -4  -3  126.37    9.91
   1  -4  -3   98.69   10.70
  -1  -4   3  112.92    9.67
   1  -4  -3  114.33    8.87
   1   4  -3   86.54   10.66
   1   4  -3  104.74   10.62
  -1   4   3  100.64    8.90
   1   4  -3  110.40    9.59
   1   4  -3   99.29    8.71
  -1   4   3  124.10    9.97
   0  -4   3   44.86    5.44
   0  -4  -3   46.61    4.41
   0  -4  -3   38.11    5.47
   0  -4  -3   49.15    5.04
   0  -4  -3   55.37    5.08
   0  -4   3   52.57    4.97
   0   4  -3   55.69    5.57
   0   4   3   58.18    4.61
   0   4  -3   54.36    4.86
   0   4   3   53.28    4.52
   0   4  -3   52.45    5.63
   0   4  -3   56.98    4.41
   0   4   3   61.94    5.17
  -1  -4  -3  103.20    8.09
   1  -4   3  109.30    8.91
   1  -4   3  106.14    9.06
   1  -4   3   81.87    9.62
  -1  -4  -3  106.26    9.09
  -1  -4  -3  102.13    9.05
   1   4   3   93.02    8.20
  -1   4  -3   96.41    9.73
  -1   4  -3  105.04    8.95
   1   4   3   98.95    9.07
  -1   4  -3   98.38   10.14
   1   4   3   92.38    8.15
  -1   4  -3   92.77    8.11
  -1   4  -3   99.23    8.14
   2  -4   3  125.56   12.34
  -2  -4  -3  121.95   11.73
  -2  -4  -3  130.72   10.54
  -2  -4  -3  135.19   11.77
  -2  -4  -3  123.19   12.52
   2  -4   3  137.13   11.86
   2  -4   3  137.25   11.70
   2  -4   3  134.91   10.55
   2   4   3  119.49   10.62
   2   4   3  141.24   10.85
  -2   4  -3  129.12   10.83
   2   4   3  118.33   10.64
   2   4   3  114.99   11.75
  -2   4  -3  142.35   11.77
  -2   4  -3  127.13   10.64
  -2   4  -3  132.32   10.69
  -3  -4  -3   79.68    7.33
  -3  -4  -3   77.97    7.66
  -3  -4  -3   75.70    6.49
   3  -4   3   68.20    7.38
   3  -4   3   75.67    7.28
  -3  -4  -3   74.10    7.27
   3  -4   3   81.86    6.59
   3   4   3   75.92    7.45
  -3   4  -3   79.74    6.67
   3   4   3   73.48    6.56
   3   4   3   78.13    6.67
  -3   4  -3   85.12    6.74
   3   4   3   75.55    6.60
  -3   4  -3   83.60    6.76
  -3   4  -3   72.53    7.36
  -4  -4  -3  154.54   14.70
   4  -4   3  153.08   14.40
  -4  -4  -3  155.66   12.76
   4  -4   3  170.55   12.91
  -4  -4  -3  155.44   14.20
  -4   4  -3  165.32   13.02
  -4   4  -3  167.39   13.09
  -4   4  -3  137.38   14.13
   4   4   3  146.78   12.87
   4   4   3  142.68   12.78
  -4   4  -3  160.71   13.24
   4   4   3  155.81   15.51
   4   4   3  149.30   14.26
   4   4   3  161.01   13.08
   5  -4   3   55.87    4.82
  -5  -4  -3   48.98    4.62
  -5  -4  -3   48.64    5.07
  -5  -4  -3   54.12    5.44
  -5   4  -3   47.53    4.81
  -5   4  -3   51.43    5.48
   5   4   3   53.08    4.73
   5   4   3   48.64    4.74
  -5   4  -3   54.20    4.92
   5   4   3   49.33    4.73
  -5   4  -3   47.95    4.82
   5   4   3   54.38    5.98
   5   4   3   54.42    5.49
  -6  -4  -3   29.08    3.51
  -6  -4  -3   28.29    2.94
  -6  -4  -3   28.22    2.85
   6  -4   3   35.94    3.28
  -6   4  -3   30.92    4.52
   6   4   3   29.40    3.65
  -6   4  -3   27.87    3.15
  -6   4  -3   25.83    3.16
   6   4   3   24.02    2.99
   6   4   3   28.97    3.93
   6   4   3   27.46    3.03
   6   4   3   32.01    3.12
  -6   4  -3   28.79    3.20
  -7  -4  -3   44.51    4.25
  -7  -4  -3   40.63    4.99
  -7   4  -3   37.27    4.95
   7   4   3   49.13    4.49
  -7   4  -3   40.66    4.43
   7   4   3   45.21    4.44
  -7   4  -3   44.58    4.46
   7   4   3   36.87    4.31
   7   4   3   45.95    5.23
  -7   4  -3   45.58    4.61
  -8  -4  -3    3.57    1.53
   8   4   3    4.66    1.27
  -8   4  -3    4.34    1.42
  -8   4  -3    2.01    1.01
   8   4   3    3.77    1.27
  -8   4  -3    5.34    1.89
  -9  -4  -3    7.81    2.30
   9   4   3    6.68    1.73
  -9   4  -3    7.21    1.82
  -9   4  -3    5.54    1.96
 -10  -4  -3    4.82    1.88
 -10   4  -3    4.65    1.64
 -10   4  -3    9.01    2.76
  10   4   3    6.07    1.86
 -11  -4  -3    0.58    1.36
  11   4   3    0.40    1.19
 -11   4  -3   -0.06    1.17
 -12  -4  -3    3.42    1.87
  12   4   3    2.71    1.72
 -12   4  -3    4.20    2.35
 -12  -5   3    0.30    1.38
 -12   5   3    0.85    1.90
  12   5  -3    0.89    1.15
  11  -5  -3    1.49    1.56
 -11  -5   3    0.37    1.37
 -11   5   3    0.76    1.55
  11   5  -3   -0.80    0.83
 -10  -5   3    2.59    1.46
 -10  -5   3    2.91    1.68
  10  -5  -3    1.66    1.54
 -10   5   3    2.84    1.70
 -10   5   3    4.04    1.54
  10   5  -3    2.29    1.19
  -9  -5   3    1.30    1.52
  -9  -5   3    2.58    1.27
   9  -5  -3   -0.26    1.22
  -9   5   3    2.70    1.17
  -9   5   3    1.23    1.11
  -9   5   3    1.05    1.32
   9   5  -3    0.63    0.92
   8  -5  -3   25.25    4.31
  -8  -5   3   23.07    4.62
  -8  -5   3   24.90    3.90
  -8   5   3   16.62    3.38
  -8   5   3   25.15    4.28
   8   5  -3   24.96    3.36
   8   5  -3   24.61    2.91
  -8   5   3   35.26    3.47
  -8   5   3   28.35    3.78
   7  -5  -3   54.37    5.89
  -7  -5   3   54.02    6.30
  -7  -5   3   47.03    5.18
   7   5  -3   43.13    4.49
  -7   5   3   50.09    4.84
  -7   5   3   46.00    4.84
  -7   5   3   42.72    4.77
   7   5  -3   46.44    4.67
   7   5  -3   45.27    4.64
  -7   5   3   47.14    5.45
  -6  -5   3   50.71    6.34
  -6  -5   3   40.43    5.20
   6  -5  -3   44.33    5.99
  -6   5   3   49.36    5.08
   6   5  -3   57.93    5.58
  -6   5   3   46.24    5.62
  -6   5   3   57.45    5.13
   6   5  -3   55.13    4.94
  -6   5   3   50.65    6.36
   6   5  -3   56.39    4.92
  -6   5   3   56.35    5.17
   6   5  -3   55.05    4.80
  -5  -5   3   72.82    7.87
  -5  -5   3   61.37    6.67
   5  -5  -3   69.61    7.60
   5   5  -3   73.32    6.12
   5   5  -3   72.03    7.23
  -5   5   3   73.07    6.41
   5   5  -3   73.56    6.16
  -5   5   3   62.26    6.96
   5   5  -3   65.76    6.05
  -5   5   3   72.24    6.42
   5   5  -3   72.91    6.13
  -5   5   3   68.25    6.34
  -4  -5   3   57.53    6.40
   4  -5  -3   59.42    6.31
  -4  -5   3   53.93    5.38
  -4   5   3   63.95    5.20
   4   5  -3   55.57    4.83
  -4   5   3   56.40    5.14
   4   5  -3   54.02    5.92
   4   5  -3   58.60    6.46
  -4   5   3   52.44    5.06
   4   5  -3   50.35    4.85
  -4   5   3   53.02    5.63
  -3  -5   3  109.57   10.62
  -3  -5   3  101.32    9.18
   3  -5  -3  110.70   10.51
   3   5  -3   96.38    8.33
   3   5  -3  119.41   10.58
  -3   5   3  100.15    8.66
  -3   5   3   98.71    8.66
   3   5  -3  107.18   10.62
   3   5  -3   98.76    8.36
  -3   5   3   95.40    9.52
  -3   5   3   93.19    8.58
   2  -5  -3   50.21    5.37
  -2  -5   3   56.02    5.11
  -2  -5   3   50.45    5.98
   2  -5  -3   55.70    6.07
   2  -5  -3   59.03    4.78
   2   5  -3   57.61    4.59
   2   5  -3   60.63    6.18
   2   5  -3   52.84    4.59
  -2   5   3   53.14    5.45
  -2   5   3   53.99    4.87
   1  -5  -3  122.64   10.60
  -1  -5   3  130.71   12.99
   1  -5  -3  146.17   11.89
   1  -5  -3  116.89   12.85
  -1  -5   3  141.33   11.62
  -1   5   3  121.25   11.87
   1   5  -3  145.37   11.58
  -1   5   3  119.87   10.74
   1   5  -3  127.24   13.04
   0  -5  -3   35.85    3.11
   0  -5  -3   33.79    3.62
   0  -5  -3   42.46    3.77
   0  -5   3   32.74    4.03
   0  -5  -3   33.14    4.20
   0  -5   3   39.88    3.56
   0   5   3   29.94    3.23
   0   5   3   33.56    3.29
   0   5  -3   42.49    3.51
   0   5   3   34.24    3.71
   0   5  -3   37.72    3.14
   0   5  -3   41.89    4.21
  -1  -5  -3   17.22    2.00
   1  -5   3   16.54    1.93
   1  -5   3   16.81    2.11
  -1  -5  -3   16.20    1.99
  -1  -5  -3   16.01    2.61
   1   5   3   14.87    1.98
  -1   5  -3   17.40    1.69
   1   5   3   13.41    2.62
  -1   5  -3   15.52    1.64
   1   5   3   17.62    1.71
  -1   5  -3   15.67    1.80
  -1   5  -3   18.56    2.21
   1   5   3   14.52    1.69
   2  -5   3    3.50    0.75
  -2  -5  -3    1.67    0.72
  -2  -5  -3    2.04    0.76
  -2  -5  -3    2.30    0.99
   2  -5   3    1.19    0.61
   2  -5   3    1.94    0.77
  -2   5  -3    3.22    0.74
   2   5   3    2.09    0.61
  -2   5  -3    2.16    0.74
  -2   5  -3    2.77    0.53
   2   5   3    1.14    0.64
  -2   5  -3    3.39    0.97
   2   5   3    3.13    0.62
  -2   5  -3    2.04    0.62
   2   5   3    2.24    0.59
  -3  -5  -3    0.77    0.70
  -3  -5  -3    1.15    0.65
   3  -5   3    0.31    0.91
   3  -5   3    2.24    0.78
  -3  -5  -3    0.77    0.37
   3  -5   3    0.67    0.41
   3  -5   3    3.84    1.07
  -3  -5  -3    1.95    0.79
  -3   5  -3    2.00    0.75
   3   5   3    1.83    0.80
   3   5   3    0.04    0.30
  -3   5  -3    0.36    0.38
   3   5   3    0.25    0.39
   3   5   3    0.57    0.53
   3   5   3    1.85    1.10
  -3   5  -3    1.35    0.57
  -3   5  -3    0.63    0.48
  -4  -5  -3   22.38    2.31
  -4  -5  -3   24.00    2.90
  -4  -5  -3   21.22    2.85
  -4  -5  -3   21.23    2.86
   4  -5   3   29.92    3.69
   4  -5   3   25.83    2.54
   4   5   3   26.73    3.52
  -4   5  -3   25.80    2.59
   4   5   3   22.25    2.53
   4   5   3   25.36    2.49
  -4   5  -3   25.04    2.70
   4   5   3   24.49    2.51
   4   5   3   27.93    3.15
  -4   5  -3   27.49    2.73
  -4   5  -3   24.01    3.02
  -5  -5  -3    7.28    1.21
   5  -5   3    8.81    1.50
  -5  -5  -3    5.07    1.40
  -5  -5  -3   11.15    1.54
   5  -5   3    9.72    2.32
   5   5   3    1.71    1.14
  -5   5  -3    4.95    1.22
  -5   5  -3    6.05    1.33
  -5   5  -3    8.50    1.39
   5   5   3    5.49    1.13
  -5   5  -3    3.32    1.30
   5   5   3    6.40    1.27
   5   5   3    7.22    1.22
  -6  -5  -3   59.64    4.89
  -6  -5  -3   43.88    5.50
   6  -5   3   56.71    5.12
  -6  -5  -3   55.80    5.23
   6  -5   3   52.45    6.32
   6   5   3   46.15    4.91
  -6   5  -3   51.81    5.79
   6   5   3   49.02    4.97
   6   5   3   54.83    5.05
  -6   5  -3   58.85    5.28
  -6   5  -3   56.07    5.25
  -6   5  -3   56.91    5.26
   6   5   3   45.06    5.64
  -7  -5  -3   10.12    1.66
  -7  -5  -3    8.29    2.10
   7   5   3    7.01    1.48
  -7   5  -3    8.75    1.78
  -7   5  -3   10.11    1.96
   7   5   3    6.83    2.13
   7   5   3    6.24    1.49
   7   5   3    9.25    1.81
  -7   5  -3    7.54    2.14
  -8  -5  -3   14.40    3.09
  -8   5  -3   18.39    2.81
  -8   5  -3   18.89    3.57
  -8   5  -3   19.53    3.33
   8   5   3   18.94    2.71
   8   5   3   14.97    2.50
  -9  -5  -3   12.00    2.69
   9   5   3   13.58    2.46
  -9   5  -3   11.11    2.79
  -9   5  -3    7.72    2.02
 -10  -5  -3    7.85    2.40
  10   5   3    7.78    1.89
 -10   5  -3   12.52    2.43
 -10   5  -3    9.97    2.80
 -11  -5  -3    8.63    2.63
 -11   5  -3    9.67    3.06
  11   5   3   10.95    2.48
 -12  -5  -3    3.16    1.87
  12   5   3    5.13    1.96
 -12   5  -3    4.25    2.20
 -12  -6   3   -1.03    1.12
 -12   6   3    0.05    1.93
  12   6  -3    0.35    1.35
  11  -6  -3    2.40    1.95
 -11  -6   3    1.81    1.47
  11   6  -3    2.12    1.35
 -11   6   3    1.54    1.69
 -10  -6   3    9.90    2.55
  10  -6  -3   15.71    3.38
  10   6  -3    7.73    2.11
 -10   6   3    5.99    2.34
 -10   6   3   13.77    2.71
  -9  -6   3   14.73    3.03
   9  -6  -3   26.13    4.47
  -9  -6   3   14.87    3.75
  -9   6   3   23.70    3.38
  -9   6   3   17.50    3.80
   9   6  -3   13.81    2.61
  -8  -6   3    5.76    2.11
   8  -6  -3    3.00    1.87
  -8  -6   3    2.61    1.32
  -8   6   3    3.13    1.30
  -8   6   3    2.97    1.26
   8   6  -3    3.00    0.98
   8   6  -3    5.17    1.36
  -8   6   3    2.22    1.34
  -8   6   3    3.85    1.83
  -7  -6   3    7.68    1.77
  -7  -6   3   13.56    3.07
   7  -6  -3   11.75    2.90
   7   6  -3    8.60    1.72
  -7   6   3   12.51    2.12
   7   6  -3    7.45    1.39
  -7   6   3    4.97    1.76
  -7   6   3    9.39    1.97
   7   6  -3    8.39    1.63
  -7   6   3   10.50    2.43
  -6  -6   3   14.86    2.17
  -6  -6   3    8.43    2.55
   6  -6  -3   12.12    2.81
   6   6  -3    9.45    1.54
  -6   6   3   10.69    2.02
   6   6  -3   14.38    1.96
  -6   6   3    7.56    1.72
   6   6  -3    9.99    1.74
  -6   6   3   16.86    2.88
  -6   6   3   15.55    2.42
  -5  -6   3   19.67    3.92
  -5  -6   3   21.49    2.93
  -5  -6   3   19.80    2.47
   5  -6  -3   27.65    4.35
  -5   6   3   14.65    2.91
  -5   6   3   20.45    2.83
  -5   6   3   26.69    2.55
   5   6  -3   19.73    2.23
  -5   6   3   16.66    2.55
   5   6  -3   21.19    2.02
   5   6  -3   19.93    2.16
   5   6  -3   20.76    2.02
  -4  -6   3   26.36    2.44
   4  -6  -3   21.45    3.65
  -4  -6   3   22.17    3.74
  -4   6   3   18.02    2.57
   4   6  -3   22.15    3.62
  -4   6   3   25.73    2.84
   4   6  -3   15.72    1.97
  -4   6   3   16.74    2.16
  -4   6   3   19.38    2.29
   4   6  -3   18.75    1.96
  -3  -6   3   23.40    2.43
   3  -6  -3   20.69    3.58
  -3  -6   3   24.46    3.86
  -3   6   3   23.88    2.53
  -3   6   3   25.69    2.59
   3   6  -3   27.56    4.05
   3   6  -3   22.33    2.21
  -3   6   3   22.48    2.86
   3   6  -3   23.98    2.17
  -2  -6   3   64.91    5.66
   2  -6  -3   47.49    5.95
   2  -6  -3   62.53    6.87
   2  -6  -3   64.34    5.27
  -2  -6   3   69.06    7.08
   2   6  -3   65.65    6.96
  -2   6   3   70.99    5.55
  -2   6   3   53.69    6.05
   2   6  -3   65.03    5.66
   1  -6  -3   65.25    7.18
   1  -6  -3   71.93    8.11
  -1  -6   3   64.87    8.14
  -1  -6   3   81.77    6.89
   1   6  -3   80.25    6.90
  -1   6   3   82.77    7.32
   1   6  -3   89.59    8.26
  -1   6   3   77.98    6.58
   0  -6   3   61.48    5.04
   0  -6  -3   49.57    5.94
   0  -6  -3   59.26    5.30
   0  -6   3   51.41    5.81
   0  -6  -3   50.94    5.23
   0   6   3   52.35    5.29
   0   6  -3   56.13    4.98
   0   6  -3   55.84    5.89
   0   6   3   49.32    4.68
   1  -6   3   35.49    3.68
   1  -6   3   32.18    3.10
  -1  -6  -3   31.56    3.29
  -1  -6  -3   24.99    3.23
  -1  -6  -3   33.70    3.88
   1  -6   3   30.55    3.24
   1   6   3   30.07    2.92
   1   6   3   31.18    3.37
  -1   6  -3   35.17    2.93
  -1   6  -3   32.61    2.86
  -1   6  -3   35.44    3.72
  -1   6  -3   31.00    3.18
   1   6   3   32.41    2.97
  -2  -6  -3   76.61    7.94
   2  -6   3   78.64    7.58
  -2  -6  -3   75.06    7.16
  -2  -6  -3   71.84    7.19
   2  -6   3   78.29    7.09
   2  -6   3   83.67    8.49
   2   6   3   74.75    6.52
  -2   6  -3   79.11    7.68
   2   6   3   75.89    7.30
   2   6   3   71.87    6.45
  -2   6  -3   79.49    7.19
  -2   6  -3   72.77    6.48
  -2   6  -3   80.81    6.57
  -3  -6  -3  105.53   10.68
   3  -6   3  113.56   11.23
  -3  -6  -3  112.39   10.00
   3  -6   3  108.01    9.94
  -3  -6  -3   99.63    9.89
   3   6   3  111.38   11.26
   3   6   3  109.68    9.01
  -3   6  -3   99.88    9.18
  -3   6  -3  104.62    9.05
   3   6   3  112.51    9.10
   3   6   3   99.26    9.04
  -3   6  -3  108.31   10.07
  -3   6  -3  112.08    9.16
   3   6   3  118.29   10.16
  -4  -6  -3   56.73    5.69
  -4  -6  -3   55.32    5.65
   4  -6   3   58.16    6.52
  -4  -6  -3   60.49    6.00
   4  -6   3   65.93    5.80
   4   6   3   58.94    5.06
  -4   6  -3   50.37    5.16
  -4   6  -3   54.14    5.82
   4   6   3   55.07    5.03
  -4   6  -3   56.03    5.21
   4   6   3   56.34    5.85
  -4   6  -3   55.59    5.17
   4   6   3   53.69    5.09
  -5  -6  -3   55.50    6.06
   5  -6   3   69.45    5.43
   5  -6   3   53.45    6.73
  -5  -6  -3   61.43    6.14
  -5  -6  -3   64.88    6.16
   5   6   3   52.05    6.12
  -5   6  -3   48.01    5.47
  -5   6  -3   55.89    5.56
   5   6   3   66.21    5.53
   5   6   3   57.65    5.37
  -5   6  -3   59.51    5.56
   5   6   3   62.73    5.41
  -5   6  -3   72.23    6.46
  -6  -6  -3    5.36    1.46
  -6  -6  -3    2.41    0.87
   6  -6   3    3.12    1.02
   6  -6   3    2.43    1.56
   6   6   3    5.09    1.26
   6   6   3    4.32    1.02
   6   6   3    4.74    1.17
  -6   6  -3    5.94    1.81
  -6   6  -3    4.06    1.22
  -6   6  -3    4.66    1.26
  -6   6  -3    3.13    1.04
   6   6   3    4.41    1.59
  -7  -6  -3   18.76    3.25
   7  -6   3   15.18    3.55
   7   6   3   18.38    3.20
  -7   6  -3   17.91    2.82
  -7   6  -3   14.45    2.95
  -7   6  -3   20.14    3.03
   7   6   3   14.75    2.34
   7   6   3   14.59    2.25
  -8  -6  -3    0.69    0.85
   8   6   3    0.59    0.81
  -8   6  -3    0.94    1.09
  -8   6  -3    0.41    1.10
  -8   6  -3    0.23    0.68
   8   6   3    1.03    0.85
  -9  -6  -3   20.27    3.52
  -9   6  -3   15.96    3.43
  -9   6  -3   18.70    3.09
   9   6   3   17.40    2.86
 -10  -6  -3   -0.65    0.94
 -10   6  -3    1.34    1.58
  10   6   3   -0.38    1.02
 -10   6  -3    1.00    1.11
 -11  -6  -3    1.71    1.39
  11   6   3    0.86    1.19
 -11   6  -3    0.45    1.57
 -12  -6  -3   -0.22    1.22
  12   6   3    2.89    1.63
 -12   6  -3   -1.82    1.44
  11  -7  -3    7.63    2.65
 -11  -7   3    4.91    1.85
  11   7  -3    6.45    2.05
 -11   7   3    5.61    2.68
 -10  -7   3    4.53    1.61
  10  -7  -3    4.08    2.24
 -10   7   3    0.86    1.60
 -10   7   3    0.39    1.08
  10   7  -3    2.09    1.16
   9  -7  -3   10.72    3.03
  -9  -7   3    6.07    1.91
   9   7  -3    6.14    1.65
  -9   7   3   10.79    2.25
  -9   7   3    6.27    2.20
  -8  -7   3    8.37    1.95
   8  -7  -3    8.80    2.84
  -8  -7   3    6.00    2.39
   8   7  -3    8.12    1.72
  -8   7   3    4.48    1.89
   8   7  -3    7.70    1.53
  -8   7   3    6.54    1.79
  -8   7   3    9.76    2.20
  -7  -7   3   16.09    3.56
  -7  -7   3   16.68    2.70
   7  -7  -3   20.36    3.92
  -7   7   3   16.62    2.71
   7   7  -3   11.97    2.26
  -7   7   3   23.28    3.08
   7   7  -3   14.21    2.34
   7   7  -3   20.83    2.18
  -7   7   3   14.96    3.17
  -7   7   3   15.06    3.37
  -6  -7   3   50.22    5.79
   6  -7  -3   38.38    5.37
  -6  -7   3   36.56    4.25
  -6   7   3   44.05    4.23
   6   7  -3   36.11    3.92
   6   7  -3   41.95    3.79
  -6   7   3   42.19    4.33
   6   7  -3   43.73    4.02
  -6   7   3   37.24    4.75
  -5  -7   3   10.77    1.74
   5  -7  -3   11.19    2.80
  -5  -7   3    9.88    1.74
  -5  -7   3    8.10    2.44
  -5   7   3   10.21    1.92
   5   7  -3   10.84    1.56
  -5   7   3   13.14    1.99
  -5   7   3   11.45    1.94
  -5   7   3   11.06    2.25
   5   7  -3   10.56    1.58
  -4  -7   3   43.51    4.23
  -4  -7   3   46.25    5.63
   4  -7  -3   50.37    5.76
  -4  -7   3   36.68    4.20
   4   7  -3   46.18    3.92
  -4   7   3   40.47    4.77
   4   7  -3   46.90    3.98
  -4   7   3   42.36    4.31
  -4   7   3   50.21    4.34
  -4   7   3   46.65    4.32
  -3  -7   3   19.64    2.09
   3  -7  -3   16.10    2.86
   3  -7  -3   23.12    3.80
  -3  -7   3   25.30    3.97
  -3  -7   3   22.65    2.15
  -3   7   3   22.51    3.13
  -3   7   3   22.91    2.47
   3   7  -3   33.06    3.93
  -3   7   3   25.33    2.54
  -2  -7   3   33.09    3.88
   2  -7  -3   30.42    4.50
   2  -7  -3   25.05    3.04
   2   7  -3   44.09    4.36
  -2   7   3   24.57    3.07
   2   7  -3   25.95    2.55
  -2   7   3   28.37    2.78
   1  -7  -3   33.88    4.19
  -1  -7   3   34.15    3.99
   1  -7  -3   29.29    3.28
  -1   7   3   30.12    2.94
   1   7  -3   31.25    3.99
  -1   7   3   29.09    3.31
   0  -7   3   26.92    3.30
   0  -7  -3   25.99    2.79
   0  -7  -3   29.46    4.31
   0  -7  -3   23.52    2.76
   0   7   3   25.41    2.51
   0   7   3   29.16    2.93
   0   7  -3   26.41    2.51
   0   7  -3   25.17    3.31
  -1  -7  -3    9.03    2.12
   1  -7   3    8.04    1.61
  -1  -7  -3    8.78    1.47
   1  -7   3    6.40    2.23
  -1   7  -3    8.79    1.79
  -1   7  -3    7.46    1.08
   1   7   3    8.67    1.53
  -1   7  -3   10.97    1.51
  -1   7  -3   10.17    1.29
   1   7   3    7.58    1.24
   1   7   3    8.60    1.22
   2  -7   3    2.23    0.64
   2  -7   3    4.06    1.74
  -2  -7  -3    3.10    0.84
  -2  -7  -3    4.48    1.00
  -2  -7  -3    1.82    1.15
   2   7   3    3.44    1.03
  -2   7  -3    1.77    0.82
  -2   7  -3    2.94    0.75
   2   7   3    2.93    1.34
   2   7   3    2.61    0.71
   2   7   3    2.55    0.64
  -2   7  -3    3.45    0.92
  -2   7  -3    3.19    0.71
  -3  -7  -3   32.86    3.31
   3  -7   3   32.64    4.25
   3  -7   3   28.48    3.19
  -3  -7  -3   29.67    3.71
  -3  -7  -3   29.31    3.21
   3   7   3   33.64    2.78
  -3   7  -3   28.80    2.81
   3   7   3   30.88    2.96
  -3   7  -3   27.40    3.29
  -3   7  -3   33.09    3.06
  -3   7  -3   28.97    3.28
   3   7   3   30.30    3.37
   3   7   3   26.66    2.81
  -3   7  -3   27.54    2.92
  -4  -7  -3    4.32    1.24
   4  -7   3    7.55    2.32
  -4  -7  -3    5.22    1.53
   4  -7   3    5.77    1.37
  -4  -7  -3    4.61    1.24
  -4   7  -3    6.94    1.63
   4   7   3    7.97    1.68
   4   7   3    6.84    1.21
   4   7   3    7.20    1.04
  -4   7  -3    5.93    1.28
  -4   7  -3    5.22    1.13
   4   7   3    7.86    1.31
  -4   7  -3    7.80    1.45
  -5  -7  -3    9.84    1.97
   5  -7   3   11.03    2.78
  -5  -7  -3   10.32    2.09
   5   7   3   12.43    1.66
   5   7   3   10.87    1.83
  -5   7  -3   11.57    1.85
  -5   7  -3   12.37    2.16
  -5   7  -3   13.45    2.22
   5   7   3   11.53    1.74
  -5   7  -3   12.99    2.42
   5   7   3   10.53    2.21
  -6  -7  -3   31.09    4.04
   6  -7   3   42.17    5.04
   6   7   3   35.73    3.56
   6   7   3   30.55    4.16
  -6   7  -3   31.01    4.17
   6   7   3   37.14    3.65
   6   7   3   34.47    3.67
  -6   7  -3   35.15    3.83
  -6   7  -3   38.90    3.79
  -7  -7  -3   12.69    2.59
   7  -7   3   21.81    4.00
   7   7   3   14.38    2.17
  -7   7  -3   13.31    2.43
  -7   7  -3   16.81    2.46
  -7   7  -3   14.51    3.06
   7   7   3   13.87    2.21
   8  -7   3   22.38    4.41
  -8  -7  -3   10.17    2.69
  -8   7  -3   15.61    3.01
  -8   7  -3   18.44    2.86
   8   7   3   22.68    2.91
   8   7   3   22.33    3.06
  -8   7  -3   15.08    3.31
  -9  -7  -3    8.52    2.32
   9   7   3   11.12    2.18
  -9   7  -3   11.97    2.98
  -9   7  -3    6.32    2.11
 -10  -7  -3    4.52    1.95
 -10   7  -3    2.25    1.46
  10   7   3    3.05    1.49
 -11  -7  -3    9.89    2.80
  11   7   3   12.13    3.02
  11  -8  -3    4.77    2.67
 -11  -8   3    2.11    1.32
  11   8  -3   -0.23    1.03
 -10  -8   3    0.78    1.05
  10  -8  -3    4.53    2.44
  10   8  -3    4.43    1.48
 -10   8   3    3.91    1.60
   9  -8  -3    2.49    1.90
  -9  -8   3    0.77    1.02
   9   8  -3    1.20    1.02
  -9   8   3    2.97    1.35
   8  -8  -3    6.45    2.67
  -8  -8   3    5.73    1.60
  -8   8   3    4.57    1.50
   8   8  -3    5.58    1.42
  -8   8   3    5.07    1.99
   8   8  -3    5.68    1.29
  -7  -8   3   -0.02    0.66
  -7  -8   3    0.23    1.08
   7  -8  -3    0.63    1.44
  -7   8   3    0.00    0.66
  -7   8   3   -1.17    0.91
  -7   8   3    0.59    1.41
  -7   8   3    0.59    0.88
   7   8  -3    1.37    0.81
   7   8  -3   -0.07    0.48
  -6  -8   3   16.94    3.74
   6  -8  -3   19.64    4.11
  -6  -8   3   18.37    2.22
   6   8  -3   18.34    2.39
  -6   8   3   16.89    2.76
  -6   8   3   16.30    3.08
   6   8  -3   15.89    2.31
  -6   8   3   16.85    2.67
  -5  -8   3   24.55    2.55
   5  -8  -3   24.27    4.53
  -5  -8   3   24.59    4.38
   5   8  -3   22.28    2.43
  -5   8   3   22.54    2.65
  -5   8   3   28.28    3.89
  -5   8   3   19.03    2.84
   5   8  -3   23.98    2.43
  -4  -8   3   10.50    2.67
   4  -8  -3   10.65    2.76
   4   8  -3    6.41    1.13
  -4   8   3    7.24    1.39
  -4   8   3   10.34    1.81
  -4   8   3    9.67    1.70
  -4   8   3    9.60    1.93
   4   8  -3    7.81    1.17
  -3  -8   3   38.37    4.79
   3  -8  -3   24.41    4.98
  -3   8   3   42.38    4.25
  -3   8   3   33.81    3.56
  -3   8   3   37.77    3.66
   2  -8  -3    2.97    1.58
  -2  -8   3    0.35    0.79
   2  -8  -3    0.32    0.54
  -2   8   3    0.69    0.47
   2   8  -3    1.34    1.08
  -2   8   3    0.12    0.63
   1  -8  -3   39.15    5.81
   1  -8  -3   38.17    3.84
   1  -8  -3   37.01    3.81
  -1  -8   3   36.17    4.54
  -1   8   3   42.54    4.01
   1   8  -3   35.49    4.67
  -1   8   3   33.20    3.43
   0  -8  -3    0.76    1.06
   0  -8   3    3.69    1.28
   0  -8  -3    2.58    0.80
   0   8   3    3.41    0.77
   0   8  -3    2.52    1.22
   0   8   3    3.82    1.01
   1  -8   3   31.59    5.07
  -1  -8  -3   35.90    3.97
  -1  -8  -3   25.41    2.83
  -1  -8  -3   25.87    2.77
  -1   8  -3   24.23    2.63
   1   8   3   26.00    2.59
  -1   8  -3   25.97    2.44
   1   8   3   24.47    2.50
   1   8   3   28.54    2.99
  -1   8  -3   26.24    2.51
  -1   8  -3   29.45    3.40
   2  -8   3   49.09    4.98
  -2  -8  -3   49.63    5.12
  -2  -8  -3   57.45    6.27
  -2  -8  -3   56.75    5.18
   2  -8   3   61.04    6.64
  -2   8  -3   60.84    4.87
  -2   8  -3   54.42    5.18
   2   8   3   49.22    4.72
  -2   8  -3   54.04    5.74
  -2   8  -3   52.46    4.71
   2   8   3   62.22    4.82
   2   8   3   46.51    5.27
  -3  -8  -3   44.58    5.17
   3  -8   3   43.85    5.67
  -3  -8  -3   37.62    4.39
  -3   8  -3   48.23    4.24
   3   8   3   39.66    4.54
  -3   8  -3   47.63    4.02
  -3   8  -3   42.47    4.55
   3   8   3   42.38    4.07
   3   8   3   41.10    3.97
  -3   8  -3   48.37    4.29
  -3   8  -3   52.58    4.79
  -4  -8  -3   96.39    8.96
  -4  -8  -3   99.48    9.75
   4  -8   3  107.68   10.59
  -4   8  -3  106.80    8.39
   4   8   3   94.13    8.13
  -4   8  -3   91.10    9.11
  -4   8  -3   82.30    8.26
  -4   8  -3   90.61    8.24
   4   8   3   94.01    8.06
   4   8   3   94.39    8.20
  -5  -8  -3    2.61    1.09
  -5  -8  -3    3.64    1.12
   5  -8   3    3.85    1.92
  -5   8  -3    1.27    0.92
  -5   8  -3    2.18    1.01
  -5   8  -3    2.39    0.99
   5   8   3    2.18    0.81
   5   8   3    2.00    0.75
   5   8   3    2.39    0.73
  -5   8  -3    0.62    0.64
   6  -8   3   19.25    4.12
  -6  -8  -3   24.85    3.00
  -6  -8  -3   22.31    3.39
   6   8   3   20.00    2.76
  -6   8  -3   20.86    2.99
   6   8   3   21.26    2.46
  -6   8  -3   23.68    3.33
   7  -8   3   24.05    4.61
  -7  -8  -3   14.23    2.88
   7   8   3   21.96    2.45
  -7   8  -3   16.37    2.87
   7   8   3   17.97    2.67
  -7   8  -3   18.70    2.83
   8  -8   3   15.86    3.97
  -8  -8  -3   10.73    2.63
   8   8   3   16.88    2.78
  -8   8  -3   21.21    3.36
  -8   8  -3   20.15    3.01
  -9  -8  -3    1.01    1.10
   9   8   3    1.05    0.90
  -9   8  -3    1.34    1.31
 -10  -8  -3    0.62    1.18
 -10   8  -3    1.71    1.32
  10   8   3    0.85    1.23
 -10  -9   3    0.23    1.05
  10  -9  -3   -0.04    1.76
  10   9  -3   -0.29    0.91
 -10   9   3   -1.31    1.19
   9  -9  -3    8.84    3.12
  -9  -9   3    5.53    1.61
   9   9  -3    2.84    1.30
  -9   9   3    4.66    1.68
   8  -9  -3    5.36    2.54
  -8  -9   3    3.10    1.18
  -8   9   3    3.92    1.56
   8   9  -3    3.12    1.03
   8   9  -3    3.71    1.23
   7  -9  -3   12.01    3.31
  -7  -9   3    9.34    3.19
  -7  -9   3    7.43    1.61
   7   9  -3    9.56    1.75
  -7   9   3    9.93    2.16
   7   9  -3   11.59    1.62
  -7   9   3    8.18    1.83
  -6  -9   3   29.23    5.07
  -6  -9   3   20.54    2.59
   6  -9  -3   37.05    5.68
  -6   9   3   29.83    3.10
   6   9  -3   25.60    2.77
  -6   9   3   25.60    3.43
   6   9  -3   23.18    2.67
  -5  -9   3   42.18    6.09
   5  -9  -3   33.65    5.67
   5   9  -3   26.95    2.97
   5   9  -3   30.43    2.99
  -5   9   3   33.91    3.38
  -5   9   3   30.81    3.44
  -4  -9   3    1.70    1.34
   4  -9  -3    0.39    1.19
  -4   9   3    2.17    0.98
  -4   9   3    3.16    0.93
   3  -9  -3   42.23    6.09
  -3  -9   3   40.19    4.70
  -3   9   3   26.88    3.15
  -3   9   3   27.23    3.16
   2  -9  -3   18.20    3.84
  -2  -9   3   17.67    3.23
  -2   9   3   19.47    2.50
   1  -9  -3   13.44    3.25
  -1  -9   3   16.58    2.86
   1  -9  -3    9.55    1.66
  -1   9   3   12.82    1.76
   1   9  -3   10.50    2.57
   0  -9  -3   18.02    3.77
   0  -9  -3   18.72    2.10
   0   9   3   15.20    1.86
   0   9  -3   21.38    3.39
  -1  -9  -3   10.80    1.79
   1  -9   3   13.74    3.42
  -1  -9  -3   13.36    1.69
  -1  -9  -3   13.84    2.94
   1   9   3   13.89    1.61
  -1   9  -3   17.74    2.77
   1   9   3   16.01    1.73
  -1   9  -3   15.85    1.60
  -2  -9  -3   35.24    4.75
  -2  -9  -3   36.01    3.79
   2  -9   3   38.02    6.18
   2  -9   3   37.12    3.62
  -2   9  -3   39.82    3.66
  -2   9  -3   37.47    4.46
   2   9   3   42.36    3.66
   2   9   3   40.82    3.61
  -2   9  -3   38.66    3.57
  -3  -9  -3    5.06    1.71
   3  -9   3    3.80    1.97
  -3  -9  -3    2.42    0.91
   3   9   3    4.00    0.92
   3   9   3    5.75    1.12
  -3   9  -3    4.89    0.90
  -3   9  -3    4.43    1.05
  -3   9  -3    3.98    1.06
  -4  -9  -3    4.96    1.12
  -4  -9  -3    2.73    1.35
   4  -9   3    4.08    1.94
   4   9   3    4.11    1.11
   4   9   3    5.69    1.12
  -4   9  -3    3.69    0.91
  -4   9  -3    3.84    1.14
  -4   9  -3    2.60    0.99
   5  -9   3    9.20    2.75
  -5  -9  -3    8.07    1.72
  -5  -9  -3    9.44    2.12
   5   9   3    5.14    1.38
   5   9   3    7.73    1.32
  -5   9  -3    8.34    1.80
   5   9   3    7.31    1.39
  -5   9  -3    8.47    1.57
   6  -9   3   11.70    3.15
  -6  -9  -3    7.18    1.77
   6   9   3   11.21    1.70
   6   9   3   10.44    1.77
  -6   9  -3   11.76    1.98
  -6   9  -3   10.70    2.12
  -7  -9  -3   13.15    2.53
   7  -9   3   23.68    4.52
   7   9   3   15.86    2.21
   7   9   3   14.96    2.40
  -7   9  -3   13.61    2.70
  -7   9  -3   14.39    2.45
  -8  -9  -3    5.86    1.87
   8  -9   3    7.51    2.89
   8   9   3   10.67    2.08
  -8   9  -3   11.63    2.54
  -8   9  -3   11.45    2.24
  -9  -9  -3    8.42    2.17
  -9   9  -3    8.98    2.27
   9   9   3    8.49    1.97
 -10  -9  -3    5.46    2.03
 -10   9  -3    7.20    2.35
  10   9   3    5.49    1.98
  -9 -10   3   10.03    2.16
   9 -10  -3   10.69    3.48
  -9  10   3   12.21    3.04
   9  10  -3    7.99    2.05
   8 -10  -3    2.09    2.37
  -8  10   3    0.38    1.26
   8  10  -3    3.15    1.02
   8  10  -3    0.87    0.89
   7 -10  -3    6.93    2.83
  -7  10   3    2.99    1.39
   7  10  -3    3.19    0.86
   7  10  -3    2.47    0.99
  -7  10   3    3.03    1.41
   6 -10  -3    4.45    2.10
   6  10  -3    0.05    0.59
  -6  10   3    1.25    0.98
  -6  10   3    3.12    1.19
  -5 -10   3    9.11    2.82
   5 -10  -3    9.66    3.08
  -5  10   3   11.99    2.14
  -5  10   3   10.26    1.89
   5  10  -3    8.94    1.44
  -4 -10   3   14.53    3.34
   4 -10  -3   10.98    3.41
  -4  10   3   10.95    1.79
  -4  10   3   10.89    2.01
  -3 -10   3   14.60    3.30
   3 -10  -3   15.97    3.71
  -3  10   3   10.99    1.91
   2 -10  -3   14.90    3.62
  -2  10   3   17.51    2.43
  -2  10   3   14.31    2.16
   1 -10  -3   11.06    3.11
   1 -10  -3   14.45    1.99
  -1  10   3   14.75    2.01
   0 -10  -3   32.99    3.76
   0 -10  -3   41.30    5.25
   0  10  -3   49.75    5.22
   0  10   3   40.64    3.66
   1 -10   3   10.99    3.27
  -1 -10  -3    6.64    1.25
  -1 -10  -3   12.07    2.92
  -1  10  -3   11.82    2.41
   1  10   3   10.34    1.51
  -1  10  -3   11.48    1.50
   2 -10   3   51.49    7.01
  -2 -10  -3   41.57    4.85
  -2 -10  -3   29.85    3.21
   2  10   3   32.88    3.19
  -2  10  -3   31.56    3.23
   2  10   3   29.31    3.11
  -2  10  -3   34.07    3.24
  -3 -10  -3   31.48    4.68
   3 -10   3   31.76    5.58
  -3 -10  -3   22.85    2.72
   3  10   3   29.02    2.78
   3  10   3   26.36    2.64
  -3  10  -3   25.89    2.85
  -3  10  -3   25.51    2.82
  -4 -10  -3    6.53    2.03
   4 -10   3    5.88    2.44
  -4 -10  -3    4.01    0.99
  -4  10  -3    2.93    0.91
   4  10   3    4.30    1.14
  -4  10  -3    2.46    0.96
   4  10   3    3.61    0.99
   5 -10   3   19.04    4.27
  -5 -10  -3   15.97    2.30
  -5 -10  -3   17.57    3.27
  -5  10  -3   20.83    2.86
  -5  10  -3   16.82    2.41
   5  10   3   14.84    2.14
   5  10   3   11.79    1.86
  -6 -10  -3    3.87    1.23
   6 -10   3    6.26    2.67
  -6  10  -3    6.64    1.85
  -6  10  -3    5.46    1.41
   6  10   3    4.70    1.08
   6  10   3    4.15    1.11
   7 -10   3    5.45    2.85
  -7 -10  -3    5.19    1.46
   7  10   3    4.50    1.24
  -7  10  -3    6.70    1.66
  -7  10  -3    4.63    1.67
   7  10   3    5.05    1.40
  -8 -10  -3    1.78    1.16
   8 -10   3    2.10    2.30
   8  10   3    1.75    1.12
  -8  10  -3    0.29    1.04
  -8  10  -3    0.45    1.00
  -9 -10  -3    1.88    1.27
   9  10   3    3.37    1.41
  -9  10  -3    0.25    1.35
   8 -11  -3    6.73    2.92
   8  11  -3    5.02    1.41
  -8  11   3    3.76    1.67
   8  11  -3    4.29    1.22
   7 -11  -3    8.83    3.21
  -7  11   3    2.98    1.37
  -7  11   3    3.96    1.71
   7  11  -3    2.93    1.10
   6 -11  -3    7.98    3.16
  -6  11   3    5.35    1.74
   6  11  -3    7.27    1.42
  -6  11   3    8.65    1.82
   5 -11  -3   24.33    5.11
  -5  11   3   24.21    2.87
  -5  11   3   21.96    3.49
   4 -11  -3   24.14    4.77
  -4  11   3   20.90    2.48
  -4  11   3   17.06    2.84
   3 -11  -3   18.54    4.08
  -3  11   3   12.19    2.09
   2 -11  -3    1.56    0.83
   2 -11  -3    4.94    2.29
  -2  11   3    3.51    0.98
   1 -11  -3   20.25    4.23
   1 -11  -3   15.59    1.90
  -1  11   3   16.95    2.25
   0 -11  -3    1.70    1.61
   0 -11  -3    2.26    0.60
   0  11   3    2.61    0.82
  -1 -11  -3    7.31    2.47
   1  11   3    6.75    1.22
   2 -11   3    3.92    2.44
  -2 -11  -3    1.26    1.39
  -2  11  -3    2.11    0.78
  -2  11  -3    1.04    0.70
   2  11   3    1.98    0.83
   2  11   3    2.19    0.73
   3 -11   3    0.55    1.59
  -3 -11  -3    1.05    1.26
   3  11   3    0.43    0.42
  -3  11  -3    0.24    0.73
   3  11   3    0.58    0.63
  -4 -11  -3   20.70    3.84
   4 -11   3   18.52    4.34
   4  11   3   13.10    2.05
  -4  11  -3   13.32    2.29
  -4  11  -3   14.81    2.07
   5 -11   3    5.47    2.62
  -5  11  -3    3.30    1.17
   5  11   3    2.79    0.94
  -5  11  -3    0.88    0.94
   5  11   3    3.27    0.85
   6 -11   3   12.75    4.01
  -6 -11  -3    7.31    1.50
  -6  11  -3    8.78    1.84
   6  11   3    5.32    1.31
  -6  11  -3    6.42    1.82
   6  11   3    6.67    1.31
   7 -11   3    1.42    2.13
  -7 -11  -3    0.17    0.80
  -7  11  -3    1.95    1.07
   7  11   3    0.90    0.85
  -7  11  -3   -1.41    0.86
   7  11   3   -0.54    0.61
  -8 -11  -3    3.43    1.33
   8  11   3    3.16    1.24
  -8  11  -3    6.78    1.78
  -8  11  -3    7.32    2.01
   7 -12  -3    1.01    1.78
  -7  12   3   -0.09    1.04
  -7  12   3    0.08    1.11
   7  12  -3   -0.06    0.75
   6 -12  -3    6.56    3.06
  -6  12   3    5.50    1.77
  -6  12   3    6.22    1.56
   6  12  -3    4.05    1.11
   5 -12  -3    2.65    1.85
  -5  12   3    3.26    1.21
  -5  12   3    1.95    1.18
   4 -12  -3    8.75    2.89
  -4  12   3    7.44    1.56
  -4  12   3    5.23    1.46
   3 -12  -3    1.75    2.05
   3 -12  -3    0.35    0.74
  -3  12   3    0.61    0.71
   2 -12  -3    7.38    2.71
   2 -12  -3    6.17    1.16
  -2  12   3    4.39    1.21
   1 -12  -3    9.92    2.98
  -1  12   3    8.84    1.63
   0 -12  -3   13.48    3.45
   0  12   3   10.94    1.75
  -1 -12  -3   12.93    3.25
   1  12   3    8.14    1.42
  -2 -12  -3   11.53    3.08
   2 -12   3   12.86    4.12
   2  12   3    8.40    1.43
  -2  12  -3    8.31    1.53
  -3 -12  -3    9.77    2.91
   3 -12   3   10.51    3.90
  -3  12  -3    8.19    1.70
   3  12   3    9.67    1.57
  -4 -12  -3    7.46    2.64
   4 -12   3    4.31    2.61
   4  12   3    6.47    1.35
  -4  12  -3    4.26    1.40
  -4  12  -3    6.71    1.35
   5 -12   3   13.00    4.20
  -5  12  -3   14.29    2.26
   5  12   3    8.78    1.51
  -5  12  -3   10.39    2.15
   5  12   3    9.09    1.71
   6 -12   3   10.76    4.42
  -6  12  -3    9.77    2.31
   6  12   3   10.81    1.98
  -6  12  -3   10.07    2.05
   6  12   3    9.97    1.78
  -7  12  -3    7.43    1.96
   7  12   3    6.79    1.72
   5 -13  -3    7.60    3.16
  -5  13   3    2.89    1.29
  -5  13   3    3.15    1.23
   4 -13  -3   10.64    3.44
  -4  13   3    9.32    1.97
  -4  13   3    8.69    1.86
   3 -13  -3    2.64    2.29
  -3  13   3    1.80    0.84
  -3  13   3    0.64    0.83
   2 -13  -3   11.47    3.45
  -2  13   3    8.43    1.68
   1 -13  -3    1.15    1.50
  -1  13   3    1.94    0.91
   0 -13  -3    2.65    1.97
   0  13   3    1.83    0.83
  -1 -13  -3    0.72    1.68
   1  13   3   -0.31    0.58
  -2 -13  -3   -0.77    1.58
  -2  13  -3    0.50    0.70
   2  13   3    1.68    0.78
  -3 -13  -3   -0.37    1.45
  -3  13  -3    1.46    0.93
   3  13   3    1.74    0.81
  -4  13  -3   -0.58    0.67
  -4  13  -3    0.61    0.73
   4  13   3    0.04    0.56
  -5  13  -3    4.14    1.42
  -5  13  -3    4.71    1.56
   5  13   3    4.41    1.16
  -2  14   3    0.34    0.72
   1 -14  -3    5.09    2.87
  -1  14   3    5.21    1.36
   0 -14  -3    5.00    2.79
   0  14   3    2.43    1.03
  -1 -14  -3   10.42    3.36
   1  14   3    7.31    1.49
 -13   0   4    0.25    1.84
 -12   0   4    4.59    2.20
 -12   0   4   -0.15    1.42
 -11   0   4   13.48    3.41
 -11   0   4   17.46    3.57
  10   0  -4    2.47    1.39
 -10   0   4    0.94    1.31
  10   0  -4    0.91    1.09
 -10   0   4    1.93    1.43
   9   0  -4    8.58    2.15
  -9   0   4    7.32    2.22
   9   0  -4    9.91    2.08
  -9   0   4    7.81    2.30
  -8   0   4    1.32    1.16
  -8   0   4    0.49    0.69
   8   0  -4   -0.58    0.78
   8   0  -4    0.70    0.88
   8   0  -4   -0.33    0.73
  -8   0   4    0.03    0.86
  -7   0   4   25.44    3.92
   7   0  -4   19.53    2.97
   7   0  -4   19.32    3.30
   7   0  -4   26.10    2.84
  -7   0   4   26.99    4.11
   7   0  -4   24.19    3.36
  -7   0   4   31.91    3.05
   6   0  -4    2.70    1.10
  -6   0   4    2.57    0.90
   6   0  -4    2.69    0.87
   6   0  -4    0.97    0.63
  -6   0   4    2.15    1.06
  -6   0   4    2.34    1.23
  -5   0   4   50.72    5.78
   5   0  -4   48.82    4.62
  -5   0   4   48.51    4.55
   5   0  -4   52.29    4.64
  -5   0   4   48.38    5.18
   5   0  -4   39.17    4.49
  -5   0   4   55.50    4.60
  -4   0   4   14.80    1.90
   4   0  -4   14.84    2.07
   4   0  -4   14.46    2.07
  -4   0   4   16.11    2.09
  -4   0   4   20.15    2.33
  -4   0   4   18.63    2.30
   4   0  -4   12.98    1.69
  -3   0   4    8.85    1.39
  -3   0   4   16.08    2.73
  -3   0   4    9.29    1.34
   3   0  -4    7.76    1.19
   3   0  -4    8.93    1.40
  -3   0   4    7.88    1.57
  -3   0   4    9.55    1.26
  -2   0   4   48.88    4.19
   2   0  -4   43.91    3.73
   2   0  -4   30.76    3.52
  -2   0   4   41.74    3.68
  -2   0   4   42.95    3.64
  -2   0   4   39.76    3.63
  -2   0   4   37.16    3.62
   2   0  -4   39.87    3.61
   1   0  -4   26.32    2.55
   1   0  -4   25.42    2.47
  -1   0   4   24.81    2.45
  -1   0   4   28.20    2.57
  -1   0   4   23.75    2.47
  -1   0   4   32.28    3.09
   0   0  -4   56.48    4.98
   0   0  -4   55.97    4.89
   0   0   4   54.89    4.94
   0   0   4   59.87    5.58
   0   0  -4   62.70    5.50
   0   0  -4   52.00    4.93
   0   0   4   56.07    4.92
   1   0   4  184.45   18.93
   1   0   4  226.54   17.25
  -1   0  -4  222.89   17.24
   1   0   4  214.39   17.25
  -1   0  -4  227.61   17.29
   1   0   4  196.68   17.63
  -1   0  -4  187.42   17.62
  -1   0  -4  246.61   18.96
  -2   0  -4    2.36    0.63
   2   0   4    3.27    0.79
   2   0   4    3.61    0.75
  -2   0  -4    1.78    0.88
   2   0   4    4.22    0.88
  -2   0  -4    2.88    0.68
   2   0   4    1.11    0.85
  -2   0  -4    3.69    0.81
  -3   0  -4  398.59   34.87
   3   0   4  424.44   35.82
   3   0   4  441.24   34.95
  -3   0  -4  481.97   38.30
   3   0   4  485.02   38.56
   3   0   4  460.64   34.92
  -3   0  -4  389.51   35.80
  -3   0  -4  411.08   34.94
   4   0   4   78.90    6.73
  -4   0  -4   80.24    6.83
  -4   0  -4   74.58    7.42
  -4   0  -4   80.51    6.65
  -4   0  -4   76.58    6.74
   4   0   4   70.41    6.67
   4   0   4   74.28    6.78
   4   0   4   75.34    7.55
   5   0   4  119.35    8.80
  -5   0  -4  100.77    9.72
  -5   0  -4   84.61    8.53
  -5   0  -4   95.36    8.53
   5   0   4   96.61    8.63
   5   0   4   94.91    9.93
  -5   0  -4  105.57    9.61
   5   0   4  108.46    9.81
   5   0   4   95.48    8.71
   6   0   4   82.73    7.08
   6   0   4   83.67    8.05
   6   0   4   76.89    7.07
   6   0   4   66.72    6.87
  -6   0  -4   74.89    7.83
  -6   0  -4   79.44    7.08
  -6   0  -4   77.19    7.65
   6   0   4   75.30    7.97
  -6   0  -4   76.81    7.00
  -7   0  -4   53.37    5.34
   7   0   4   57.17    6.21
   7   0   4   52.17    5.47
  -7   0  -4   55.52    5.49
   7   0   4   70.94    6.68
  -7   0  -4   62.27    5.73
  -7   0  -4   43.39    5.88
  -8   0  -4   11.23    2.67
   8   0   4    9.27    1.94
   8   0   4   12.59    2.31
  -8   0  -4   11.20    2.06
   8   0   4   11.36    2.83
   9   0   4   13.61    2.76
  -9   0  -4   22.59    3.89
   9   0   4   13.73    2.95
 -10   0  -4    0.99    1.27
 -11   0  -4    1.46    1.48
 -12   0  -4    1.16    1.45
 -13   0  -4    1.43    1.51
 -13  -1   4   -0.06    1.50
 -13   1   4    0.30    1.84
 -12  -1   4    1.11    1.65
 -12  -1   4    1.06    1.65
 -12   1   4    1.19    1.79
 -12   1   4    3.05    1.94
 -11  -1   4    0.96    1.36
 -11  -1   4    0.93    1.44
  11   1  -4    0.65    1.25
 -11   1   4    2.30    1.69
 -11   1   4    0.02    1.18
  10  -1  -4    6.21    1.76
 -10  -1   4    2.54    1.65
  10  -1  -4    2.96    1.40
 -10  -1   4    3.10    1.76
 -10   1   4    3.94    1.82
 -10   1   4    0.02    1.32
  10   1  -4    2.66    1.22
   9  -1  -4    4.38    1.57
  -9  -1   4    4.66    1.83
   9  -1  -4    3.28    1.31
  -9  -1   4    1.90    1.34
  -9   1   4    5.63    2.04
   9   1  -4    5.48    1.68
   9   1  -4    0.46    1.13
  -9   1   4    3.32    1.55
   8  -1  -4   14.95    2.57
  -8  -1   4   12.02    2.71
   8  -1  -4   12.87    2.48
  -8  -1   4   13.12    2.83
  -8   1   4   14.75    2.89
   8   1  -4   13.89    2.31
   8   1  -4   16.61    2.81
   8   1  -4    7.52    1.92
  -8   1   4   11.58    2.07
  -8   1   4   11.31    2.54
  -7  -1   4   45.76    5.42
  -7  -1   4   45.03    5.84
   7  -1  -4   50.41    5.46
   7  -1  -4   54.69    4.95
   7   1  -4   51.70    4.94
  -7   1   4   52.83    5.87
   7   1  -4   42.69    4.62
  -7   1   4   52.54    5.62
  -7   1   4   50.30    4.84
   7   1  -4   47.51    4.87
  -7   1   4   44.52    4.74
   6  -1  -4   19.53    2.37
   6  -1  -4   25.77    3.06
  -6  -1   4   14.46    2.53
   6  -1  -4   15.80    2.09
   6  -1  -4   12.42    2.49
  -6  -1   4   17.26    3.10
  -6   1   4   15.46    2.73
   6   1  -4   21.80    4.27
  -6   1   4   10.81    1.94
   6   1  -4   21.20    2.77
   6   1  -4   16.02    2.29
  -6   1   4   17.18    2.31
  -6   1   4   11.64    2.69
   6   1  -4   17.21    2.28
   5  -1  -4  103.20    8.46
   5  -1  -4   90.63    8.41
  -5  -1   4   95.96   10.10
   5  -1  -4   85.75    8.42
  -5  -1   4   98.58    9.27
   5   1  -4   90.81    8.40
   5   1  -4   91.10    8.35
   5   1  -4   94.52    8.34
  -5   1   4   96.94    9.32
  -5   1   4  107.35    8.57
  -5   1   4  105.27    8.44
  -5   1   4  101.01    8.47
  -4  -1   4  103.07    9.11
  -4  -1   4   84.23    8.00
   4  -1  -4   93.68    7.31
   4  -1  -4   81.04    7.29
   4  -1  -4   74.52    7.26
  -4   1   4   63.01    8.86
  -4   1   4   89.27    7.26
  -4   1   4   80.17    8.03
   4   1  -4   81.83    7.26
  -4   1   4   91.07    7.37
   4   1  -4   81.32    7.20
   4   1  -4   78.33    7.15
   3  -1  -4  100.73    9.03
  -3  -1   4  106.88    9.89
   3  -1  -4  108.79    9.01
  -3  -1   4  122.28    9.01
  -3  -1   4  111.28   10.97
  -3   1   4   88.91    9.79
   3   1  -4  107.19    9.05
  -3   1   4  113.41    9.04
  -3   1   4   95.85    8.91
  -3   1   4  111.83    9.13
   3   1  -4  111.62    8.95
  -3   1   4  101.46    9.15
  -2  -1   4  102.37    8.98
  -2  -1   4  115.25    8.12
   2  -1  -4   99.88    8.10
  -2  -1   4   89.25    8.10
   2   1  -4  103.70    8.21
  -2   1   4   82.99    8.05
  -2   1   4   91.02    8.15
  -2   1   4   92.03    8.20
  -2   1   4   90.84    8.94
   2   1  -4   95.96    8.06
   2   1  -4   96.65    8.21
   1  -1  -4  132.38   10.08
  -1  -1   4  123.59   10.17
  -1  -1   4  119.52   11.11
  -1  -1   4  121.21   12.53
  -1   1   4  117.62   10.04
  -1   1   4  127.34   10.25
  -1   1   4  126.21   11.11
   1   1  -4  112.23    9.97
   1   1  -4  115.04   10.24
   0  -1   4  161.96   15.78
   0  -1  -4  182.06   14.40
   0  -1  -4  167.88   15.78
   0  -1  -4  168.86   14.32
   0  -1   4  175.06   14.58
   0  -1  -4  171.86   14.67
   0   1  -4  177.67   14.33
   0   1  -4  154.28   14.32
   0   1   4  190.17   14.39
   0   1   4  181.43   15.86
   0   1   4  181.30   14.71
   0   1  -4  203.46   15.80
   0   1  -4  179.68   14.68
   1  -1   4   25.55    2.62
   1  -1   4   16.79    2.00
  -1  -1  -4   24.46    2.25
  -1  -1  -4   24.21    2.12
   1  -1   4   22.62    2.10
  -1  -1  -4   19.71    2.03
  -1  -1  -4   23.71    2.51
   1   1   4   21.27    2.13
  -1   1  -4   19.07    2.36
   1   1   4   17.03    2.01
  -1   1  -4   18.32    2.16
   1   1   4   22.10    2.55
  -1   1  -4   22.09    2.07
  -1   1  -4   14.69    2.00
   1   1   4   22.00    2.16
   2  -1   4   30.84    3.12
   2  -1   4   39.74    3.88
  -2  -1  -4   35.16    3.17
  -2  -1  -4   39.33    3.70
   2  -1   4   34.00    3.17
  -2  -1  -4   33.38    3.25
  -2  -1  -4   28.83    3.11
   2   1   4   34.65    3.23
  -2   1  -4   38.77    3.64
   2   1   4   28.63    3.14
  -2   1  -4   30.49    3.16
  -2   1  -4   33.25    3.17
   2   1   4   31.36    3.18
   2   1   4   40.76    3.86
  -2   1  -4   38.31    3.31
   3  -1   4  149.48   12.38
  -3  -1  -4  144.64   12.39
   3  -1   4  152.69   12.40
  -3  -1  -4  156.80   12.64
   3  -1   4  163.92   13.84
  -3  -1  -4  157.96   13.70
  -3  -1  -4  157.95   12.38
   3   1   4  152.50   12.43
   3   1   4  135.85   12.33
  -3   1  -4  157.63   12.45
  -3   1  -4  161.53   13.67
   3   1   4  142.36   13.73
  -3   1  -4  134.12   12.64
   3   1   4  135.03   12.61
  -4  -1  -4   45.50    4.32
  -4  -1  -4   55.21    5.04
   4  -1   4   44.54    4.37
  -4  -1  -4   59.25    4.67
   4  -1   4   35.77    4.94
  -4  -1  -4   44.15    4.28
   4  -1   4   44.82    4.36
  -4   1  -4   54.78    5.22
   4   1   4   45.84    4.38
  -4   1  -4   46.83    4.45
   4   1   4   42.39    4.40
  -4   1  -4   45.15    4.85
  -4   1  -4   55.59    4.44
   4   1   4   45.84    4.37
   4   1   4   47.87    5.05
  -4   1  -4   45.26    4.42
   5  -1   4   24.00    3.48
   5  -1   4   27.22    2.81
  -5  -1  -4   23.74    2.48
  -5  -1  -4   16.05    2.93
   5  -1   4   22.65    2.60
  -5  -1  -4   24.67    2.65
  -5   1  -4   25.01    2.59
   5   1   4   16.44    2.50
  -5   1  -4   27.95    2.94
   5   1   4   25.35    3.06
   5   1   4   22.78    2.55
  -5   1  -4   23.61    2.61
   5   1   4   17.47    3.18
   5   1   4   22.60    2.63
   6  -1   4   37.07    3.87
  -6  -1  -4   39.47    3.71
  -6  -1  -4   36.61    3.62
   6  -1   4   32.05    3.59
   6  -1   4   28.65    4.56
  -6  -1  -4   23.47    4.07
   6   1   4   38.95    3.72
   6   1   4   30.31    3.48
   6   1   4   37.43    4.13
   6   1   4   30.13    3.52
  -6   1  -4   35.81    3.61
  -6   1  -4   37.83    3.87
   6   1   4   30.75    4.71
  -6   1  -4   28.06    3.44
   7  -1   4   50.51    5.07
  -7  -1  -4   47.99    4.71
  -7  -1  -4   50.42    4.65
   7  -1   4   45.92    4.64
  -7  -1  -4   34.84    4.95
   7  -1   4   30.33    5.44
   7   1   4   43.17    4.63
   7   1   4   40.40    5.29
  -7   1  -4   50.38    4.82
   7   1   4   52.98    4.76
  -7   1  -4   54.49    4.78
   7   1   4   42.88    4.59
  -7   1  -4   52.08    4.99
  -7   1  -4   36.84    5.09
   7   1   4   40.69    5.30
   8  -1   4   15.69    2.74
   8  -1   4   20.86    2.63
  -8  -1  -4   19.59    3.14
  -8  -1  -4   15.06    3.10
   8  -1   4   16.82    3.49
   8   1   4   20.91    3.26
   8   1   4   22.79    3.10
  -8   1  -4   11.89    3.08
   8   1   4   15.34    3.37
  -8   1  -4   20.23    3.01
   9  -1   4   14.01    2.70
  -9  -1  -4   16.80    3.60
  -9   1  -4   22.66    3.60
  -9   1  -4   12.34    3.17
   9   1   4   17.89    2.88
   9   1   4   18.65    3.21
 -10  -1  -4   14.35    3.24
 -10   1  -4    9.54    2.90
  10   1   4   16.45    2.95
 -11  -1  -4    9.73    2.93
 -11   1  -4   16.72    3.71
 -12  -1  -4    8.57    2.87
 -12   1  -4    8.70    2.76
 -13  -2   4   -1.27    1.27
 -13   2   4    0.79    1.81
 -12  -2   4    4.11    2.10
  12   2  -4    5.37    2.04
 -12   2   4    2.02    1.86
 -11  -2   4   10.11    3.03
 -11  -2   4    7.12    2.52
  11   2  -4    7.11    2.13
 -11   2   4   12.13    2.76
 -11   2   4    4.13    2.22
  10  -2  -4   14.61    2.95
 -10  -2   4    6.37    2.32
 -10  -2   4   12.56    3.09
  10   2  -4   12.32    2.41
 -10   2   4    7.15    2.46
 -10   2   4   16.53    3.22
  -9  -2   4    3.99    1.77
   9  -2  -4    6.66    1.74
   9  -2  -4    8.37    2.11
  -9  -2   4    6.49    2.04
  -9   2   4    0.88    1.50
   9   2  -4    5.42    1.56
  -9   2   4    5.54    1.71
  -9   2   4    5.90    1.89
   9   2  -4    7.68    1.85
   8  -2  -4   51.13    5.34
   8  -2  -4   46.20    4.63
  -8  -2   4   35.71    4.98
  -8  -2   4   49.48    5.72
  -8   2   4   33.03    5.40
  -8   2   4   43.17    5.45
  -8   2   4   43.52    4.60
   8   2  -4   44.28    4.65
   8   2  -4   40.77    4.50
   8   2  -4   44.95    4.69
   7  -2  -4    1.56    1.16
   7  -2  -4    2.19    0.96
  -7  -2   4    2.55    0.81
  -7  -2   4    3.94    1.47
  -7  -2   4    1.16    1.20
   7   2  -4    2.29    0.99
  -7   2   4    3.04    1.44
  -7   2   4    1.16    1.19
   7   2  -4    2.31    1.03
   7   2  -4    2.08    0.79
  -7   2   4    3.27    1.24
  -7   2   4    1.25    0.84
   6  -2  -4   44.86    4.63
  -6  -2   4   58.29    5.91
  -6  -2   4   34.75    4.86
   6  -2  -4   48.36    5.39
  -6  -2   4   50.49    4.41
  -6   2   4   50.45    5.75
   6   2  -4   44.61    4.50
  -6   2   4   45.02    4.68
   6   2  -4   41.56    5.92
  -6   2   4   56.11    4.76
  -6   2   4   47.65    4.66
   6   2  -4   44.36    4.57
   6   2  -4   46.00    4.54
  -6   2   4   52.01    5.32
  -5  -2   4   21.38    3.71
  -5  -2   4   19.20    3.15
   5  -2  -4   29.54    3.50
  -5  -2   4   28.78    2.61
   5   2  -4   22.47    2.62
  -5   2   4   25.59    2.78
   5   2  -4   32.91    4.74
   5   2  -4   25.55    2.66
  -5   2   4   28.90    2.80
  -5   2   4   29.51    2.93
  -5   2   4   24.42    3.20
  -5   2   4   16.23    3.63
   5   2  -4   28.09    2.80
   4  -2  -4   87.84    9.14
  -4  -2   4   97.56    8.60
   4  -2  -4   90.98    7.77
  -4  -2   4   98.66    7.58
  -4  -2   4   92.04    9.42
   4   2  -4   91.33    7.68
  -4   2   4   85.76    8.60
   4   2  -4   70.33    7.57
  -4   2   4   88.14    7.84
  -4   2   4   94.86    7.87
   4   2  -4   89.67    7.78
  -4   2   4   95.34    7.81
   4   2  -4   83.97    9.75
  -3  -2   4   31.83    2.88
  -3  -2   4   31.44    3.96
  -3  -2   4   32.48    3.48
   3  -2  -4   32.37    3.05
   3   2  -4   32.32    3.05
   3   2  -4   32.68    2.98
  -3   2   4   35.96    3.55
  -3   2   4   27.83    3.04
   3   2  -4   30.76    4.93
  -3   2   4   31.74    3.05
   3   2  -4   32.83    2.98
  -3   2   4   28.44    3.02
   3   2  -4   28.06    2.90
  -2  -2   4  116.75    9.08
   2  -2  -4   96.43    9.16
  -2  -2   4  120.90   11.23
  -2  -2   4  122.43    9.27
  -2  -2   4  108.77   10.16
   2   2  -4  101.61    9.28
   2   2  -4  114.25    9.33
  -2   2   4  110.92   10.23
  -2   2   4  106.69    9.35
   2   2  -4  114.24    9.11
  -2   2   4  104.52    9.23
  -1  -2   4   28.43    2.68
  -1  -2   4   28.78    3.24
   1  -2  -4   31.04    2.80
  -1  -2   4   31.47    2.76
  -1  -2   4   30.14    3.54
   1   2  -4   30.78    2.76
  -1   2   4   34.59    3.31
  -1   2   4   29.64    2.86
   1   2  -4   26.07    2.70
   1   2  -4   29.17    2.76
   0  -2  -4   79.93    6.67
   0  -2  -4   79.84    7.46
   0  -2   4   83.46    7.48
   0  -2  -4   81.25    6.72
   0   2  -4   83.33    6.65
   0   2  -4   76.66    7.28
   0   2  -4   78.60    6.77
   0   2   4   75.40    6.72
   0   2   4   78.75    7.47
   0   2   4   75.61    6.83
   1  -2   4  116.12    9.22
  -1  -2  -4  108.48   10.27
  -1  -2  -4  122.95    9.45
  -1  -2  -4  128.10    9.30
   1  -2   4  109.08   10.15
  -1  -2  -4  116.72    9.33
   1  -2   4  119.49   10.34
   1   2   4  104.24    9.47
   1   2   4   96.95    9.26
  -1   2  -4  111.90    9.47
   1   2   4  108.56   10.28
   1   2   4  114.60    9.34
  -1   2  -4  105.64    9.29
  -1   2  -4  103.75   10.14
  -1   2  -4  110.94    9.24
   2  -2   4  245.41   22.32
  -2  -2  -4  230.47   20.18
   2  -2   4  249.17   20.20
  -2  -2  -4  246.54   20.66
  -2  -2  -4  230.40   22.19
   2  -2   4  259.99   20.21
  -2   2  -4  275.44   20.81
   2   2   4  229.46   20.22
  -2   2  -4  247.32   22.20
   2   2   4  224.02   20.23
  -2   2  -4  262.32   20.25
  -2   2  -4  269.38   20.32
   2   2   4  269.73   20.77
   2   2   4  263.74   22.37
   3  -2   4   96.25    7.87
  -3  -2  -4   63.00    6.74
  -3  -2  -4   94.85    7.76
  -3   2  -4   82.44    7.59
  -3   2  -4   75.68    7.00
   3   2   4   88.43    7.86
   3   2   4   72.46    6.80
  -3   2  -4   66.97    8.02
  -3   2  -4   84.26    6.85
  -3   2  -4   82.34    6.92
   3   2   4   78.85    6.95
  -4  -2  -4  220.94   17.61
   4  -2   4  212.19   19.49
  -4  -2  -4  231.62   19.40
   4  -2   4  206.40   17.55
  -4   2  -4  208.84   20.40
   4   2   4  197.21   17.49
   4   2   4  206.22   17.96
   4   2   4  203.16   17.56
  -4   2  -4  236.28   17.62
  -4   2  -4  213.19   18.02
   4   2   4  208.75   19.46
  -4   2  -4  228.39   17.70
  -5  -2  -4   47.57    4.29
  -5  -2  -4   38.86    4.76
   5  -2   4   44.19    4.27
   5  -2   4   40.49    4.49
   5  -2   4   42.29    4.99
   5   2   4   42.62    4.20
   5   2   4   50.17    4.35
   5   2   4   46.81    5.04
   5   2   4   52.86    4.37
  -5   2  -4   45.80    5.07
  -5   2  -4   43.93    4.23
  -5   2  -4   45.87    4.32
   5   2   4   44.42    5.09
  -5   2  -4   38.35    4.74
  -5   2  -4   37.55    4.24
  -6  -2  -4   62.20    6.59
   6  -2   4   60.25    5.81
   6  -2   4   68.70    6.86
  -6  -2  -4   71.65    5.88
   6  -2   4   62.88    6.33
  -6   2  -4   68.55    5.85
   6   2   4   59.50    6.78
   6   2   4   49.86    6.48
  -6   2  -4   55.02    5.84
   6   2   4   63.81    5.83
  -6   2  -4   62.03    5.90
   6   2   4   61.20    5.81
   7  -2   4   28.61    3.05
  -7  -2  -4   23.87    2.43
   7  -2   4   27.41    2.82
  -7  -2  -4   25.81    3.87
   7  -2   4   19.05    3.57
  -7  -2  -4   21.20    2.89
  -7   2  -4   23.53    3.15
   7   2   4   15.31    3.33
   7   2   4   22.98    3.72
   7   2   4   17.23    2.98
   7   2   4   21.44    3.06
  -7   2  -4   23.85    3.80
  -7   2  -4   20.76    3.12
   8  -2   4   27.39    3.62
   8  -2   4   25.55    3.16
  -8  -2  -4   34.96    4.93
   8   2   4   30.11    4.64
  -8   2  -4   21.59    4.26
   8   2   4   21.57    3.37
  -8   2  -4   33.83    4.25
  -9  -2  -4    6.81    2.37
  -9   2  -4    2.19    1.23
   9   2   4    3.86    1.40
  -9   2  -4    4.77    1.85
 -10  -2  -4    5.01    1.94
 -10   2  -4    7.59    2.59
  10   2   4    3.26    1.49
 -11  -2  -4    1.50    1.54
  11   2   4    2.30    1.72
 -11   2  -4    2.44    1.90
 -12  -2  -4    2.68    1.74
 -12   2  -4    0.09    1.29
 -12  -3   4    2.29    1.75
 -12   3   4   -0.41    1.58
  12   3  -4    3.31    1.56
 -11  -3   4    1.67    1.56
 -11  -3   4    5.08    2.55
  11  -3  -4    3.34    1.76
  11   3  -4    4.89    2.07
 -11   3   4    4.00    1.84
 -11   3   4    2.90    1.99
 -10  -3   4    0.67    1.25
 -10  -3   4    2.41    1.41
  10  -3  -4    1.89    1.48
 -10   3   4    0.90    1.60
  10   3  -4   -0.56    0.91
 -10   3   4    1.08    1.22
   9  -3  -4    8.61    2.29
  -9  -3   4    3.06    1.58
  -9  -3   4    7.55    2.43
  -9   3   4    6.25    1.80
  -9   3   4    6.42    1.99
   9   3  -4    4.17    1.50
   9   3  -4    7.59    2.06
  -9   3   4    8.87    2.32
  -8  -3   4   20.76    3.77
   8  -3  -4   19.36    2.83
   8  -3  -4   20.37    3.54
  -8  -3   4   15.49    3.03
  -8   3   4   18.44    3.44
  -8   3   4   20.74    2.96
  -8   3   4   20.37    3.69
   8   3  -4   17.17    2.80
   8   3  -4   21.88    2.91
  -7  -3   4   34.00    4.33
  -7  -3   4   25.27    3.98
  -7  -3   4   32.91    3.08
   7  -3  -4   35.99    4.09
   7  -3  -4   30.44    3.42
  -7   3   4   25.28    3.54
   7   3  -4   28.97    3.22
   7   3  -4   27.64    3.12
  -7   3   4   26.77    4.19
  -7   3   4   23.59    4.26
   7   3  -4   26.77    3.26
  -7   3   4   29.32    3.39
  -6  -3   4   93.48   10.72
   6  -3  -4  107.74    9.97
   6  -3  -4  115.38   11.66
  -6  -3   4  110.44   12.02
  -6  -3   4  108.22    9.54
   6   3  -4  120.21    9.84
  -6   3   4  120.38   11.06
  -6   3   4  119.92   10.09
   6   3  -4  114.06    9.88
  -6   3   4  129.65   10.08
   6   3  -4  114.82    9.95
  -6   3   4  118.50   10.04
  -5  -3   4   69.31    5.51
  -5  -3   4   67.82    7.19
  -5  -3   4   59.75    6.29
   5  -3  -4   58.05    6.82
  -5   3   4   52.64    7.41
   5   3  -4   67.20    7.31
  -5   3   4   63.42    5.81
   5   3  -4   64.43    5.69
  -5   3   4   70.20    5.85
  -5   3   4   55.77    6.35
   5   3  -4   62.10    5.71
  -5   3   4   59.34    5.78
   5   3  -4   62.11    5.65
  -4  -3   4   55.78    5.90
  -4  -3   4   66.69    6.79
   4  -3  -4   70.99    6.69
  -4  -3   4   60.23    5.12
   4   3  -4   57.48    5.31
   4   3  -4   62.70    6.87
  -4   3   4   63.64    5.53
   4   3  -4   53.64    5.28
   4   3  -4   64.07    5.33
  -4   3   4   62.38    5.54
  -4   3   4   52.28    6.01
   4   3  -4   58.37    5.32
  -3  -3   4  151.86   14.21
  -3  -3   4  149.92   11.44
  -3  -3   4  140.42   12.81
   3  -3  -4  133.11   13.85
   3   3  -4  130.42   11.73
  -3   3   4  132.91   11.94
   3   3  -4  144.11   11.57
   3   3  -4  144.35   11.78
   3   3  -4  154.51   11.59
  -3   3   4  133.24   11.70
  -3   3   4  122.10   12.80
  -3   3   4  150.26   11.78
  -2  -3   4  148.60   10.37
  -2  -3   4  136.96   12.77
  -2  -3   4  106.48   11.46
   2  -3  -4  129.68   10.72
   2   3  -4  123.60   10.63
  -2   3   4  123.17   10.60
  -2   3   4  123.56   11.70
   2   3  -4  118.69   10.62
   2   3  -4  136.94   10.48
  -1  -3   4   86.07    6.79
  -1  -3   4   86.22    8.53
   1  -3  -4   82.30    7.01
   1  -3  -4   86.01    6.99
  -1  -3   4   77.55    7.66
   1  -3  -4   76.49    8.46
   1   3  -4   81.85    6.98
   1   3  -4   87.33    6.91
   1   3  -4   76.11    6.95
  -1   3   4   87.66    7.82
   0  -3   4   13.02    1.21
   0  -3   4   10.56    1.63
   0  -3  -4   17.32    1.87
   0  -3  -4   13.54    1.43
   0  -3  -4    9.52    1.33
   0  -3  -4   17.75    2.68
   0  -3   4    9.46    1.78
   0   3  -4   12.11    1.62
   0   3  -4    9.95    1.20
   0   3  -4    8.80    1.11
   0   3   4    8.67    1.26
   0   3   4    9.09    1.37
   0   3  -4    9.69    1.30
   0   3   4   12.96    1.86
   1  -3   4    3.94    1.11
   1  -3   4    4.05    0.76
  -1  -3  -4    4.42    1.10
   1  -3   4    3.55    0.98
   1  -3   4    5.41    1.00
  -1  -3  -4    3.52    0.77
  -1   3  -4    3.84    0.81
  -1   3  -4    2.70    0.63
  -1   3  -4    2.87    0.79
  -1   3  -4    4.17    0.90
   1   3   4    2.69    0.73
   1   3   4    4.36    1.08
   1   3   4    2.20    0.70
   1   3   4    2.69    0.67
  -2  -3  -4    9.02    1.26
   2  -3   4    7.28    1.19
  -2  -3  -4    9.42    1.58
   2  -3   4    8.61    1.46
   2  -3   4    6.69    1.46
   2  -3   4    7.52    1.38
   2   3   4    9.37    1.34
  -2   3  -4    8.09    1.23
   2   3   4   13.64    1.98
  -2   3  -4   11.61    1.67
  -2   3  -4    7.31    1.15
  -2   3  -4    9.16    1.32
   2   3   4    8.00    1.29
   2   3   4    7.79    1.18
  -3  -3  -4    2.20    0.89
  -3  -3  -4    2.11    0.70
   3  -3   4    4.94    1.11
   3  -3   4    1.95    0.98
   3  -3   4    2.84    0.83
   3   3   4    3.37    0.84
  -3   3  -4    3.49    0.80
  -3   3  -4    4.10    0.96
   3   3   4    3.67    0.89
  -3   3  -4    4.13    0.90
  -3   3  -4    2.42    0.86
   3   3   4    1.89    0.92
   3   3   4    3.33    0.78
  -4  -3  -4   18.47    2.53
   4  -3   4   13.88    1.95
  -4  -3  -4   12.66    1.91
   4  -3   4   15.59    2.46
   4   3   4    9.18    1.63
  -4   3  -4   16.25    2.47
  -4   3  -4   15.29    2.10
  -4   3  -4   14.22    1.99
   4   3   4   13.52    1.97
   4   3   4   12.85    1.89
  -4   3  -4   12.10    1.92
   4   3   4   15.77    2.50
   5  -3   4   26.57    2.55
   5  -3   4   15.68    3.07
  -5  -3  -4   23.14    2.61
  -5  -3  -4   20.00    3.34
  -5   3  -4   25.01    2.71
   5   3   4   27.46    3.33
   5   3   4   24.92    2.66
  -5   3  -4   27.37    2.80
   5   3   4   20.41    2.58
   5   3   4   30.85    3.50
  -5   3  -4   24.18    2.76
   5   3   4   24.77    2.65
  -5   3  -4   17.43    3.10
   6  -3   4   -0.17    0.77
   6  -3   4    1.14    0.43
  -6  -3  -4   -0.40    0.39
   6  -3   4    0.69    0.61
  -6  -3  -4   -0.06    0.70
  -6  -3  -4    0.62    0.64
   6   3   4    0.79    0.93
  -6   3  -4    1.83    0.92
   6   3   4    0.79    0.62
   6   3   4    0.48    0.86
  -6   3  -4    0.12    0.57
  -6   3  -4    1.80    1.09
   6   3   4    1.46    0.72
   6   3   4    0.27    0.56
  -6   3  -4    0.56    0.60
   7  -3   4   30.59    3.51
  -7  -3  -4   34.31    3.64
   7  -3   4   29.01    4.74
  -7  -3  -4   32.58    4.13
   7  -3   4   32.17    3.72
  -7   3  -4   30.80    4.85
   7   3   4   36.94    3.74
   7   3   4   41.26    3.89
  -7   3  -4   34.41    3.77
   7   3   4   35.80    3.80
  -7   3  -4   33.98    3.74
   7   3   4   38.40    4.49
  -7   3  -4   34.70    3.86
  -8  -3  -4    0.12    0.94
  -8   3  -4    0.58    0.93
  -8   3  -4    2.27    1.38
   8   3   4    0.53    1.19
   8   3   4    0.78    0.87
  -9  -3  -4   30.60    5.14
   9   3   4   27.59    4.01
  -9   3  -4   28.91    4.18
  -9   3  -4   36.80    5.44
 -10  -3  -4   12.72    3.07
  10   3   4   16.59    3.03
 -10   3  -4   18.52    3.83
 -11  -3  -4    4.36    2.15
  11   3   4    4.35    1.65
 -11   3  -4    2.72    1.69
 -12  -3  -4   13.74    3.40
 -12   3  -4   11.69    3.23
 -12  -4   4    4.04    2.08
 -12   4   4    2.65    2.24
  12   4  -4    2.01    1.53
  11  -4  -4    1.35    1.70
 -11  -4   4    0.70    1.42
  11   4  -4    0.76    1.22
 -11   4   4    0.38    1.48
 -10  -4   4    4.92    2.20
 -10  -4   4   10.34    3.13
  10  -4  -4   13.37    2.96
 -10   4   4    8.90    2.60
 -10   4   4    8.28    2.34
  10   4  -4    6.54    1.88
   9  -4  -4    9.83    2.64
  -9  -4   4   11.71    2.93
  -9  -4   4    6.20    2.09
  -9   4   4    5.97    2.30
  -9   4   4    8.38    1.98
   9   4  -4    8.58    2.02
  -9   4   4    8.69    2.27
   8  -4  -4   24.86    3.87
  -8  -4   4   27.93    4.47
  -8  -4   4   14.42    2.94
   8   4  -4   19.90    2.60
  -8   4   4   10.31    2.82
  -8   4   4   20.84    3.22
   8   4  -4   22.30    3.18
  -8   4   4   16.98    3.26
  -7  -4   4   53.01    6.00
  -7  -4   4   54.84    5.03
  -7  -4   4   53.58    6.72
   7  -4  -4   52.82    6.48
  -7   4   4   56.66    5.66
   7   4  -4   52.76    5.38
   7   4  -4   61.61    5.47
  -7   4   4   61.40    5.65
  -7   4   4   58.94    6.34
   7   4  -4   59.46    5.54
  -7   4   4   57.92    5.67
  -6  -4   4   19.21    1.86
  -6  -4   4   14.55    2.61
   6  -4  -4   21.33    3.48
  -6  -4   4   20.25    3.49
  -6   4   4   21.82    2.83
   6   4  -4   14.35    2.24
   6   4  -4   17.67    2.35
  -6   4   4   11.12    2.56
   6   4  -4   16.29    2.44
  -6   4   4   12.58    3.33
  -6   4   4   18.09    2.79
  -6   4   4   12.92    2.21
  -5  -4   4    7.36    1.55
  -5  -4   4    5.74    0.95
   5  -4  -4    8.37    2.04
  -5  -4   4    6.62    1.90
  -5   4   4    4.15    1.16
  -5   4   4    5.25    1.33
  -5   4   4    4.82    1.41
   5   4  -4    6.00    2.03
  -5   4   4    6.60    1.27
   5   4  -4    5.05    1.02
   5   4  -4    7.47    1.36
   5   4  -4    5.25    1.22
  -4  -4   4   19.79    2.53
  -4  -4   4   23.04    1.98
   4  -4  -4   23.26    3.61
  -4  -4   4   24.89    3.71
  -4   4   4   15.29    2.28
   4   4  -4   21.98    2.13
  -4   4   4   20.68    2.30
   4   4  -4   19.36    2.20
  -4   4   4   21.22    2.44
  -4   4   4   23.92    2.83
   4   4  -4   19.03    3.52
   4   4  -4   19.59    2.13
   4   4  -4   20.72    2.18
  -3  -4   4   16.36    2.07
   3  -4  -4   13.00    2.49
  -3  -4   4   10.76    2.23
  -3   4   4   14.93    2.23
  -3   4   4    9.58    1.52
   3   4  -4   13.73    1.47
  -3   4   4   13.70    1.92
   3   4  -4   12.73    2.59
   3   4  -4   10.56    1.28
   3   4  -4   10.79    1.46
   3   4  -4   12.27    1.31
  -3   4   4   11.22    1.72
  -2  -4   4   22.77    2.51
   2  -4  -4   24.45    3.16
  -2  -4   4   13.76    2.93
   2   4  -4   23.35    2.15
   2   4  -4   26.90    3.26
   2   4  -4   23.37    2.21
  -2   4   4   20.66    2.30
  -2   4   4   22.06    2.61
   1  -4  -4   38.00    4.64
  -1  -4   4   35.12    4.47
  -1  -4   4   39.39    3.99
   1  -4  -4   35.67    3.61
   1   4  -4   45.22    4.77
   1   4  -4   45.49    3.97
   1   4  -4   38.66    3.51
  -1   4   4   40.06    3.72
  -1   4   4   45.13    4.21
   0  -4   4   97.97   11.18
   0  -4  -4   94.81   10.34
   0  -4  -4  120.39   10.47
   0  -4   4  108.78   10.31
   0  -4  -4  126.18   11.51
   0  -4  -4  109.97    9.36
   0   4  -4  115.71    9.42
   0   4   4   99.19    9.39
   0   4   4  130.45   10.54
   0   4  -4  116.60   10.24
   0   4  -4  130.01    9.37
   0   4  -4  113.68    9.38
   1  -4   4  113.15   10.82
  -1  -4  -4  102.86   10.87
   1  -4   4  115.24    8.96
   1  -4   4  112.78    9.96
  -1  -4  -4  127.75    9.10
  -1  -4  -4   97.93   10.02
   1  -4   4  128.08   10.19
  -1  -4  -4  102.92   10.08
   1   4   4  100.21   10.10
  -1   4  -4  114.96    9.23
   1   4   4   96.30    9.11
   1   4   4  108.33    9.28
  -1   4  -4  111.63    9.05
  -1   4  -4  111.06    9.10
  -1   4  -4   98.31    9.91
   1   4   4  106.79    9.16
  -2  -4  -4   44.06    3.46
  -2  -4  -4   35.40    4.21
  -2  -4  -4   32.88    4.01
   2  -4   4   40.57    3.40
  -2  -4  -4   36.76    3.92
   2  -4   4   39.01    3.97
   2  -4   4   34.41    3.74
   2  -4   4   41.35    3.99
  -2   4  -4   36.52    3.44
  -2   4  -4   38.08    3.43
   2   4   4   36.87    4.02
   2   4   4   34.11    3.45
   2   4   4   36.53    3.44
   2   4   4   32.19    3.40
  -2   4  -4   33.45    3.75
  -2   4  -4   38.73    3.47
  -3  -4  -4  148.21   12.59
   3  -4   4  124.02   11.96
   3  -4   4  121.14   12.28
  -3  -4  -4  134.41   11.93
   3  -4   4  141.93   10.76
  -3  -4  -4  142.87   10.68
  -3   4  -4  142.85   11.05
  -3   4  -4  120.68   10.74
   3   4   4  131.41   10.96
   3   4   4  122.42   10.71
   3   4   4  111.64   10.68
  -3   4  -4  120.43   10.72
  -3   4  -4  112.05   11.79
   4  -4   4  102.65    7.42
  -4  -4  -4   86.32    7.24
  -4  -4  -4   80.97    8.12
  -4  -4  -4   83.40    8.32
   4  -4   4   89.44    8.40
   4   4   4   85.31    7.36
  -4   4  -4   72.71    7.30
  -4   4  -4   83.01    7.36
  -4   4  -4   95.57    8.32
  -4   4  -4   82.95    7.48
   4   4   4   72.24    7.23
   4   4   4   77.60    8.19
   4   4   4   86.96    7.42
  -5  -4  -4   50.30    5.43
  -5  -4  -4   48.62    4.85
  -5  -4  -4   51.26    5.64
   5  -4   4   47.54    5.73
   5  -4   4   59.52    5.12
  -5   4  -4   50.82    5.03
  -5   4  -4   61.29    5.22
   5   4   4   52.83    5.00
   5   4   4   46.56    4.86
   5   4   4   60.65    5.09
  -5   4  -4   55.36    5.68
  -5   4  -4   54.38    5.12
   5   4   4   63.83    6.04
   5   4   4   53.60    6.20
  -6  -4  -4   85.97    7.44
  -6  -4  -4   82.00    8.48
  -6  -4  -4   83.98    8.10
   6  -4   4   95.90    7.64
   6  -4   4   83.36    8.66
   6   4   4   71.86    7.44
   6   4   4   85.04    7.65
   6   4   4   80.19    7.45
   6   4   4   90.79    8.69
  -6   4  -4   86.90    7.73
  -6   4  -4   77.27    8.43
  -6   4  -4   81.10    7.58
  -6   4  -4   88.62    7.74
  -7  -4  -4   37.22    4.85
   7   4   4   44.04    4.54
  -7   4  -4   42.51    6.23
  -7   4  -4   49.01    4.71
  -7   4  -4   46.22    4.56
   7   4   4   44.56    4.49
   7   4   4   36.01    4.30
   7   4   4   46.13    5.26
  -7   4  -4   44.66    4.52
  -8  -4  -4   22.68    3.97
   8   4   4   25.17    4.31
  -8   4  -4   25.17    4.26
  -8   4  -4   26.72    3.75
   8   4   4   30.34    3.94
  -8   4  -4   28.46    3.76
  -9  -4  -4    0.79    1.29
  -9   4  -4    0.85    1.25
   9   4   4    0.92    1.11
  -9   4  -4    1.59    1.14
 -10  -4  -4    1.24    1.50
 -10   4  -4    0.70    1.04
  10   4   4    1.78    1.46
 -10   4  -4    1.04    1.57
 -11  -4  -4   -1.00    0.89
 -11   4  -4    1.67    1.65
  11   4   4   -0.90    1.23
 -12  -4  -4    0.19    1.42
 -12   4  -4    1.55    1.55
 -12  -5   4    1.57    1.66
 -12   5   4    4.68    2.34
  12   5  -4    2.96    1.59
 -11  -5   4    0.06    1.18
  11  -5  -4    1.18    1.70
 -11   5   4    0.69    1.53
  11   5  -4   -0.45    0.87
 -10  -5   4    9.83    2.43
  10  -5  -4    7.65    2.53
  10   5  -4    6.45    1.78
 -10   5   4    4.95    2.36
  -9  -5   4    2.00    1.70
  -9  -5   4    1.76    1.18
   9  -5  -4    1.72    1.60
   9   5  -4    1.81    1.02
  -9   5   4    1.20    1.16
  -9   5   4    2.34    1.40
  -9   5   4    0.53    1.35
  -8  -5   4   18.18    3.80
  -8  -5   4   14.76    2.90
   8  -5  -4   28.63    4.47
  -8   5   4   18.96    2.92
  -8   5   4   14.03    3.09
   8   5  -4   16.00    2.61
  -8   5   4   18.12    3.41
   8   5  -4   18.99    2.62
  -7  -5   4   20.55    3.74
  -7  -5   4   17.27    2.81
   7  -5  -4   20.91    3.60
  -7   5   4   17.94    2.61
  -7   5   4   12.17    2.92
   7   5  -4   13.73    2.26
   7   5  -4   19.46    2.56
  -7   5   4   17.70    3.14
  -7   5   4   27.17    3.58
   7   5  -4   12.46    2.27
  -6  -5   4    4.26    1.34
   6  -5  -4    6.25    1.97
  -6  -5   4    3.81    1.61
   6   5  -4    3.38    0.94
  -6   5   4    3.15    1.24
  -6   5   4    3.79    1.16
   6   5  -4    6.51    1.36
   6   5  -4    5.73    1.21
  -6   5   4    4.76    1.23
  -6   5   4    4.00    1.52
  -5  -5   4   47.61    4.98
   5  -5  -4   40.70    5.66
  -5  -5   4   45.81    5.84
  -5   5   4   50.36    4.79
  -5   5   4   51.41    4.79
   5   5  -4   48.99    4.50
  -5   5   4   48.23    5.35
   5   5  -4   51.90    4.47
   5   5  -4   50.20    4.54
   5   5  -4   48.82    4.58
  -5   5   4   51.02    4.85
  -4  -5   4   18.52    2.28
   4  -5  -4   21.91    3.49
  -4  -5   4   18.47    3.16
   4   5  -4   17.18    1.78
  -4   5   4   17.68    2.38
   4   5  -4   16.37    1.94
  -4   5   4   22.10    2.72
  -4   5   4   12.90    2.45
   4   5  -4   20.21    3.70
   4   5  -4   16.71    1.77
   4   5  -4   17.76    1.91
  -4   5   4   18.81    2.12
  -3  -5   4   70.97    7.61
  -3  -5   4   72.16    6.56
   3  -5  -4   56.98    7.38
   3   5  -4   73.51    5.91
   3   5  -4   82.63    7.96
  -3   5   4   65.89    6.85
  -3   5   4   72.34    6.26
   3   5  -4   61.13    5.86
  -3   5   4   75.13    6.18
  -3   5   4   65.51    6.13
  -2  -5   4   18.35    3.07
   2  -5  -4   15.43    3.11
  -2  -5   4   21.65    2.30
   2  -5  -4   19.64    2.13
   2   5  -4   19.57    2.03
  -2   5   4   20.91    2.57
  -2   5   4   19.34    2.19
   2   5  -4   21.43    2.00
   2   5  -4   27.15    3.23
   1  -5  -4   68.80    7.16
  -1  -5   4   67.71    6.09
  -1  -5   4   68.35    7.02
   1  -5  -4   68.16    6.36
   1  -5  -4   67.10    5.57
  -1   5   4   61.41    5.64
  -1   5   4   59.20    6.30
   1   5  -4   75.68    7.17
   1   5  -4   58.55    5.96
   1   5  -4   62.92    5.44
   0  -5   4  221.93   18.02
   0  -5  -4  217.23   16.31
   0  -5  -4  188.97   19.49
   0  -5   4  221.48   19.66
   0  -5  -4  195.88   18.05
   0  -5  -4  174.62   18.00
   0   5  -4  203.04   16.27
   0   5   4  171.81   18.02
   0   5  -4  231.55   19.74
   0   5  -4  207.38   17.85
   0   5   4  187.43   16.37
   1  -5   4   66.02    6.62
  -1  -5  -4   68.50    5.87
   1  -5   4   72.72    6.56
  -1  -5  -4   71.41    6.77
  -1  -5  -4   69.98    7.41
  -1  -5  -4   78.41    6.79
   1  -5   4   73.29    7.17
   1   5   4   71.56    6.07
  -1   5  -4   66.93    5.94
   1   5   4   66.93    6.73
   1   5   4   73.64    6.02
  -1   5  -4   66.08    5.91
  -1   5  -4   65.88    6.53
   1   5   4   70.79    6.14
  -2  -5  -4    3.55    0.74
  -2  -5  -4    4.93    1.15
   2  -5   4    6.08    1.19
   2  -5   4    3.22    1.02
   2  -5   4    4.19    0.70
   2  -5   4    2.47    0.78
  -2  -5  -4    3.20    1.14
  -2  -5  -4    4.13    1.17
   2   5   4    3.33    0.80
  -2   5  -4    3.43    0.90
   2   5   4    2.14    0.71
   2   5   4    3.76    0.79
  -2   5  -4    3.38    0.73
   2   5   4    5.09    1.24
  -2   5  -4    2.31    0.68
  -2   5  -4    3.94    0.89
  -3  -5  -4    5.73    1.31
  -3  -5  -4    5.66    1.29
   3  -5   4    3.67    0.75
  -3  -5  -4    4.14    0.85
   3  -5   4    6.89    1.50
  -3  -5  -4    3.74    1.19
   3  -5   4    3.69    0.80
   3  -5   4    6.11    1.31
  -3   5  -4    3.37    0.90
   3   5   4    2.92    0.80
   3   5   4    2.91    0.82
  -3   5  -4    4.17    0.97
  -3   5  -4    5.74    1.35
   3   5   4    6.13    1.45
   3   5   4    3.09    0.83
  -3   5  -4    3.00    0.82
  -4  -5  -4   35.18    3.56
   4  -5   4   29.16    2.94
   4  -5   4   23.81    3.77
  -4  -5  -4   26.08    2.83
  -4  -5  -4   30.10    3.48
  -4   5  -4   28.53    3.07
   4   5   4   36.84    3.10
  -4   5  -4   36.54    3.22
   4   5   4   27.25    3.52
   4   5   4   35.89    4.21
  -4   5  -4   27.29    3.06
   4   5   4   30.93    3.08
   4   5   4   27.35    2.95
  -4   5  -4   23.75    3.38
   5  -5   4    2.34    0.84
  -5  -5  -4    1.64    0.68
   5  -5   4    1.65    1.04
  -5  -5  -4    2.73    1.10
  -5  -5  -4    2.86    0.94
   5   5   4    1.05    0.62
  -5   5  -4    2.58    0.91
  -5   5  -4    1.58    0.93
  -5   5  -4    1.02    0.67
   5   5   4    1.68    1.09
   5   5   4    1.90    0.89
   5   5   4    1.96    0.77
  -5   5  -4    1.02    0.68
  -6  -5  -4   14.10    2.10
   6  -5   4   15.90    2.34
  -6  -5  -4   16.13    2.86
  -6  -5  -4   15.87    2.03
  -6   5  -4   16.72    2.68
   6   5   4   16.84    2.54
  -6   5  -4   14.59    3.00
   6   5   4   17.89    2.47
  -6   5  -4   13.19    2.19
   6   5   4   18.20    2.42
   6   5   4   13.08    2.77
  -6   5  -4   19.53    2.64
  -7  -5  -4    3.37    1.44
  -7   5  -4    6.48    1.56
  -7   5  -4    5.76    1.47
   7   5   4    4.10    1.83
   7   5   4    8.51    1.57
   7   5   4    5.43    1.40
  -7   5  -4    2.79    1.57
  -8  -5  -4   30.19    5.13
   8   5   4   49.26    4.63
  -8   5  -4   35.57    5.62
  -8   5  -4   45.90    4.60
  -8   5  -4   42.16    4.65
  -9  -5  -4   17.16    3.47
   9   5   4   19.14    3.06
  -9   5  -4   18.60    3.38
  -9   5  -4   16.75    3.50
 -10  -5  -4    6.17    2.25
  10   5   4   10.37    2.23
 -10   5  -4    5.86    1.80
 -10   5  -4    5.92    2.19
 -11  -5  -4   10.43    2.84
 -11   5  -4   14.54    3.49
  11   5   4   10.31    2.75
 -12  -5  -4    3.97    2.18
  12   5   4    4.89    2.21
 -12   5  -4    6.57    2.94
 -12  -6   4   -0.71    1.41
 -12   6   4    0.80    1.67
  11  -6  -4    1.95    2.20
 -11  -6   4    3.49    1.81
 -11   6   4    2.28    1.83
  11   6  -4    3.83    1.56
  10  -6  -4   10.52    3.19
 -10  -6   4    5.33    1.93
 -10   6   4    6.09    2.43
 -10   6   4    7.07    2.23
  10   6  -4    5.52    1.66
   9  -6  -4   20.19    4.07
  -9  -6   4   11.03    2.59
  -9  -6   4   14.01    3.47
   9   6  -4   11.17    2.33
  -9   6   4   17.59    3.00
  -9   6   4   18.42    3.54
  -8  -6   4    1.40    1.34
  -8  -6   4    0.48    0.97
   8  -6  -4    0.42    1.42
  -8   6   4    0.13    0.95
   8   6  -4    1.26    0.96
  -8   6   4    0.69    1.26
   8   6  -4   -0.51    0.45
  -8   6   4   -0.11    1.05
   7  -6  -4   17.13    3.71
  -7  -6   4   14.79    3.46
  -7  -6   4   12.08    2.43
  -7   6   4   16.79    2.53
   7   6  -4   14.26    2.26
   7   6  -4   16.55    2.43
  -7   6   4   13.83    2.57
   7   6  -4   17.25    2.32
  -7   6   4   11.66    2.67
  -7   6   4   15.88    3.56
  -6  -6   4    6.50    2.34
  -6  -6   4   12.39    2.09
   6  -6  -4   14.18    3.04
  -6   6   4    7.98    1.83
   6   6  -4    9.69    1.50
  -6   6   4    9.19    1.79
   6   6  -4    9.45    1.75
  -6   6   4   11.71    2.34
   6   6  -4    9.49    1.68
   5  -6  -4   13.44    2.90
  -5  -6   4   13.81    2.14
  -5  -6   4   15.32    3.15
  -5   6   4   12.72    1.95
   5   6  -4    9.40    1.57
   5   6  -4    8.51    1.37
  -5   6   4    8.59    2.07
   5   6  -4   12.67    1.79
  -5   6   4   10.91    1.99
  -5   6   4   12.79    2.05
   5   6  -4   14.04    1.46
  -4  -6   4    7.36    2.07
   4  -6  -4    9.84    2.37
  -4  -6   4   12.75    1.81
  -4   6   4    9.60    1.67
  -4   6   4    9.34    1.96
  -4   6   4    5.59    1.36
  -4   6   4    7.57    1.45
   4   6  -4   10.73    1.39
   4   6  -4    8.31    1.30
  -3  -6   4    5.16    1.58
   3  -6  -4    4.59    1.73
  -3  -6   4    3.30    0.84
   3  -6  -4    3.40    0.87
   3   6  -4    3.79    1.56
  -3   6   4    3.28    0.98
   3   6  -4    2.74    0.66
   3   6  -4    4.27    0.77
  -3   6   4    2.54    0.83
  -3   6   4    1.73    1.01
  -2  -6   4   22.81    3.69
   2  -6  -4   26.73    2.44
  -2  -6   4   27.06    2.59
   2  -6  -4   17.03    3.49
   2   6  -4   26.11    2.32
   2   6  -4   21.62    2.30
  -2   6   4   26.64    3.11
  -2   6   4   22.93    2.56
   2   6  -4   24.81    2.55
   2   6  -4   29.26    3.64
   1  -6  -4   23.20    3.86
   1  -6  -4   23.32    2.19
  -1  -6   4   22.56    3.12
   1  -6  -4   21.46    2.67
  -1  -6   4   22.39    2.47
   1   6  -4   26.83    2.23
  -1   6   4   23.64    2.83
   1   6  -4   23.07    2.38
  -1   6   4   22.24    2.37
   1   6  -4   21.69    3.50
   0  -6  -4   34.21    3.96
   0  -6   4   35.48    3.72
   0  -6  -4   30.55    3.29
   0  -6  -4   30.78    3.28
   0  -6   4   30.29    3.06
   0   6   4   25.23    3.24
   0   6  -4   32.15    2.71
   0   6  -4   26.41    2.95
   0   6  -4   35.40    3.84
   0   6   4   23.62    2.74
  -1  -6  -4   70.80    6.63
   1  -6   4   69.84    6.32
  -1  -6  -4   58.89    5.76
   1  -6   4   56.05    5.67
  -1  -6  -4   57.57    5.79
  -1   6  -4   62.19    5.12
   1   6   4   57.67    5.87
   1   6   4   55.77    5.15
  -1   6  -4   53.72    5.57
   1   6   4   51.54    5.16
  -1   6  -4   57.10    5.10
  -1   6  -4   67.75    6.42
   2  -6   4   62.82    5.71
   2  -6   4   57.81    5.85
   2  -6   4   59.79    6.08
  -2  -6  -4   62.39    5.91
  -2  -6  -4   44.22    5.67
  -2  -6  -4   53.57    6.35
   2   6   4   59.03    5.29
   2   6   4   68.01    6.07
   2   6   4   56.61    5.21
   2   6   4   65.12    5.27
  -2   6  -4   62.94    5.20
  -2   6  -4   62.47    5.26
  -2   6  -4   55.76    5.17
  -2   6  -4   60.71    5.80
  -3  -6  -4   63.68    7.27
  -3  -6  -4   66.22    6.87
   3  -6   4   61.36    6.93
  -3  -6  -4   68.40    6.88
   3  -6   4   77.15    6.91
   3  -6   4   73.44    6.77
  -3   6  -4   73.50    6.25
  -3   6  -4   70.76    6.92
   3   6   4   67.70    6.17
   3   6   4   69.61    6.15
   3   6   4   79.48    7.18
   3   6   4   69.22    6.23
  -3   6  -4   76.18    6.27
  -3   6  -4   67.48    6.19
  -4  -6  -4   39.08    4.93
  -4  -6  -4   42.19    5.00
  -4  -6  -4   47.75    5.22
  -4   6  -4   49.81    5.17
   4   6   4   52.92    4.63
   4   6   4   48.61    5.25
  -4   6  -4   43.65    4.54
  -4   6  -4   47.54    4.58
   4   6   4   53.23    4.58
  -4   6  -4   54.63    4.66
   4   6   4   54.40    4.58
   5  -6   4  104.99    9.55
  -5  -6  -4  116.51   11.14
  -5  -6  -4  107.49   10.80
   5   6   4  118.94    9.85
  -5   6  -4  108.19    9.84
  -5   6  -4  123.61    9.92
   5   6   4  121.96    9.90
  -5   6  -4  117.64   10.07
  -5   6  -4  122.48   11.11
   5   6   4   99.62   10.86
   5   6   4  106.30    9.65
  -6  -6  -4   11.00    2.29
  -6  -6  -4   13.75    2.08
   6   6   4   13.07    2.72
  -6   6  -4   10.32    2.40
   6   6   4   11.27    1.94
   6   6   4   11.01    1.75
  -6   6  -4   12.55    2.25
  -6   6  -4    9.36    1.83
   6   6   4    9.41    1.78
  -7  -6  -4   47.54    5.51
  -7   6  -4   55.88    5.96
   7   6   4   46.89    4.90
  -7   6  -4   48.04    5.10
   7   6   4   46.25    4.84
  -7   6  -4   52.06    5.11
   7   6   4   45.86    5.71
  -8  -6  -4    3.94    1.65
  -8   6  -4    3.02    1.33
  -8   6  -4    2.70    1.50
   8   6   4    2.14    1.69
   8   6   4    3.75    1.33
  -8   6  -4    6.05    1.80
  -9  -6  -4    9.11    2.31
  -9   6  -4    7.97    2.29
   9   6   4    2.82    1.25
  -9   6  -4    9.04    2.38
 -10  -6  -4    2.34    1.47
 -10   6  -4    2.63    1.57
 -10   6  -4    0.27    1.46
  10   6   4    1.69    1.36
 -11  -6  -4    6.14    2.30
  11   6   4    5.43    2.01
 -11   6  -4    5.42    2.46
  11  -7  -4    0.17    1.64
 -11  -7   4    0.38    1.13
 -11   7   4   -1.75    1.40
  11   7  -4    1.05    1.09
  10  -7  -4    4.94    2.26
 -10  -7   4    3.24    1.51
  10   7  -4    0.72    1.04
 -10   7   4    3.64    1.82
 -10   7   4    1.37    1.58
  -9  -7   4    5.69    1.96
   9  -7  -4   14.61    3.69
  -9   7   4   12.72    3.26
  -9   7   4    8.36    2.20
   9   7  -4    9.72    2.02
  -8  -7   4    7.50    2.61
  -8  -7   4    5.22    1.67
   8  -7  -4   10.92    3.03
  -8   7   4    5.05    2.06
  -8   7   4    9.54    2.26
  -8   7   4    8.13    2.23
   8   7  -4    8.45    1.78
   8   7  -4    8.10    1.61
  -7  -7   4    4.69    1.39
   7  -7  -4    8.01    2.57
  -7  -7   4    5.81    2.24
   7   7  -4    4.51    1.09
   7   7  -4    3.54    1.24
  -7   7   4    3.38    1.65
  -7   7   4    5.98    1.63
  -7   7   4    7.29    1.75
  -7   7   4    6.03    2.55
  -6  -7   4   39.59    4.48
   6  -7  -4   51.27    5.84
  -6  -7   4   35.35    6.15
   6   7  -4   44.18    4.16
  -6   7   4   38.80    4.98
   6   7  -4   44.05    3.99
  -6   7   4   35.62    4.38
   6   7  -4   41.05    4.05
  -6   7   4   51.15    4.52
   6   7  -4   40.67    4.06
  -5  -7   4   36.40    5.46
  -5  -7   4   23.12    3.07
   5  -7  -4   40.44    4.73
  -5   7   4   29.29    4.14
  -5   7   4   30.77    3.13
   5   7  -4   25.49    2.82
  -5   7   4   25.42    3.14
  -5   7   4   28.25    3.27
   5   7  -4   30.83    2.94
   4  -7  -4   36.01    3.46
  -4  -7   4   34.35    3.62
  -4  -7   4   35.13    5.45
   4  -7  -4   40.49    4.87
  -4   7   4   41.28    3.74
  -4   7   4   35.49    3.68
   4   7  -4   34.33    3.31
  -4   7   4   28.06    4.02
   4   7  -4   37.84    3.31
  -4   7   4   32.97    3.68
  -3  -7   4   39.06    3.82
  -3  -7   4   51.29    5.44
   3  -7  -4   39.05    5.04
  -3   7   4   38.21    3.85
   3   7  -4   38.54    3.48
  -3   7   4   37.50    4.38
  -3   7   4   48.05    4.11
   3   7  -4   35.50    3.48
  -2  -7   4   20.30    3.44
   2  -7  -4   19.32    2.82
  -2  -7   4   18.05    2.04
   2  -7  -4   23.80    3.86
  -2   7   4   19.90    2.23
   2   7  -4   18.12    2.01
  -2   7   4   19.34    2.92
   2   7  -4   24.10    3.65
   2   7  -4   22.02    1.94
   1  -7  -4   36.92    3.95
   1  -7  -4   33.05    4.56
  -1  -7   4   36.31    3.51
  -1  -7   4   35.06    4.63
   1   7  -4   43.08    3.30
   1   7  -4   40.53    4.70
  -1   7   4   34.41    3.98
   1   7  -4   35.81    3.52
  -1   7   4   35.32    3.50
   0  -7   4   23.56    2.61
   0  -7  -4   27.47    3.60
   0  -7  -4   22.64    2.81
   0  -7  -4   19.76    2.78
   0  -7   4   26.68    3.35
   0   7  -4   25.60    2.37
   0   7   4   22.34    2.89
   0   7  -4   24.54    2.57
   0   7  -4   34.66    3.67
   0   7   4   27.66    2.59
   0   7  -4   29.10    2.41
   1  -7   4   16.18    2.12
   1  -7   4   15.51    2.34
  -1  -7  -4   12.74    2.03
  -1  -7  -4   14.69    2.14
  -1  -7  -4   14.06    2.67
  -1   7  -4   16.63    2.56
  -1   7  -4   14.66    1.74
   1   7   4   16.58    2.36
  -1   7  -4   12.60    1.52
  -1   7  -4   13.24    1.53
   1   7   4   11.11    1.73
   1   7   4   12.22    1.77
   2  -7   4   10.79    1.72
  -2  -7  -4   10.34    2.19
  -2  -7  -4    9.15    1.67
  -2  -7  -4    7.62    1.65
   2  -7   4    6.45    1.34
  -2   7  -4   12.22    1.81
   2   7   4    8.93    1.41
  -2   7  -4    9.66    1.44
   2   7   4    8.32    1.75
  -2   7  -4   10.75    1.54
   2   7   4   10.26    1.51
  -2   7  -4   17.25    2.51
  -3  -7  -4    6.80    1.84
  -3  -7  -4    7.47    1.56
  -3  -7  -4    4.15    1.21
   3  -7   4    9.04    1.60
   3   7   4    6.44    1.09
   3   7   4    6.97    1.34
  -3   7  -4    6.53    1.34
   3   7   4    6.12    1.16
   3   7   4    6.36    1.61
  -3   7  -4    9.38    1.78
  -3   7  -4    6.78    1.18
  -3   7  -4    5.57    1.15
  -4  -7  -4    1.61    0.87
  -4  -7  -4    1.68    1.08
   4   7   4    2.15    0.69
  -4   7  -4    2.23    0.76
   4   7   4    1.24    0.76
  -4   7  -4    2.32    0.87
   4   7   4    1.46    0.67
  -4   7  -4    2.58    1.15
   4   7   4    2.23    1.14
  -4   7  -4    2.31    0.86
  -5  -7  -4    3.01    1.21
  -5  -7  -4    5.67    1.53
   5   7   4    4.98    1.11
  -5   7  -4    4.90    1.19
   5   7   4    4.00    1.43
  -5   7  -4    4.23    1.18
  -5   7  -4    3.48    1.35
   5   7   4    5.61    1.09
   5   7   4    2.88    1.12
  -5   7  -4    2.80    1.09
  -6  -7  -4    2.19    0.97
  -6  -7  -4    0.51    0.90
  -6   7  -4    1.10    0.81
  -6   7  -4    0.66    1.00
   6   7   4    1.79    0.79
   6   7   4    1.73    0.79
  -6   7  -4    3.34    1.22
   6   7   4   -0.23    0.91
  -7  -7  -4    8.23    2.21
   7   7   4    8.41    1.74
  -7   7  -4   10.70    2.00
  -7   7  -4   11.64    2.56
   7   7   4   11.30    1.95
  -7   7  -4    9.48    1.99
  -8  -7  -4   11.53    2.83
  -8   7  -4   14.49    2.68
  -8   7  -4   16.10    2.99
  -8   7  -4   11.53    2.94
   8   7   4   14.65    2.57
  -9  -7  -4   11.78    2.73
   9   7   4   16.36    2.75
  -9   7  -4   11.72    2.61
 -10  -7  -4    4.40    1.90
 -10   7  -4    9.93    2.75
  10   7   4    8.37    2.17
 -11  -7  -4    4.77    2.24
  11   7   4    6.59    2.11
 -10  -8   4    8.28    2.23
  10  -8  -4   18.79    4.18
 -10   8   4    9.46    2.51
  10   8  -4    6.71    1.96
   9  -8  -4    3.35    2.23
  -9  -8   4    2.80    1.34
   9   8  -4    3.92    1.39
  -9   8   4    4.03    1.73
   8  -8  -4   13.65    3.50
  -8  -8   4    9.26    2.03
   8   8  -4   14.40    2.10
  -8   8   4    7.89    2.47
   8   8  -4   10.79    2.07
  -8   8   4   10.12    2.53
   7  -8  -4    0.34    1.57
  -7  -8   4    1.78    1.51
  -7  -8   4    0.32    0.76
   7   8  -4   -0.46    0.63
  -7   8   4   -1.67    0.89
   7   8  -4    0.48    0.56
  -7   8   4   -0.53    0.66
  -7   8   4   -0.28    0.89
  -6  -8   4   13.07    3.19
  -6  -8   4   12.90    2.10
   6  -8  -4   14.05    3.46
  -6   8   4   13.13    2.49
   6   8  -4   12.42    1.75
  -6   8   4   17.91    3.16
  -6   8   4   14.64    2.25
   6   8  -4   14.74    1.68
   6   8  -4   13.85    2.00
   6   8  -4   12.92    2.00
  -5  -8   4   12.89    1.79
   5  -8  -4    6.46    2.49
  -5  -8   4    9.00    2.74
   5   8  -4   11.08    1.68
  -5   8   4    8.92    1.75
  -5   8   4   12.26    2.26
   5   8  -4   13.07    1.80
  -5   8   4   13.13    2.63
  -4  -8   4    8.82    1.27
   4  -8  -4   11.73    2.92
  -4  -8   4   11.08    1.27
  -4  -8   4    5.00    1.97
  -4   8   4    8.32    1.66
  -4   8   4    7.51    1.51
  -4   8   4    9.06    2.09
   4   8  -4   10.82    1.44
  -4   8   4    8.09    1.73
   4   8  -4    8.45    1.29
   3  -8  -4    9.84    2.83
  -3  -8   4   10.33    2.62
  -3   8   4   14.34    2.14
   3   8  -4   10.77    1.31
  -3   8   4   13.19    2.41
  -3   8   4   14.46    2.16
   2  -8  -4    4.60    1.98
  -2  -8   4    5.34    1.67
  -2   8   4    2.03    1.11
  -2   8   4    2.79    0.89
   1  -8  -4   23.06    2.85
  -1  -8   4   28.04    3.56
   1  -8  -4   24.76    2.92
   1  -8  -4   25.37    4.23
  -1   8   4   22.55    2.53
   1   8  -4   32.04    3.84
  -1   8   4   19.66    3.16
   0  -8  -4   41.64    5.03
   0  -8   4   43.45    4.69
   0  -8  -4   38.19    4.04
   0  -8  -4   32.44    3.93
   0   8   4   40.51    3.65
   0   8  -4   33.47    3.61
   0   8  -4   39.36    4.73
   0   8  -4   42.56    3.43
   0   8  -4   39.37    3.41
   0   8   4   38.24    4.12
  -1  -8  -4   29.74    4.46
  -1  -8  -4   28.51    3.05
   1  -8   4   28.68    3.40
  -1  -8  -4   26.26    3.06
   1   8   4   28.50    2.78
  -1   8  -4   26.00    2.86
  -1   8  -4   29.10    3.58
  -1   8  -4   29.89    2.65
   1   8   4   27.04    2.69
  -1   8  -4   25.34    2.56
   1   8   4   21.17    2.98
   2  -8   4   64.19    5.88
  -2  -8  -4   55.26    6.87
  -2  -8  -4   60.80    6.08
  -2   8  -4   58.42    5.41
  -2   8  -4   65.36    5.52
   2   8   4   55.88    6.20
  -2   8  -4   61.02    6.13
  -2   8  -4   62.81    6.62
   2   8   4   68.34    5.59
   2   8   4   65.18    5.52
  -3  -8  -4   24.99    3.98
  -3  -8  -4   23.69    2.95
  -3   8  -4   26.52    2.78
  -3   8  -4   24.87    3.09
  -3   8  -4   24.87    2.58
   3   8   4   24.62    2.53
   3   8   4   25.86    3.21
  -3   8  -4   26.20    2.68
   3   8   4   28.32    2.68
   3   8   4   25.90    2.76
  -4  -8  -4   38.22    4.40
  -4  -8  -4   28.71    3.71
  -4   8  -4   31.37    3.56
  -4   8  -4   37.84    3.64
  -4   8  -4   35.57    3.49
   4   8   4   34.30    3.51
   4   8   4   34.48    3.43
   4   8   4   34.57    3.34
  -5  -8  -4   10.46    2.08
  -5  -8  -4    5.33    1.51
  -5   8  -4    6.38    1.42
  -5   8  -4    4.94    1.28
   5   8   4    4.78    1.18
   5   8   4    6.31    1.47
   5   8   4    5.73    1.31
  -6  -8  -4   16.90    3.12
   6   8   4   23.80    2.70
   6   8   4   24.81    2.68
  -6   8  -4   18.86    3.03
  -6   8  -4   26.82    3.42
  -7  -8  -4    2.68    1.34
   7   8   4    2.82    1.06
  -7   8  -4    3.59    1.37
   7   8   4    4.55    1.28
  -7   8  -4    3.21    1.25
  -8  -8  -4   14.77    2.95
  -8   8  -4   14.27    2.85
  -8   8  -4   16.94    3.13
   8   8   4   16.25    2.65
  -9  -8  -4    2.27    1.46
   9   8   4   -0.05    1.03
  -9   8  -4    1.91    1.50
 -10  -8  -4    4.85    1.90
 -10   8  -4    4.47    2.05
  10   8   4    1.04    1.19
  10  -9  -4    3.12    2.33
 -10  -9   4    0.71    1.16
  10   9  -4    2.39    1.17
 -10   9   4   -1.49    1.23
  -9  -9   4    2.69    1.24
   9  -9  -4    5.48    2.61
   9   9  -4    4.80    1.44
  -9   9   4    2.39    1.56
   8  -9  -4    7.11    2.74
  -8  -9   4    5.25    1.45
   8   9  -4    6.06    1.40
   8   9  -4    4.92    1.44
  -8   9   4    5.54    1.81
  -7  -9   4    2.14    1.09
   7  -9  -4    5.24    2.62
   7   9  -4    4.53    1.28
   7   9  -4    4.39    1.04
  -7   9   4    5.88    1.65
  -7   9   4    5.83    1.73
   6  -9  -4   14.26    3.57
  -6  -9   4   10.58    1.73
  -6  -9   4    9.44    2.85
  -6   9   4   12.90    2.14
   6   9  -4   10.23    1.76
  -6   9   4   17.40    2.90
  -5  -9   4   10.45    3.00
   5  -9  -4   12.59    3.43
   5   9  -4   11.25    1.70
  -5   9   4   14.09    2.21
  -5   9   4   12.24    2.34
   5   9  -4    8.95    1.58
  -4  -9   4   32.00    4.97
   4  -9  -4   17.28    4.15
  -4   9   4   29.16    2.92
  -4   9   4   23.96    3.33
   4   9  -4   25.90    2.51
   4   9  -4   24.22    2.49
  -3  -9   4   37.48    4.97
   3  -9  -4   39.30    6.11
  -3   9   4   34.32    3.71
  -2  -9   4   25.10    4.01
   2  -9  -4   16.71    3.75
  -2   9   4   21.26    2.42
  -1  -9   4    8.72    2.22
   1  -9  -4    7.70    1.57
   1  -9  -4    7.32    2.29
  -1   9   4    7.78    1.46
   0  -9  -4   33.89    3.85
   0  -9  -4   45.09    5.18
   0  -9   4   42.54    4.63
   0   9   4   32.52    3.49
   0   9  -4   37.79    3.33
   0   9  -4   37.35    4.77
  -1  -9  -4   23.98    2.82
  -1  -9  -4   23.65    4.28
  -1   9  -4   27.84    2.50
  -1   9  -4   24.78    2.43
  -1   9  -4   25.67    3.46
   1   9   4   21.84    2.51
  -2  -9  -4   10.10    1.78
  -2  -9  -4   10.51    2.67
  -2   9  -4   11.89    1.73
   2   9   4   11.53    1.73
  -2   9  -4   12.11    1.71
  -2   9  -4   12.41    2.30
   2   9   4   12.52    1.74
  -3  -9  -4    3.23    1.55
  -3  -9  -4    3.10    0.98
   3   9   4    3.41    1.04
  -3   9  -4    3.77    1.02
  -3   9  -4    4.45    1.10
   3   9   4    1.89    0.69
  -3   9  -4    3.20    0.84
   3   9   4    3.79    0.80
  -4  -9  -4    1.18    0.84
  -4  -9  -4    2.32    1.31
   4   9   4    3.11    0.78
   4   9   4    2.85    1.03
  -4   9  -4    2.11    0.81
   4   9   4    1.55    0.79
  -4   9  -4    3.01    1.04
  -5  -9  -4   12.77    2.53
  -5  -9  -4    5.12    1.55
   5   9   4    9.64    1.71
   5   9   4   10.35    1.63
  -5   9  -4   13.08    2.03
  -5   9  -4   11.61    2.22
  -6  -9  -4    2.84    1.33
   6   9   4    3.43    1.01
   6   9   4    3.32    1.06
  -6   9  -4    1.44    1.09
  -6   9  -4    3.88    1.17
  -7  -9  -4    7.41    1.92
   7   9   4    7.07    1.58
  -7   9  -4   11.11    2.20
   7   9   4    7.37    1.67
  -7   9  -4   14.38    2.62
  -8  -9  -4    1.46    1.28
  -8   9  -4    7.86    2.18
   8   9   4    4.85    1.55
  -8   9  -4    3.83    1.62
  -9  -9  -4    1.07    1.13
  -9   9  -4    6.30    1.94
   9   9   4    3.06    1.45
   9 -10  -4    6.21    3.13
  -9  10   4    6.13    2.11
   9  10  -4    5.16    1.59
   8 -10  -4    1.82    2.08
   8  10  -4    1.24    0.96
  -8  10   4    0.70    1.23
   8  10  -4    0.10    0.60
   7 -10  -4    3.50    2.36
   7  10  -4    4.14    1.15
   7  10  -4    5.31    1.18
  -7  10   4    4.61    1.75
  -7  10   4    5.49    1.50
   6 -10  -4    1.37    1.87
  -6  10   4    0.18    0.78
  -6  10   4    1.69    0.91
   6  10  -4    0.97    0.61
   5 -10  -4   11.85    3.54
  -5 -10   4   14.41    3.67
   5  10  -4   13.90    1.83
   5  10  -4   11.39    1.78
  -5  10   4   16.00    2.60
  -5  10   4   11.18    2.28
  -4 -10   4    1.14    1.37
   4 -10  -4    1.05    1.86
  -4  10   4    0.79    0.68
  -4  10   4    0.64    0.68
   3 -10  -4    3.38    2.19
  -3 -10   4    6.19    2.25
  -3  10   4    4.61    1.23
  -2 -10   4   10.27    2.49
   2 -10  -4    8.26    2.78
   2 -10  -4    5.85    1.46
  -2  10   4    8.34    1.60
   1 -10  -4   11.89    3.24
  -1 -10   4   14.66    2.86
   1 -10  -4    9.57    1.72
  -1  10   4   11.32    1.80
   0 -10  -4    3.38    1.05
   0 -10  -4    8.63    2.75
   0  10  -4    6.04    2.03
   0  10   4    5.72    1.14
  -1 -10  -4   16.76    3.68
  -1 -10  -4   13.97    2.19
  -1  10  -4   16.91    1.83
  -1  10  -4   16.55    1.86
   1  10   4   15.83    2.13
  -2 -10  -4   10.23    1.72
  -2 -10  -4   17.69    3.44
  -2  10  -4    9.54    1.60
  -2  10  -4   12.11    1.71
   2  10   4   11.09    1.68
   2  10   4   11.03    1.75
  -3 -10  -4   48.15    6.10
  -3 -10  -4   43.77    5.04
  -3  10  -4   53.36    4.96
   3  10   4   55.16    4.92
   3  10   4   52.33    4.66
   3  10   4   50.57    4.71
  -3  10  -4   54.85    4.72
  -3  10  -4   51.26    4.89
  -4 -10  -4    9.20    1.71
  -4 -10  -4   20.43    3.51
  -4  10  -4   13.72    1.89
  -4  10  -4    6.67    1.57
   4  10   4    9.35    1.68
   4  10   4    9.47    1.45
  -5 -10  -4   30.11    3.67
  -5 -10  -4   20.12    3.16
   5  10   4   20.84    2.53
   5  10   4   18.75    2.82
  -5  10  -4   29.26    3.61
  -5  10  -4   26.66    2.86
  -6 -10  -4   10.45    2.08
  -6  10  -4   11.80    2.13
  -6  10  -4   10.82    2.20
   6  10   4    7.34    1.67
   6  10   4   11.71    1.84
  -7 -10  -4    5.45    1.68
  -7  10  -4    8.27    2.14
  -7  10  -4    7.43    2.02
   7  10   4    6.52    1.60
  -8 -10  -4    3.04    1.37
   8  10   4    4.54    1.58
  -8  10  -4    1.68    1.37
  -8  10  -4    6.54    1.92
  -9 -10  -4    0.84    1.05
  -9  10  -4    0.92    1.47
   9  10   4    2.54    1.50
   8 -11  -4    4.61    2.94
   8  11  -4    2.32    1.11
   8  11  -4    0.38    0.70
  -8  11   4    2.19    1.63
   7 -11  -4    6.97    3.08
  -7  11   4    3.81    1.76
   7  11  -4    9.05    1.75
   7  11  -4    6.71    1.30
  -7  11   4    5.95    1.71
   6 -11  -4    3.53    2.21
  -6  11   4    1.42    1.02
   6  11  -4    3.86    1.05
  -6  11   4    5.50    1.77
   5 -11  -4    9.41    3.26
  -5  11   4    7.85    1.67
   5  11  -4    7.39    1.28
  -5  11   4    6.08    1.67
  -4 -11   4   11.70    3.38
   4 -11  -4   13.45    3.55
  -4  11   4    8.88    1.91
  -4  11   4   10.38    1.86
  -3 -11   4   12.36    3.25
   3 -11  -4   15.35    3.87
   2 -11  -4    7.56    2.71
   2 -11  -4    5.43    1.37
  -2  11   4    7.66    1.50
   1 -11  -4   25.94    4.64
   1 -11  -4   18.95    2.47
  -1  11   4   23.15    2.90
   0 -11  -4    0.14    0.58
   0 -11  -4    1.72    1.55
   0  11   4    0.75    0.67
  -1 -11  -4    8.65    1.47
  -1 -11  -4   11.11    2.96
   1  11   4    9.06    1.58
  -1  11  -4   10.48    1.51
  -1  11  -4   10.95    1.53
  -2 -11  -4    0.34    0.57
  -2 -11  -4    0.36    1.11
  -2  11  -4   -0.03    0.49
   2  11   4    0.53    0.64
  -2  11  -4   -0.43    0.45
  -3 -11  -4    1.42    0.70
  -3 -11  -4    2.61    1.56
  -3  11  -4    2.81    0.76
   3  11   4    0.97    0.60
   3  11   4    2.23    0.80
  -3  11  -4    1.75    0.85
  -4 -11  -4    3.65    1.09
  -4 -11  -4    2.90    1.63
  -4  11  -4    1.64    1.02
   4  11   4    1.37    0.83
  -4  11  -4    3.42    0.99
   4  11   4    2.31    0.76
  -5 -11  -4   -0.02    0.67
  -5  11  -4   -0.08    0.63
  -5  11  -4   -0.44    0.73
   5  11   4    0.61    0.71
   5  11   4    0.60    0.59
  -6 -11  -4    2.02    0.98
  -6  11  -4    6.98    1.64
  -6  11  -4    4.91    1.56
   6  11   4    3.26    1.12
   6  11   4    4.01    1.08
  -7 -11  -4    1.41    1.04
   7  11   4    2.14    1.18
  -7  11  -4    2.66    1.50
  -7  11  -4    2.90    1.33
   6 -12  -4    4.76    2.73
   6  12  -4    2.01    0.89
  -6  12   4    4.69    1.61
  -6  12   4    5.50    1.62
   5 -12  -4    0.90    1.74
  -5  12   4    0.04    0.85
  -5  12   4    0.38    0.76
   4 -12  -4    4.46    2.46
  -4  12   4    3.42    1.30
  -4  12   4    3.35    1.16
   3 -12  -4    0.99    1.76
   3 -12  -4    0.49    0.75
  -3  12   4    0.33    0.71
   2 -12  -4    8.39    2.95
   2 -12  -4    3.24    1.17
  -2  12   4    5.44    1.34
   1 -12  -4    2.25    1.90
   1 -12  -4    1.23    0.67
  -1  12   4    1.56    0.89
   0 -12  -4    6.27    2.62
   0  12   4    4.94    1.25
  -1 -12  -4    9.72    3.00
   1  12   4    4.46    1.13
  -1  12  -4    4.65    1.02
  -2 -12  -4   11.83    3.09
   2  12   4    8.88    1.67
  -2  12  -4    9.95    1.72
  -3 -12  -4   13.42    3.17
   3  12   4   10.89    1.68
   3  12   4    9.08    1.73
  -3  12  -4   12.01    1.72
  -3  12  -4   14.96    2.24
  -4 -12  -4    3.06    1.88
   4  12   4    4.45    1.24
  -4  12  -4    5.02    1.46
   4  12   4    4.94    1.12
  -4  12  -4    6.29    1.33
   5  12   4    9.93    1.75
  -5  12  -4   10.30    2.17
   5  12   4    9.42    1.79
  -5  12  -4   12.76    2.16
   6  12   4    5.57    1.47
  -6  12  -4    4.71    1.69
  -6  12  -4    8.95    1.94
   6  12   4    3.99    1.12
   4 -13  -4   10.76    3.60
   4 -13  -4    9.59    2.11
  -4  13   4   12.59    2.39
  -4  13   4   19.80    2.76
   3 -13  -4    2.22    2.25
  -3  13   4    0.37    0.85
   2 -13  -4    8.61    3.15
  -2  13   4   10.77    2.00
   1 -13  -4    6.63    2.70
  -1  13   4    3.93    1.22
   0 -13  -4    1.47    1.73
   0  13   4    1.33    0.84
  -1 -13  -4    0.54    1.64
   1  13   4    0.26    0.59
  -2 -13  -4    1.08    1.58
  -2  13  -4    2.99    1.05
   2  13   4    4.31    1.20
  -3 -13  -4    1.58    1.97
   3  13   4    0.37    0.56
  -3  13  -4    0.91    0.72
  -3  13  -4    0.20    0.79
   3  13   4    2.01    0.92
   4  13   4    0.86    0.84
  -4  13  -4    1.07    0.89
   4  13   4    0.94    0.63
  -4  13  -4    1.25    0.79
 -13   0   5   -0.96    1.61
 -12   0   5    1.02    1.46
 -11   0   5   11.90    3.17
 -11   0   5   15.12    3.47
  10   0  -5    7.80    1.94
  10   0  -5    9.73    2.28
 -10   0   5    2.15    1.57
 -10   0   5   10.54    2.76
  -9   0   5   13.58    3.23
  -9   0   5   34.05    4.79
   9   0  -5   18.33    3.28
   9   0  -5   23.31    3.21
   8   0  -5    6.78    1.95
   8   0  -5    1.44    1.12
  -8   0   5    0.88    0.73
  -8   0   5    1.48    1.25
  -8   0   5    0.81    1.04
   8   0  -5    0.90    1.00
   7   0  -5   16.06    2.82
   7   0  -5   13.20    2.10
  -7   0   5   19.06    3.41
  -7   0   5   15.94    2.79
  -7   0   5   15.49    2.41
   7   0  -5   13.78    2.31
   7   0  -5   15.57    2.34
   6   0  -5    5.06    1.26
  -6   0   5   14.42    2.56
   6   0  -5    9.14    1.73
  -6   0   5    7.63    2.17
   6   0  -5    7.37    1.49
  -6   0   5    9.31    1.59
   5   0  -5    1.34    0.66
  -5   0   5    1.25    0.99
   5   0  -5    1.76    0.88
   5   0  -5    2.08    0.88
  -5   0   5    1.13    1.13
  -5   0   5    2.40    0.85
  -4   0   5   15.52    2.34
  -4   0   5   13.72    1.96
   4   0  -5   12.97    1.86
  -4   0   5   12.50    2.71
   4   0  -5   14.40    1.89
  -4   0   5   13.71    1.81
  -3   0   5   47.03    6.06
  -3   0   5   46.17    4.30
  -3   0   5   54.06    4.47
   3   0  -5   47.87    4.31
   3   0  -5   53.28    4.43
  -3   0   5   43.13    4.90
  -3   0   5   40.40    4.24
   2   0  -5   21.16    2.17
  -2   0   5   21.13    2.60
   2   0  -5   19.84    2.11
  -2   0   5   15.02    1.95
  -2   0   5   21.92    2.27
  -2   0   5   21.00    2.12
   1   0  -5    3.07    0.81
  -1   0   5    1.83    0.56
  -1   0   5    4.38    1.23
  -1   0   5    2.55    0.74
   1   0  -5    2.79    0.67
   0   0  -5    7.44    1.14
   0   0  -5    8.65    1.20
   0   0   5    6.72    1.48
   0   0  -5    9.64    1.62
   0   0  -5    7.21    1.30
   0   0   5    7.82    1.26
   0   0   5    7.96    1.12
   1   0   5  258.35   22.01
   1   0   5  204.13   19.84
   1   0   5  270.01   20.00
  -1   0  -5  256.03   21.89
  -1   0  -5  238.40   19.98
   1   0   5  245.21   20.40
  -1   0  -5  251.18   19.93
  -2   0  -5    3.92    0.97
   2   0   5    6.15    1.16
  -2   0  -5    4.77    1.14
  -2   0  -5    3.52    0.75
   2   0   5    5.22    1.08
  -2   0  -5    2.34    0.66
   2   0   5    3.81    1.30
  -3   0  -5  243.54   21.77
   3   0   5  239.33   21.97
  -3   0  -5  248.29   19.79
  -3   0  -5  247.66   19.87
   3   0   5  258.03   19.82
   3   0   5  227.21   20.27
  -3   0  -5  241.60   20.25
   3   0   5  235.18   19.82
   4   0   5   90.63    7.37
   4   0   5   64.13    7.93
   4   0   5   77.64    7.23
  -4   0  -5   93.74    7.41
  -4   0  -5   81.78    7.22
   4   0   5   84.77    7.22
  -4   0  -5   78.81    7.92
  -5   0  -5  125.22    9.86
  -5   0  -5  116.68   10.66
   5   0   5  108.53    9.61
   5   0   5   85.08   10.67
   5   0   5  117.43    9.64
  -5   0  -5  110.70    9.79
   6   0   5   49.18    5.76
  -6   0  -5   48.46    5.80
   6   0   5   64.65    5.39
  -6   0  -5   56.14    5.20
  -6   0  -5   53.36    5.24
  -6   0  -5   53.83    5.63
   6   0   5   51.61    6.00
  -7   0  -5   20.01    2.86
   7   0   5   25.04    3.17
  -7   0  -5   25.50    2.89
   7   0   5   25.40    4.15
  -7   0  -5   18.35    3.40
  -7   0  -5   23.42    3.14
   7   0   5   25.12    3.40
  -8   0  -5   26.60    3.64
   8   0   5   23.72    4.46
   8   0   5   30.15    3.92
  -8   0  -5   26.15    4.22
   8   0   5   32.14    3.86
   9   0   5   40.51    4.45
  -9   0  -5   37.24    5.54
   9   0   5   32.07    5.66
 -10   0  -5   -0.31    1.20
 -11   0  -5    4.78    2.26
 -12   0  -5    0.69    1.62
 -12  -1   5   -0.78    1.17
 -12   1   5    0.54    1.56
 -12   1   5    0.52    1.57
 -11  -1   5    0.83    1.36
 -11  -1   5    2.68    1.71
 -11   1   5   -1.39    1.06
  11   1  -5   -1.08    1.11
 -11   1   5    0.69    1.49
 -10  -1   5    2.36    1.62
  10  -1  -5    2.21    1.59
 -10  -1   5    3.10    1.65
  10   1  -5    3.86    1.53
 -10   1   5    1.90    1.57
 -10   1   5    2.98    1.68
   9  -1  -5    4.32    1.70
  -9  -1   5    4.16    1.77
  -9  -1   5    8.07    2.44
   9  -1  -5    4.50    1.54
  -9   1   5    5.56    2.03
   9   1  -5    8.47    1.94
   9   1  -5    2.19    1.44
  -9   1   5    1.91    1.41
  -8  -1   5    6.28    2.06
  -8  -1   5    5.77    2.16
   8  -1  -5    4.85    1.53
   8  -1  -5    4.34    1.73
   8   1  -5    6.17    1.69
  -8   1   5    5.91    1.79
  -8   1   5    2.14    1.08
   8   1  -5    4.26    1.91
  -8   1   5    6.40    2.05
  -7  -1   5   43.66    5.46
   7  -1  -5   32.92    4.16
  -7  -1   5   34.81    4.59
  -7   1   5   41.61    4.85
   7   1  -5   44.03    4.34
  -7   1   5   45.39    4.33
  -7   1   5   44.57    4.28
   7   1  -5   38.46    4.18
  -7   1   5   40.38    5.33
   6  -1  -5   41.61    4.91
   6  -1  -5   40.69    4.15
   6  -1  -5   35.97    3.86
  -6  -1   5   35.90    4.45
  -6  -1   5   42.32    5.07
   6  -1  -5   38.77    4.11
  -6   1   5   42.46    3.99
   6   1  -5   40.91    3.92
   6   1  -5   35.69    3.91
  -6   1   5   52.56    5.47
  -6   1   5   25.99    4.53
   6   1  -5   41.66    3.99
  -6   1   5   34.54    3.96
  -5  -1   5   50.55    5.49
   5  -1  -5   48.21    4.87
  -5  -1   5   51.23    6.14
   5  -1  -5   51.14    4.82
   5   1  -5   49.34    4.89
   5   1  -5   51.50    4.84
  -5   1   5   49.64    6.19
  -5   1   5   52.51    5.57
  -5   1   5   48.69    4.84
   5   1  -5   68.52    5.11
  -4  -1   5   51.88    5.71
   4  -1  -5   52.38    5.17
  -4  -1   5   68.61    6.78
   4  -1  -5   60.74    5.11
  -4   1   5   60.50    5.19
  -4   1   5   56.75    5.19
  -4   1   5   44.29    5.60
  -4   1   5   46.68    6.77
  -4   1   5   53.34    5.10
   4   1  -5   57.34    5.15
   4   1  -5   60.30    5.15
   4   1  -5   59.84    5.26
   3  -1  -5   53.59    4.13
  -3  -1   5   45.67    4.48
   3   1  -5   40.22    4.01
   3   1  -5   39.74    3.92
  -3   1   5   37.53    4.50
   3   1  -5   45.63    3.95
  -3   1   5   42.78    3.99
  -3   1   5   33.50    3.87
  -3   1   5   41.24    3.97
  -3   1   5   43.64    3.96
  -2  -1   5   88.39    8.42
  -2  -1   5  119.88   10.87
  -2  -1   5   86.35    9.22
   2  -1  -5  102.85    8.39
  -2   1   5  100.09    8.41
  -2   1   5   97.70    9.37
   2   1  -5  112.51    8.39
   2   1  -5  101.42    8.44
   2   1  -5  104.92    8.55
  -2   1   5   92.28    8.50
  -2   1   5   90.35    8.49
  -1  -1   5  148.35   11.12
  -1  -1   5  141.77   12.24
   1  -1  -5  130.94   11.00
   1  -1  -5  109.89   11.21
  -1   1   5  121.52   10.97
  -1   1   5  140.44   12.28
   1   1  -5  146.03   11.00
   1   1  -5  131.47   11.20
  -1   1   5  124.10   11.19
   0  -1  -5   83.19    8.26
   0  -1  -5   91.07    7.54
   0  -1  -5   93.94    7.48
   0  -1  -5   89.77    7.59
   0  -1   5  102.61    8.45
   0  -1   5   90.71    7.41
   0  -1   5   85.80    7.45
   0   1   5   87.31    8.36
   0   1   5   91.15    7.63
   0   1  -5   85.74    8.23
   0   1   5   80.81    7.45
   0   1  -5   88.70    7.61
   0   1  -5   76.85    7.45
   0   1  -5   84.77    7.42
  -1  -1  -5   33.45    2.99
  -1  -1  -5   36.30    3.53
   1  -1   5   37.26    3.00
  -1  -1  -5   33.80    3.12
  -1  -1  -5   30.00    2.98
   1  -1   5   25.23    3.31
  -1   1  -5   31.03    2.98
  -1   1  -5   30.69    2.98
   1   1   5   28.69    3.44
   1   1   5   29.68    3.01
   1   1   5   26.89    2.98
  -1   1  -5   27.03    3.30
  -1   1  -5   31.70    3.09
   1   1   5   30.53    2.99
  -2  -1  -5   58.49    6.01
  -2  -1  -5   55.76    5.33
   2  -1   5   72.43    6.24
  -2  -1  -5   51.13    5.42
   2  -1   5   63.17    5.40
  -2  -1  -5   58.24    5.42
   2  -1   5   55.72    5.31
   2   1   5   62.83    5.44
  -2   1  -5   64.82    5.49
  -2   1  -5   64.13    5.54
  -2   1  -5   68.94    5.45
   2   1   5   64.22    6.22
   2   1   5   50.19    5.36
  -2   1  -5   66.39    6.04
   2   1   5   63.11    5.49
   3  -1   5   12.38    1.97
   3  -1   5   22.22    3.05
  -3  -1  -5   16.46    1.87
   3  -1   5   13.95    2.10
  -3  -1  -5   13.57    2.02
  -3  -1  -5   16.32    2.25
  -3  -1  -5   20.02    2.74
   3   1   5   19.88    3.00
  -3   1  -5   17.11    1.95
  -3   1  -5   21.62    2.42
   3   1   5   16.34    1.92
  -3   1  -5   16.93    2.28
   3   1   5   15.26    2.23
   3   1   5   14.96    2.04
   4  -1   5    1.45    0.68
  -4  -1  -5    1.41    0.84
  -4  -1  -5    1.41    0.67
  -4  -1  -5    1.82    0.77
   4  -1   5    0.73    0.78
   4   1   5    2.85    0.94
  -4   1  -5    1.07    0.56
   4   1   5    1.59    0.75
  -4   1  -5    2.30    0.79
  -4   1  -5    1.18    0.80
  -4   1  -5    1.40    0.71
   4   1   5    2.00    0.73
   4   1   5    0.99    0.80
   5  -1   5    6.32    1.67
  -5  -1  -5    0.99    0.91
  -5  -1  -5    2.60    0.82
  -5  -1  -5    3.08    0.98
   5  -1   5    3.45    1.05
   5   1   5    3.53    1.00
  -5   1  -5    1.03    0.76
  -5   1  -5    1.77    0.84
  -5   1  -5    1.65    0.67
   5   1   5    1.85    0.82
   5   1   5    0.97    0.65
  -5   1  -5    4.56    1.38
   5   1   5    4.99    1.61
  -6  -1  -5    4.75    1.27
  -6  -1  -5    4.38    1.52
   6  -1   5    5.01    1.25
   6  -1   5    4.76    1.77
   6  -1   5    5.87    1.45
   6   1   5    3.12    1.44
  -6   1  -5    1.80    1.13
  -6   1  -5    5.03    1.35
   6   1   5    5.80    1.33
   6   1   5    5.11    1.26
   6   1   5    3.04    1.07
  -6   1  -5    4.27    1.16
   6   1   5    4.70    1.44
  -7  -1  -5    9.11    2.28
  -7  -1  -5    5.50    1.47
   7  -1   5    9.29    1.82
   7  -1   5    9.53    1.76
   7  -1   5    4.57    1.79
  -7  -1  -5    9.72    1.67
   7   1   5    3.69    1.74
  -7   1  -5    5.01    1.38
   7   1   5    6.49    1.75
   7   1   5    7.95    1.95
  -7   1  -5    6.98    1.47
  -7   1  -5    3.59    1.66
   8  -1   5   43.21    4.44
  -8  -1  -5   25.34    4.78
   8  -1   5   33.11    5.62
   8  -1   5   49.13    4.75
  -8  -1  -5   35.55    4.75
   8   1   5   41.51    4.45
  -8   1  -5   42.20    4.49
   8   1   5   33.21    5.63
  -8   1  -5   27.42    5.01
   8   1   5   53.84    5.37
  -9  -1  -5    8.02    2.46
  -9   1  -5    8.74    2.56
   9   1   5    5.90    2.30
   9   1   5   16.32    2.84
 -10  -1  -5    6.56    2.63
 -10   1  -5    6.71    2.33
  10   1   5   10.40    2.61
 -11  -1  -5   16.10    3.75
 -11   1  -5    8.70    2.78
 -12  -1  -5    2.61    1.99
 -12   1  -5    2.27    1.80
 -12  -2   5    3.08    2.03
 -12   2   5    3.60    2.15
 -11  -2   5    1.36    1.48
 -11  -2   5    5.98    2.49
 -11   2   5    0.43    1.36
 -11   2   5    4.53    2.20
  11   2  -5    3.17    1.56
  10  -2  -5    1.97    1.53
 -10  -2   5    5.10    2.19
 -10  -2   5    6.44    2.17
 -10   2   5    4.90    2.13
 -10   2   5    4.42    1.96
  10   2  -5    5.94    1.87
   9  -2  -5    9.37    2.15
  -9  -2   5   14.30    3.12
  -9  -2   5    8.12    2.37
   9  -2  -5   14.77    2.96
   9   2  -5   13.46    2.66
  -9   2   5   17.06    3.35
  -9   2   5    9.72    2.73
   8  -2  -5   40.55    4.99
   8  -2  -5   42.20    4.38
  -8  -2   5   34.45    5.12
  -8  -2   5   38.30    5.26
  -8   2   5   36.54    5.13
   8   2  -5   40.83    4.27
  -8   2   5   41.65    4.33
  -8   2   5   27.34    4.84
   7  -2  -5    6.31    1.83
   7  -2  -5    4.45    1.28
  -7  -2   5    6.18    2.16
  -7  -2   5    6.37    1.86
  -7  -2   5    5.05    1.16
  -7   2   5    3.38    1.53
   7   2  -5    5.88    1.45
   7   2  -5    4.64    1.14
   7   2  -5    5.33    1.39
  -7   2   5    3.44    1.27
  -7   2   5    5.17    1.90
  -7   2   5    7.41    1.58
  -6  -2   5   38.52    4.85
   6  -2  -5   38.39    5.17
  -6  -2   5   47.02    4.24
  -6  -2   5   43.11    5.64
  -6   2   5   50.54    4.57
  -6   2   5   45.60    5.13
   6   2  -5   47.19    4.36
   6   2  -5   43.61    4.36
  -6   2   5   37.45    5.39
   6   2  -5   42.98    4.36
  -6   2   5   51.61    4.54
  -5  -2   5    0.26    0.79
   5  -2  -5    0.53    1.14
  -5  -2   5    0.45    0.93
  -5  -2   5    0.34    0.45
   5   2  -5    0.67    1.60
   5   2  -5   -0.53    0.38
   5   2  -5    0.53    0.50
  -5   2   5    0.41    0.60
  -5   2   5   -0.24    0.56
  -5   2   5    0.62    0.58
  -5   2   5    0.04    0.65
  -5   2   5    2.19    1.58
   5   2  -5   -0.30    0.41
  -4  -2   5   19.29    2.82
  -4  -2   5   19.72    3.30
   4  -2  -5   16.64    2.43
  -4  -2   5   17.66    1.96
  -4   2   5   16.49    2.44
  -4   2   5   22.97    2.38
  -4   2   5   12.87    2.43
   4   2  -5   19.85    2.06
   4   2  -5   21.55    2.25
   4   2  -5   13.47    2.07
  -4   2   5   20.93    2.19
  -3  -2   5    6.61    1.47
   3  -2  -5    6.49    1.26
  -3  -2   5    6.79    1.12
  -3  -2   5    8.96    2.00
  -3   2   5    5.34    1.28
   3   2  -5    6.35    1.13
  -3   2   5    7.54    1.29
   3   2  -5    8.23    1.23
   3   2  -5    7.05    1.10
  -3   2   5    4.67    1.40
  -3   2   5    8.15    1.50
  -3   2   5    6.68    1.19
  -2  -2   5   16.13    2.35
  -2  -2   5   18.79    1.83
  -2  -2   5   17.40    2.80
   2  -2  -5   16.84    1.94
   2   2  -5   17.65    1.84
   2   2  -5   18.02    1.83
  -2   2   5   15.23    1.81
  -2   2   5   17.32    1.88
   2   2  -5   16.10    1.83
  -2   2   5   13.41    1.93
  -2   2   5   13.50    2.36
  -1  -2   5   55.56    4.75
  -1  -2   5   49.50    5.37
  -1  -2   5   61.07    6.19
   1  -2  -5   63.56    5.00
   1  -2  -5   52.38    4.82
  -1   2   5   50.72    4.86
  -1   2   5   52.92    4.91
  -1   2   5   44.41    5.41
   1   2  -5   58.76    4.80
   1   2  -5   57.97    4.91
   0  -2   5  127.48   11.73
   0  -2  -5  130.41   10.64
   0  -2  -5  130.94   10.59
   0  -2  -5  141.92   11.78
   0  -2   5  138.50   10.52
   0   2   5  121.74   10.60
   0   2  -5  118.20   11.55
   0   2   5  135.02   11.83
   0   2  -5  123.94   10.54
   0   2  -5  119.05   10.56
   0   2  -5  118.78   10.73
  -1  -2  -5   34.69    3.90
  -1  -2  -5   43.42    3.91
  -1  -2  -5   42.94    4.47
   1  -2   5   48.95    4.59
   1  -2   5   40.35    3.81
  -1  -2  -5   43.41    3.90
   1   2   5   43.26    4.00
  -1   2  -5   49.60    3.95
  -1   2  -5   41.21    4.30
   1   2   5   44.13    4.02
  -1   2  -5   39.56    3.96
   1   2   5   42.87    4.48
  -1   2  -5   41.48    3.93
  -2  -2  -5  123.28   11.22
  -2  -2  -5  139.45   11.40
  -2  -2  -5  123.54   12.37
   2  -2   5  127.58   12.50
  -2   2  -5  164.55   11.33
   2   2   5  138.49   12.57
  -2   2  -5  130.43   11.45
   2   2   5  132.17   11.23
  -2   2  -5  145.52   12.39
  -2   2  -5  128.87   11.27
   2   2   5  128.22   11.25
  -3  -2  -5  159.05   13.86
   3  -2   5  178.87   12.56
  -3  -2  -5  156.03   12.53
   3  -2   5  139.74   13.90
  -3   2  -5  136.60   13.69
  -3   2  -5  152.01   12.80
   3   2   5  144.33   12.44
   3   2   5  140.36   13.95
  -3   2  -5  152.17   12.48
   3   2   5  153.00   12.56
  -3   2  -5  135.65   12.54
   4  -2   5   82.05   10.25
   4  -2   5  114.27    9.37
  -4  -2  -5  104.35   10.30
  -4  -2  -5  108.71    9.34
  -4   2  -5  124.58   10.46
  -4   2  -5  123.97    9.41
  -4   2  -5  100.74    9.36
   4   2   5  113.18   10.61
   4   2   5  119.15    9.46
   4   2   5  108.73    9.32
  -4   2  -5  101.39    9.53
  -5  -2  -5   20.11    3.09
  -5  -2  -5   21.27    2.39
   5  -2   5   30.07    3.96
   5  -2   5   27.71    2.55
  -5   2  -5   16.70    2.48
  -5   2  -5   16.21    2.45
  -5   2  -5   15.28    2.91
   5   2   5   14.69    2.91
  -5   2  -5   20.16    2.72
   5   2   5   14.80    2.33
   5   2   5   23.47    2.86
   6  -2   5   36.34    4.57
  -6  -2  -5   47.62    4.49
  -6  -2  -5   46.73    5.09
   6  -2   5   40.53    5.16
   6  -2   5   45.98    4.47
   6   2   5   45.43    4.44
  -6   2  -5   45.03    4.51
  -6   2  -5   49.92    4.49
   6   2   5   46.00    4.49
   6   2   5   43.50    5.19
   6   2   5   50.01    5.27
  -6   2  -5   43.39    4.51
  -6   2  -5   39.48    5.01
   6   2   5   42.49    4.43
  -7  -2  -5   56.63    6.77
   7  -2   5   69.81    6.18
   7  -2   5   67.30    6.58
   7  -2   5   59.79    7.02
  -7  -2  -5   62.74    6.03
   7   2   5   56.09    5.99
   7   2   5   68.16    6.27
   7   2   5   63.01    7.14
  -7   2  -5   58.93    6.14
  -7   2  -5   59.20    6.09
   7   2   5   69.63    7.22
   8  -2   5   19.07    3.82
  -8  -2  -5   19.72    3.59
   8  -2   5   19.22    3.05
   8   2   5   24.15    3.53
  -8   2  -5   18.92    3.47
  -8   2  -5   23.15    3.22
   8   2   5   18.95    3.63
  -9  -2  -5    8.21    2.63
  -9   2  -5   11.60    2.44
   9   2   5   13.49    2.60
   9   2   5   11.80    3.27
  -9   2  -5   11.12    3.09
 -10  -2  -5    7.21    2.48
  10   2   5    5.54    1.81
 -10   2  -5    9.15    2.81
 -11  -2  -5   -0.13    1.34
 -11   2  -5    2.00    1.77
 -12  -2  -5   -1.31    1.03
 -12   2  -5    0.77    1.66
 -12  -3   5    0.33    1.55
  12   3  -5    0.29    1.47
 -12   3   5   -0.32    1.45
  11  -3  -5    3.55    1.97
 -11  -3   5    2.80    1.71
 -11   3   5    2.29    1.81
  11   3  -5    3.47    1.66
 -11   3   5    3.07    2.06
 -10  -3   5   -0.10    1.09
 -10  -3   5    1.55    1.61
  10  -3  -5    0.15    1.25
 -10   3   5    1.20    1.28
  10   3  -5    0.86    1.00
 -10   3   5   -0.56    1.25
  -9  -3   5    3.09    1.60
   9  -3  -5    3.15    1.65
  -9  -3   5    2.98    1.78
  -9   3   5    1.78    1.35
   9   3  -5    2.17    1.12
  -9   3   5    1.26    1.33
  -9   3   5    2.24    1.21
   8  -3  -5   16.39    2.95
   8  -3  -5   24.42    4.06
  -8  -3   5   28.53    4.54
  -8  -3   5   24.33    3.84
  -8   3   5   21.70    3.90
  -8   3   5   30.93    3.97
  -8   3   5   24.33    4.25
   8   3  -5   26.40    3.42
  -7  -3   5    7.22    2.23
   7  -3  -5   11.28    2.49
  -7  -3   5    9.37    1.48
  -7  -3   5    7.34    1.79
  -7   3   5    4.48    1.66
   7   3  -5    7.12    1.65
   7   3  -5    5.40    1.35
   7   3  -5    7.14    1.58
  -7   3   5    5.67    1.49
  -7   3   5    8.39    1.90
  -7   3   5    3.76    1.79
  -6  -3   5   40.58    5.06
  -6  -3   5   51.73    5.97
   6  -3  -5   41.28    5.46
  -6  -3   5   46.52    4.31
   6   3  -5   48.42    4.53
  -6   3   5   31.67    6.02
  -6   3   5   47.73    4.68
  -6   3   5   51.36    4.81
   6   3  -5   46.35    4.60
  -6   3   5   50.81    4.77
   6   3  -5   48.76    4.59
  -6   3   5   52.83    5.47
  -5  -3   5   10.74    1.39
   5  -3  -5    6.70    2.03
  -5  -3   5   11.64    2.46
  -5  -3   5    7.30    1.62
  -5   3   5    6.39    1.69
   5   3  -5    5.99    1.30
  -5   3   5    5.93    1.54
   5   3  -5    7.03    1.33
   5   3  -5    7.64    2.55
  -5   3   5    5.72    1.41
   5   3  -5    5.87    1.34
  -5   3   5    5.67    1.24
   4  -3  -5  149.26   15.10
  -4  -3   5  140.16   13.90
  -4  -3   5  164.49   12.40
  -4  -3   5  131.97   15.21
   4   3  -5  148.46   12.78
   4   3  -5  157.53   12.77
   4   3  -5  139.50   12.55
  -4   3   5  168.97   12.96
  -4   3   5  145.90   13.99
  -4   3   5  152.48   12.77
   4   3  -5  143.97   12.52
  -4   3   5  161.13   12.74
  -3  -3   5   70.01    8.36
  -3  -3   5   82.35    6.69
   3  -3  -5   84.47    8.49
  -3  -3   5   75.06    7.63
  -3   3   5   87.50    7.10
  -3   3   5   71.88    6.89
   3   3  -5   80.98    6.83
   3   3  -5   77.38    6.87
  -3   3   5   83.96    7.89
  -3   3   5   79.80    7.05
   3   3  -5   78.05    6.86
  -2  -3   5  112.91    8.87
  -2  -3   5  104.01   10.02
   2  -3  -5  103.25   10.98
  -2  -3   5  115.47   11.12
   2   3  -5  104.58    9.08
  -2   3   5  119.43   10.30
   2   3  -5  109.24    8.99
  -2   3   5  105.91    9.35
   2   3  -5  103.09    9.15
  -2   3   5  101.46    9.10
  -1  -3   5   66.80    6.23
  -1  -3   5   66.28    5.41
  -1  -3   5   66.13    6.89
  -1   3   5   62.67    5.67
   1   3  -5   61.91    5.52
   1   3  -5   65.07    5.51
   1   3  -5   65.62    6.15
  -1   3   5   62.07    6.34
   1   3  -5   60.90    5.56
  -1   3   5   61.73    5.69
   0  -3  -5  117.75   10.43
   0  -3   5  115.40   11.23
   0  -3   5  116.32   10.39
   0  -3   5  121.73    9.23
   0   3  -5  118.89   10.30
   0   3   5  122.33    9.63
   0   3  -5  107.64    9.33
   0   3  -5  104.33    9.45
   0   3  -5  105.48    9.26
   0   3   5  100.91    9.37
   0   3   5  100.46   10.38
  -1  -3  -5   37.36    4.35
   1  -3   5   46.62    4.51
   1  -3   5   46.14    4.67
  -1  -3  -5   37.58    3.78
   1  -3   5   45.59    3.78
   1   3   5   37.96    3.87
   1   3   5   42.16    3.91
  -1   3  -5   39.34    4.24
  -1   3  -5   40.92    3.84
   1   3   5   45.53    3.97
  -1   3  -5   41.01    3.87
   1   3   5   37.23    4.37
  -1   3  -5   47.13    3.95
  -2  -3  -5   45.40    4.73
   2  -3   5   46.83    4.80
   2  -3   5   39.74    4.04
  -2  -3  -5   47.03    4.15
   2  -3   5   45.25    5.08
   2   3   5   49.63    4.92
  -2   3  -5   47.44    4.66
  -2   3  -5   40.47    4.15
   2   3   5   45.78    4.24
  -2   3  -5   43.07    4.18
  -2   3  -5   40.11    4.08
   2   3   5   53.92    4.26
   2   3   5   45.71    4.23
   3  -3   5    0.39    0.43
  -3  -3  -5    2.84    0.99
   3  -3   5    3.28    1.19
  -3  -3  -5    0.78    0.48
   3   3   5    3.11    1.15
   3   3   5    0.40    0.52
  -3   3  -5    2.23    0.81
  -3   3  -5    0.78    0.48
  -3   3  -5    0.63    0.66
   3   3   5    1.15    0.54
   3   3   5    1.30    0.62
  -3   3  -5    1.62    0.66
  -4  -3  -5    1.93    0.76
   4  -3   5    0.82    0.90
   4  -3   5    3.20    0.94
  -4  -3  -5    1.98    1.00
   4   3   5    2.39    0.81
  -4   3  -5    1.80    0.86
  -4   3  -5    2.63    0.89
   4   3   5    2.20    0.72
  -4   3  -5    7.45    1.62
  -4   3  -5    0.50    0.55
   4   3   5    2.37    1.09
   4   3   5    2.66    0.82
  -5  -3  -5    8.01    1.49
   5  -3   5   11.38    2.44
  -5  -3  -5    7.27    1.75
  -5   3  -5   10.42    2.21
   5   3   5   10.30    1.65
  -5   3  -5   13.80    1.95
  -5   3  -5   12.51    1.85
   5   3   5    7.04    1.85
  -5   3  -5    9.45    1.64
   5   3   5   10.46    1.89
   6  -3   5   18.60    2.78
  -6  -3  -5   15.08    2.92
   6  -3   5   19.14    2.14
   6  -3   5   15.49    3.19
  -6  -3  -5   15.18    2.60
   6   3   5   18.57    2.67
   6   3   5   18.65    2.52
   6   3   5   22.94    2.89
   6   3   5   18.51    3.36
  -6   3  -5   18.68    2.73
  -6   3  -5   14.99    2.90
   6   3   5   17.81    3.21
  -6   3  -5   19.76    2.59
  -6   3  -5   16.97    2.82
   7  -3   5   31.03    2.80
  -7  -3  -5   22.07    3.96
   7  -3   5   15.13    3.45
   7  -3   5   31.88    3.26
   7   3   5   17.77    3.82
  -7   3  -5   14.47    3.25
  -7   3  -5   22.60    3.13
  -7   3  -5   25.27    3.41
  -7   3  -5   27.67    3.09
   7   3   5   21.88    3.22
   7   3   5   23.64    3.46
   8  -3   5    5.80    2.16
  -8  -3  -5    5.63    1.90
  -8   3  -5    3.68    1.39
   8   3   5    8.01    1.68
   8   3   5    4.54    2.06
  -8   3  -5    2.99    1.68
  -9  -3  -5    7.13    2.30
   9   3   5    5.28    2.26
   9   3   5   10.95    2.30
  -9   3  -5    7.93    2.54
  -9   3  -5   12.69    2.42
 -10  -3  -5   13.13    3.44
  10   3   5   17.84    3.22
 -10   3  -5   15.98    3.64
 -11  -3  -5    9.65    2.90
  11   3   5    4.99    2.17
 -11   3  -5    6.76    2.74
 -12  -3  -5   12.71    3.66
 -12   3  -5   11.59    3.25
 -12  -4   5    0.99    1.41
  12   4  -5    0.59    1.15
 -12   4   5   -0.18    1.72
  11  -4  -5    7.21    2.60
 -11  -4   5    4.58    2.14
  11   4  -5    6.13    1.86
 -11   4   5    6.22    2.41
  10  -4  -5   12.24    3.16
 -10  -4   5   16.20    4.05
 -10  -4   5    7.07    2.23
 -10   4   5    5.44    2.37
  10   4  -5    8.69    2.21
 -10   4   5   13.03    2.96
  -9  -4   5   10.89    2.66
  -9  -4   5   16.60    3.72
   9  -4  -5   16.46    3.38
   9   4  -5   14.89    2.89
  -9   4   5   10.90    2.96
  -9   4   5   17.30    3.43
  -9   4   5   13.97    2.88
  -8  -4   5    5.17    1.81
  -8  -4   5   10.08    2.60
   8  -4  -5    7.24    2.21
   8   4  -5    5.96    1.51
  -8   4   5   10.45    2.53
  -8   4   5    4.02    1.39
  -8   4   5    2.34    1.50
   7  -4  -5   22.81    4.30
  -7  -4   5   23.50    4.40
  -7  -4   5   31.14    4.27
  -7   4   5   26.05    4.49
   7   4  -5   28.08    3.10
  -7   4   5   29.47    4.27
  -7   4   5   29.62    3.29
  -7   4   5   32.86    4.13
   7   4  -5   26.98    3.21
   7   4  -5   28.63    3.17
  -6  -4   5   12.76    2.57
   6  -4  -5   23.97    3.72
  -6  -4   5   20.15    3.65
  -6  -4   5   19.20    2.01
  -6   4   5   14.12    2.80
   6   4  -5   13.76    2.17
   6   4  -5   12.73    2.30
  -6   4   5   13.50    2.47
  -6   4   5   14.71    3.66
   6   4  -5   20.13    2.17
  -6   4   5   22.92    3.08
  -6   4   5   23.18    2.77
   5  -4  -5    2.39    1.52
  -5  -4   5    0.75    0.77
  -5  -4   5    1.22    1.16
  -5  -4   5    0.31    0.42
  -5   4   5    1.70    1.03
   5   4  -5    1.29    0.64
  -5   4   5    0.04    0.53
   5   4  -5    0.90    0.57
   5   4  -5    1.35    0.64
   5   4  -5    0.32    0.49
  -5   4   5    0.79    0.67
  -5   4   5    1.04    0.69
  -4  -4   5    4.38    1.56
   4  -4  -5    4.43    1.65
  -4  -4   5    5.71    0.81
  -4  -4   5    2.71    0.97
   4   4  -5    3.31    0.91
  -4   4   5    2.77    0.88
  -4   4   5    3.14    1.01
   4   4  -5    0.87    0.58
  -4   4   5    2.06    1.08
   4   4  -5    2.65    1.48
   4   4  -5    2.89    0.76
   4   4  -5    5.76    0.95
  -4   4   5    3.90    1.10
  -3  -4   5   43.71    3.58
  -3  -4   5   35.05    4.86
  -3  -4   5   42.74    4.32
   3  -4  -5   42.75    5.14
  -3   4   5   37.37    4.07
   3   4  -5   36.21    3.73
  -3   4   5   42.44    4.58
  -3   4   5   43.51    3.94
  -3   4   5   41.54    3.98
   3   4  -5   43.99    3.80
   3   4  -5   40.87    5.31
   3   4  -5   42.33    3.78
  -2  -4   5    5.27    1.27
   2  -4  -5    6.56    1.18
  -2  -4   5    3.86    1.35
   2  -4  -5    4.95    1.70
  -2  -4   5    6.24    0.81
  -2   4   5    4.76    1.35
   2   4  -5    4.49    0.81
  -2   4   5    5.14    1.20
   2   4  -5    5.40    0.98
   2   4  -5    4.90    0.83
   2   4  -5    4.25    1.77
  -1  -4   5   11.48    1.32
   1  -4  -5   13.33    2.71
  -1  -4   5    9.76    2.21
   1  -4  -5   15.21    1.87
  -1  -4   5   11.02    1.95
   1   4  -5   17.17    1.62
  -1   4   5   10.95    1.63
   1   4  -5   12.56    1.93
   1   4  -5   14.50    1.47
   1   4  -5   13.10    1.43
  -1   4   5   16.46    1.74
  -1   4   5   15.22    2.31
   0  -4   5   48.57    4.10
   0  -4   5   45.84    4.82
   0  -4  -5   44.61    4.89
   0  -4  -5   53.78    5.71
   0  -4   5   46.23    5.24
   0  -4  -5   52.04    4.35
   0   4   5   50.46    4.39
   0   4  -5   45.25    4.68
   0   4   5   42.76    4.30
   0   4  -5   48.65    4.28
   0   4   5   49.59    4.98
   0   4  -5   45.29    4.22
   0   4  -5   47.78    4.25
   1  -4   5   18.16    2.73
  -1  -4  -5   15.89    2.01
   1  -4   5   20.87    2.60
  -1  -4  -5   26.24    3.55
   1  -4   5   19.37    2.32
   1  -4   5   19.52    1.96
  -1  -4  -5   15.20    2.54
   1   4   5   21.71    2.19
   1   4   5   17.70    2.78
  -1   4  -5   19.85    2.08
  -1   4  -5   19.80    2.12
  -1   4  -5   20.49    2.38
   1   4   5   21.41    2.16
   1   4   5   23.38    2.28
  -1   4  -5   19.64    2.13
   2  -4   5   77.77    7.42
  -2  -4  -5   76.66    7.20
  -2  -4  -5   73.67    6.30
  -2  -4  -5   68.38    7.61
   2  -4   5   70.92    7.15
   2  -4   5   70.92    6.25
   2   4   5   75.30    7.29
   2   4   5   71.86    6.33
  -2   4  -5   70.76    6.99
  -2   4  -5   82.49    6.53
   2   4   5   59.60    6.42
  -2   4  -5   74.10    6.34
  -2   4  -5   69.30    6.36
   2   4   5   77.58    6.46
   3  -4   5   54.34    6.22
   3  -4   5   66.73    6.25
   3  -4   5   62.62    5.46
  -3  -4  -5   60.29    5.46
  -3  -4  -5   58.36    6.19
  -3   4  -5   54.34    6.06
  -3   4  -5   59.10    5.58
   3   4   5   60.36    5.58
   3   4   5   73.92    6.59
   3   4   5   63.87    5.62
  -3   4  -5   65.66    5.66
   3   4   5   59.46    5.55
  -3   4  -5   59.20    5.48
   4  -4   5  109.91    8.81
  -4  -4  -5   91.86    9.65
   4  -4   5  104.43    9.81
   4  -4   5  102.98    9.93
  -4  -4  -5  100.08    8.64
  -4   4  -5   97.98    8.79
   4   4   5  100.38    8.90
   4   4   5   79.22    9.73
  -4   4  -5  109.68    9.85
  -4   4  -5  114.97    8.85
  -4   4  -5  101.49    8.96
   4   4   5  101.47    8.80
   4   4   5   98.72    8.71
  -5  -4  -5   67.38    7.60
   5  -4   5   85.99    6.95
  -5  -4  -5   71.30    7.60
   5  -4   5   67.28    7.75
  -5  -4  -5   78.32    6.76
   5  -4   5   71.48    7.28
   5  -4   5   78.24    7.28
  -5   4  -5   87.25    7.12
  -5   4  -5   76.94    6.86
   5   4   5   78.27    6.93
   5   4   5   78.52    6.89
   5   4   5   78.04    6.82
  -5   4  -5   80.02    7.80
  -5   4  -5   75.38    6.89
   5   4   5   63.53    7.65
  -6  -4  -5  119.80    9.50
   6  -4   5  114.99    9.54
   6  -4   5  107.83   10.88
  -6  -4  -5  113.70   10.72
  -6   4  -5  118.67    9.88
   6   4   5  107.27    9.56
   6   4   5  107.73    9.52
   6   4   5  104.33    9.68
  -6   4  -5   98.76    9.48
   6   4   5  111.36   10.82
  -6   4  -5   97.28   10.54
  -6   4  -5   96.63    9.55
  -7  -4  -5   33.63    3.87
  -7  -4  -5   37.75    4.72
   7  -4   5   42.41    5.83
  -7   4  -5   38.65    4.74
   7   4   5   39.00    5.60
  -7   4  -5   39.04    4.25
   7   4   5   38.69    4.05
  -7   4  -5   41.62    4.24
  -8  -4  -5   23.56    3.96
   8   4   5   19.60    3.20
  -8   4  -5   21.95    3.61
  -8   4  -5   24.78    4.36
   8   4   5   28.29    4.65
  -9  -4  -5    5.41    2.09
  -9   4  -5    7.43    2.48
   9   4   5    7.06    1.90
  -9   4  -5    6.71    2.01
   9   4   5    9.59    2.99
 -10  -4  -5    1.63    1.71
  10   4   5    2.28    1.61
 -10   4  -5    3.76    1.90
 -11  -4  -5   -0.11    1.40
  11   4   5    2.71    1.43
 -11   4  -5    1.01    1.55
 -12  -4  -5   -1.24    1.38
 -12   4  -5   -0.05    1.61
 -12  -5   5   -1.01    1.29
  12   5  -5    0.96    1.40
 -12   5   5    0.69    1.86
 -11  -5   5    0.48    1.35
  11  -5  -5    2.06    2.01
  11   5  -5   -0.03    1.22
 -11   5   5   -0.27    1.59
 -10  -5   5    4.14    1.91
  10  -5  -5    1.84    1.89
  10   5  -5    2.48    1.35
 -10   5   5    2.63    1.93
  -9  -5   5    9.51    2.32
   9  -5  -5    7.69    2.61
  -9  -5   5    6.39    2.69
  -9   5   5    9.62    2.54
  -9   5   5    3.18    1.47
  -9   5   5    6.87    2.47
   9   5  -5    8.12    1.99
  -8  -5   5    4.78    1.69
  -8  -5   5    7.10    2.43
   8  -5  -5    4.62    2.02
  -8   5   5    7.96    1.93
  -8   5   5    1.40    1.22
   8   5  -5    3.41    1.14
   8   5  -5    5.06    1.38
  -8   5   5    3.02    1.79
   7  -5  -5   15.79    3.37
  -7  -5   5   11.63    3.00
  -7  -5   5   13.09    2.51
  -7   5   5   15.50    3.03
  -7   5   5    6.85    2.65
   7   5  -5   14.82    2.22
  -7   5   5   13.85    2.13
   7   5  -5   11.37    2.10
  -7   5   5   13.63    2.57
  -6  -5   5    2.35    1.07
  -6  -5   5    5.69    2.07
   6  -5  -5    7.10    2.27
  -6   5   5    6.35    1.58
   6   5  -5    5.84    1.15
  -6   5   5    4.07    1.39
   6   5  -5    3.53    1.17
   6   5  -5    3.98    1.01
  -6   5   5    1.70    1.16
  -6   5   5    4.72    1.20
  -5  -5   5   82.70    8.46
  -5  -5   5   71.92    7.27
   5  -5  -5   79.27    8.30
   5   5  -5   71.77    6.54
  -5   5   5   60.89    7.41
   5   5  -5   68.75    6.50
   5   5  -5   70.98    6.48
  -5   5   5   86.76    6.97
  -5   5   5   75.55    6.86
   5   5  -5   74.11    6.51
  -5   5   5   71.78    6.77
  -4  -5   5   20.69    2.76
  -4  -5   5   18.81    3.48
   4  -5  -5   26.22    3.99
   4   5  -5   17.70    1.89
   4   5  -5   14.75    2.11
  -4   5   5   15.90    2.48
   4   5  -5   18.84    1.97
  -4   5   5   15.20    2.28
  -4   5   5   10.66    2.46
  -4   5   5   16.36    2.28
   4   5  -5   18.24    1.89
  -3  -5   5   64.43    6.56
  -3  -5   5   65.80    7.51
   3  -5  -5   60.44    7.54
  -3   5   5   52.09    5.94
   3   5  -5   73.54    5.88
   3   5  -5   67.78    5.84
  -3   5   5   69.71    6.33
   3   5  -5   83.97    8.00
   3   5  -5   73.52    5.88
   3   5  -5   73.00    5.98
  -3   5   5   54.38    6.64
  -3   5   5   74.46    6.14
  -2  -5   5   72.38    6.83
   2  -5  -5   65.44    7.82
   2  -5  -5   72.49    6.25
  -2  -5   5   71.74    7.78
  -2   5   5   70.65    6.32
   2   5  -5   72.87    6.09
   2   5  -5   94.09    8.32
   2   5  -5   73.02    6.76
   2   5  -5   70.07    6.09
  -2   5   5   63.99    7.07
   2   5  -5   67.90    6.06
   1  -5  -5   34.21    3.11
  -1  -5   5   32.00    3.92
   1  -5  -5   38.28    4.29
  -1  -5   5   39.60    3.52
  -1   5   5   33.33    3.68
   1   5  -5   28.34    2.85
   1   5  -5   39.28    4.59
  -1   5   5   25.78    3.01
   1   5  -5   32.18    2.96
   1   5  -5   31.22    3.26
   1   5  -5   28.94    2.80
   0  -5  -5   28.49    3.83
   0  -5   5   30.76    3.66
   0  -5  -5   34.48    2.89
   0  -5   5   30.11    3.24
   0  -5  -5   37.65    3.53
   0   5  -5   26.45    2.79
   0   5  -5   24.95    2.62
   0   5  -5   34.70    3.23
   0   5   5   30.67    3.03
   0   5  -5   29.24    2.83
   0   5   5   29.17    3.45
   0   5  -5   27.69    2.72
   0   5   5   29.12    2.94
  -1  -5  -5   30.88    4.32
  -1  -5  -5   35.14    3.36
  -1  -5  -5   40.12    4.08
   1  -5   5   33.02    3.92
   1  -5   5   35.48    4.13
  -1   5  -5   38.17    3.48
  -1   5  -5   41.69    3.91
  -1   5  -5   43.91    3.47
   1   5   5   34.82    3.49
  -1   5  -5   33.86    3.37
   1   5   5   40.85    4.13
   1   5   5   31.14    3.45
   1   5   5   40.39    3.63
  -2  -5  -5   18.37    1.90
   2  -5   5   16.02    1.79
  -2  -5  -5   17.14    2.57
   2  -5   5   15.99    2.18
   2  -5   5   15.70    2.47
   2  -5   5   17.08    2.12
  -2  -5  -5   10.66    2.45
  -2   5  -5   17.30    1.96
  -2   5  -5   18.30    2.51
  -2   5  -5   16.19    1.88
   2   5   5   17.42    2.21
   2   5   5   14.86    2.14
   2   5   5   17.12    1.92
   2   5   5   19.29    2.81
  -2   5  -5   19.86    1.96
  -3  -5  -5   30.45    3.04
  -3  -5  -5   29.26    3.86
   3  -5   5   28.65    3.64
  -3  -5  -5   34.31    3.78
   3  -5   5   35.51    3.14
   3  -5   5   27.82    3.37
  -3   5  -5   27.00    3.43
  -3   5  -5   30.82    3.19
  -3   5  -5   38.33    3.28
   3   5   5   31.86    3.24
   3   5   5   31.49    3.84
   3   5   5   35.05    3.24
  -3   5  -5   29.41    3.19
   3   5   5   35.44    3.25
  -4  -5  -5    4.69    1.41
   4  -5   5    4.05    1.45
  -4  -5  -5    4.17    1.01
   4  -5   5    7.59    1.29
  -4  -5  -5    2.67    1.14
   4  -5   5    5.20    0.81
  -4   5  -5    4.12    1.30
  -4   5  -5    5.35    1.22
  -4   5  -5    4.14    1.10
  -4   5  -5    6.01    1.25
   4   5   5    4.03    1.04
   4   5   5    3.16    1.36
   4   5   5    4.20    1.06
   4   5   5    3.34    0.98
  -5  -5  -5    4.99    1.22
   5  -5   5    7.49    1.48
   5  -5   5    6.22    1.80
  -5  -5  -5    6.12    1.49
  -5  -5  -5    6.60    1.71
  -5   5  -5   10.37    1.67
   5   5   5    6.50    1.45
   5   5   5    8.55    1.64
   5   5   5    5.75    1.27
  -5   5  -5    6.31    1.73
  -5   5  -5    7.02    1.48
   5   5   5    9.67    2.21
  -5   5  -5    5.22    1.43
   6  -5   5    7.32    2.20
  -6  -5  -5   14.57    2.12
  -6  -5  -5   12.30    2.61
   6   5   5   11.10    2.67
  -6   5  -5   11.49    2.21
   6   5   5   13.80    2.14
  -6   5  -5   10.55    2.47
  -6   5  -5   14.38    2.29
   6   5   5   14.97    2.14
   6   5   5   12.55    2.26
  -7  -5  -5    1.33    1.18
  -7   5  -5    1.70    0.91
  -7   5  -5    0.38    0.85
  -7   5  -5    1.69    1.32
   7   5   5    0.68    0.76
   7   5   5    0.75    1.24
  -8  -5  -5    7.22    2.11
  -8   5  -5    5.47    2.08
   8   5   5    6.27    1.71
  -8   5  -5    9.77    2.19
   8   5   5    8.65    2.63
  -9  -5  -5   14.22    3.38
   9   5   5   14.46    3.68
   9   5   5   20.61    3.00
  -9   5  -5   19.86    3.16
  -9   5  -5   13.05    3.22
 -10  -5  -5    4.09    2.01
 -10   5  -5    4.77    2.21
 -10   5  -5    5.07    1.89
  10   5   5    5.51    1.81
 -11  -5  -5   17.54    3.90
  11   5   5   17.69    3.27
 -11   5  -5   16.89    3.92
  11  -6  -5   11.68    3.45
 -11  -6   5    5.00    2.06
 -11   6   5    5.42    2.42
  11   6  -5    4.90    1.91
  10  -6  -5    5.29    2.40
 -10  -6   5    1.95    1.42
  10   6  -5    3.72    1.47
 -10   6   5    3.05    1.83
  -9  -6   5    3.13    1.52
   9  -6  -5    6.62    2.52
  -9   6   5    4.17    1.97
   9   6  -5    6.30    1.85
  -9   6   5    3.99    1.63
  -9   6   5    4.60    2.01
  -8  -6   5    1.01    1.03
  -8  -6   5    1.69    1.61
   8  -6  -5    1.66    1.72
   8   6  -5    2.16    1.06
  -8   6   5    4.95    1.95
  -8   6   5    2.41    1.50
  -8   6   5    0.84    1.25
   8   6  -5    1.06    0.81
  -7  -6   5   42.63    6.03
  -7  -6   5   32.63    4.01
   7  -6  -5   40.63    5.84
   7   6  -5   32.81    3.56
   7   6  -5   33.74    3.66
  -7   6   5   35.09    5.12
  -7   6   5   35.18    3.91
  -7   6   5   21.39    5.14
  -7   6   5   32.84    4.44
  -6  -6   5    2.35    1.14
  -6  -6   5    3.16    1.67
   6  -6  -5    3.98    1.86
  -6   6   5    2.48    1.03
   6   6  -5    3.63    1.00
  -6   6   5    4.49    1.14
   6   6  -5    4.54    1.14
  -6   6   5    2.22    1.25
   6   6  -5    3.97    1.14
  -5  -6   5   10.92    1.97
   5  -6  -5    9.55    2.63
  -5  -6   5    7.83    2.26
  -5   6   5    7.11    1.67
  -5   6   5    9.99    1.89
   5   6  -5    9.67    1.47
  -5   6   5   12.97    2.03
   5   6  -5   10.81    1.61
   5   6  -5    7.89    1.52
  -5   6   5    8.32    2.08
   5   6  -5    9.07    1.37
  -4  -6   5    8.98    2.34
   4  -6  -5    8.94    2.43
  -4  -6   5    7.32    1.54
   4   6  -5    7.93    1.27
  -4   6   5    8.62    1.58
  -4   6   5    7.36    1.54
   4   6  -5    7.81    1.14
  -4   6   5    7.54    1.45
  -4   6   5    9.01    2.02
   4   6  -5    6.28    1.12
   4   6  -5    8.69    1.41
  -3  -6   5    1.48    1.03
  -3  -6   5    2.52    0.90
   3  -6  -5    3.01    0.91
   3  -6  -5    3.96    1.63
  -3   6   5    4.28    1.11
   3   6  -5    6.56    1.93
  -3   6   5    3.19    1.14
  -3   6   5    1.83    1.01
   3   6  -5    3.76    0.79
   2  -6  -5    9.09    2.61
   2  -6  -5   16.63    1.84
  -2  -6   5   10.57    2.52
  -2  -6   5   15.97    1.95
   2   6  -5   23.06    3.59
  -2   6   5   15.21    2.56
  -2   6   5   14.86    2.08
   2   6  -5   20.03    1.81
   2   6  -5   15.31    1.90
   1  -6  -5   14.03    2.93
  -1  -6   5   16.13    1.92
  -1  -6   5   11.14    2.42
   1  -6  -5   14.37    1.83
   1   6  -5   15.47    1.83
   1   6  -5   19.04    3.14
   1   6  -5   13.66    1.56
  -1   6   5   12.82    2.01
  -1   6   5   14.79    2.42
   0  -6  -5   10.57    2.54
   0  -6  -5   13.92    1.72
   0  -6   5   17.10    1.90
   0  -6   5   14.77    2.49
   0  -6  -5   16.37    2.36
   0   6  -5   12.30    1.85
   0   6  -5   11.94    1.63
   0   6  -5   11.43    1.63
   0   6   5   12.47    2.31
   0   6   5   10.80    1.73
  -1  -6  -5   53.45    4.50
   1  -6   5   48.63    5.17
  -1  -6  -5   49.97    5.26
   1  -6   5   53.59    5.63
  -1  -6  -5   54.51    6.01
  -1   6  -5   55.18    4.67
  -1   6  -5   46.21    5.03
   1   6   5   53.12    4.78
   1   6   5   46.14    4.69
   1   6   5   52.68    4.76
   1   6   5   52.32    5.41
  -1   6  -5   54.75    4.63
  -1   6  -5   52.02    4.62
  -2  -6  -5   23.40    3.06
  -2  -6  -5   28.59    2.64
   2  -6   5   25.43    3.02
  -2  -6  -5   29.58    3.60
   2  -6   5   22.94    2.99
   2  -6   5   24.06    2.88
   2   6   5   22.68    2.66
   2   6   5   24.14    2.67
  -2   6  -5   23.51    2.60
   2   6   5   29.15    2.71
  -2   6  -5   21.40    2.84
  -2   6  -5   30.92    2.72
  -2   6  -5   28.94    2.68
   2   6   5   26.04    3.26
  -3  -6  -5   53.36    5.93
   3  -6   5   59.95    5.49
  -3  -6  -5   51.11    5.55
   3  -6   5   55.25    5.44
   3  -6   5   55.21    5.69
  -3   6  -5   50.61    4.90
   3   6   5   52.87    4.95
   3   6   5   41.18    4.81
  -3   6  -5   48.00    4.86
  -3   6  -5   52.69    4.99
   3   6   5   56.98    5.83
  -3   6  -5   54.79    5.57
   3   6   5   64.70    5.12
   4  -6   5   23.20    3.59
  -4  -6  -5   17.78    3.00
  -4  -6  -5   16.09    3.01
  -4   6  -5   24.78    3.03
   4   6   5   23.44    3.65
  -4   6  -5   22.20    3.40
   4   6   5   25.52    2.53
  -4   6  -5   20.52    2.43
  -4   6  -5   21.66    2.50
   4   6   5   20.73    2.71
   4   6   5   20.93    2.72
   5  -6   5  105.84   10.50
   5  -6   5  113.68    9.09
  -5  -6  -5   99.97   10.13
  -5  -6  -5   99.10   10.42
   5   6   5   97.23    9.21
   5   6   5  110.97    9.35
  -5   6  -5  103.22    9.39
  -5   6  -5  101.33    9.40
   5   6   5  121.61   10.55
  -5   6  -5  108.20   10.33
  -5   6  -5  102.13    9.28
   5   6   5  103.38    9.13
  -6  -6  -5   16.63    2.52
  -6  -6  -5   11.62    2.56
   6   6   5   16.52    3.14
  -6   6  -5   16.58    2.55
  -6   6  -5   16.20    2.50
   6   6   5   17.89    2.35
  -6   6  -5   14.16    2.92
   6   6   5   11.76    2.09
  -7  -6  -5   37.97    4.84
   7   6   5   42.45    5.18
  -7   6  -5   41.33    6.06
   7   6   5   43.11    4.28
  -7   6  -5   28.43    4.32
  -7   6  -5   45.06    4.45
  -8  -6  -5    7.64    2.13
  -8   6  -5   10.65    2.52
   8   6   5    9.73    2.00
  -8   6  -5    9.99    2.76
  -9  -6  -5    7.60    2.63
  -9   6  -5    8.60    2.08
  -9   6  -5    7.85    2.53
   9   6   5    6.23    1.76
 -10  -6  -5    1.12    1.34
 -10   6  -5    2.02    1.71
  10   6   5    1.67    1.30
 -10   6  -5    2.73    1.35
 -11  -6  -5    1.40    1.67
  11   6   5    0.20    1.25
  11  -7  -5    1.52    2.03
 -11  -7   5    1.13    1.21
  11   7  -5    1.04    1.12
 -11   7   5    2.21    2.31
 -10  -7   5    0.71    1.13
  10  -7  -5   -0.54    1.66
 -10   7   5    2.01    1.72
  10   7  -5    1.44    1.15
  -9  -7   5    1.64    1.14
   9  -7  -5    0.20    1.63
  -9   7   5   -0.26    1.05
   9   7  -5    0.64    0.91
  -9   7   5   -0.50    1.49
  -8  -7   5    9.31    2.25
   8  -7  -5   13.38    3.52
  -8   7   5   10.42    2.83
  -8   7   5   13.52    2.68
   8   7  -5   10.29    1.96
   8   7  -5   11.39    2.14
  -8   7   5   12.74    3.08
   7  -7  -5   -0.21    1.47
  -7  -7   5    1.11    0.96
  -7  -7   5    2.80    1.97
   7   7  -5    1.84    0.96
  -7   7   5    2.57    1.05
  -7   7   5    3.43    1.46
   7   7  -5    4.23    1.18
  -7   7   5    0.52    1.26
  -6  -7   5   12.12    2.23
   6  -7  -5   14.06    3.24
  -6  -7   5    6.35    2.57
  -6   7   5   10.04    2.10
   6   7  -5   13.03    1.85
  -6   7   5   10.37    2.02
   6   7  -5   13.31    1.82
   6   7  -5   15.02    2.04
   6   7  -5   12.19    1.95
  -6   7   5   13.35    2.82
   5  -7  -5   31.47    4.93
  -5  -7   5   23.49    2.88
  -5  -7   5   29.18    4.81
  -5   7   5   23.92    3.79
  -5   7   5   29.26    3.04
   5   7  -5   25.95    2.69
   5   7  -5   25.69    2.50
   5   7  -5   23.82    2.52
  -5   7   5   20.44    3.07
   5   7  -5   22.69    2.64
  -4  -7   5   36.60    5.25
  -4  -7   5   30.16    3.32
   4  -7  -5   22.08    4.42
   4  -7  -5   30.20    3.32
  -4   7   5   27.86    3.28
   4   7  -5   35.57    3.06
  -4   7   5   31.44    3.33
   4   7  -5   26.10    2.93
  -4   7   5   36.21    4.11
  -4   7   5   33.19    3.43
  -3  -7   5   81.53    8.13
   3  -7  -5   73.98    8.12
   3  -7  -5   79.00    6.22
  -3  -7   5   65.61    6.57
   3   7  -5   67.99    6.56
  -3   7   5   65.55    6.29
  -3   7   5   60.95    6.47
  -3   7   5   65.40    7.20
   3   7  -5   73.20    6.02
  -2  -7   5   44.91    5.22
  -2  -7   5   38.98    4.07
   2  -7  -5   44.80    5.38
   2   7  -5   44.60    5.40
   2   7  -5   44.07    3.72
  -2   7   5   42.85    4.01
   2   7  -5   38.57    4.02
  -2   7   5   34.64    4.44
   1  -7  -5   11.49    2.01
  -1  -7   5    9.82    1.61
  -1  -7   5   11.19    2.33
   1  -7  -5    6.85    2.22
   1   7  -5   13.22    1.54
   1   7  -5    8.08    2.21
  -1   7   5   10.72    1.72
  -1   7   5   13.15    2.32
   1   7  -5   12.48    1.35
   0  -7   5   52.55    4.91
   0  -7  -5   49.77    5.18
   0  -7   5   54.70    5.74
   0  -7  -5   51.43    5.97
   0  -7  -5   43.37    5.04
   0   7   5   45.83    4.60
   0   7  -5   48.67    4.41
   0   7  -5   50.91    4.86
   0   7  -5   61.25    6.07
   0   7   5   49.35    5.24
   0   7  -5   48.02    4.42
  -1  -7  -5   12.25    2.04
  -1  -7  -5    6.91    1.60
  -1  -7  -5    8.46    2.08
   1  -7   5   10.03    1.96
   1  -7   5    7.39    1.50
  -1   7  -5   13.04    2.79
   1   7   5    6.68    1.34
  -1   7  -5    6.48    1.19
   1   7   5    8.36    1.83
   1   7   5   10.43    1.61
   1   7   5    7.03    1.37
  -1   7  -5    8.98    1.53
  -1   7  -5    6.60    1.22
   2  -7   5   16.07    2.63
  -2  -7  -5   18.03    2.89
  -2  -7  -5   16.25    3.16
   2  -7   5   20.40    2.31
   2  -7   5   22.12    2.54
  -2  -7  -5   14.98    2.64
  -2   7  -5   20.09    2.11
  -2   7  -5   22.42    2.89
   2   7   5   16.69    2.29
   2   7   5   18.10    2.09
   2   7   5   19.11    2.90
   2   7   5   18.07    2.41
  -2   7  -5   19.10    2.03
  -2   7  -5   18.83    2.09
   3  -7   5   11.29    1.58
   3  -7   5   11.41    2.18
  -3  -7  -5   14.92    2.31
  -3  -7  -5   13.35    2.55
  -3   7  -5    9.31    1.73
  -3   7  -5    9.89    1.69
  -3   7  -5   13.56    2.27
   3   7   5   10.08    1.68
  -3   7  -5   11.77    1.90
   3   7   5   19.38    2.96
   3   7   5   11.56    1.94
   3   7   5   11.35    1.68
  -4  -7  -5    4.39    1.36
   4  -7   5    4.13    1.42
  -4  -7  -5    6.97    1.73
  -4   7  -5    4.68    1.18
   4   7   5    4.47    1.59
   4   7   5    5.83    1.20
  -4   7  -5    6.23    1.36
  -4   7  -5    3.42    1.36
   4   7   5    6.16    1.37
  -4   7  -5    5.66    1.22
   4   7   5    4.78    1.19
  -5  -7  -5    2.11    1.10
  -5  -7  -5    0.58    0.80
  -5   7  -5    2.12    1.00
   5   7   5    1.14    0.78
  -5   7  -5    0.95    0.75
   5   7   5    0.60    0.60
  -5   7  -5    0.79    1.00
   5   7   5    1.32    1.17
  -6  -7  -5    5.26    1.73
  -6  -7  -5   11.58    2.05
   6   7   5    6.94    1.55
  -6   7  -5    7.66    1.82
  -6   7  -5    5.59    1.47
  -6   7  -5    5.86    2.06
   6   7   5    6.74    1.50
  -7  -7  -5    7.00    1.97
   7   7   5   11.63    2.04
  -7   7  -5    7.97    2.04
  -7   7  -5    9.36    2.54
  -7   7  -5   10.65    2.08
  -8  -7  -5    5.58    1.97
   8   7   5    6.79    1.69
  -8   7  -5    4.57    1.77
  -9  -7  -5    3.41    1.77
  -9   7  -5    6.50    1.93
   9   7   5    3.12    1.29
 -10  -7  -5    6.03    2.38
  10   7   5   15.67    2.81
 -10   7  -5   12.76    3.12
  10  -8  -5   11.58    3.57
 -10  -8   5    6.06    2.06
  10   8  -5    5.05    1.65
  -9  -8   5    0.50    0.91
   9  -8  -5    1.22    1.98
  -9   8   5   -0.65    1.15
   9   8  -5   -0.37    0.76
  -8  -8   5   10.39    2.26
   8  -8  -5   20.72    4.12
   8   8  -5   12.52    2.34
  -8   8   5   13.94    2.69
   8   8  -5   16.02    2.37
  -7  -8   5    0.61    1.52
  -7  -8   5    0.30    0.75
   7  -8  -5    2.08    1.81
   7   8  -5    2.19    0.85
  -7   8   5    0.81    1.04
  -7   8   5   -0.14    1.18
   7   8  -5    0.81    0.74
  -7   8   5    1.43    1.13
   6  -8  -5   14.04    3.60
  -6  -8   5    9.78    1.88
  -6  -8   5   17.54    3.71
  -6   8   5    7.38    2.28
   6   8  -5   10.31    1.86
  -6   8   5   12.08    2.31
   6   8  -5   12.87    1.72
   6   8  -5   11.64    1.76
  -6   8   5   15.50    2.45
  -5  -8   5    0.99    0.67
  -5  -8   5    1.63    1.27
   5  -8  -5    0.71    1.44
  -5   8   5    0.98    0.88
  -5   8   5    4.46    1.63
   5   8  -5    0.39    0.58
  -5   8   5    1.04    0.87
   5   8  -5    1.92    0.80
  -4  -8   5   10.62    1.52
  -4  -8   5    7.00    2.35
   4  -8  -5    6.40    2.24
  -4   8   5    8.44    1.63
   4   8  -5    7.66    1.29
   4   8  -5    6.68    1.25
  -4   8   5    8.46    1.77
  -4   8   5    5.96    1.86
  -3  -8   5   10.03    1.41
  -3  -8   5    6.34    2.17
   3  -8  -5    6.97    2.33
  -3   8   5    5.38    1.39
   3   8  -5   10.24    1.39
  -3   8   5   11.76    2.37
  -3   8   5    8.79    1.78
  -2  -8   5    5.65    2.00
  -2  -8   5    4.42    0.88
   2  -8  -5    2.77    1.75
   2   8  -5    5.01    0.96
  -2   8   5    3.91    1.45
  -2   8   5    3.42    1.05
   1  -8  -5    3.92    1.81
   1  -8  -5    2.63    1.13
  -1  -8   5    1.81    1.28
  -1  -8   5    3.48    0.81
  -1   8   5    6.82    1.29
   1   8  -5    7.97    2.11
   1   8  -5    4.25    0.83
  -1   8   5    4.45    1.37
   0  -8  -5   55.20    6.09
   0  -8   5   52.07    5.71
   0  -8   5   49.78    4.72
   0  -8  -5   43.31    4.99
   0   8  -5   50.42    4.36
   0   8  -5   53.50    5.83
   0   8   5   42.42    4.50
   0   8   5   43.60    5.11
   0   8  -5   51.13    4.35
  -1  -8  -5   14.44    2.95
  -1  -8  -5   10.93    2.05
   1  -8   5   13.53    2.34
   1  -8   5   10.62    1.85
  -1   8  -5   11.51    1.63
  -1   8  -5   12.75    1.73
  -1   8  -5   16.81    3.11
   1   8   5    9.68    2.10
   1   8   5   12.84    1.80
  -2  -8  -5  100.77    9.86
  -2  -8  -5   92.95    8.86
   2  -8   5  107.90    9.42
  -2   8  -5   95.73    7.96
  -2   8  -5   92.12    7.91
   2   8   5   79.59    7.91
  -2   8  -5   91.83    7.92
   2   8   5   83.53    7.98
   2   8   5   87.13    8.97
   2   8   5   91.36    8.05
  -3  -8  -5   10.37    2.39
  -3  -8  -5    6.74    1.61
   3   8   5    6.63    1.23
   3   8   5    4.81    1.81
  -3   8  -5    6.69    1.37
   3   8   5    6.52    1.41
   3   8   5    6.48    1.29
  -3   8  -5    9.04    1.42
  -3   8  -5    6.24    1.37
  -4  -8  -5   17.32    2.85
  -4  -8  -5   14.66    3.11
  -4   8  -5   22.62    2.51
  -4   8  -5   18.70    2.60
   4   8   5   21.24    2.71
   4   8   5   20.19    2.30
  -5  -8  -5   19.44    3.31
  -5  -8  -5   16.69    2.97
   5   8   5   18.82    2.55
   5   8   5   17.87    2.61
  -5   8  -5   22.97    3.05
  -5   8  -5   20.15    2.93
  -6  -8  -5   26.04    4.11
   6   8   5   28.91    3.40
  -6   8  -5   35.49    3.75
   6   8   5   30.07    3.41
  -6   8  -5   29.65    3.94
  -7  -8  -5   11.11    2.53
   7   8   5   10.56    2.17
  -7   8  -5   13.26    2.56
  -7   8  -5   14.34    2.46
  -8  -8  -5    8.98    2.44
   8   8   5    6.68    1.76
  -8   8  -5   10.37    2.44
  -9  -8  -5    0.11    1.04
  -9   8  -5    0.58    1.30
   9   8   5    1.07    1.20
 -10  -8  -5    1.87    1.34
 -10   8  -5    7.55    2.39
  10   8   5    4.01    1.61
   9  -9  -5    2.56    2.23
  -9  -9   5    0.75    1.04
   9   9  -5   -0.19    0.90
  -9   9   5    2.08    1.56
   8  -9  -5    3.13    2.34
  -8  -9   5    1.54    1.07
   8   9  -5    2.32    1.13
   8   9  -5    2.01    0.96
  -8   9   5    2.75    1.75
   7  -9  -5   10.24    3.34
  -7  -9   5    5.57    1.48
   7   9  -5    8.91    1.71
  -7   9   5   11.60    2.34
   7   9  -5    8.45    1.53
   6  -9  -5   10.26    3.17
  -6  -9   5    7.32    2.52
  -6  -9   5    6.17    1.41
  -6   9   5    7.86    1.85
   6   9  -5    8.65    1.34
  -6   9   5    8.89    1.99
   6   9  -5    7.88    1.27
   6   9  -5    8.82    1.65
  -5  -9   5    8.22    1.36
  -5  -9   5   11.50    3.11
   5  -9  -5   15.51    3.68
   5   9  -5    8.29    1.45
  -5   9   5   11.84    2.24
  -5   9   5    8.06    1.80
   5   9  -5    8.25    1.56
  -4  -9   5   33.44    5.31
   4  -9  -5   28.41    5.13
  -4   9   5   27.58    3.25
   4   9  -5   28.31    2.84
  -4   9   5   32.66    3.28
   4   9  -5   25.63    2.83
   3  -9  -5   16.14    3.72
  -3  -9   5   15.06    3.39
   3   9  -5   15.16    1.75
  -3   9   5   17.80    2.55
   2  -9  -5   41.28    6.04
  -2  -9   5   37.97    4.70
   2   9  -5   31.90    3.03
  -2   9   5   27.49    3.30
   1  -9  -5    4.37    1.39
   1  -9  -5    7.51    2.59
  -1  -9   5    6.63    2.03
   1   9  -5    8.13    1.19
  -1   9   5    7.18    1.39
   0  -9  -5   18.95    2.77
   0  -9   5   20.53    3.34
   0  -9  -5   23.37    4.09
   0   9  -5   18.42    2.04
   0   9  -5   26.33    3.96
   0   9   5   18.28    2.58
   0   9  -5   20.11    2.11
   1  -9   5   16.00    2.71
  -1  -9  -5   10.92    2.13
  -1  -9  -5   12.80    3.09
  -1   9  -5   20.63    3.34
   1   9   5   17.18    2.17
  -1   9  -5   15.48    1.78
  -1   9  -5   15.05    1.77
  -2  -9  -5   17.48    3.39
  -2  -9  -5   12.57    2.18
  -2   9  -5   13.77    1.96
   2   9   5   12.80    2.07
  -2   9  -5   11.24    1.80
   2   9   5   15.06    1.99
   2   9   5   13.77    2.04
  -3  -9  -5    1.41    1.33
  -3  -9  -5    1.04    0.79
   3   9   5    1.32    0.65
  -3   9  -5    1.76    0.68
   3   9   5    0.76    0.61
  -3   9  -5    2.75    0.89
  -3   9  -5    0.73    0.68
  -4  -9  -5   -0.58    0.94
  -4  -9  -5    1.63    0.98
  -4   9  -5    2.14    0.94
   4   9   5    1.03    0.67
   4   9   5    0.39    0.66
  -4   9  -5    0.91    0.70
  -5  -9  -5    2.24    1.27
  -5  -9  -5    2.48    1.19
  -5   9  -5    3.97    1.25
   5   9   5    3.21    1.09
   5   9   5    3.91    1.11
  -5   9  -5    1.64    0.92
  -6  -9  -5    0.21    0.81
   6   9   5    2.65    1.01
   6   9   5    1.14    0.84
  -6   9  -5    1.33    1.12
  -6   9  -5    1.83    0.98
  -7  -9  -5    4.37    1.70
  -7   9  -5    3.06    1.43
   7   9   5    2.22    1.14
  -7   9  -5    8.19    2.01
  -8  -9  -5    3.54    1.60
   8   9   5    3.44    1.40
  -8   9  -5    7.12    2.02
  -9  -9  -5    7.32    2.12
   9   9   5    7.74    2.04
  -9   9  -5    4.88    2.19
   8 -10  -5    2.81    2.33
   8  10  -5    0.96    0.94
  -8  10   5    1.05    1.39
   8  10  -5    0.44    0.71
   7 -10  -5    9.97    3.44
   7  10  -5    6.58    1.32
   7  10  -5    6.96    1.58
  -7  10   5    7.86    2.00
   6 -10  -5    1.72    1.99
  -6  10   5    0.84    0.92
  -6  10   5    0.10    0.95
   6  10  -5    0.33    0.71
   5 -10  -5    7.32    2.84
  -5 -10   5    7.83    2.68
  -5  10   5    5.67    1.68
  -5  10   5    6.97    1.70
   5  10  -5    6.56    1.30
  -4 -10   5    0.62    1.27
   4 -10  -5    0.23    1.33
  -4  10   5   -0.32    0.54
  -4  10   5    0.68    0.63
   4  10  -5    0.00    0.45
  -3 -10   5    4.65    2.05
   3 -10  -5    7.49    2.71
   3  10  -5    3.93    0.82
  -3  10   5    3.00    1.07
   2 -10  -5    0.64    0.70
  -2 -10   5    0.88    1.28
   2 -10  -5    1.95    1.58
  -2  10   5    1.99    0.87
   1 -10  -5    2.51    1.04
  -1 -10   5    4.99    1.86
   1 -10  -5    1.23    1.49
   1  10  -5    3.42    0.78
  -1  10   5    3.58    1.07
   1  10  -5    3.26    0.77
   0 -10  -5    1.59    0.85
   0 -10   5    6.15    1.78
   0 -10  -5    5.48    2.16
   0  10  -5    2.17    0.69
   0  10   5    3.83    1.06
   0  10  -5    2.32    0.78
  -1 -10  -5   11.01    2.19
  -1 -10  -5   20.59    3.94
   1  10   5   18.17    2.36
  -1  10  -5   16.48    1.88
  -1  10  -5   17.84    1.93
  -2 -10  -5   15.80    3.29
  -2 -10  -5    8.48    1.74
  -2  10  -5   11.18    1.68
  -2  10  -5    8.62    1.57
   2  10   5   11.43    1.72
   2  10   5    7.16    1.52
  -3 -10  -5    8.54    2.55
  -3 -10  -5    5.03    1.44
   3  10   5    7.66    1.49
  -3  10  -5   10.29    1.54
   3  10   5    9.90    1.56
  -3  10  -5    8.91    1.63
  -4 -10  -5   33.23    4.75
  -4 -10  -5   23.91    3.19
   4  10   5   26.52    3.00
   4  10   5   28.06    2.92
  -4  10  -5   28.37    3.02
  -4  10  -5   21.57    3.22
  -5 -10  -5   21.99    3.95
  -5 -10  -5    9.49    2.26
   5  10   5   15.97    2.39
  -5  10  -5   18.96    2.82
   5  10   5   16.81    2.46
  -5  10  -5   18.05    2.74
  -6 -10  -5    8.02    2.03
  -6  10  -5   10.14    2.24
   6  10   5    9.31    1.86
   6  10   5    9.97    1.86
  -6  10  -5   13.39    2.40
  -7 -10  -5    6.19    1.95
  -7  10  -5    6.96    2.14
   7  10   5   10.53    2.12
  -7  10  -5   15.76    2.77
  -8 -10  -5    6.15    2.03
  -8  10  -5    7.31    2.02
   8  10   5    6.25    1.70
   7 -11  -5    8.01    3.16
   7  11  -5    8.37    1.74
  -7  11   5   14.83    2.72
   7  11  -5    8.18    1.55
   6 -11  -5    7.34    3.16
   6  11  -5    5.61    1.34
  -6  11   5    5.05    1.79
  -6  11   5    4.42    1.56
   5 -11  -5    4.18    2.49
   5  11  -5    4.48    1.15
  -5  11   5    6.66    1.78
  -5  11   5    6.11    1.74
  -4 -11   5    4.07    2.17
   4 -11  -5    2.98    2.47
  -4  11   5    4.78    1.49
  -4  11   5    5.78    1.47
   3 -11  -5    9.73    3.38
   3 -11  -5    6.16    1.73
  -3 -11   5    8.35    2.57
  -3  11   5    5.06    1.48
   2 -11  -5    2.07    1.83
  -2 -11   5    5.70    2.07
   2 -11  -5    1.79    1.05
  -2  11   5    3.90    1.21
   1 -11  -5   21.15    2.79
   1 -11  -5   24.93    4.89
  -1 -11   5   34.93    4.17
  -1  11   5   18.93    2.81
   0 -11  -5    0.31    0.70
   0 -11  -5    1.14    1.72
   0  11   5    1.65    0.82
   0  11  -5    1.60    0.65
  -1 -11  -5   10.49    1.92
  -1 -11  -5   16.86    3.70
  -1  11  -5   10.10    1.63
  -1  11  -5   13.40    1.81
   1  11   5   11.94    1.99
  -2 -11  -5    0.67    0.68
  -2 -11  -5    0.12    1.19
   2  11   5    1.40    0.77
   2  11   5    0.33    0.68
  -2  11  -5    1.54    0.70
  -3 -11  -5    4.62    1.24
  -3 -11  -5    4.82    2.06
   3  11   5    5.28    1.19
  -3  11  -5    5.44    1.47
  -3  11  -5    4.26    1.07
   3  11   5    3.51    1.07
  -4 -11  -5   -1.34    1.09
  -4 -11  -5    0.24    0.75
   4  11   5    0.76    0.79
  -4  11  -5    0.87    0.90
  -4  11  -5    0.46    0.64
   4  11   5    0.42    0.61
  -5 -11  -5   -0.08    0.77
   5  11   5    0.66    0.79
   5  11   5    0.60    0.64
  -5  11  -5    0.68    0.84
  -5  11  -5    0.21    0.93
  -6 -11  -5    1.46    1.14
  -6  11  -5    0.54    1.01
  -6  11  -5    0.98    0.99
   6  11   5    0.87    0.82
  -7 -11  -5    2.43    1.21
  -7  11  -5    3.61    1.53
  -7  11  -5    3.77    1.66
   7  11   5    4.61    1.45
   6 -12  -5   -1.16    1.79
  -6  12   5    1.02    1.10
   6  12  -5    1.32    0.85
  -6  12   5    2.35    1.10
   5 -12  -5    3.08    2.40
  -5  12   5    1.66    1.16
  -5  12   5    3.42    1.36
   4 -12  -5    3.34    2.51
  -4  12   5    1.46    0.95
  -4  12   5    1.53    1.02
  -3 -12   5    1.29    1.72
   3 -12  -5   -0.38    0.79
   3 -12  -5   -0.05    1.47
  -3  12   5    0.41    0.83
   2 -12  -5    3.21    2.26
   2 -12  -5    2.94    1.15
  -2  12   5    3.24    1.21
   1 -12  -5    0.30    0.78
   1 -12  -5    0.59    1.56
  -1  12   5    2.03    0.98
   0 -12  -5    1.81    0.88
   0 -12  -5    2.15    1.99
   0  12   5    3.06    1.14
  -1 -12  -5    4.67    1.20
  -1 -12  -5    5.57    2.47
   1  12   5    5.73    1.41
  -1  12  -5    4.74    1.15
  -2 -12  -5    8.06    2.64
  -2 -12  -5    5.38    1.28
  -2  12  -5    5.73    1.33
   2  12   5    6.64    1.41
   2  12   5    4.38    1.29
  -3 -12  -5   13.75    3.47
  -3  12  -5    9.74    1.86
  -3  12  -5   10.75    1.78
   3  12   5    9.58    1.70
   3  12   5    8.99    1.76
  -4 -12  -5    4.94    2.29
  -4  12  -5    4.93    1.51
  -4  12  -5    7.40    1.57
   4  12   5    4.44    1.34
   4  12   5    5.20    1.35
   5  12   5   12.17    2.19
  -5  12  -5   10.82    2.44
   5  12   5   12.24    2.05
  -5  12  -5   14.91    2.42
   4 -13  -5    8.20    1.96
   3 -13  -5    9.34    3.27
   3 -13  -5    1.59    1.03
  -3  13   5    2.29    1.28
  -3  13   5    3.66    1.12
   2 -13  -5    8.55    3.29
  -2  13   5    6.61    1.68
   1 -13  -5    3.69    2.42
  -1  13   5    1.91    1.04
   0 -13  -5    3.32    2.46
   0  13   5    6.94    1.54
  -1 -13  -5    5.90    2.75
   1  13   5    3.31    1.12
  -1  13  -5    3.59    1.03
  -2 -13  -5    3.90    2.06
   2  13   5    1.36    0.86
  -2  13  -5    4.62    1.17
   2  13   5    2.93    1.01
  -3 -13  -5    3.96    2.28
  -3  13  -5    1.74    1.01
  -3  13  -5    1.66    0.86
   3  13   5    1.54    0.91
   3  13   5    1.87    0.88
 -12   0   6    0.92    1.56
 -11   0   6   16.52    4.04
 -11   0   6   22.29    4.56
 -10   0   6    1.38    1.59
  10   0  -6    3.76    1.63
 -10   0   6    0.66    1.47
  10   0  -6   -0.72    1.29
   9   0  -6   19.29    3.57
  -9   0   6   18.91    3.92
  -9   0   6   27.77    4.56
   8   0  -6    3.17    1.46
  -8   0   6    3.07    1.84
   8   0  -6    2.61    1.66
  -8   0   6    0.09    1.06
   7   0  -6   27.71    3.49
  -7   0   6   30.66    3.11
  -7   0   6   34.39    4.99
  -7   0   6   19.08    3.67
   7   0  -6   18.51    3.36
   6   0  -6    8.58    1.79
   6   0  -6    5.06    1.17
  -6   0   6    3.96    1.51
  -6   0   6    6.83    2.21
  -6   0   6    4.74    1.17
   5   0  -6   31.23    3.01
  -5   0   6   20.44    3.55
  -5   0   6   32.00    3.09
   5   0  -6   33.17    3.26
  -5   0   6   18.71    4.00
   4   0  -6    2.41    0.67
  -4   0   6    2.49    0.82
   4   0  -6    0.82    0.70
  -4   0   6    0.40    0.92
  -4   0   6    2.95    1.62
  -3   0   6    1.49    0.99
   3   0  -6    2.24    0.80
  -3   0   6    5.34    2.20
  -3   0   6    1.01    0.58
  -2   0   6   55.45    6.04
   2   0  -6   73.11    5.51
   2   0  -6   55.14    5.43
  -2   0   6   61.08    5.39
  -2   0   6   56.94    5.31
   1   0  -6   40.49    4.36
  -1   0   6   50.05    4.41
   1   0  -6   58.00    4.47
  -1   0   6   45.75    4.31
  -1   0   6   46.09    5.00
   0   0  -6    2.28    0.96
   0   0   6    2.33    1.07
   0   0  -6    3.65    0.96
   0   0  -6    1.93    0.66
   0   0   6    4.37    0.95
   0   0  -6    3.16    0.74
  -1   0  -6   92.10    7.88
  -1   0  -6   84.50    8.68
   1   0   6   91.74    8.87
   1   0   6   92.16    7.89
  -1   0  -6   98.41    8.02
  -1   0  -6   91.20    8.05
   2   0   6   88.31    7.85
  -2   0  -6   87.16    6.85
   2   0   6   66.10    6.70
  -2   0  -6   67.89    7.50
   2   0   6   86.58    6.90
  -2   0  -6   78.33    6.88
  -2   0  -6   74.06    6.89
  -3   0  -6  104.75    9.25
  -3   0  -6  111.70    9.31
   3   0   6  109.95    9.17
  -3   0  -6  106.35   10.10
   3   0   6   98.37    9.07
  -4   0  -6   19.23    2.92
  -4   0  -6   19.24    2.23
  -4   0  -6   18.69    2.56
   4   0   6   21.79    2.65
  -4   0  -6   16.41    2.39
   4   0   6   18.09    3.26
  -5   0  -6   61.95    5.39
   5   0   6   44.78    5.96
  -5   0  -6   58.12    5.43
  -5   0  -6   60.77    6.09
   5   0   6   54.00    5.35
   6   0   6   10.28    2.69
  -6   0  -6   12.68    2.76
   6   0   6   18.57    2.81
  -6   0  -6   12.73    2.30
  -6   0  -6   13.39    2.13
  -7   0  -6   20.99    3.02
   7   0   6   24.22    3.20
   7   0   6   27.08    3.63
  -7   0  -6   20.28    3.58
   7   0   6   20.20    3.95
   8   0   6   11.51    2.88
   8   0   6   16.04    2.82
   8   0   6   14.76    2.80
  -8   0  -6   17.51    3.30
   9   0   6   31.88    5.20
  -9   0  -6   29.04    5.05
 -10   0  -6    6.66    2.42
  10   0   6    5.13    2.32
 -11   0  -6   10.14    3.23
 -12   0  -6   -1.03    1.13
 -12  -1   6   -0.54    1.40
 -12   1   6   -0.90    1.18
 -11  -1   6   -0.56    1.15
 -11   1   6    1.85    1.75
 -11   1   6    0.77    1.74
  10  -1  -6    3.85    1.91
 -10  -1   6   -0.11    1.28
 -10  -1   6    1.93    1.76
  10   1  -6    3.21    1.71
  10   1  -6    1.57    1.51
 -10   1   6    2.52    1.73
 -10   1   6    3.59    2.07
   9  -1  -6    5.89    2.17
  -9  -1   6   11.12    2.69
  -9  -1   6    8.80    2.76
   9  -1  -6    5.05    1.71
  -9   1   6    5.05    2.05
   9   1  -6    8.49    2.00
  -9   1   6    6.68    2.49
   9   1  -6    6.60    2.28
   8  -1  -6    5.23    1.61
  -8  -1   6    3.95    1.83
   8  -1  -6    2.05    1.50
  -8  -1   6    2.14    1.46
   8   1  -6    2.10    1.19
  -8   1   6    2.87    1.81
  -8   1   6    2.37    1.47
   7  -1  -6    7.41    2.19
  -7  -1   6    8.36    2.51
  -7  -1   6   11.33    2.52
   7   1  -6   11.48    2.19
   7   1  -6    7.64    1.85
  -7   1   6   11.87    2.17
  -7   1   6   14.66    3.18
  -7   1   6   14.01    2.65
  -6  -1   6   31.73    5.07
  -6  -1   6   29.14    4.20
  -6   1   6   27.26    4.69
  -6   1   6   34.22    3.38
  -6   1   6   31.77    3.28
   6   1  -6   31.36    3.48
  -6   1   6   25.00    3.97
   6   1  -6   21.21    2.98
   6   1  -6   38.31    3.50
  -5  -1   6   43.87    5.56
   5  -1  -6   50.70    4.26
   5  -1  -6   41.96    4.26
  -5  -1   6   37.80    4.79
  -5   1   6   45.81    4.97
  -5   1   6   34.25    5.84
   5   1  -6   45.52    4.24
  -5   1   6   41.04    4.22
  -5   1   6   42.04    4.31
   5   1  -6   45.83    4.37
   4  -1  -6  105.86    8.14
  -4  -1   6   80.01    8.80
  -4   1   6   95.28    8.06
  -4   1   6   71.14    8.81
   4   1  -6   94.68    8.01
  -4   1   6  109.13   10.94
   4   1  -6   92.67    8.08
  -4   1   6   88.64    7.95
  -3  -1   6  130.71   15.05
  -3  -1   6  156.43   13.88
   3  -1  -6  146.53   12.47
  -3   1   6  152.06   12.64
   3   1  -6  124.26   12.62
  -3   1   6  134.82   12.41
   3   1  -6  153.79   12.42
  -3   1   6  154.91   13.92
  -3   1   6  182.07   12.63
   3   1  -6  153.07   12.59
  -2  -1   6   72.58    6.76
   2  -1  -6   81.05    6.91
  -2  -1   6   74.89    7.70
   2   1  -6   81.69    6.89
   2   1  -6   73.54    6.97
  -2   1   6   89.42    7.83
  -2   1   6   83.98    6.93
  -2   1   6   77.36    6.98
   1  -1  -6   88.83    6.91
   1  -1  -6   85.14    7.06
   1  -1  -6   77.14    6.91
  -1  -1   6   93.89    7.81
  -1  -1   6   78.21    6.77
   1   1  -6   73.71    6.92
  -1   1   6   62.96    6.86
   1   1  -6   81.49    6.86
  -1   1   6   84.24    7.81
  -1   1   6   74.40    6.84
  -1   1   6   77.19    6.96
   0  -1  -6   10.44    1.68
   0  -1  -6   11.63    1.99
   0  -1  -6   10.96    1.78
   0  -1   6    9.54    1.55
   0  -1  -6   11.11    1.61
   0  -1   6   10.41    2.03
   0   1  -6   12.47    1.75
   0   1   6   11.82    1.73
   0   1  -6   15.55    1.95
   0   1   6   11.56    2.06
   0   1  -6   14.26    2.05
   0   1   6   15.72    1.69
   0   1  -6   17.93    1.78
  -1  -1  -6  193.97   15.76
  -1  -1  -6  206.82   17.12
   1  -1   6  209.71   15.47
   1  -1   6  182.64   17.07
  -1  -1  -6  203.19   15.43
  -1  -1  -6  181.47   15.48
   1   1   6  175.03   15.73
  -1   1  -6  164.10   15.73
   1   1   6  165.27   17.04
   1   1   6  185.95   15.47
  -1   1  -6  191.03   15.45
  -1   1  -6  175.44   16.92
  -1   1  -6  205.76   15.56
  -2  -1  -6   39.87    3.71
  -2  -1  -6   39.66    3.69
  -2  -1  -6   39.74    4.25
   2  -1   6   37.71    4.35
  -2  -1  -6   38.50    3.79
   2   1   6   34.34    4.28
   2   1   6   46.89    3.90
  -2   1  -6   37.12    3.70
   2   1   6   35.64    3.70
  -2   1  -6   33.84    3.57
   2   1   6   38.66    3.76
  -2   1  -6   38.80    3.81
  -2   1  -6   38.13    4.17
  -3  -1  -6    2.55    0.88
   3  -1   6    0.77    0.91
  -3  -1  -6    3.04    1.08
  -3  -1  -6    1.29    0.62
   3  -1   6    1.16    0.69
  -3   1  -6    1.89    0.74
   3   1   6    3.76    1.00
  -3   1  -6    3.00    0.84
  -3   1  -6    2.83    0.95
   3   1   6    2.89    0.87
   3   1   6    2.02    0.73
   3   1   6    5.81    1.59
  -3   1  -6    3.53    1.23
  -4  -1  -6   15.72    2.21
  -4  -1  -6   23.65    3.14
   4  -1   6   19.20    2.57
  -4  -1  -6   17.93    2.48
   4  -1   6   14.17    2.60
  -4   1  -6   11.77    1.94
   4   1   6   14.62    2.09
   4   1   6   16.74    2.29
  -4   1  -6   18.15    2.82
   4   1   6   15.83    2.81
   4   1   6   17.90    2.34
  -4   1  -6   14.09    2.22
  -4   1  -6   16.36    2.23
   5  -1   6    0.09    0.57
  -5  -1  -6   -0.58    0.54
  -5  -1  -6    0.40    0.89
  -5  -1  -6    0.00    0.36
   5  -1   6    0.19    0.85
   5   1   6    0.20    0.78
  -5   1  -6    0.37    0.65
  -5   1  -6   -0.21    0.43
  -5   1  -6    0.08    0.54
   5   1   6   -0.20    0.49
  -5   1  -6    1.95    1.06
   5   1   6   -0.13    0.52
   5   1   6    0.14    0.55
  -6  -1  -6    2.39    1.06
   6  -1   6    1.56    1.14
   6  -1   6    0.15    0.57
  -6  -1  -6    5.77    1.83
  -6   1  -6    2.40    1.17
  -6   1  -6    0.54    0.80
   6   1   6    0.85    0.83
   6   1   6    0.71    0.70
   6   1   6    1.78    1.35
  -6   1  -6    1.57    0.77
  -7  -1  -6    2.87    1.39
   7  -1   6    3.06    1.22
   7  -1   6    4.74    1.34
   7  -1   6    2.91    1.57
  -7  -1  -6    3.81    1.33
  -7   1  -6    3.22    1.49
   7   1   6    1.24    0.87
   7   1   6    6.54    2.01
  -7   1  -6    3.51    1.12
   7   1   6    6.75    1.80
   8  -1   6    8.84    1.98
  -8  -1  -6    4.90    1.84
   8  -1   6    2.18    1.63
   8   1   6    7.03    1.91
  -8   1  -6    2.56    1.48
   8   1   6    3.90    1.82
  -8   1  -6    6.35    1.77
  -9  -1  -6    8.71    2.58
   9  -1   6    5.15    2.42
  -9   1  -6    8.55    2.56
   9   1   6   11.73    2.97
   9   1   6   17.31    2.82
 -10  -1  -6    6.85    2.40
 -10   1  -6    5.91    2.47
  10   1   6    3.81    2.05
 -11  -1  -6    9.61    3.33
 -11   1  -6    7.77    2.67
 -12  -1  -6    1.83    1.92
 -12   1  -6    2.63    2.12
 -12  -2   6    4.96    2.33
 -12   2   6    3.74    2.27
 -11  -2   6   -1.02    1.04
  11   2  -6   -0.85    1.02
 -11   2   6   -1.18    1.14
 -11   2   6    0.30    1.44
 -10  -2   6   13.85    3.41
  10  -2  -6   16.42    3.42
 -10  -2   6   16.48    3.89
 -10   2   6   22.74    4.08
 -10   2   6   18.40    3.86
  10   2  -6   14.46    2.98
  -9  -2   6    0.93    1.37
  -9  -2   6    5.46    2.25
   9  -2  -6    3.54    1.90
   9   2  -6    3.40    1.34
  -9   2   6    2.03    1.53
  -9   2   6    3.59    1.79
  -8  -2   6    7.58    2.16
  -8  -2   6    6.31    2.35
   8  -2  -6    3.25    1.74
  -8   2   6   12.20    2.22
   8   2  -6    6.63    1.77
  -8   2   6    6.03    2.09
  -8   2   6   11.48    2.81
   7  -2  -6    8.50    2.35
  -7  -2   6    4.20    1.60
  -7  -2   6   11.00    2.63
  -7   2   6    5.54    1.43
  -7   2   6    1.26    1.55
  -7   2   6    7.39    2.12
   7   2  -6    4.02    1.29
  -6  -2   6   21.72    3.99
  -6  -2   6   16.77    3.01
   6  -2  -6   16.10    3.31
  -6  -2   6   21.66    2.39
  -6   2   6   19.77    2.64
  -6   2   6   23.22    3.03
   6   2  -6   19.13    2.77
   6   2  -6   15.92    2.55
   6   2  -6   23.08    2.45
  -6   2   6   16.53    3.51
  -6   2   6   15.65    2.99
   5  -2  -6    0.66    1.54
  -5  -2   6    2.78    0.81
  -5  -2   6    1.09    1.17
  -5  -2   6    2.64    1.16
   5   2  -6    0.97    0.69
  -5   2   6    2.39    1.24
   5   2  -6    2.62    0.75
  -5   2   6   -1.23    1.58
  -5   2   6    0.93    0.63
  -5   2   6    1.79    0.81
  -4  -2   6   19.12    3.54
  -4  -2   6   22.49    2.33
  -4  -2   6   16.08    2.87
  -4   2   6   18.86    3.21
   4   2  -6   23.00    2.46
  -4   2   6   18.52    2.33
   4   2  -6   23.93    2.43
  -4   2   6   23.30    2.63
  -4   2   6   17.96    2.56
   4   2  -6   22.65    2.50
  -4   2   6   25.17    2.54
  -3  -2   6    1.78    1.11
  -3  -2   6    1.18    0.56
  -3  -2   6    0.25    0.69
  -3   2   6    1.14    0.65
  -3   2   6    0.81    0.59
   3   2  -6    1.71    0.64
  -3   2   6    0.67    0.91
   3   2  -6    2.26    0.68
  -3   2   6    2.46    0.78
  -3   2   6    0.56    0.52
   3   2  -6    1.50    0.58
  -2  -2   6    1.10    0.53
  -2  -2   6    1.03    0.80
  -2  -2   6    1.93    1.14
   2  -2  -6    0.77    0.57
  -2   2   6   -0.15    0.37
   2   2  -6    0.70    0.45
   2   2  -6    0.97    0.56
   2   2  -6    0.87    0.44
  -2   2   6    0.91    0.50
  -2   2   6    0.70    0.49
  -2   2   6    0.79    0.75
  -1  -2   6   12.99    1.61
   1  -2  -6   10.50    1.71
  -1  -2   6   11.70    2.56
  -1  -2   6   10.89    1.98
   1  -2  -6   13.79    1.87
   1   2  -6   12.79    1.74
  -1   2   6   11.82    1.72
   1   2  -6   12.01    1.65
   1   2  -6   12.24    1.95
  -1   2   6   11.57    1.75
  -1   2   6    8.10    1.93
   0  -2  -6   68.37    6.16
   0  -2   6   54.08    6.69
   0  -2  -6   69.22    6.84
   0  -2   6   67.93    6.01
   0   2  -6   75.40    6.76
   0   2  -6   75.55    6.12
   0   2   6   75.53    6.26
   0   2   6   75.35    6.99
   0   2  -6   69.33    6.18
   0   2  -6   64.68    6.09
  -1  -2  -6   28.74    3.58
   1  -2   6   28.59    3.62
  -1  -2  -6   30.47    3.08
   1  -2   6   32.88    3.08
  -1  -2  -6   31.57    3.23
   1   2   6   32.77    3.20
  -1   2  -6   33.17    3.25
   1   2   6   35.34    3.21
   1   2   6   34.34    3.28
   1   2   6   31.88    3.67
  -1   2  -6   29.49    3.10
  -1   2  -6   30.13    3.12
  -1   2  -6   33.27    3.59
  -2  -2  -6   57.17    5.32
  -2  -2  -6   54.26    5.28
  -2  -2  -6   61.02    6.03
   2  -2   6   55.98    6.11
  -2   2  -6   60.47    5.95
   2   2   6   55.34    6.10
   2   2   6   57.04    5.36
   2   2   6   63.27    5.43
   2   2   6   60.76    5.36
  -2   2  -6   52.19    5.32
  -2   2  -6   67.48    5.49
  -2   2  -6   60.76    5.34
   3  -2   6   36.03    4.54
   3  -2   6   48.46    3.98
  -3  -2  -6   40.17    3.93
  -3  -2  -6   45.20    4.57
   3   2   6   40.19    3.95
   3   2   6   34.02    4.54
   3   2   6   50.43    4.15
  -3   2  -6   39.76    3.90
   3   2   6   38.26    3.89
  -3   2  -6   29.66    4.20
  -3   2  -6   41.35    3.90
  -3   2  -6   39.78    3.98
   4  -2   6   80.38    6.53
   4  -2   6   67.47    7.35
  -4  -2  -6   63.22    7.13
  -4  -2  -6   82.82    6.56
  -4   2  -6   91.68    6.65
  -4   2  -6   60.35    6.99
  -4   2  -6   72.24    6.56
   4   2   6   65.40    7.35
   4   2   6   68.86    6.41
   4   2   6   73.14    6.51
  -4   2  -6   56.48    6.37
   4   2   6   73.67    6.56
  -5  -2  -6   61.08    7.13
   5  -2   6   77.77    6.56
   5  -2   6   67.51    7.52
  -5  -2  -6   79.28    6.69
   5   2   6   68.75    6.43
   5   2   6   68.84    6.54
  -5   2  -6   77.25    6.68
   5   2   6   58.93    7.29
   5   2   6   73.81    6.56
  -5   2  -6   65.24    7.13
  -5   2  -6   75.17    6.62
  -5   2  -6   69.38    6.40
   6  -2   6  122.75   12.98
  -6  -2  -6  125.67   12.75
   6  -2   6  116.05   11.47
   6  -2   6  137.78   13.17
  -6  -2  -6  143.05   11.67
  -6   2  -6  142.21   13.00
   6   2   6  144.22   12.01
   6   2   6  141.62   11.63
  -6   2  -6  133.10   11.57
   6   2   6  138.99   13.84
  -6   2  -6  148.59   11.93
  -6   2  -6  125.40   11.76
   6   2   6  116.86   13.03
   6   2   6  132.91   11.60
  -7  -2  -6   30.20    4.67
   7  -2   6   31.64    3.74
   7  -2   6   36.10    3.85
   7  -2   6   28.38    4.83
   7   2   6   34.24    5.34
  -7   2  -6   33.65    5.00
  -7   2  -6   33.33    4.44
   7   2   6   27.08    3.82
   8  -2   6   49.93    6.01
  -8  -2  -6   37.48    5.91
   8   2   6   47.50    5.97
  -8   2  -6   47.46    5.62
  -8   2  -6   48.98    5.18
   8   2   6   46.85    5.03
  -9  -2  -6    4.05    1.80
   9  -2   6    4.02    1.96
  -9   2  -6    3.39    1.71
   9   2   6    4.05    1.89
   9   2   6    5.96    1.80
 -10  -2  -6    8.82    2.73
 -10   2  -6    9.47    2.86
  10   2   6    4.79    2.31
 -11  -2  -6    0.93    1.64
 -11   2  -6    1.85    1.45
 -12  -2  -6    0.94    1.74
 -12   2  -6    0.99    1.57
 -12  -3   6   -0.17    1.39
  12   3  -6   -1.55    1.17
 -12   3   6   -0.26    1.77
 -11  -3   6    0.09    1.20
  11  -3  -6   -0.48    1.48
 -11   3   6    0.20    1.51
 -11   3   6   -0.35    1.40
  11   3  -6   -0.12    1.12
 -10  -3   6    4.38    1.99
  10  -3  -6    6.06    2.42
 -10   3   6    8.60    2.81
 -10   3   6    6.27    2.37
  10   3  -6    7.62    2.16
   9  -3  -6   10.46    2.69
  -9  -3   6    5.69    2.36
  -9  -3   6    2.60    1.62
  -9   3   6    7.69    2.48
  -9   3   6    6.89    2.47
   9   3  -6    5.16    1.57
   8  -3  -6    4.12    1.86
  -8  -3   6    5.32    2.30
  -8  -3   6    6.00    1.87
  -8   3   6    4.10    2.02
   8   3  -6    4.80    1.49
  -8   3   6    6.19    2.14
  -8   3   6   10.89    2.18
   7  -3  -6    2.13    1.62
  -7  -3   6    2.07    1.29
  -7  -3   6    4.25    2.00
  -7   3   6    1.51    1.24
  -7   3   6    3.70    1.28
   7   3  -6    4.29    1.21
  -7   3   6    1.61    1.48
   7   3  -6    3.82    1.29
  -6  -3   6   25.14    2.36
   6  -3  -6   16.27    3.43
  -6  -3   6   27.41    3.66
  -6  -3   6   27.39    4.29
  -6   3   6   16.55    3.14
   6   3  -6   18.27    2.67
   6   3  -6   15.22    2.33
  -6   3   6   20.90    2.99
   6   3  -6   18.76    2.85
  -6   3   6   20.56    2.86
  -6   3   6   14.31    3.76
  -5  -3   6    8.02    2.32
  -5  -3   6   11.24    1.58
   5  -3  -6    4.87    1.96
  -5  -3   6    7.60    1.94
  -5   3   6    9.76    1.66
  -5   3   6    6.16    1.89
  -5   3   6   11.06    1.84
  -5   3   6   11.28    2.08
   5   3  -6    8.69    1.68
   5   3  -6   10.97    1.65
   5   3  -6    8.64    1.56
   4  -3  -6   18.74    3.45
  -4  -3   6   23.04    2.25
  -4  -3   6   21.98    3.71
  -4  -3   6   18.93    3.03
  -4   3   6   16.90    2.66
  -4   3   6   19.48    3.42
   4   3  -6   20.65    2.33
  -4   3   6   24.61    2.49
  -4   3   6   20.08    2.85
   4   3  -6   20.80    2.26
   4   3  -6   19.73    2.29
  -3  -3   6   62.82    6.90
  -3  -3   6   58.26    6.05
  -3  -3   6   63.90    5.22
   3   3  -6   58.66    5.39
   3   3  -6   59.95    5.41
  -3   3   6   56.68    5.50
  -3   3   6   59.07    5.54
   3   3  -6   58.77    5.39
  -3   3   6   69.19    5.64
  -3   3   6   55.37    6.22
  -3   3   6   51.62    5.60
   2  -3  -6   74.06    6.63
  -2  -3   6   78.03    6.40
  -2  -3   6   65.71    7.28
  -2  -3   6   80.48    8.20
   2   3  -6   77.45    6.55
  -2   3   6   70.78    6.71
  -2   3   6   71.01    7.38
  -2   3   6   71.60    6.68
   2   3  -6   73.17    6.52
  -2   3   6   76.37    6.66
   2   3  -6   82.28    6.65
   1  -3  -6   39.93    3.97
  -1  -3   6   45.45    3.80
  -1  -3   6   36.19    4.39
  -1  -3   6   42.79    4.98
   1   3  -6   43.08    3.94
  -1   3   6   40.47    4.60
  -1   3   6   44.76    4.06
   1   3  -6   43.95    3.94
   1   3  -6   39.38    4.36
   0  -3   6  112.64   10.98
   0  -3  -6  113.94   10.20
   0  -3   6  102.85   10.12
   0  -3   6  118.67    9.00
   0  -3  -6   90.51    9.07
   0   3  -6  104.75    9.11
   0   3   6  103.55   10.20
   0   3   6  112.87    9.19
   0   3  -6  105.02   10.02
   0   3  -6  106.12    9.26
   0   3   6  112.82    9.36
   0   3  -6  104.99    9.06
  -1  -3  -6   42.98    4.86
   1  -3   6   58.74    4.89
  -1  -3  -6   47.44    5.55
   1  -3   6   52.30    5.62
  -1   3  -6   59.18    4.97
  -1   3  -6   60.95    5.07
  -1   3  -6   48.79    4.95
   1   3   6   51.36    5.00
  -1   3  -6   56.09    5.53
   1   3   6   63.69    5.15
   1   3   6   58.92    5.12
   1   3   6   55.72    5.70
   2  -3   6  142.52   11.04
  -2  -3  -6  145.85   12.43
   2  -3   6  129.32   12.47
  -2   3  -6  115.27   11.03
  -2   3  -6  147.12   11.39
   2   3   6  136.61   11.38
   2   3   6  147.01   12.59
  -2   3  -6  117.80   12.14
   2   3   6  120.23   11.09
  -2   3  -6  124.32   11.12
   2   3   6  127.51   11.14
  -3  -3  -6   17.07    2.97
   3  -3   6   21.96    3.44
   3  -3   6   20.21    2.41
  -3   3  -6   26.77    2.61
   3   3   6   27.24    2.70
   3   3   6   21.28    2.46
  -3   3  -6   19.81    2.45
   3   3   6   20.82    3.44
   3   3   6   21.00    2.89
  -3   3  -6   23.87    2.59
  -3   3  -6   24.64    2.88
   4  -3   6    8.53    1.65
   4  -3   6    6.84    1.75
  -4  -3  -6    7.85    1.79
   4   3   6    8.69    1.63
  -4   3  -6    8.22    1.64
  -4   3  -6    4.68    1.18
   4   3   6    7.78    1.45
   4   3   6    7.59    1.94
   4   3   6    8.13    1.55
  -4   3  -6    6.35    1.34
  -4   3  -6   11.52    2.24
   5  -3   6    2.95    1.43
  -5  -3  -6    3.02    1.23
  -5   3  -6    5.43    1.39
   5   3   6    5.13    1.32
   5   3   6    5.90    1.76
   5   3   6    3.71    1.10
   5   3   6    3.31    1.11
  -5   3  -6    7.07    1.90
  -5   3  -6    6.91    1.45
  -5   3  -6    4.72    1.34
  -6  -3  -6    0.43    0.85
  -6  -3  -6    0.59    0.59
   6  -3   6    2.71    1.11
   6  -3   6    3.41    0.87
   6  -3   6    0.58    1.08
   6   3   6    1.84    0.98
   6   3   6    1.13    1.28
  -6   3  -6    2.00    1.02
  -6   3  -6    1.77    0.82
   6   3   6    0.76    0.86
  -6   3  -6    1.08    0.76
  -6   3  -6    0.23    0.83
  -7  -3  -6    8.15    2.27
   7  -3   6    7.21    2.41
   7   3   6    9.03    1.95
  -7   3  -6   13.16    2.55
  -7   3  -6    7.36    2.25
   7   3   6    9.36    2.57
  -8  -3  -6   16.61    3.56
   8  -3   6   22.12    4.31
  -8   3  -6   20.91    3.18
   8   3   6   19.20    4.07
   8   3   6   26.35    3.39
  -8   3  -6   18.00    3.74
  -9  -3  -6    1.99    1.54
   9   3   6    5.00    1.85
   9   3   6    7.02    2.58
  -9   3  -6    4.89    2.02
  -9   3  -6    2.14    1.36
 -10  -3  -6   11.95    3.15
  10   3   6   15.43    3.16
  10   3   6   13.82    3.72
 -10   3  -6   10.25    3.09
 -11  -3  -6    4.24    2.17
 -11   3  -6    4.25    2.35
 -12  -4   6    0.13    1.55
 -12   4   6    0.36    1.70
  12   4  -6    0.02    1.41
  11  -4  -6    6.86    2.56
 -11  -4   6    2.75    1.87
  11   4  -6    3.41    1.70
 -11   4   6   -0.13    1.64
  10  -4  -6    5.22    2.30
 -10  -4   6    7.49    2.46
 -10   4   6    3.46    1.97
  10   4  -6    8.73    2.30
 -10   4   6    3.40    1.89
  -9  -4   6   11.32    2.82
  -9  -4   6   13.52    3.57
   9  -4  -6   13.75    3.31
  -9   4   6   15.69    3.52
  -9   4   6   15.67    3.32
   9   4  -6   19.03    2.83
   8  -4  -6   16.60    3.25
  -8  -4   6   11.50    2.66
  -8  -4   6   14.46    3.35
  -8   4   6   11.88    3.08
  -8   4   6    7.96    2.48
  -8   4   6   14.84    2.53
   8   4  -6   15.43    2.40
  -7  -4   6   13.72    3.23
  -7  -4   6    7.98    2.15
   7  -4  -6   19.04    3.52
  -7   4   6   18.26    3.70
   7   4  -6   12.89    2.11
  -7   4   6    9.55    2.46
   7   4  -6   13.92    2.03
  -7   4   6   12.33    2.39
  -6  -4   6   14.45    3.02
  -6  -4   6    8.28    2.05
   6  -4  -6   10.39    2.69
   6   4  -6   10.14    1.84
  -6   4   6    6.29    1.96
   6   4  -6    8.30    1.56
  -6   4   6   11.10    1.90
  -6   4   6   11.64    2.16
  -6   4   6   13.16    3.77
   6   4  -6   10.15    1.75
  -6   4   6    9.77    1.82
  -5  -4   6   22.59    2.42
   5  -4  -6   20.41    3.77
  -5  -4   6   19.50    3.82
  -5  -4   6   20.38    3.29
   5   4  -6   27.34    2.76
  -5   4   6   17.70    3.45
   5   4  -6   23.10    2.72
  -5   4   6   24.96    2.89
  -5   4   6   29.35    2.99
   5   4  -6   28.42    2.87
   5   4  -6   27.18    2.69
  -5   4   6   26.94    3.57
  -4  -4   6    4.07    1.64
  -4  -4   6    5.51    1.55
  -4  -4   6    7.64    1.11
   4  -4  -6    3.58    1.71
   4   4  -6    5.52    1.14
  -4   4   6    6.60    1.60
   4   4  -6    6.71    1.18
  -4   4   6    7.03    1.36
   4   4  -6    5.56    1.13
  -4   4   6    7.97    1.83
  -4   4   6    4.41    1.18
   3  -4  -6    2.86    1.88
  -3  -4   6    2.01    0.61
  -3  -4   6    1.38    0.87
  -3  -4   6    2.90    1.32
   3   4  -6    0.61    0.49
  -3   4   6    1.24    0.61
   3   4  -6    1.61    0.63
  -3   4   6    2.15    0.89
   3   4  -6    2.05    0.60
  -3   4   6    1.17    0.98
  -3   4   6    1.87    0.81
  -2  -4   6    9.33    1.22
  -2  -4   6    7.41    1.61
   2  -4  -6    8.78    2.34
  -2  -4   6   10.06    2.26
  -2   4   6    8.94    1.56
   2   4  -6    8.18    1.37
   2   4  -6    8.12    1.29
  -2   4   6    6.83    1.72
  -2   4   6   11.00    1.81
   2   4  -6    8.57    1.22
  -1  -4   6   30.32    3.99
   1  -4  -6   33.81    4.42
  -1  -4   6   31.30    3.57
   1  -4  -6   32.25    3.17
  -1  -4   6   34.80    2.91
   1   4  -6   28.59    2.93
  -1   4   6   30.61    3.19
   1   4  -6   30.39    3.07
   1   4  -6   33.07    3.10
   1   4  -6   29.10    3.42
  -1   4   6   37.75    3.34
  -1   4   6   29.94    3.71
   0  -4   6   13.37    1.50
   0  -4   6   11.62    2.31
   0  -4  -6   10.47    1.73
   0  -4   6   15.47    2.35
   0  -4  -6   11.69    2.19
   0  -4  -6   20.79    3.36
   0   4   6   12.79    1.84
   0   4  -6   14.88    2.14
   0   4   6   11.76    2.23
   0   4  -6   13.57    1.56
   0   4  -6   13.19    1.80
   0   4   6   13.63    1.85
   0   4  -6   10.91    1.64
  -1  -4  -6    7.14    1.74
   1  -4   6    9.77    1.94
  -1  -4  -6    8.30    2.39
   1  -4   6   11.88    1.56
  -1  -4  -6    9.64    1.58
   1  -4   6    6.98    1.78
   1   4   6   13.05    1.78
   1   4   6   12.56    1.81
  -1   4  -6   11.00    1.90
  -1   4  -6   13.19    1.68
  -1   4  -6   11.75    1.57
   1   4   6   13.88    1.95
   1   4   6   10.08    2.08
  -1   4  -6    7.64    1.50
   2  -4   6   39.62    5.13
   2  -4   6   49.72    5.32
  -2  -4  -6   44.69    5.15
  -2  -4  -6   57.10    4.61
   2  -4   6   45.96    4.41
   2   4   6   49.66    4.65
  -2   4  -6   50.23    4.60
  -2   4  -6   46.12    5.03
   2   4   6   55.91    4.73
  -2   4  -6   53.05    4.67
   2   4   6   39.79    4.44
   2   4   6   50.75    5.38
  -2   4  -6   54.03    4.67
   3  -4   6   85.40    6.44
   3  -4   6   70.07    7.32
  -3  -4  -6   66.70    7.20
  -3  -4  -6   68.52    6.30
   3  -4   6   67.91    7.27
  -3   4  -6   71.61    7.08
   3   4   6   76.38    6.53
  -3   4  -6   82.70    6.46
   3   4   6   66.49    6.46
  -3   4  -6   65.22    6.40
  -3   4  -6   71.16    6.54
   3   4   6   76.61    6.56
   3   4   6   63.29    7.25
  -4  -4  -6   68.58    6.99
  -4  -4  -6   73.76    6.03
   4  -4   6   75.34    5.99
   4  -4   6   67.46    6.55
  -4  -4  -6   64.07    6.69
   4  -4   6   76.60    7.12
  -4   4  -6   65.91    5.92
  -4   4  -6   51.38    5.83
   4   4   6   57.45    5.97
   4   4   6   65.53    6.00
  -4   4  -6   56.61    5.97
   4   4   6   65.99    6.89
  -4   4  -6   54.44    6.45
   4   4   6   62.57    5.84
   5  -4   6   60.34    5.76
  -5  -4  -6   51.78    5.62
   5  -4   6   55.72    6.61
   5  -4   6   62.82    6.21
  -5  -4  -6   58.75    6.51
  -5   4  -6   68.79    6.06
  -5   4  -6   67.58    5.88
  -5   4  -6   60.46    6.56
   5   4   6   58.87    6.70
  -5   4  -6   57.83    5.84
   5   4   6   61.01    5.86
   5   4   6   71.97    6.00
   5   4   6   63.78    5.81
   6  -4   6   43.91    5.77
  -6  -4  -6   49.27    5.71
   6  -4   6   51.32    5.09
  -6   4  -6   53.94    5.92
   6   4   6   45.78    4.94
  -6   4  -6   60.07    5.32
   6   4   6   48.95    6.03
  -6   4  -6   51.60    5.30
   7  -4   6   17.26    3.51
  -7  -4  -6   18.18    3.38
  -7   4  -6   16.31    3.27
   7   4   6   21.47    3.07
  -7   4  -6   34.52    4.13
   7   4   6   22.44    4.16
  -7   4  -6   25.01    3.30
   8  -4   6   23.01    4.40
  -8  -4  -6   19.44    3.74
   8   4   6   27.20    3.69
  -8   4  -6   19.07    3.81
   8   4   6   23.28    4.49
  -8   4  -6   20.03    3.39
  -9  -4  -6    4.69    2.09
   9   4   6   10.03    2.37
  -9   4  -6    2.39    1.66
   9   4   6    4.60    2.28
  -9   4  -6    2.73    1.44
 -10  -4  -6    3.54    2.11
  10   4   6    4.10    2.23
 -10   4  -6    5.44    2.38
  10   4   6    4.49    1.89
 -11  -4  -6    2.83    1.99
 -11   4  -6    3.69    2.14
  11  -5  -6    0.86    1.88
 -11  -5   6   -1.19    1.14
  11   5  -6    0.95    1.26
 -11   5   6    1.21    1.70
  10  -5  -6   -0.46    1.68
 -10  -5   6    1.26    1.28
  10   5  -6    0.97    1.15
 -10   5   6    1.11    1.52
 -10   5   6    0.58    1.56
   9  -5  -6   -0.07    1.44
  -9  -5   6    2.95    1.51
   9   5  -6    1.26    1.06
  -9   5   6    2.09    1.78
  -9   5   6    0.97    1.62
  -8  -5   6    3.83    1.94
  -8  -5   6    1.79    1.18
   8  -5  -6    2.97    1.85
  -8   5   6    4.25    1.44
  -8   5   6    0.65    1.44
  -8   5   6    1.80    1.61
   8   5  -6    2.72    1.22
  -7  -5   6   27.00    4.64
  -7  -5   6   13.08    2.88
   7  -5  -6   19.38    3.91
   7   5  -6   24.43    3.23
  -7   5   6   18.69    2.87
   7   5  -6   17.87    2.54
  -7   5   6   18.09    3.56
  -7   5   6   19.51    4.44
   6  -5  -6   49.84    5.83
  -6  -5   6   48.15    4.99
  -6  -5   6   42.47    6.44
  -6   5   6   37.03    4.43
   6   5  -6   42.35    4.30
  -6   5   6   44.21    4.51
  -6   5   6   34.82    4.93
   6   5  -6   47.55    4.43
   6   5  -6   43.26    4.30
  -5  -5   6   76.79    8.30
  -5  -5   6   68.20    7.16
   5  -5  -6   56.00    7.89
  -5   5   6   71.57    6.57
   5   5  -6   75.07    6.38
  -5   5   6   79.07    6.67
  -5   5   6   74.44    6.71
  -5   5   6   70.43    7.48
   5   5  -6   59.73    6.28
   5   5  -6   72.59    6.37
   5   5  -6   67.84    6.36
  -4  -5   6   24.03    3.86
  -4  -5   6   18.16    2.82
   4  -5  -6   11.69    3.15
   4   5  -6   19.18    2.09
  -4   5   6   19.14    2.62
  -4   5   6   15.21    2.98
   4   5  -6   18.57    2.03
   4   5  -6   18.00    2.13
  -4   5   6   22.02    2.46
  -4   5   6   17.03    2.56
  -3  -5   6   30.62    3.96
   3  -5  -6   28.86    5.04
  -3  -5   6   31.22    4.55
   3  -5  -6   34.12    3.67
  -3   5   6   45.57    3.80
   3   5  -6   34.31    3.45
  -3   5   6   42.59    3.90
   3   5  -6   41.61    3.56
  -3   5   6   31.68    4.30
  -3   5   6   45.92    4.15
   3   5  -6   36.09    3.45
   2  -5  -6   55.61    4.59
  -2  -5   6   46.43    4.95
  -2  -5   6   52.43    5.75
   2  -5  -6   55.87    6.16
   2   5  -6   49.90    4.36
  -2   5   6   37.56    5.04
  -2   5   6   43.64    4.52
   2   5  -6   44.64    4.27
   2   5  -6   74.62    7.33
   2   5  -6   47.61    4.36
   2   5  -6   45.07    4.85
  -1  -5   6   76.25    7.96
   1  -5  -6  101.63    9.51
   1  -5  -6   89.07    7.33
  -1  -5   6   81.12    8.89
   1   5  -6   80.60    7.87
   1   5  -6   76.59    7.16
  -1   5   6   84.22    7.50
   1   5  -6   82.89    7.17
  -1   5   6   82.67    8.28
   1   5  -6   85.98    7.24
  -1   5   6   89.68    7.41
   0  -5   6   39.90    4.77
   0  -5  -6   45.40    4.28
   0  -5   6   44.11    5.30
   0  -5  -6   48.69    5.81
   0  -5  -6   41.63    4.89
   0   5   6   39.05    4.25
   0   5  -6   49.29    4.73
   0   5  -6   46.74    4.19
   0   5   6   55.11    4.51
   0   5  -6   49.65    4.31
   0   5  -6   47.41    4.26
   0   5   6   46.51    5.01
  -1  -5  -6    9.38    2.50
  -1  -5  -6   13.13    1.72
   1  -5   6    7.92    1.86
   1  -5   6    8.71    1.90
  -1  -5  -6   10.97    2.10
   1   5   6   10.02    1.68
   1   5   6   11.76    1.75
  -1   5  -6    9.60    1.48
   1   5   6   14.15    2.29
  -1   5  -6    9.10    1.54
  -1   5  -6   12.10    1.95
  -1   5  -6   10.92    1.63
   1   5   6    8.33    1.51
   2  -5   6    5.33    1.31
   2  -5   6    5.13    0.99
  -2  -5  -6    4.72    1.67
  -2  -5  -6    5.50    1.53
  -2  -5  -6    5.21    1.10
   2  -5   6    6.41    1.48
   2   5   6    3.31    0.93
   2   5   6    4.84    1.13
   2   5   6    3.56    1.04
  -2   5  -6    6.58    1.46
   2   5   6    4.24    1.48
  -2   5  -6    4.35    1.00
  -2   5  -6    4.71    1.16
  -2   5  -6    4.98    1.04
  -3  -5  -6    4.80    1.43
   3  -5   6    4.82    1.09
  -3  -5  -6    2.55    1.48
   3  -5   6    4.61    1.15
  -3  -5  -6    5.45    1.18
   3  -5   6    4.17    1.46
   3   5   6    4.49    1.15
  -3   5  -6    4.46    1.09
   3   5   6    4.80    1.11
  -3   5  -6    5.28    1.14
   3   5   6    7.24    1.75
  -3   5  -6    3.75    1.22
  -3   5  -6    6.92    1.30
   3   5   6    4.66    1.09
  -4  -5  -6    2.97    1.23
  -4  -5  -6    3.10    1.37
  -4  -5  -6    1.12    0.69
   4  -5   6    2.60    0.81
   4  -5   6    3.53    0.99
   4  -5   6    1.25    1.04
  -4   5  -6    2.19    0.97
  -4   5  -6    1.43    1.04
   4   5   6    1.98    0.90
   4   5   6    1.82    0.81
  -4   5  -6    2.99    0.95
  -4   5  -6    1.95    0.83
   4   5   6    0.70    1.03
   4   5   6    2.50    0.96
  -5  -5  -6   22.45    3.37
  -5  -5  -6   19.26    3.03
   5  -5   6   18.23    2.07
   5  -5   6   20.37    3.41
  -5   5  -6   18.82    2.78
   5   5   6   22.35    3.72
   5   5   6   17.46    2.63
  -5   5  -6   22.01    3.01
   5   5   6   19.02    2.92
  -5   5  -6   19.89    3.23
   5   5   6   21.08    2.80
  -5   5  -6   16.86    2.62
  -6  -5  -6    4.38    1.31
   6  -5   6    3.59    1.59
  -6  -5  -6    0.93    1.06
   6   5   6    0.97    1.15
  -6   5  -6    1.52    1.14
  -6   5  -6    4.25    1.24
  -6   5  -6    3.08    1.16
   6   5   6    3.29    1.07
   7  -5   6    5.86    2.36
   7   5   6   13.47    2.23
  -7   5  -6   18.98    2.84
  -7   5  -6   13.61    2.60
   7   5   6   14.99    3.35
  -7   5  -6   10.86    2.80
  -8  -5  -6   -1.10    0.87
  -8   5  -6   -0.47    0.81
   8   5   6   -0.59    1.14
   8   5   6   -0.07    0.81
  -8   5  -6    1.22    1.39
  -9  -5  -6   10.38    2.81
  -9   5  -6    8.39    2.98
   9   5   6    8.26    2.03
   9   5   6   12.08    3.27
  -9   5  -6   11.11    2.67
 -10  -5  -6    3.96    2.13
  10   5   6    1.47    1.43
 -10   5  -6    2.62    2.02
 -11  -5  -6    7.68    2.70
 -11   5  -6    9.00    3.29
  11   5   6   11.44    2.73
 -11  -6   6    1.23    1.45
  11  -6  -6    8.67    3.26
 -11   6   6    2.02    1.90
  11   6  -6    4.92    1.87
  10  -6  -6    1.36    1.88
 -10  -6   6    1.12    1.28
  10   6  -6    2.52    1.56
 -10   6   6    2.13    1.97
  -9  -6   6    7.94    2.36
   9  -6  -6   22.19    4.14
  -9   6   6   18.12    3.68
   9   6  -6   12.86    2.45
  -9   6   6   14.57    2.83
  -9   6   6   15.69    3.59
   8  -6  -6   15.64    3.50
  -8  -6   6    9.35    2.47
  -8  -6   6   20.02    4.15
  -8   6   6   11.66    3.12
  -8   6   6   12.52    3.25
   8   6  -6   14.67    2.48
  -8   6   6   15.03    2.64
  -7  -6   6   10.00    2.34
  -7  -6   6   14.98    3.34
   7  -6  -6   16.02    3.54
  -7   6   6    9.76    2.71
  -7   6   6   13.00    3.88
   7   6  -6   14.77    2.35
  -7   6   6   14.61    2.50
   7   6  -6   16.84    2.28
  -6  -6   6    4.13    1.49
   6  -6  -6    5.46    2.30
  -6  -6   6    7.19    2.37
   6   6  -6    5.67    1.27
   6   6  -6    5.72    1.34
   6   6  -6    5.12    1.17
  -6   6   6    4.79    1.90
  -6   6   6    2.81    1.24
  -6   6   6    6.99    1.57
  -5  -6   6   13.31    2.91
   5  -6  -6    8.49    2.48
  -5  -6   6    8.01    1.81
  -5   6   6   11.05    1.91
   5   6  -6   13.36    1.76
  -5   6   6   12.29    2.61
   5   6  -6   10.13    1.58
  -5   6   6    8.56    1.74
   5   6  -6    9.35    1.65
   5   6  -6    6.65    1.54
   4  -6  -6   -0.59    1.10
  -4  -6   6    0.10    0.84
  -4  -6   6    1.31    0.87
  -4   6   6   -0.11    0.50
  -4   6   6   -0.07    0.53
  -4   6   6   -0.42    0.61
  -4   6   6   -0.44    0.73
   4   6  -6    0.35    0.48
   4   6  -6   -0.19    0.35
   4   6  -6    0.14    0.42
  -3  -6   6    1.36    1.29
   3  -6  -6    1.87    1.43
  -3  -6   6    1.88    0.91
   3  -6  -6    0.20    0.70
   3   6  -6    1.46    0.54
   3   6  -6    1.67    0.64
  -3   6   6    1.63    0.75
  -3   6   6    2.91    1.24
   3   6  -6    1.29    0.48
  -3   6   6    1.59    0.80
  -3   6   6    2.98    1.15
  -2  -6   6   11.27    2.06
   2  -6  -6   15.92    2.08
   2  -6  -6   12.02    3.03
  -2  -6   6   15.46    3.00
   2   6  -6   16.11    1.69
  -2   6   6   14.84    2.65
   2   6  -6   16.79    2.04
   2   6  -6   15.71    1.62
   2   6  -6   14.66    1.70
  -2   6   6   14.43    2.15
   1  -6  -6    7.18    1.65
  -1  -6   6    8.84    2.08
   1  -6  -6    4.15    1.89
   1  -6  -6    9.00    1.43
  -1  -6   6    6.89    1.54
   1   6  -6    8.33    1.10
  -1   6   6    4.49    1.27
  -1   6   6    6.50    1.74
   1   6  -6    6.31    1.34
   1   6  -6    7.27    1.11
   1   6  -6   10.20    2.87
   1   6  -6    8.37    1.29
   0  -6   6    7.17    1.79
   0  -6  -6    7.99    2.33
   0  -6  -6    9.22    1.40
   0  -6   6    5.08    1.39
   0  -6  -6    4.54    1.47
   0   6   6    8.31    1.44
   0   6   6    7.43    1.74
   0   6  -6    8.08    1.32
   0   6  -6    6.93    1.26
   0   6   6    8.42    1.46
   0   6  -6    8.86    1.24
   0   6  -6    7.16    1.44
   1  -6   6   42.57    4.81
   1  -6   6   40.72    4.49
  -1  -6  -6   40.49    4.52
  -1  -6  -6   43.48    5.25
  -1  -6  -6   41.51    3.87
  -1   6  -6   44.98    3.98
   1   6   6   41.58    4.09
   1   6   6   39.85    4.03
   1   6   6   42.77    4.08
  -1   6  -6   41.38    4.37
   1   6   6   37.64    4.61
  -1   6  -6   40.96    3.95
  -1   6  -6   40.71    3.93
   2  -6   6    8.46    1.94
  -2  -6  -6    7.64    2.20
  -2  -6  -6   10.00    2.05
   2  -6   6    9.78    1.91
  -2  -6  -6   11.07    1.54
   2  -6   6   12.92    2.06
   2   6   6    8.88    2.07
  -2   6  -6    7.61    1.79
  -2   6  -6   10.38    1.63
  -2   6  -6   10.62    1.67
   2   6   6   11.12    1.84
  -2   6  -6   10.05    1.66
   2   6   6   10.24    1.71
   2   6   6   12.49    1.85
  -3  -6  -6   52.78    5.43
  -3  -6  -6   48.03    4.50
   3  -6   6   46.37    5.36
   3  -6   6   62.59    5.39
  -3  -6  -6   50.90    5.85
   3   6   6   43.37    4.71
  -3   6  -6   57.44    4.89
  -3   6  -6   43.26    5.12
   3   6   6   49.65    5.63
  -3   6  -6   47.38    4.66
   3   6   6   47.98    4.79
  -3   6  -6   51.06    4.79
   3   6   6   45.05    4.69
   4  -6   6   26.25    2.65
  -4  -6  -6   23.38    3.68
  -4  -6  -6   18.04    3.22
   4  -6   6   18.78    3.45
  -4   6  -6   30.38    2.95
  -4   6  -6   23.15    2.73
   4   6   6   20.97    3.02
   4   6   6   25.41    2.79
   4   6   6   21.00    3.05
  -4   6  -6   24.74    2.79
   4   6   6   21.52    3.73
  -4   6  -6   25.44    3.70
  -5  -6  -6   60.43    6.67
  -5  -6  -6   65.60    6.79
   5  -6   6   62.44    6.91
  -5   6  -6   57.70    5.94
   5   6   6   65.18    6.07
  -5   6  -6   66.04    6.13
   5   6   6   64.12    6.96
  -5   6  -6   57.83    6.70
   5   6   6   64.81    5.94
   6  -6   6    9.00    2.51
  -6  -6  -6    7.91    2.18
  -6  -6  -6    9.01    1.93
  -6   6  -6    8.12    1.77
   6   6   6    9.69    2.69
  -6   6  -6   11.08    2.04
  -6   6  -6   12.55    2.65
   6   6   6    8.32    1.82
  -7  -6  -6   15.88    3.23
  -7   6  -6   17.53    3.57
   7   6   6   13.06    3.06
  -7   6  -6   14.86    2.67
   7   6   6   13.76    2.52
  -7   6  -6   17.83    2.70
  -8  -6  -6    8.23    2.35
  -8   6  -6    7.75    2.68
   8   6   6    9.51    2.11
  -8   6  -6    8.20    2.18
  -9  -6  -6   12.60    3.26
  -9   6  -6   18.74    3.47
  -9   6  -6   19.80    4.10
   9   6   6   18.27    3.19
 -10  -6  -6    6.35    2.50
  10   6   6    3.53    1.63
  10  -7  -6    2.36    2.13
 -10  -7   6    4.48    1.73
  10   7  -6    2.46    1.40
 -10   7   6    3.24    2.44
   9  -7  -6    1.20    1.81
  -9  -7   6   -0.05    0.93
  -9   7   6   -0.18    1.18
  -9   7   6    1.72    1.54
   9   7  -6   -0.60    0.68
  -8  -7   6    8.04    1.96
   8  -7  -6    8.69    2.97
  -8   7   6    4.99    2.50
  -8   7   6    7.41    2.12
  -8   7   6    3.53    1.95
   8   7  -6    5.14    1.54
   7  -7  -6    1.01    1.68
  -7  -7   6    2.75    1.29
  -7  -7   6    0.79    1.29
  -7   7   6    1.39    1.54
  -7   7   6    1.61    1.20
   7   7  -6    1.59    0.83
   7   7  -6    2.57    1.00
  -6  -7   6    4.75    1.55
  -6  -7   6   13.23    3.20
   6  -7  -6   10.90    3.03
   6   7  -6    6.85    1.40
   6   7  -6    7.85    1.66
  -6   7   6    8.35    1.79
   6   7  -6   11.38    1.66
  -6   7   6   13.81    2.42
  -6   7   6    8.50    2.38
  -5  -7   6   30.51    4.74
  -5  -7   6   22.22    3.28
   5  -7  -6   24.46    4.51
   5   7  -6   21.63    2.49
  -5   7   6   21.94    3.22
  -5   7   6   24.94    4.12
   5   7  -6   23.62    2.70
  -5   7   6   24.32    3.28
   5   7  -6   24.44    2.54
   5   7  -6   25.23    2.72
  -4  -7   6   10.44    1.96
   4  -7  -6    9.41    2.91
  -4  -7   6   11.46    2.87
  -4   7   6   13.44    2.03
   4   7  -6   11.26    1.56
   4   7  -6   16.11    1.98
   4   7  -6   12.54    1.61
  -4   7   6   12.83    2.23
  -4   7   6    7.60    2.22
  -3  -7   6   46.11    4.57
  -3  -7   6   47.88    5.67
   3  -7  -6   51.74    6.06
   3   7  -6   47.03    4.12
  -3   7   6   49.70    4.78
   3   7  -6   43.06    3.98
  -3   7   6   39.30    4.31
  -3   7   6   31.90    4.79
   3   7  -6   45.21    4.02
   2  -7  -6   28.10    2.85
  -2  -7   6   21.16    2.98
  -2  -7   6   23.30    4.08
   2  -7  -6   29.78    4.90
   2   7  -6   29.27    2.62
  -2   7   6   28.25    4.04
   2   7  -6   29.98    2.81
  -2   7   6   29.72    3.06
   2   7  -6   26.64    3.02
   1  -7  -6   40.24    4.73
   1  -7  -6   42.15    5.51
  -1  -7   6   37.09    4.40
  -1  -7   6   48.39    5.37
  -1   7   6   41.51    4.18
   1   7  -6   45.04    4.02
   1   7  -6   45.55    3.80
  -1   7   6   45.47    4.90
   1   7  -6   42.11    4.35
   0  -7   6   28.38    3.39
   0  -7   6   21.47    2.76
   0  -7  -6   23.55    3.31
   0  -7  -6   23.32    4.14
   0   7  -6   21.21    2.41
   0   7  -6   24.29    2.34
   0   7  -6   24.69    2.46
   0   7   6   27.96    2.76
   0   7  -6   21.89    2.69
   0   7   6   21.68    2.58
   0   7  -6   21.49    2.17
   0   7   6   21.85    3.41
   1  -7   6   18.48    2.84
   1  -7   6   20.13    2.78
  -1  -7  -6   14.85    2.59
  -1  -7  -6   15.35    3.08
  -1   7  -6   13.74    2.27
   1   7   6   15.11    2.16
  -1   7  -6   17.87    2.02
   1   7   6   17.27    2.27
  -1   7  -6   16.81    1.89
   1   7   6   17.71    2.93
  -1   7  -6   15.77    2.15
  -2  -7  -6   23.82    4.04
  -2  -7  -6   27.46    3.28
   2  -7   6   27.29    3.20
   2  -7   6   24.79    3.14
   2   7   6   27.65    2.76
   2   7   6   25.68    3.76
  -2   7  -6   22.62    2.67
  -2   7  -6   23.54    2.66
  -2   7  -6   23.40    2.67
   2   7   6   25.68    2.78
  -2   7  -6   23.37    2.94
   2   7   6   25.39    2.83
   3  -7   6   16.13    2.85
   3  -7   6   15.53    2.08
  -3  -7  -6   15.86    2.68
  -3  -7  -6   13.54    2.84
  -3   7  -6   16.13    2.22
   3   7   6   15.32    2.26
  -3   7  -6   14.64    2.61
   3   7   6   13.41    2.84
   3   7   6   16.15    2.38
  -3   7  -6   15.22    2.27
  -3   7  -6   16.30    2.34
   3   7   6   12.62    2.12
  -4  -7  -6    6.14    1.85
   4  -7   6    7.89    2.00
  -4  -7  -6    8.67    1.91
   4   7   6    9.73    1.67
  -4   7  -6    6.62    1.46
  -4   7  -6    6.02    1.66
   4   7   6    7.25    2.03
  -4   7  -6    7.80    1.67
   4   7   6    7.64    1.62
  -5  -7  -6    7.30    1.87
  -5  -7  -6    8.26    1.91
   5  -7   6    8.08    2.24
   5   7   6    6.50    1.50
  -5   7  -6    4.71    1.67
   5   7   6    3.78    1.69
   5   7   6    8.33    1.70
  -5   7  -6    7.92    1.60
  -5   7  -6    8.41    1.79
  -6  -7  -6    3.95    1.62
  -6  -7  -6    1.10    1.05
  -6   7  -6    2.57    1.08
   6   7   6    3.35    1.14
  -6   7  -6    1.19    1.33
  -6   7  -6    1.91    1.07
  -7  -7  -6    4.50    1.76
  -7   7  -6    5.88    1.55
  -7   7  -6    3.27    1.21
   7   7   6    4.44    1.45
  -8  -7  -6    4.61    1.94
   8   7   6    1.41    1.07
  -8   7  -6    2.03    1.31
  -9  -7  -6    3.37    1.92
  -9   7  -6    1.33    1.52
   9   7   6    3.29    1.49
 -10  -7  -6    5.05    2.48
  10   7   6   11.14    2.61
 -10   7  -6    9.95    2.83
  10  -8  -6    6.70    3.04
 -10  -8   6    2.76    1.61
  10   8  -6    3.36    1.52
   9  -8  -6    2.61    2.26
  -9  -8   6    0.92    1.07
   9   8  -6   -0.62    0.78
  -9   8   6    3.07    1.59
  -8  -8   6    7.68    2.13
   8  -8  -6   14.11    3.85
  -8   8   6   13.36    2.60
   8   8  -6   12.24    2.15
   7  -8  -6   -0.86    1.54
  -7  -8   6    0.32    0.78
  -7   8   6    0.18    1.28
   7   8  -6    0.69    0.71
   7   8  -6   -0.40    0.52
  -7   8   6   -0.44    0.75
  -6  -8   6    4.18    1.35
  -6  -8   6    2.37    1.88
   6  -8  -6    6.32    2.47
   6   8  -6    5.14    1.12
  -6   8   6    6.89    1.54
   6   8  -6    3.83    1.11
  -6   8   6    4.63    1.45
  -6   8   6    4.76    1.84
   6   8  -6    5.03    1.14
  -5  -8   6    2.24    1.51
  -5  -8   6    0.23    0.68
   5  -8  -6   -0.14    1.43
  -5   8   6   -0.13    0.77
   5   8  -6    0.43    0.45
  -5   8   6    0.26    1.02
  -5   8   6    0.57    0.75
   5   8  -6    0.53    0.47
   5   8  -6    0.87    0.70
  -4  -8   6    4.49    1.81
   4  -8  -6    4.69    2.11
  -4  -8   6    3.32    0.99
  -4   8   6    2.43    1.06
  -4   8   6    4.74    1.34
  -4   8   6    3.07    1.54
   4   8  -6    4.48    1.07
   4   8  -6    4.20    0.85
   4   8  -6    3.13    0.79
   3  -8  -6    1.24    1.53
  -3  -8   6    0.51    0.96
  -3  -8   6    1.10    0.67
   3   8  -6    0.65    0.54
  -3   8   6    0.37    0.61
  -3   8   6   -0.25    0.88
  -2  -8   6    4.20    1.65
   2  -8  -6    3.75    1.90
  -2  -8   6    2.40    0.85
  -2   8   6    3.47    1.02
  -2   8   6    0.82    1.10
   2   8  -6    3.58    0.89
  -1  -8   6    3.41    1.46
   1  -8  -6    1.58    1.46
  -1  -8   6    3.02    0.93
   1  -8  -6    1.55    1.06
  -1   8   6    2.36    1.22
  -1   8   6    2.04    0.88
   1   8  -6    1.51    0.70
   0  -8   6   10.50    1.86
   0  -8  -6    7.45    2.47
   0  -8  -6   12.00    2.14
   0  -8   6    8.19    2.18
   0   8  -6   11.50    1.76
   0   8   6   10.12    1.78
   0   8   6   13.10    2.45
   0   8  -6   16.30    3.46
   0   8  -6   10.97    1.62
  -1  -8  -6   -0.04    0.67
  -1  -8  -6    0.44    1.31
   1  -8   6    2.01    1.12
   1  -8   6    1.17    0.76
   1   8   6    0.72    0.57
  -1   8  -6    1.55    0.63
   1   8   6    1.08    1.12
  -1   8  -6    1.19    0.68
  -1   8  -6    1.43    0.75
   1   8   6    0.61    0.67
  -2  -8  -6   34.75    4.11
   2  -8   6   41.21    4.27
  -2  -8  -6   38.62    4.82
   2  -8   6   34.45    3.98
   2   8   6   31.45    4.17
   2   8   6   31.41    3.56
  -2   8  -6   35.79    3.55
  -2   8  -6   31.05    3.43
  -2   8  -6   41.23    3.62
   2   8   6   34.60    3.60
   3  -8   6    6.32    1.82
  -3  -8  -6    6.05    1.78
  -3  -8  -6   11.59    2.64
  -3   8  -6   12.15    1.79
   3   8   6    9.68    1.68
  -3   8  -6   10.18    1.76
   3   8   6    9.34    1.74
  -4  -8  -6   62.81    6.90
  -4  -8  -6   56.35    6.39
  -4   8  -6   70.63    6.01
  -4   8  -6   58.44    5.73
   4   8   6   57.98    5.78
   4   8   6   63.45    5.89
  -5  -8  -6   12.42    2.60
  -5  -8  -6    9.50    2.20
  -5   8  -6   16.29    2.54
  -5   8  -6   10.06    2.13
   5   8   6   12.10    1.98
   5   8   6   15.82    2.38
  -6  -8  -6   25.25    4.03
  -6   8  -6   30.46    3.47
  -6   8  -6   27.75    3.77
   6   8   6   25.33    3.51
  -7  -8  -6   10.39    2.57
  -7   8  -6   10.61    2.53
  -7   8  -6   17.24    2.75
   7   8   6    9.53    2.13
  -8  -8  -6   11.37    2.77
   8   8   6   15.12    2.64
  -8   8  -6   11.71    2.77
  -9  -8  -6    2.96    1.71
  -9   8  -6    5.33    1.86
   9   8   6    0.38    1.23
   9  -9  -6    1.01    1.96
  -9  -9   6    0.13    0.97
  -9   9   6   -0.88    1.20
   9   9  -6   -1.41    0.72
  -8  -9   6    0.43    0.98
   8  -9  -6    1.60    2.00
   8   9  -6   -0.17    0.69
  -8   9   6    2.86    1.57
  -7  -9   6    1.43    1.03
   7  -9  -6    5.06    2.71
   7   9  -6    2.26    0.98
   7   9  -6    2.77    0.94
  -7   9   6    4.26    1.60
  -6  -9   6    6.31    1.55
   6  -9  -6   10.13    3.15
   6   9  -6   11.50    1.96
   6   9  -6    9.91    1.65
   6   9  -6    8.34    1.52
  -6   9   6   10.33    2.17
  -6   9   6   13.45    2.43
  -5  -9   6    7.43    2.44
  -5  -9   6    3.83    1.14
   5  -9  -6    5.85    2.43
  -5   9   6    5.37    1.50
   5   9  -6    4.73    1.06
   5   9  -6    5.76    1.15
  -5   9   6    7.66    1.86
  -4  -9   6   22.44    2.63
  -4  -9   6   22.57    4.63
   4  -9  -6   29.96    5.34
   4   9  -6   25.04    2.68
  -4   9   6   27.98    3.08
  -4   9   6   23.60    3.28
   3  -9  -6    4.93    2.32
  -3  -9   6    6.43    2.43
  -3  -9   6    5.52    1.04
  -3   9   6    7.13    1.56
   3   9  -6    5.63    1.15
   2  -9  -6   29.75    5.15
  -2  -9   6   27.58    2.75
  -2  -9   6   30.48    4.96
   2  -9  -6   23.14    3.61
   2   9  -6   27.38    2.76
  -2   9   6   24.44    3.00
   1  -9  -6    2.84    1.15
   1  -9  -6    1.77    1.55
  -1  -9   6    2.99    0.83
  -1  -9   6    5.82    1.81
  -1   9   6    4.03    1.16
   1   9  -6    5.38    1.10
   1   9  -6    6.85    1.15
   0  -9   6   49.26    5.28
   0  -9  -6   43.52    5.52
   0  -9   6   37.46    4.06
   0  -9  -6   39.36    4.48
   0   9   6   37.58    4.01
   0   9  -6   41.97    3.87
   0   9  -6   40.57    3.87
   1  -9   6   13.21    2.39
  -1  -9  -6   21.22    4.03
   1  -9   6   20.84    3.28
  -1  -9  -6   15.01    2.75
  -1   9  -6   18.42    2.15
   1   9   6   20.51    2.60
   1   9   6   19.28    2.65
  -1   9  -6   19.61    2.05
  -1   9  -6   17.52    2.35
  -2  -9  -6   14.40    2.47
  -2  -9  -6   15.72    3.38
  -2   9  -6   15.04    2.23
   2   9   6   17.20    2.41
   2   9   6   18.38    2.43
  -2   9  -6   13.21    2.06
  -2   9  -6   14.07    2.20
  -3  -9  -6    7.38    1.81
  -3  -9  -6    5.77    2.19
   3   9   6   12.39    1.93
  -3   9  -6    7.46    1.61
   3   9   6    9.59    1.73
  -3   9  -6   12.25    1.89
  -4  -9  -6    2.71    1.52
  -4  -9  -6    1.67    1.03
  -4   9  -6    1.62    0.83
   4   9   6    2.34    0.97
   4   9   6    3.82    1.15
  -4   9  -6    3.40    1.16
  -5  -9  -6    4.26    1.46
  -5  -9  -6    4.31    1.78
  -5   9  -6    3.72    1.28
  -5   9  -6    4.85    1.55
   5   9   6    2.84    1.16
   5   9   6    3.66    1.19
  -6  -9  -6    3.18    1.42
   6   9   6    2.15    1.02
  -6   9  -6    2.26    1.22
  -6   9  -6    1.59    1.01
  -7  -9  -6    1.92    1.31
   7   9   6    3.67    1.37
  -7   9  -6    4.06    1.48
  -7   9  -6    2.48    1.38
  -8  -9  -6    0.87    1.25
  -8   9  -6    3.30    1.61
   8   9   6    3.33    1.38
   9   9   6    4.51    1.87
   8 -10  -6   -0.46    2.11
   8  10  -6   -0.17    0.78
  -8  10   6    1.61    1.27
   7 -10  -6    3.52    2.52
   7  10  -6    5.86    1.50
   7  10  -6    7.60    1.55
  -7  10   6    8.88    2.18
   6 -10  -6   -0.14    1.84
   6  10  -6    0.37    0.68
   6  10  -6    0.93    0.62
  -6  10   6   -0.37    0.75
   6  10  -6    0.83    0.68
   5 -10  -6    4.58    2.58
  -5  10   6    5.06    1.58
  -5  10   6    6.95    1.80
   4 -10  -6    0.03    1.69
  -4 -10   6    1.59    1.62
  -4  10   6    1.37    0.90
  -4  10   6    0.63    0.85
   3 -10  -6    1.30    1.63
  -3 -10   6    3.58    1.70
   3  10  -6    3.23    0.86
  -3  10   6    3.68    1.33
   2 -10  -6    6.18    2.48
  -2 -10   6    4.83    2.03
   2 -10  -6    6.55    1.72
   2  10  -6    3.58    0.98
  -2  10   6    4.60    1.37
  -1 -10   6   14.71    3.06
   1 -10  -6   10.26    3.02
   1 -10  -6   10.02    2.07
   1  10  -6   11.57    1.72
  -1  10   6   10.82    1.98
   1  10  -6   10.45    1.62
   0 -10   6    3.51    1.54
   0 -10  -6    5.37    2.11
   0 -10  -6    3.74    1.31
   0  10  -6    3.84    0.98
   0  10   6    1.76    0.92
   0  10  -6    2.47    0.86
  -1 -10  -6   26.10    3.58
  -1 -10  -6   22.13    4.53
   1  10   6   24.45    2.81
   1  10   6   22.44    3.04
  -1  10  -6   25.61    2.71
  -2 -10  -6    0.45    0.82
  -2 -10  -6    1.17    1.35
   2  10   6    1.52    0.91
   2  10   6    2.79    0.92
  -2  10  -6    2.77    0.89
  -2  10  -6    1.86    0.83
  -3 -10  -6   12.57    2.52
  -3 -10  -6   16.18    3.53
   3  10   6   16.66    2.36
   3  10   6   15.29    2.40
  -3  10  -6   14.65    2.36
  -3  10  -6   21.56    2.31
  -4 -10  -6   12.59    2.56
  -4 -10  -6   19.49    3.71
   4  10   6   12.51    2.28
  -4  10  -6   21.60    2.85
   4  10   6   16.70    2.49
  -4  10  -6   20.54    2.86
  -5 -10  -6    3.27    1.37
   5  10   6    4.98    1.45
  -5  10  -6    5.64    1.63
  -5  10  -6    8.66    1.86
  -6 -10  -6    4.80    1.69
  -6  10  -6   10.31    2.17
  -6  10  -6    6.78    1.87
   6  10   6    4.53    1.38
  -7 -10  -6    8.03    2.28
  -7  10  -6   10.76    2.39
  -7  10  -6   14.43    2.72
   7  10   6    8.36    1.98
  -8 -10  -6    7.17    2.27
   8  10   6    4.89    1.69
  -8  10  -6    6.63    2.14
   7 -11  -6    5.47    3.13
   7  11  -6    5.76    1.55
   7  11  -6    5.52    1.35
  -7  11   6    2.47    1.67
   6 -11  -6    1.91    2.50
   6  11  -6    0.79    0.62
   6  11  -6    0.27    0.65
  -6  11   6    0.89    1.16
   5 -11  -6    8.59    3.28
  -5  11   6   11.21    2.39
  -5  11   6   10.48    2.36
   4 -11  -6    3.43    2.51
  -4  11   6    8.82    1.80
  -4  11   6    5.46    1.68
   3 -11  -6   10.45    2.31
  -3 -11   6   12.97    3.28
   3 -11  -6   13.98    3.70
  -3  11   6    9.72    2.13
  -2 -11   6    9.50    2.89
   2 -11  -6    6.85    2.75
   2 -11  -6    1.60    1.08
  -2  11   6    4.11    1.24
   2  11  -6    4.17    1.02
   2  11  -6    5.02    1.09
  -1 -11   6   23.27    4.11
   1 -11  -6   18.64    3.02
   1 -11  -6   21.44    4.68
  -1  11   6   17.13    2.85
   1  11  -6   20.99    2.25
   1  11  -6   19.39    2.52
   0 -11  -6    0.33    0.83
   0 -11  -6   -0.13    1.45
   0  11   6    0.41    0.58
   0  11  -6    0.12    0.53
  -1 -11  -6   21.78    4.25
  -1 -11  -6    9.41    1.93
   1  11   6   14.77    2.13
  -1  11  -6   11.44    1.83
   1  11   6   10.12    1.90
  -2 -11  -6   -0.32    1.31
  -2 -11  -6   -0.30    0.70
  -2  11  -6   -0.42    0.58
   2  11   6   -0.21    0.57
  -2  11  -6   -0.08    0.57
   2  11   6    0.20    0.69
  -3 -11  -6    5.89    2.43
  -3 -11  -6    4.52    1.34
   3  11   6    3.21    1.15
  -3  11  -6    2.93    1.08
  -3  11  -6    5.17    1.39
   3  11   6    3.43    1.08
  -4 -11  -6    0.11    0.82
  -4 -11  -6    1.43    1.69
   4  11   6    0.83    0.81
  -4  11  -6    0.62    0.72
   4  11   6    0.01    0.66
  -4  11  -6    1.10    0.93
  -5 -11  -6    0.10    0.93
  -5  11  -6    1.29    0.87
  -5  11  -6    0.30    0.87
   5  11   6    0.36    0.73
  -6 -11  -6    1.71    1.17
  -6  11  -6    2.53    1.33
  -6  11  -6    1.42    1.23
   6  11   6    1.32    1.05
   5 -12  -6    3.75    2.48
  -5  12   6    1.14    1.17
  -5  12   6    3.34    1.44
   4 -12  -6   -0.03    1.05
   4 -12  -6   -0.60    1.91
  -4  12   6    0.28    0.87
  -4  12   6    0.50    0.87
   3 -12  -6    2.21    1.25
   3 -12  -6    0.20    2.16
  -3  12   6   -0.38    0.75
  -2 -12   6   -0.13    1.48
   2 -12  -6    1.31    1.03
   2 -12  -6    0.41    1.73
  -2  12   6    2.11    1.04
   2  12  -6    1.00    0.58
   1 -12  -6    2.09    2.18
   1 -12  -6    2.28    1.04
   1  12  -6    1.19    0.72
  -1  12   6    0.98    0.97
   0 -12  -6    0.94    0.88
   0 -12  -6    3.25    2.29
   0  12   6    1.93    1.05
   0  12  -6    2.90    0.97
  -1 -12  -6    7.55    1.73
  -1 -12  -6   12.12    3.44
   1  12   6    9.92    1.88
   1  12   6    9.70    1.88
  -1  12  -6    9.77    1.72
  -2 -12  -6    0.91    0.84
  -2 -12  -6   -0.22    1.49
  -2  12  -6    1.71    0.81
  -2  12  -6    2.13    0.91
   2  12   6    1.01    0.72
   2  12   6    1.58    0.97
  -3 -12  -6    6.62    2.57
  -3 -12  -6    4.16    1.37
   3  12   6    3.83    1.21
  -3  12  -6    6.14    1.55
   3  12   6    4.19    1.38
  -3  12  -6    6.67    1.68
  -4 -12  -6    2.67    1.21
   4  12   6    7.62    1.71
  -4  12  -6    7.56    1.81
  -4  12  -6    9.22    1.88
  -5 -12  -6   11.34    2.36
  -5  12  -6   13.72    2.69
   5  12   6   16.65    2.79
  -5  12  -6   14.78    2.65
   2 -13  -6    0.28    1.07
   2 -13  -6    3.37    2.71
  -2  13   6    1.67    1.00
   1 -13  -6    0.02    1.78
   1 -13  -6    0.50    1.03
  -1  13   6    1.28    1.01
   0 -13  -6    6.83    2.94
   0  13  -6    6.77    1.34
   0  13   6    3.36    1.27
  -1 -13  -6    5.50    2.67
   1  13   6    3.31    1.24
  -1  13  -6    4.31    1.16
  -2 -13  -6    0.66    1.90
  -2  13  -6    3.86    1.30
  -2  13  -6    2.54    1.04
   2  13   6    1.94    1.12
 -12   0   7    0.73    1.60
 -11   0   7   10.30    3.04
 -10   0   7   -0.61    1.47
 -10   0   7    1.12    1.44
  10   0  -7   -1.02    1.44
  -9   0   7    6.21    2.56
   9   0  -7    2.84    1.99
   9   0  -7    9.52    2.37
  -9   0   7    4.10    1.82
  -8   0   7    4.94    2.13
   8   0  -7   -2.17    1.38
  -8   0   7    1.43    1.39
  -7   0   7   15.63    3.31
  -7   0   7    6.22    1.99
  -6   0   7   13.38    2.02
  -6   0   7    9.13    2.37
  -6   0   7   17.96    3.63
  -5   0   7   21.39    3.87
  -5   0   7   34.41    3.39
   5   0  -7   29.54    3.41
  -5   0   7   27.21    4.82
   5   0  -7   35.93    3.28
  -4   0   7   20.36    3.42
   4   0  -7   20.03    2.84
  -4   0   7   18.95    3.99
  -4   0   7   22.86    2.49
  -3   0   7   -0.65    1.57
   3   0  -7   -0.33    0.40
  -3   0   7    0.97    0.85
  -3   0   7    1.35    0.68
  -2   0   7   24.88    2.55
  -2   0   7   22.41    2.62
  -2   0   7   21.70    3.38
   2   0  -7   26.00    2.71
   2   0  -7   25.30    2.72
  -1   0   7    7.45    1.32
  -1   0   7    9.92    1.97
   1   0  -7   10.91    1.96
   1   0  -7   10.24    1.65
   1   0  -7    6.91    1.56
   1   0  -7   10.27    1.63
  -1   0   7   11.99    1.79
   0   0  -7    1.79    0.60
   0   0  -7    2.00    0.93
   0   0   7    0.97    0.85
   0   0  -7    1.68    0.67
   0   0   7    1.95    0.82
   0   0  -7    1.77    0.76
   1   0   7   40.06    4.87
   1   0   7   44.87    4.27
  -1   0  -7   43.32    4.29
  -1   0  -7   52.39    4.50
  -1   0  -7   44.19    4.81
  -2   0  -7   39.94    3.71
  -2   0  -7   36.08    3.52
   2   0   7   28.12    4.46
   2   0   7   34.88    3.44
  -2   0  -7   30.20    3.90
   3   0   7   69.75    6.80
  -3   0  -7   60.16    6.38
  -3   0  -7   55.69    5.69
  -3   0  -7   60.76    5.69
   3   0   7   74.40    5.82
  -3   0  -7   52.64    5.70
   4   0   7   56.72    6.24
  -4   0  -7   51.38    5.30
  -4   0  -7   52.23    5.88
   4   0   7   61.74    5.31
  -4   0  -7   52.65    5.24
  -5   0  -7  110.56   11.58
   5   0   7  120.39   10.54
   5   0   7  112.89   11.88
  -5   0  -7  137.99   10.74
  -6   0  -7    7.14    2.03
  -6   0  -7    3.68    1.34
   6   0   7    3.85    1.88
   6   0   7    7.84    1.58
   7   0   7   53.15    7.73
  -7   0  -7   68.54    7.86
   7   0   7   88.99    7.29
  -7   0  -7   78.57    7.15
   7   0   7   76.54    8.02
  -8   0  -7   11.76    2.97
   8   0   7   11.90    3.06
   9   0   7   10.05    3.01
  -9   0  -7   13.65    2.95
  10   0   7    5.86    2.86
 -10   0  -7    5.00    2.25
 -11   0  -7    2.44    1.66
 -12  -1   7   -0.38    1.49
 -12   1   7    0.59    1.80
 -11  -1   7   -0.69    1.28
 -11   1   7    0.54    1.49
 -10  -1   7    1.10    1.57
  10  -1  -7    2.24    1.71
 -10  -1   7    3.76    2.31
 -10   1   7   -2.06    0.94
  10   1  -7    1.94    1.38
  10   1  -7   -0.19    1.63
 -10   1   7    1.13    1.60
  -9  -1   7    2.96    1.60
   9  -1  -7    0.02    1.48
  -9  -1   7   -0.57    1.30
   9   1  -7   -0.54    1.67
   9   1  -7    0.76    1.00
  -9   1   7    0.75    1.51
  -9   1   7    1.21    1.40
   8  -1  -7    2.07    1.71
  -8  -1   7    4.46    2.19
  -8  -1   7    1.84    1.33
  -8   1   7    2.32    1.72
   8   1  -7    0.80    0.86
  -8   1   7    0.93    1.22
  -7  -1   7    7.54    2.47
  -7  -1   7    7.00    1.98
   7  -1  -7    2.49    1.95
  -7   1   7    7.93    2.50
  -7   1   7    8.58    1.96
  -7   1   7   10.02    2.40
  -6  -1   7   24.91    4.21
  -6  -1   7   32.29    5.02
   6   1  -7   25.02    3.39
  -6   1   7   27.97    4.74
  -6   1   7   25.99    4.14
  -5  -1   7   20.29    3.74
  -5  -1   7   13.92    2.60
  -5   1   7   11.30    1.90
   5   1  -7   11.85    2.19
  -5   1   7   17.47    3.01
  -5   1   7   11.36    1.89
  -5   1   7   11.76    3.24
  -4  -1   7   28.46    4.06
  -4  -1   7   19.06    2.89
   4  -1  -7   24.70    3.02
  -4  -1   7   26.55    4.45
  -4   1   7   34.36    3.08
  -4   1   7   30.64    4.17
   4   1  -7   30.75    2.91
  -4   1   7   26.52    3.04
  -3  -1   7   51.70    5.03
  -3  -1   7   51.92    4.29
  -3  -1   7   35.83    6.01
   3  -1  -7   44.61    4.33
  -3   1   7   32.65    4.69
   3   1  -7   41.16    4.22
   3   1  -7   40.24    4.29
  -3   1   7   46.20    4.24
  -3   1   7   50.17    4.38
  -2  -1   7   91.12    7.47
  -2  -1   7   69.82    8.32
   2  -1  -7   75.48    7.44
  -2  -1   7   59.59    9.44
  -2   1   7   92.12    7.64
   2   1  -7   93.15    7.67
  -2   1   7   94.21    8.63
  -2   1   7   85.04    7.55
   2   1  -7  101.36    7.62
   1  -1  -7  130.56   11.59
   1  -1  -7  128.27   12.72
   1  -1  -7  142.56   11.86
   1  -1  -7  155.92   11.63
  -1  -1   7  119.00   12.76
  -1  -1   7  139.09   11.47
   1   1  -7  134.66   11.74
  -1   1   7  143.36   11.62
  -1   1   7  124.94   12.80
   1   1  -7  156.18   11.63
  -1   1   7  139.92   11.69
   1   1  -7  138.23   12.77
   1   1  -7  126.40   11.52
   0  -1  -7   46.71    4.64
   0  -1  -7   44.41    5.15
   0  -1  -7   45.49    4.59
   0  -1   7   51.58    5.35
   0  -1  -7   50.27    4.63
   0  -1   7   49.35    4.61
   0   1  -7   54.91    4.62
   0   1  -7   46.37    5.08
   0   1   7   47.47    5.32
   0   1  -7   51.11    4.72
   0   1  -7   50.12    4.66
   0   1   7   50.99    4.67
   1  -1   7   74.60    6.30
  -1  -1  -7   76.08    6.45
   1  -1   7   68.99    7.13
  -1  -1  -7   68.29    7.06
  -1  -1  -7   69.56    6.27
  -1  -1  -7   71.78    6.38
  -1   1  -7   65.18    6.36
  -1   1  -7   69.98    7.03
   1   1   7   65.78    6.36
  -1   1  -7   73.03    6.43
   1   1   7   76.66    7.30
   1   1   7   70.46    6.33
  -1   1  -7   67.16    6.25
  -2  -1  -7   40.64    4.10
  -2  -1  -7   44.50    4.24
   2  -1   7   37.69    4.77
  -2  -1  -7   34.84    4.56
   2  -1   7   41.13    4.07
  -2   1  -7   48.04    4.35
   2   1   7   51.79    5.10
  -2   1  -7   48.06    4.78
   2   1   7   42.13    4.23
  -2   1  -7   41.83    4.16
   2   1   7   38.89    4.12
   2   1   7   49.35    4.31
  -3  -1  -7   33.93    3.54
  -3  -1  -7   34.73    3.68
   3  -1   7   35.32    3.51
   3  -1   7   30.03    4.54
  -3  -1  -7   34.54    4.07
  -3   1  -7   34.65    3.52
   3   1   7   32.31    4.77
  -3   1  -7   33.19    3.44
   3   1   7   33.84    3.59
  -3   1  -7   35.85    3.66
   3   1   7   32.71    3.52
   3   1   7   35.65    3.59
  -3   1  -7   37.01    4.04
   4  -1   7   65.49    5.65
  -4  -1  -7   57.40    5.62
  -4  -1  -7   59.10    5.57
   4  -1   7   52.04    6.43
  -4  -1  -7   61.53    6.38
  -4   1  -7   58.09    5.58
  -4   1  -7   68.66    6.40
  -4   1  -7   59.87    5.69
   4   1   7   55.68    5.56
  -4   1  -7   57.50    5.56
   4   1   7   55.37    6.43
   5  -1   7   25.97    4.08
  -5  -1  -7   23.88    3.25
  -5  -1  -7   22.06    3.54
  -5  -1  -7   24.26    2.81
  -5   1  -7   23.68    3.57
  -5   1  -7   27.67    3.51
  -5   1  -7   25.47    2.91
   5   1   7   28.77    4.30
   5   1   7   21.06    3.04
  -6  -1  -7    3.32    1.58
  -6  -1  -7   12.47    2.34
   6  -1   7    9.37    1.82
   6  -1   7    8.19    2.29
   6   1   7    6.96    1.58
   6   1   7    6.03    1.94
  -6   1  -7    4.66    1.65
  -6   1  -7   11.10    2.30
   7  -1   7    3.79    1.72
   7  -1   7    4.18    1.42
  -7  -1  -7    2.47    1.50
   7  -1   7    4.70    1.52
   7   1   7    1.26    1.30
  -7   1  -7    2.25    1.06
  -7   1  -7    4.55    1.76
   7   1   7    7.65    1.90
   8  -1   7    1.63    1.45
  -8  -1  -7    4.95    1.88
  -8   1  -7    7.76    2.46
   8   1   7    8.53    1.92
   8   1   7    6.11    2.26
  -9  -1  -7    6.60    2.25
   9  -1   7    5.76    2.31
  -9   1  -7    3.63    1.76
   9   1   7    5.29    2.35
  10  -1   7    2.36    1.95
 -10  -1  -7    0.81    1.43
 -10   1  -7    2.16    1.92
  10   1   7    1.77    1.96
 -11  -1  -7    9.19    3.20
 -11   1  -7    5.07    2.72
 -12  -2   7    4.91    2.59
 -12   2   7    3.19    2.33
 -11  -2   7    0.82    1.55
  11  -2  -7    1.37    2.03
  11   2  -7    1.58    1.58
 -11   2   7    1.75    1.62
 -10  -2   7   14.27    3.35
  10  -2  -7   16.26    3.65
 -10   2   7   15.22    3.63
  10   2  -7   14.63    2.87
 -10   2   7   18.93    4.09
  -9  -2   7   10.23    2.94
  -9  -2   7    7.63    2.40
   9  -2  -7    6.86    2.30
  -9   2   7    2.70    1.80
   9   2  -7   11.73    2.51
  -9   2   7    6.51    2.46
   8  -2  -7    9.59    2.62
  -8  -2   7   13.58    3.22
  -8  -2   7    6.58    2.12
  -8   2   7    6.48    2.25
   8   2  -7   10.79    2.44
  -8   2   7   12.49    3.13
   7  -2  -7    9.35    2.77
  -7  -2   7   11.41    2.74
  -7  -2   7   21.81    4.04
  -7   2   7   12.06    3.21
  -7   2   7   18.80    2.72
  -7   2   7   10.90    2.73
   7   2  -7   17.84    2.92
  -6  -2   7    5.11    1.76
   6  -2  -7    5.80    2.31
  -6  -2   7    7.77    2.39
  -6  -2   7    6.73    1.40
  -6   2   7    2.70    1.80
  -6   2   7    6.17    1.48
   6   2  -7    8.50    1.87
   6   2  -7    6.44    1.47
  -6   2   7    4.49    1.72
  -5  -2   7    4.03    1.78
  -5  -2   7    3.30    0.97
  -5  -2   7    2.70    1.26
  -5   2   7    5.13    1.33
   5   2  -7    4.51    1.02
  -5   2   7    3.40    1.07
  -5   2   7    1.53    1.24
   5   2  -7    2.97    1.08
  -5   2   7    0.65    1.53
  -4  -2   7    1.77    0.67
  -4  -2   7    2.29    1.20
  -4  -2   7    2.16    1.47
   4   2  -7    2.17    0.78
  -4   2   7    2.19    1.18
   4   2  -7    1.72    0.64
  -4   2   7    2.73    0.82
   4   2  -7    1.37    0.73
  -4   2   7    1.33    0.77
  -3  -2   7    8.36    1.86
  -3  -2   7    6.48    1.20
  -3  -2   7    4.71    1.74
  -3   2   7    5.74    1.24
  -3   2   7    6.04    1.50
   3   2  -7    5.90    1.09
   3   2  -7    5.68    1.20
   3   2  -7    3.54    1.03
  -3   2   7    4.94    1.50
  -3   2   7    5.19    1.18
  -2  -2   7   10.39    1.54
  -2  -2   7    6.65    2.10
  -2  -2   7   15.14    2.43
  -2   2   7   10.62    2.21
  -2   2   7   13.45    1.98
  -2   2   7    9.45    1.71
   2   2  -7   10.31    1.58
   2   2  -7    9.94    1.71
  -2   2   7   11.25    1.61
   1  -2  -7   22.91    2.45
   1  -2  -7   23.81    2.82
  -1  -2   7   22.83    3.22
  -1  -2   7   21.35    2.29
  -1  -2   7   23.27    4.03
   1   2  -7   20.24    2.36
  -1   2   7   18.69    3.06
  -1   2   7   14.38    2.35
  -1   2   7   24.45    2.48
   1   2  -7   15.27    2.25
   1   2  -7   23.22    3.17
   0  -2  -7   15.12    2.19
   0  -2  -7   16.93    2.67
   0  -2  -7   18.03    2.27
   0  -2   7   16.46    2.70
   0   2   7   14.61    2.12
   0   2  -7   15.54    2.16
   0   2   7   19.64    2.08
   0   2  -7   17.90    2.35
   0   2  -7   12.76    2.27
   0   2  -7   17.20    1.99
   0   2   7   13.14    2.52
  -1  -2  -7    5.34    1.23
  -1  -2  -7    7.31    1.25
  -1  -2  -7    4.81    1.50
   1  -2   7    5.33    1.53
  -1   2  -7    5.46    1.17
  -1   2  -7    4.19    1.29
  -1   2  -7    8.69    1.50
   1   2   7    4.96    1.12
  -1   2  -7    2.42    0.73
   1   2   7    5.90    1.16
   1   2   7    5.54    1.65
  -2  -2  -7   57.50    5.69
   2  -2   7   54.08    6.38
  -2  -2  -7   66.79    5.81
  -2  -2  -7   60.36    6.42
  -2   2  -7   67.83    5.81
  -2   2  -7   57.16    6.32
   2   2   7   66.15    5.88
   2   2   7   51.80    6.46
  -2   2  -7   67.94    5.92
   2   2   7   62.75    5.81
   2   2   7   64.26    5.84
  -2   2  -7   72.30    5.77
   3  -2   7    9.95    2.46
  -3  -2  -7   11.36    1.97
   3  -2   7   14.69    2.14
  -3  -2  -7   12.82    2.51
   3   2   7   12.38    2.09
   3   2   7   14.64    2.22
  -3   2  -7   11.13    1.91
   3   2   7   10.14    2.28
  -3   2  -7   16.65    2.40
   3   2   7   16.64    2.16
  -3   2  -7   11.37    1.97
  -3   2  -7   10.40    2.19
   4  -2   7   22.27    3.17
  -4  -2  -7   19.95    3.54
  -4  -2  -7   24.19    2.92
  -4   2  -7   26.16    3.03
   4   2   7   26.19    3.40
  -4   2  -7   26.03    2.94
  -4   2  -7   27.47    3.87
   4   2   7   28.46    3.07
   4   2   7   27.39    4.41
  -4   2  -7   26.95    3.00
   4   2   7   27.05    2.97
  -5  -2  -7   56.56    6.11
  -5  -2  -7   56.72    5.47
   5  -2   7   61.23    5.53
   5  -2   7   49.21    6.17
  -5   2  -7   56.63    5.46
   5   2   7   64.67    5.61
   5   2   7   54.31    5.40
   5   2   7   52.76    6.27
  -5   2  -7   47.71    5.95
  -5   2  -7   59.25    5.56
  -5   2  -7   57.52    5.53
  -6  -2  -7   46.96    5.95
  -6  -2  -7   51.00    5.35
   6  -2   7   60.43    5.47
   6  -2   7   45.10    6.04
  -6   2  -7   48.03    6.04
   6   2   7   57.81    5.45
   6   2   7   63.90    6.47
  -6   2  -7   58.07    5.57
   7  -2   7   15.36    3.52
  -7  -2  -7   20.77    3.78
  -7   2  -7   24.70    3.75
  -7   2  -7   22.53    3.88
   7   2   7   18.54    3.66
   7   2   7   19.32    2.97
  -8  -2  -7   19.33    3.82
   8  -2   7   25.18    4.58
  -8   2  -7   20.93    3.99
   8   2   7   19.76    3.18
  -8   2  -7   18.09    3.04
   8   2   7   17.27    3.84
  -9  -2  -7    6.39    2.30
   9  -2   7    9.65    2.99
   9   2   7   11.37    3.25
  -9   2  -7    8.63    2.66
   9   2   7   10.18    2.39
  10  -2   7    9.99    3.13
 -10   2  -7    7.43    2.68
  10   2   7   10.48    3.30
 -11  -2  -7    8.34    2.96
 -11   2  -7    4.13    2.44
 -11  -3   7    1.81    1.67
  11  -3  -7   -1.81    1.63
 -11   3   7   -0.50    1.45
  11   3  -7    0.06    1.01
 -11   3   7    2.11    1.91
  10  -3  -7   -1.29    1.51
 -10  -3   7    1.76    1.58
 -10   3   7    0.32    1.54
  10   3  -7    0.53    1.20
 -10   3   7    0.11    1.41
  -9  -3   7    0.96    1.32
  -9  -3   7    3.73    2.07
   9  -3  -7    1.25    1.78
   9   3  -7    3.20    1.39
  -9   3   7    2.46    1.77
  -9   3   7    1.35    1.44
  -8  -3   7    4.08    1.73
   8  -3  -7    3.98    2.05
  -8  -3   7    8.98    2.76
  -8   3   7    4.87    2.35
   8   3  -7    6.55    1.81
  -8   3   7    5.12    2.01
  -7  -3   7    0.95    1.03
   7  -3  -7    2.10    1.69
  -7  -3   7   -0.31    1.05
  -7   3   7    0.42    1.14
  -7   3   7    2.11    1.59
  -7   3   7    1.25    0.83
   7   3  -7    0.69    0.91
  -6  -3   7   36.32    4.56
   6  -3  -7   29.57    5.39
  -6  -3   7   42.02    5.42
   6   3  -7   38.70    3.86
  -6   3   7   19.92    5.57
  -6   3   7   42.57    4.89
  -6   3   7   47.15    4.28
  -5  -3   7   26.45    3.06
  -5  -3   7   33.63    5.11
  -5  -3   7   29.80    4.42
   5  -3  -7   27.66    4.70
  -5   3   7   34.95    3.51
   5   3  -7   31.04    3.32
   5   3  -7   32.72    3.41
  -5   3   7   28.31    4.38
  -5   3   7   38.08    3.70
  -4  -3   7   94.01    7.71
  -4  -3   7   91.07    9.97
   4  -3  -7   69.33    9.45
  -4  -3   7   78.40    8.76
   4   3  -7  100.72    8.03
   4   3  -7   82.55    7.82
  -4   3   7   90.66    8.03
  -4   3   7   89.96    9.03
  -4   3   7   99.04    8.15
   4   3  -7   87.55    7.98
  -4   3   7   96.83    8.16
  -4   3   7   88.64    8.01
  -3  -3   7   33.12    3.06
  -3  -3   7   31.67    4.30
  -3  -3   7   30.55    3.80
   3   3  -7   27.01    3.05
  -3   3   7   38.19    3.71
   3   3  -7   32.43    3.25
  -3   3   7   25.22    3.17
  -3   3   7   29.21    3.81
  -3   3   7   32.74    3.38
   3   3  -7   34.00    3.29
  -3   3   7   31.50    3.32
  -2  -3   7   32.73    4.08
  -2  -3   7   41.64    4.88
  -2  -3   7   39.81    3.53
   2  -3  -7   42.60    3.83
   2   3  -7   32.43    3.52
  -2   3   7   33.01    3.58
  -2   3   7   37.04    3.71
   2   3  -7   39.74    3.67
  -2   3   7   37.07    4.34
  -2   3   7   31.49    3.61
  -1  -3   7   19.74    2.00
  -1  -3   7   20.93    3.36
   1  -3  -7   18.44    2.79
  -1  -3   7   20.80    3.11
   1  -3  -7   19.35    2.44
   1   3  -7   12.11    2.42
  -1   3   7   14.92    2.16
  -1   3   7   17.42    2.44
  -1   3   7   20.25    3.13
   1   3  -7   17.04    2.02
   0  -3   7   71.49    7.37
   0  -3  -7   73.12    7.40
   0  -3   7   78.82    8.08
   0  -3  -7   70.91    6.62
   0  -3   7   73.70    6.40
   0   3  -7   73.33    6.59
   0   3  -7   75.79    6.52
   0   3  -7   71.99    7.26
   0   3  -7   75.60    6.56
   0   3   7   77.92    6.66
   0   3   7   70.18    6.74
   0   3   7   70.85    7.42
  -1  -3  -7   26.59    3.66
   1  -3   7   25.01    2.56
  -1  -3  -7   26.04    2.78
   1  -3   7   21.31    3.43
  -1   3  -7   23.10    2.69
   1   3   7   22.07    2.70
  -1   3  -7   28.36    3.12
   1   3   7   24.97    3.70
  -1   3  -7   24.65    2.68
  -1   3  -7   23.12    2.62
   2  -3   7   26.21    2.56
  -2  -3  -7   22.11    2.58
   2  -3   7   20.64    3.46
  -2  -3  -7   18.17    3.18
   2   3   7   24.34    3.01
  -2   3  -7   26.26    3.02
  -2   3  -7   25.95    2.64
  -2   3  -7   22.39    2.57
   2   3   7   23.03    2.65
   2   3   7   17.74    3.30
  -2   3  -7   21.19    2.89
  -3  -3  -7    2.45    0.87
   3  -3   7    4.43    1.06
   3  -3   7    1.78    1.04
  -3  -3  -7    2.89    1.26
  -3   3  -7    3.12    0.88
  -3   3  -7    3.88    1.27
   3   3   7    5.14    1.22
   3   3   7    5.64    1.31
   3   3   7    2.63    1.20
  -3   3  -7    2.60    0.99
  -3   3  -7    4.55    1.18
   4  -3   7   44.06    3.99
  -4  -3  -7   47.41    4.81
   4  -3   7   36.49    4.66
  -4  -3  -7   41.26    3.98
  -4   3  -7   38.40    4.04
   4   3   7   26.34    4.85
  -4   3  -7   37.26    3.96
   4   3   7   41.89    4.14
   4   3   7   33.77    3.92
  -4   3  -7   37.23    4.39
  -5  -3  -7    1.06    1.04
  -5  -3  -7    0.60    0.76
   5  -3   7    1.06    1.15
   5  -3   7    0.11    0.46
  -5   3  -7    1.46    1.03
  -5   3  -7    0.62    0.60
   5   3   7    0.60    1.07
  -5   3  -7   -0.08    0.55
   5   3   7    0.46    0.78
   5   3   7    0.32    0.62
  -5   3  -7    0.88    0.77
   6  -3   7    0.37    1.14
  -6  -3  -7    1.27    1.22
   6   3   7    0.07    0.99
  -6   3  -7    3.21    1.10
  -6   3  -7    1.67    0.92
  -6   3  -7    1.34    1.17
   6   3   7    2.93    1.12
  -7  -3  -7    3.16    1.66
   7  -3   7    7.95    2.44
   7   3   7    9.00    2.34
   7   3   7    3.17    1.33
  -7   3  -7    9.00    2.18
  -7   3  -7    5.32    1.99
  -8  -3  -7    2.55    1.52
   8  -3   7    0.29    1.36
  -8   3  -7    0.86    0.95
   8   3   7    1.83    1.28
   8   3   7    1.91    1.13
  -8   3  -7    2.43    1.49
  -9  -3  -7    0.26    1.19
   9  -3   7   -0.33    1.28
   9   3   7    0.01    1.25
  -9   3  -7    1.64    1.56
   9   3   7   -0.14    1.07
 -10  -3  -7    7.85    2.70
  10   3   7    8.80    3.16
 -10   3  -7   10.31    3.35
 -11  -3  -7    0.48    1.54
 -11   3  -7    2.39    2.03
  11  -4  -7    2.37    2.24
 -11  -4   7    0.86    1.44
 -11   4   7   -2.33    1.30
  11   4  -7    3.66    1.64
 -10  -4   7    4.42    1.94
  10  -4  -7    4.81    2.52
 -10   4   7    8.54    2.77
  10   4  -7    2.84    1.41
 -10   4   7    3.81    2.22
   9  -4  -7    7.61    2.60
  -9  -4   7    6.81    2.14
   9   4  -7    8.81    2.09
  -9   4   7    5.05    2.15
  -9   4   7    5.53    2.54
   8  -4  -7    6.20    2.41
  -8  -4   7    6.43    2.02
  -8  -4   7    7.43    2.87
   8   4  -7    7.03    1.80
  -8   4   7    9.97    2.13
  -8   4   7    4.97    1.97
  -8   4   7    6.03    2.35
   7  -4  -7   10.95    2.99
  -7  -4   7   10.95    2.52
  -7  -4   7   16.45    3.55
  -7   4   7   10.81    3.29
   7   4  -7   10.09    2.17
  -7   4   7   13.25    2.33
  -7   4   7   15.18    3.17
   6  -4  -7    8.97    2.51
  -6  -4   7   14.52    3.14
  -6  -4   7    8.06    2.10
   6   4  -7   12.30    1.82
  -6   4   7    7.88    1.78
  -6   4   7   15.60    4.24
  -6   4   7    7.94    2.42
  -5  -4   7   11.30    2.60
   5  -4  -7    9.77    2.72
  -5  -4   7   13.39    2.97
  -5   4   7   16.31    2.32
   5   4  -7   13.61    2.21
  -5   4   7   11.01    2.55
  -5   4   7   14.31    2.63
   5   4  -7   15.64    2.12
   5   4  -7   12.43    2.04
  -5   4   7   12.82    2.26
  -4  -4   7    5.26    1.93
   4  -4  -7    5.10    2.29
  -4  -4   7    7.94    1.23
  -4  -4   7    6.31    1.62
  -4   4   7    3.96    1.17
   4   4  -7    6.71    1.28
  -4   4   7    6.36    1.38
  -4   4   7    3.06    1.58
  -4   4   7    5.96    1.57
   4   4  -7    6.47    1.29
   4   4  -7    6.93    1.36
  -4   4   7    5.05    1.26
   3  -4  -7    2.26    1.77
  -3  -4   7    5.98    1.09
  -3  -4   7    4.64    1.37
  -3  -4   7    4.23    1.65
  -3   4   7    3.85    1.38
   3   4  -7    5.39    1.09
  -3   4   7    5.24    1.31
  -3   4   7    3.57    1.12
  -3   4   7    3.95    1.04
   3   4  -7    2.77    0.87
   3   4  -7    5.93    1.19
  -2  -4   7    1.51    1.12
   2  -4  -7    1.58    0.80
  -2  -4   7    1.40    0.57
  -2  -4   7    1.70    0.89
   2  -4  -7    0.85    1.84
  -2   4   7    3.33    1.33
   2   4  -7    1.10    0.59
   2   4  -7    2.46    0.97
  -2   4   7    0.08    0.33
   2   4  -7    1.90    0.73
   2   4  -7    1.07    0.50
  -2   4   7    1.94    0.89
   1  -4  -7    9.89    2.97
  -1  -4   7   11.17    2.18
   1  -4  -7   12.23    2.32
  -1  -4   7   13.02    1.52
  -1  -4   7   14.43    2.70
  -1   4   7   12.55    2.42
  -1   4   7   11.64    1.98
   1   4  -7   14.91    1.68
   1   4  -7   13.83    1.94
  -1   4   7   15.00    2.23
   1   4  -7   10.38    2.02
   0  -4   7    2.16    0.67
   0  -4   7    1.20    0.85
   0  -4  -7    1.35    0.68
   0  -4   7    1.20    0.93
   0  -4  -7    1.46    0.95
   0   4  -7    2.90    0.85
   0   4  -7    0.18    0.54
   0   4   7    1.35    0.69
   0   4  -7    2.45    0.86
   0   4   7    1.08    0.88
   0   4  -7    2.26    1.02
   0   4   7    0.63    0.59
  -1  -4  -7    9.47    2.18
  -1  -4  -7   11.41    1.91
   1  -4   7   12.18    2.38
   1  -4   7   16.82    2.68
   1  -4   7   13.21    1.85
  -1   4  -7   16.29    2.14
  -1   4  -7   15.62    2.23
   1   4   7   10.93    2.39
  -1   4  -7   14.30    2.01
  -1   4  -7   15.06    2.44
   1   4   7   16.20    2.25
   1   4   7   16.14    2.28
   2  -4   7   58.75    4.80
   2  -4   7   52.15    5.65
   2  -4   7   43.24    5.52
  -2  -4  -7   57.91    4.93
  -2  -4  -7   60.02    5.70
   2   4   7   43.16    5.51
  -2   4  -7   48.71    5.35
   2   4   7   47.03    4.92
   2   4   7   46.79    4.81
   2   4   7   51.35    4.96
  -2   4  -7   51.30    4.83
  -2   4  -7   53.20    4.97
  -2   4  -7   50.37    4.88
   3  -4   7   29.32    3.82
  -3  -4  -7   32.03    3.42
   3  -4   7   29.48    3.98
  -3  -4  -7   27.26    4.25
   3  -4   7   27.07    3.26
   3   4   7   31.58    3.45
  -3   4  -7   34.98    3.98
  -3   4  -7   35.98    3.55
   3   4   7   34.94    3.54
   3   4   7   35.35    4.87
  -3   4  -7   37.04    3.58
  -3   4  -7   34.64    3.48
   3   4   7   45.18    3.89
   4  -4   7   35.87    4.65
  -4  -4  -7   44.01    4.05
  -4  -4  -7   27.52    4.67
   4  -4   7   47.17    4.62
   4  -4   7   41.20    4.00
  -4   4  -7   36.18    4.51
   4   4   7   44.98    4.11
   4   4   7   29.38    5.04
   4   4   7   44.75    4.21
  -4   4  -7   42.78    4.19
  -4   4  -7   36.42    4.05
  -4   4  -7   37.61    4.02
   4   4   7   37.57    4.10
   5  -4   7   49.73    4.88
  -5  -4  -7   34.83    4.77
   5  -4   7   42.78    5.12
  -5   4  -7   36.35    4.85
  -5   4  -7   44.08    4.47
  -5   4  -7   43.70    4.42
   5   4   7   39.88    4.31
   5   4   7   43.41    5.28
   6  -4   7   20.72    3.72
  -6  -4  -7   20.89    3.51
  -6  -4  -7   17.11    3.10
  -6   4  -7   18.40    2.96
   6   4   7   14.32    3.20
  -6   4  -7   17.70    3.31
   6   4   7   20.00    2.77
  -6   4  -7   21.12    2.95
  -7  -4  -7   24.58    4.05
   7  -4   7   24.92    4.39
   7   4   7   20.05    4.06
  -7   4  -7   24.72    3.81
   7   4   7   25.73    3.49
  -7   4  -7   23.31    4.14
  -8  -4  -7   17.70    3.43
   8  -4   7   22.60    4.27
  -8   4  -7   12.01    3.03
   8   4   7   16.55    2.92
   8   4   7    9.74    2.84
  -8   4  -7   15.11    2.70
   9  -4   7   15.95    3.86
  -9  -4  -7    9.92    2.69
   9   4   7   10.61    2.63
  -9   4  -7   19.45    3.95
   9   4   7    7.47    2.52
  -9   4  -7   11.77    3.21
 -10  -4  -7    9.96    3.01
  10   4   7    5.74    2.64
 -10   4  -7    7.26    2.72
  10   4   7    8.76    2.29
 -11  -4  -7    1.82    1.82
 -11   4  -7    0.94    1.65
 -11  -5   7    0.25    1.43
  11  -5  -7    0.45    2.12
 -11   5   7   -0.16    1.49
  11   5  -7   -0.43    1.29
 -10  -5   7   -0.28    1.29
  10  -5  -7    0.10    1.69
  10   5  -7   -1.81    0.73
 -10   5   7   -0.17    1.46
 -10   5   7    0.17    1.75
  -9  -5   7    2.76    1.50
   9  -5  -7    0.22    1.54
   9   5  -7    0.07    0.96
  -9   5   7    1.04    1.51
  -9   5   7    0.39    1.62
   8  -5  -7    1.78    1.76
  -8  -5   7   -1.28    0.86
  -8  -5   7    0.75    1.46
  -8   5   7   -0.75    1.18
  -8   5   7    0.22    1.42
  -8   5   7    0.50    0.76
   8   5  -7    0.78    0.84
  -7  -5   7    9.23    2.80
   7  -5  -7    8.56    2.69
  -7  -5   7    8.09    2.06
  -7   5   7    8.99    1.91
  -7   5   7    6.76    3.00
  -7   5   7   13.96    2.95
   7   5  -7    9.02    2.00
  -6  -5   7    7.15    2.43
  -6  -5   7    5.61    1.81
   6  -5  -7    6.30    2.33
   6   5  -7    4.28    1.22
  -6   5   7    4.01    1.45
  -6   5   7    7.12    2.13
  -5  -5   7    6.91    1.82
  -5  -5   7    9.84    2.71
   5  -5  -7    5.76    2.43
  -5   5   7    9.63    1.71
  -5   5   7   13.85    2.66
   5   5  -7   10.04    1.62
   5   5  -7    8.79    1.64
  -5   5   7    8.44    1.72
   5   5  -7   12.24    1.81
  -4  -5   7    1.69    1.07
   4  -5  -7    3.14    1.84
  -4  -5   7    2.89    1.57
  -4   5   7    2.11    1.14
   4   5  -7    2.97    0.95
  -4   5   7    2.50    1.00
   4   5  -7    3.95    0.92
  -4   5   7    2.93    1.55
  -4   5   7    6.21    1.54
   4   5  -7    5.85    1.07
   3  -5  -7   25.80    2.70
   3  -5  -7   14.79    3.54
  -3  -5   7   22.99    3.89
  -3  -5   7   18.65    3.00
  -3   5   7   21.13    2.54
   3   5  -7   22.46    2.41
   3   5  -7   24.04    2.48
  -3   5   7   17.97    2.62
  -3   5   7   22.55    3.54
   3   5  -7   20.80    2.33
  -2  -5   7   60.49    6.61
   2  -5  -7   69.14    6.11
  -2  -5   7   78.49    7.72
   2  -5  -7   73.95    8.02
  -2   5   7   52.22    5.99
  -2   5   7   71.17    6.21
  -2   5   7   66.05    7.03
   2   5  -7   70.20    5.90
   2   5  -7   61.79    6.51
   2   5  -7   67.47    5.99
   2   5  -7   61.24    5.85
  -1  -5   7   64.37    6.82
   1  -5  -7   68.08    5.63
   1  -5  -7   57.15    7.31
   1  -5  -7   54.26    6.17
  -1  -5   7   57.50    6.12
  -1   5   7   53.27    6.25
  -1   5   7   61.68    5.61
   1   5  -7   61.51    5.41
   1   5  -7   62.49    5.48
  -1   5   7   57.86    5.62
   1   5  -7   57.18    6.01
   0  -5  -7   46.29    4.29
   0  -5   7   44.53    5.17
   0  -5   7   43.82    4.84
   0  -5  -7   42.41    4.85
   0   5  -7   45.87    4.26
   0   5   7   49.66    4.47
   0   5   7   44.06    4.41
   0   5  -7   44.95    4.66
   0   5  -7   44.94    4.24
   0   5   7   38.24    4.91
   0   5  -7   41.83    4.19
   1  -5   7   77.39    8.02
  -1  -5  -7   80.16    8.00
   1  -5   7   75.59    8.38
  -1  -5  -7   77.60    7.00
  -1   5  -7   81.69    7.03
  -1   5  -7   76.73    7.13
   1   5   7   72.94    8.02
  -1   5  -7   86.59    7.13
   1   5   7   89.37    7.33
   1   5   7   77.10    7.13
  -1   5  -7   79.64    7.81
   2  -5   7   20.11    2.28
   2  -5   7   22.73    3.61
   2  -5   7   23.20    2.91
  -2  -5  -7   15.80    3.03
  -2  -5  -7   25.75    2.55
  -2   5  -7   23.14    2.97
   2   5   7   22.20    2.93
   2   5   7   20.65    2.42
  -2   5  -7   19.11    3.00
  -2   5  -7   20.25    2.66
   2   5   7   19.37    2.62
   2   5   7   17.66    3.22
  -2   5  -7   20.43    2.44
  -3  -5  -7   50.19    4.96
  -3  -5  -7   39.81    3.99
   3  -5   7   41.08    3.95
   3  -5   7   44.52    4.85
   3  -5   7   41.15    4.59
  -3   5  -7   40.47    4.10
   3   5   7   32.98    4.00
  -3   5  -7   36.98    4.46
   3   5   7   33.65    4.64
   3   5   7   42.16    4.24
   3   5   7   39.91    4.16
  -3   5  -7   45.78    4.24
  -3   5  -7   41.98    4.14
  -4  -5  -7   15.61    2.89
   4  -5   7   12.19    2.67
   4  -5   7   14.48    2.19
  -4  -5  -7   13.09    2.94
   4   5   7   17.60    2.38
  -4   5  -7   14.66    2.24
  -4   5  -7   12.74    2.27
  -4   5  -7   10.47    2.37
   4   5   7   14.72    3.19
   4   5   7   10.87    2.02
  -4   5  -7   15.00    2.30
  -5  -5  -7    4.51    1.61
   5  -5   7    4.52    1.77
   5  -5   7    4.62    1.10
  -5  -5  -7    6.25    1.84
   5   5   7    7.62    2.21
  -5   5  -7    3.54    1.46
  -5   5  -7    5.20    1.35
  -5   5  -7    4.39    1.25
   5   5   7    3.00    1.02
  -6  -5  -7    3.81    1.46
   6  -5   7    4.99    1.89
  -6  -5  -7    2.86    1.50
   6   5   7    3.32    1.20
  -6   5  -7    3.73    1.25
   6   5   7    2.83    1.59
  -6   5  -7    6.23    2.10
  -6   5  -7    5.01    1.54
  -7  -5  -7    7.77    2.32
   7  -5   7   11.01    2.89
   7   5   7    8.41    2.63
  -7   5  -7    7.89    2.11
   7   5   7   10.07    1.95
  -7   5  -7    7.43    2.21
  -8  -5  -7   -0.30    1.06
   8  -5   7    1.40    1.45
   8   5   7    2.51    1.65
  -8   5  -7    1.42    1.16
  -8   5  -7    0.91    1.33
   8   5   7    1.96    1.11
  -9  -5  -7   11.02    3.04
   9   5   7   19.76    3.19
   9   5   7   13.88    3.53
  -9   5  -7   11.75    2.71
  -9   5  -7   15.87    4.03
 -10  -5  -7    0.99    1.56
  10   5   7    1.70    1.77
 -10   5  -7   -0.66    1.37
  10  -6  -7   -0.20    1.88
 -10  -6   7    1.54    1.43
  10   6  -7    0.98    1.24
 -10   6   7    0.18    1.57
   9  -6  -7    9.88    2.98
  -9  -6   7    4.84    1.96
   9   6  -7    5.30    1.72
  -9   6   7    8.94    2.91
  -9   6   7    6.20    2.50
   8  -6  -7    6.12    2.52
  -8  -6   7    1.19    1.10
   8   6  -7    6.83    1.76
  -8   6   7    4.04    1.46
  -8   6   7    3.64    2.00
  -8   6   7    3.24    2.09
   7  -6  -7    8.41    2.80
  -7  -6   7    5.60    1.86
  -7  -6   7    9.10    2.86
  -7   6   7   10.60    2.37
   7   6  -7   13.40    2.40
  -7   6   7    8.01    2.55
  -7   6   7    4.79    3.07
  -6  -6   7    2.97    1.23
  -6  -6   7    5.21    2.20
   6  -6  -7    0.82    1.61
  -6   6   7    3.42    1.34
  -6   6   7    5.95    2.17
   6   6  -7    2.67    1.17
   6   6  -7    3.38    0.99
   5  -6  -7    4.93    2.22
  -5  -6   7   10.78    2.85
  -5  -6   7    4.97    1.69
  -5   6   7    9.29    1.71
  -5   6   7    2.98    1.55
  -5   6   7    8.60    1.80
   5   6  -7    8.24    1.49
   5   6  -7    6.98    1.31
  -4  -6   7   14.71    2.61
   4  -6  -7   11.09    3.29
  -4  -6   7   23.28    3.95
   4   6  -7   16.91    2.37
   4   6  -7   14.88    2.11
   4   6  -7   18.29    2.09
  -4   6   7   17.49    2.55
  -4   6   7   16.78    3.36
  -4   6   7   22.87    2.99
  -3  -6   7   -0.02    0.65
   3  -6  -7    2.09    1.89
  -3  -6   7    0.98    1.15
   3   6  -7    1.35    0.63
   3   6  -7    0.37    0.42
  -3   6   7    1.88    0.83
   3   6  -7    0.37    0.73
   3   6  -7    0.71    0.58
  -3   6   7    0.80    1.09
  -3   6   7    1.56    0.87
  -2  -6   7   15.64    2.96
  -2  -6   7   11.04    2.12
   2  -6  -7   15.19    3.46
   2  -6  -7   12.73    1.97
   2   6  -7   13.36    2.18
   2   6  -7   17.48    2.08
  -2   6   7   17.41    3.01
  -2   6   7    9.64    1.88
   2   6  -7   14.77    1.64
  -2   6   7   11.32    1.95
   2   6  -7   11.90    1.73
   1  -6  -7    2.45    1.85
   1  -6  -7    1.68    1.05
  -1  -6   7    0.85    0.83
   1  -6  -7    1.41    0.68
  -1  -6   7    1.99    1.18
  -1   6   7    0.42    0.59
  -1   6   7    2.43    0.83
   1   6  -7    1.63    0.65
   1   6  -7    3.05    0.88
  -1   6   7    0.50    0.83
   1   6  -7    1.50    0.51
   1   6  -7    1.72    0.91
   0  -6  -7    7.45    2.34
   0  -6  -7    7.42    1.84
   0  -6   7    8.36    1.95
   0  -6  -7    9.90    1.63
   0  -6   7    9.99    2.16
   0   6  -7    9.93    1.56
   0   6   7    9.63    1.59
   0   6  -7    8.44    1.55
   0   6  -7   10.73    1.94
   0   6   7   10.31    1.81
   0   6   7   10.06    2.26
   0   6  -7    9.39    1.58
   1  -6   7    6.19    1.67
   1  -6   7    7.86    1.80
  -1  -6  -7    5.34    2.04
  -1  -6  -7    5.22    1.61
  -1  -6  -7    6.74    1.31
  -1   6  -7    6.13    1.35
  -1   6  -7    7.46    1.67
   1   6   7    7.13    1.87
  -1   6  -7    6.79    1.37
  -1   6  -7    8.46    1.47
   1   6   7    7.60    1.39
   1   6   7    5.28    1.33
  -2  -6  -7    3.92    0.97
   2  -6   7    4.07    1.19
   2  -6   7    2.81    1.22
  -2  -6  -7    2.11    1.22
  -2  -6  -7    1.04    1.45
   2   6   7    4.11    1.26
  -2   6  -7    4.62    1.10
  -2   6  -7    5.33    1.25
   2   6   7    5.61    1.26
  -2   6  -7    3.67    1.10
   2   6   7    3.67    1.50
   2   6   7    3.83    1.11
  -2   6  -7    6.44    1.60
  -3  -6  -7   67.15    7.46
   3  -6   7   83.46    7.61
   3  -6   7   63.23    7.49
  -3  -6  -7   76.76    8.05
  -3   6  -7   67.73    7.27
  -3   6  -7   66.26    6.72
   3   6   7   66.22    7.55
   3   6   7   78.06    6.73
  -3   6  -7   73.28    6.67
  -3   6  -7   69.96    6.58
   3   6   7   79.45    6.87
  -4  -6  -7   32.97    4.37
   4  -6   7   22.25    4.20
   4  -6   7   36.07    3.72
  -4  -6  -7   23.55    4.22
  -4   6  -7   38.85    3.82
   4   6   7   34.80    3.70
  -4   6  -7   32.52    4.14
   4   6   7   38.08    3.67
  -4   6  -7   33.84    3.63
   4   6   7   29.30    4.73
   5  -6   7   22.79    4.19
  -5  -6  -7   31.43    4.53
  -5  -6  -7   29.59    3.99
   5   6   7   32.72    3.49
  -5   6  -7   32.56    3.46
   5   6   7   22.87    4.25
  -5   6  -7   31.88    3.57
  -5   6  -7   32.83    4.82
   6  -6   7    8.59    2.45
  -6  -6  -7    8.76    2.18
  -6  -6  -7    8.65    2.01
   6   6   7   11.82    2.25
  -6   6  -7   10.54    2.13
   6   6   7    9.87    2.63
  -6   6  -7   10.36    2.57
  -6   6  -7   15.13    2.75
   7  -6   7   26.39    4.94
  -7  -6  -7   22.97    4.16
   7   6   7   28.13    3.86
  -7   6  -7   26.94    4.49
   7   6   7   26.88    4.58
  -7   6  -7   29.65    3.79
  -8  -6  -7   13.37    3.06
   8   6   7   11.70    2.30
  -8   6  -7    8.81    2.21
  -8   6  -7    9.81    2.86
  -9  -6  -7    8.62    2.65
   9   6   7   13.35    2.80
  -9   6  -7    9.24    2.41
 -10  -6  -7    1.38    1.80
  10   6   7    2.02    1.40
  10  -7  -7    2.29    2.30
 -10  -7   7    1.34    1.32
  10   7  -7   -0.68    1.00
 -10   7   7    2.03    1.99
   9  -7  -7    0.31    1.97
  -9  -7   7   -0.21    1.04
   9   7  -7   -0.56    0.79
  -9   7   7   -1.05    1.31
   8  -7  -7    2.26    1.97
  -8  -7   7    1.48    1.34
  -8   7   7   -0.27    2.16
  -8   7   7    1.78    1.32
  -8   7   7    1.76    1.62
   8   7  -7    1.10    0.94
   7  -7  -7    5.17    2.35
  -7  -7   7    5.50    1.67
   7   7  -7    5.09    1.31
  -7   7   7    7.31    1.79
  -7   7   7    3.75    1.92
   7   7  -7    6.02    1.69
  -6  -7   7    1.30    1.45
  -6  -7   7    0.18    0.80
   6  -7  -7    2.58    1.77
  -6   7   7    0.31    1.19
   6   7  -7    0.28    0.55
  -6   7   7    0.74    1.04
   6   7  -7    0.02    0.65
  -5  -7   7   22.40    3.70
   5  -7  -7   24.05    4.80
  -5  -7   7   38.08    5.52
   5   7  -7   30.72    3.03
  -5   7   7   27.57    3.89
  -5   7   7   36.75    3.72
  -5   7   7   20.23    4.23
   5   7  -7   29.34    3.08
   4  -7  -7   13.60    3.63
  -4  -7   7   16.52    2.71
  -4  -7   7   20.41    3.72
  -4   7   7   25.47    3.03
   4   7  -7   19.90    2.04
   4   7  -7   19.64    2.49
   4   7  -7   17.58    2.34
  -4   7   7    9.39    2.70
  -4   7   7   14.02    2.49
   3  -7  -7   23.18    4.63
  -3  -7   7   22.66    3.03
  -3  -7   7   35.85    4.32
  -3   7   7   23.03    3.21
   3   7  -7   25.87    2.65
   3   7  -7   26.91    2.79
  -3   7   7   27.03    4.15
   3   7  -7   27.78    2.74
  -3   7   7   23.21    3.41
  -2  -7   7   49.91    5.90
   2  -7  -7   30.04    6.11
  -2  -7   7   40.50    4.83
   2   7  -7   52.46    4.47
  -2   7   7   41.21    5.34
  -2   7   7   48.20    4.67
   2   7  -7   51.47    4.48
   2   7  -7   46.39    4.32
  -2   7   7   58.86    5.01
  -1  -7   7   16.86    2.71
   1  -7  -7   18.36    3.91
   1  -7  -7   22.47    3.24
  -1  -7   7   24.07    3.75
  -1   7   7   21.03    2.78
   1   7  -7   16.44    1.91
   1   7  -7   19.74    2.22
  -1   7   7   21.36    2.85
   1   7  -7   17.73    2.04
   1   7  -7   16.76    2.34
  -1   7   7   18.42    3.29
   0  -7   7   42.61    4.99
   0  -7  -7   29.70    4.22
   0  -7   7   32.79    4.20
   0  -7  -7   36.68    5.89
   0   7  -7   41.05    3.87
   0   7   7   34.26    3.92
   0   7  -7   42.44    3.81
   0   7   7   42.28    4.05
   0   7   7   44.18    4.79
   0   7  -7   44.47    3.86
  -1  -7  -7   10.33    2.29
   1  -7   7   15.41    2.66
  -1  -7  -7   15.47    3.30
   1  -7   7   13.13    2.36
  -1   7  -7   14.61    2.07
  -1   7  -7   10.39    1.76
  -1   7  -7   14.84    2.11
   1   7   7   12.03    1.97
  -1   7  -7   13.40    2.44
   1   7   7   14.12    2.16
   1   7   7   14.84    2.73
  -2  -7  -7   20.59    3.29
  -2  -7  -7   17.16    3.51
   2  -7   7   17.81    3.27
   2  -7   7   21.68    2.88
  -2   7  -7   20.24    2.45
  -2   7  -7   24.81    3.10
   2   7   7   18.47    2.73
   2   7   7   19.85    3.49
  -2   7  -7   19.16    3.15
  -2   7  -7   17.35    2.52
   2   7   7   26.65    2.67
  -3  -7  -7    4.23    1.52
   3  -7   7    3.79    1.48
  -3  -7  -7    4.65    1.86
   3  -7   7    5.33    1.30
   3   7   7    5.61    1.42
  -3   7  -7    6.25    1.40
  -3   7  -7    5.50    1.41
   3   7   7    5.12    1.87
   3   7   7    5.30    1.34
  -4  -7  -7    4.50    1.61
  -4  -7  -7    5.78    1.82
   4  -7   7    3.15    1.46
  -4   7  -7    3.32    1.15
   4   7   7    3.56    1.24
   4   7   7    5.89    1.96
  -4   7  -7    3.91    1.29
   4   7   7    4.30    1.30
  -5  -7  -7    0.85    1.12
   5  -7   7    1.85    1.34
  -5  -7  -7    1.70    1.33
   5   7   7   -0.03    0.76
   5   7   7    2.24    1.46
  -5   7  -7    1.32    0.89
  -5   7  -7    2.35    1.09
  -6  -7  -7    9.92    2.63
   6  -7   7    6.16    2.31
  -6   7  -7    9.78    2.25
  -6   7  -7    8.66    1.99
   6   7   7   10.72    2.00
  -7  -7  -7    1.48    1.32
   7   7   7    0.90    1.05
  -7   7  -7    0.68    1.02
  -8  -7  -7    2.81    1.63
   8   7   7    6.71    1.79
  -8   7  -7    4.51    1.64
  -9  -7  -7    1.91    1.55
   9   7   7    3.39    1.74
  -9   7  -7    4.54    1.95
  -9  -8   7    1.39    1.26
   9  -8  -7    1.69    2.08
   9   8  -7    3.61    1.48
  -8  -8   7    8.41    2.13
   8  -8  -7   10.93    3.62
   8   8  -7   11.48    2.33
  -8   8   7   14.50    2.97
   7  -8  -7   -0.75    1.40
  -7  -8   7    0.24    0.88
   7   8  -7    0.07    0.67
   7   8  -7    1.04    0.93
  -7   8   7    1.12    1.00
   6  -8  -7   10.27    3.13
  -6  -8   7    7.40    1.82
   6   8  -7    6.31    1.39
  -6   8   7    5.24    1.76
  -6   8   7    5.26    2.15
   6   8  -7    6.48    1.39
  -5  -8   7   -0.08    1.05
   5  -8  -7    0.21    1.75
  -5  -8   7    0.63    0.74
  -5   8   7    1.44    1.09
  -5   8   7    0.67    0.87
   5   8  -7    0.03    0.46
   5   8  -7    0.42    0.52
  -5   8   7    0.98    1.36
   4  -8  -7    2.11    1.97
  -4  -8   7    0.16    1.18
  -4  -8   7   -0.16    0.58
  -4   8   7    1.19    0.81
  -4   8   7   -0.02    0.72
   4   8  -7    0.64    0.49
   4   8  -7    0.28    0.49
  -4   8   7    1.04    1.16
  -3  -8   7   12.58    2.96
  -3  -8   7   14.11    2.27
   3  -8  -7   10.12    3.15
   3   8  -7   17.13    2.17
  -3   8   7   10.99    2.14
  -3   8   7   20.43    3.61
   3   8  -7   14.76    1.74
   3   8  -7   14.52    1.65
  -2  -8   7    4.37    1.21
  -2  -8   7    4.26    1.79
   2  -8  -7    6.29    1.73
   2  -8  -7    7.17    2.69
   2   8  -7    4.09    0.91
  -2   8   7    3.49    1.65
   2   8  -7    5.87    1.00
   2   8  -7    5.97    1.26
  -2   8   7    5.47    1.36
  -1  -8   7    2.12    1.15
  -1  -8   7    1.53    0.88
   1  -8  -7    0.90    1.58
   1  -8  -7    3.23    1.28
   1   8  -7    0.94    0.68
  -1   8   7    1.24    0.88
  -1   8   7    0.50    0.75
   1   8  -7    1.08    0.46
  -1   8   7    2.07    1.28
   1   8  -7    0.95    0.60
   1   8  -7    0.54    0.63
   0  -8   7   14.07    2.51
   0  -8  -7   17.43    3.72
   0  -8  -7   17.48    3.02
   0  -8   7   21.46    3.48
   0   8  -7   19.10    2.12
   0   8   7   18.19    3.15
   0   8  -7   19.79    2.14
   0   8  -7   17.44    2.38
   0   8   7   17.20    2.52
   0   8   7   17.65    2.49
  -1  -8  -7    4.75    1.90
   1  -8   7    1.54    1.06
   1  -8   7    3.02    1.17
  -1  -8  -7    0.87    0.96
  -1   8  -7    3.06    0.94
   1   8   7    1.20    1.26
   1   8   7    2.01    0.82
  -1   8  -7    2.94    1.00
   1   8   7    1.68    0.86
  -1   8  -7    3.05    1.02
   2  -8   7   11.43    2.35
  -2  -8  -7   13.09    2.60
  -2  -8  -7   15.10    3.35
   2  -8   7   20.43    2.91
   2   8   7   11.11    2.14
  -2   8  -7   15.61    2.24
  -2   8  -7   12.17    2.06
   2   8   7   17.56    2.47
   3  -8   7    3.59    1.31
  -3  -8  -7    3.03    1.38
  -3  -8  -7    3.13    1.63
   3   8   7    4.27    1.31
   3   8   7    4.55    1.21
  -3   8  -7    3.30    1.06
  -3   8  -7    5.44    1.35
   4  -8   7   11.77    2.55
  -4  -8  -7   19.64    3.34
  -4  -8  -7   12.66    2.56
   4   8   7   13.99    2.49
  -4   8  -7   15.90    2.46
  -4   8  -7   15.28    2.52
   5  -8   7    4.00    1.80
  -5  -8  -7    6.99    1.99
  -5  -8  -7    4.37    1.68
   5   8   7    4.82    1.42
  -5   8  -7    7.24    1.76
  -5   8  -7    6.49    1.72
  -6  -8  -7   18.58    3.55
  -6   8  -7   23.97    3.74
  -6   8  -7   22.08    3.29
   6   8   7   20.29    3.15
  -7  -8  -7    5.68    2.10
  -7   8  -7    5.46    1.80
   7   8   7    4.73    1.52
  -8  -8  -7    3.97    1.86
  -8   8  -7    8.08    2.24
   8   8   7   16.46    2.90
  -9  -8  -7    2.60    1.80
  -9   8  -7    8.88    2.57
   9   8   7    6.94    2.21
  -8  -9   7    0.49    1.09
   8  -9  -7    1.18    2.20
   8   9  -7    2.09    1.25
  -8   9   7    3.15    1.58
   7  -9  -7    2.61    2.26
  -7  -9   7    2.08    1.14
   7   9  -7    2.44    0.99
  -7   9   7    1.63    1.34
   6  -9  -7    7.06    2.99
  -6  -9   7    5.11    1.43
   6   9  -7    5.88    1.35
   6   9  -7    6.94    1.44
  -6   9   7    6.84    2.09
  -5  -9   7    0.15    1.46
   5  -9  -7    0.25    1.73
  -5  -9   7    0.14    0.69
  -5   9   7    1.80    1.08
   5   9  -7    0.95    0.65
   5   9  -7    1.35    0.71
  -5   9   7    0.76    1.04
  -4  -9   7   13.94    2.33
   4  -9  -7   20.41    4.53
  -4  -9   7   19.26    4.12
  -4   9   7   19.67    2.94
   4   9  -7   16.98    1.91
   4   9  -7   15.16    2.10
  -4   9   7   22.94    3.33
   3  -9  -7    2.74    2.12
  -3  -9   7    3.73    1.81
  -3  -9   7    2.96    1.04
   3   9  -7    5.52    0.96
   3   9  -7    4.12    0.92
  -3   9   7    6.42    1.62
   2  -9  -7   18.77    3.43
   2  -9  -7   22.15    4.58
  -2  -9   7   23.66    2.82
  -2  -9   7   30.42    4.86
   2   9  -7   26.77    2.48
   2   9  -7   24.91    2.79
  -2   9   7   27.73    3.07
   2   9  -7   25.84    2.58
  -1  -9   7    6.17    2.25
  -1  -9   7    4.76    1.32
   1  -9  -7    7.72    2.71
   1  -9  -7    4.65    1.59
   1   9  -7    7.22    1.41
  -1   9   7    8.76    1.74
  -1   9   7    7.19    1.56
   1   9  -7    9.94    1.27
   1   9  -7    7.23    1.41
   1   9  -7    7.64    1.22
   0  -9   7   23.59    3.90
   0  -9   7   12.48    2.28
   0  -9  -7   16.86    2.82
   0  -9  -7   22.89    4.39
   0   9   7   16.55    2.42
   0   9  -7   20.23    2.06
   0   9   7   11.09    2.15
   0   9  -7   16.95    2.33
   1  -9   7    6.60    1.61
  -1  -9  -7    7.22    1.93
  -1  -9  -7   12.01    2.95
   1  -9   7    9.99    2.21
  -1   9  -7    8.83    1.62
   1   9   7    8.26    1.73
  -1   9  -7   11.67    1.73
   1   9   7    8.00    1.58
  -2  -9  -7    7.09    1.91
   2  -9   7    7.22    1.82
  -2  -9  -7    6.29    2.36
  -2   9  -7    7.91    1.61
   2   9   7    5.64    1.50
  -2   9  -7    9.83    1.69
   2   9   7    6.66    1.43
  -3  -9  -7    9.02    2.14
   3  -9   7    6.68    1.90
  -3  -9  -7   12.09    2.83
   3   9   7   11.42    2.15
  -3   9  -7    9.28    1.78
   3   9   7    9.42    1.85
  -3   9  -7   10.42    1.90
  -4  -9  -7   -0.13    0.91
  -4  -9  -7    1.04    1.50
   4   9   7    1.29    0.86
  -4   9  -7    0.43    0.76
  -4   9  -7    0.69    0.72
  -5  -9  -7    3.25    1.43
  -5  -9  -7    3.52    1.98
   5   9   7    3.46    1.17
  -5   9  -7    8.47    1.87
  -5   9  -7    3.37    1.41
  -6  -9  -7    0.38    0.87
  -6   9  -7   -0.64    0.88
  -6   9  -7   -0.23    0.86
   6   9   7    0.18    0.84
  -7  -9  -7   -0.03    1.02
  -7   9  -7    0.63    1.25
   7   9   7   -0.71    0.83
  -8  -9  -7    1.43    1.58
   8   9   7    2.56    1.41
  -8   9  -7    4.54    1.91
   7 -10  -7    3.49    2.50
  -7  10   7    4.15    1.83
   7  10  -7    1.28    0.86
   6 -10  -7    2.11    2.19
   6  10  -7    1.12    0.78
   6  10  -7    0.94    0.69
  -6  10   7   -0.52    0.90
   5 -10  -7    5.32    2.61
  -5  10   7    2.44    1.30
  -5  10   7    3.27    1.52
   5  10  -7    4.37    1.07
   5  10  -7    3.87    1.01
   4 -10  -7    3.14    2.51
  -4 -10   7    2.45    1.91
  -4  10   7   -0.40    0.77
   4  10  -7    1.78    0.66
   4  10  -7    0.79    0.67
  -4  10   7    3.02    1.30
  -3 -10   7    1.05    1.68
   3 -10  -7    1.06    1.06
   3 -10  -7    0.23    1.86
  -3  10   7    1.21    0.83
   2 -10  -7    4.63    2.51
  -2 -10   7    6.87    2.31
   2 -10  -7    5.25    1.67
  -2  10   7    4.89    1.53
  -1 -10   7    1.66    1.45
   1 -10  -7    2.85    1.30
   1 -10  -7    3.70    2.22
   1  10  -7    3.54    1.04
  -1  10   7    4.24    1.29
   0 -10  -7    0.42    1.78
   0 -10   7    2.57    1.53
   0 -10  -7    2.43    1.24
   0  10  -7    0.75    0.64
   0  10   7    1.83    1.00
   0  10  -7    1.33    0.74
  -1 -10  -7   11.23    3.19
  -1 -10  -7    8.73    2.05
  -1  10  -7   13.52    1.93
  -1  10  -7   12.34    1.95
   1  10   7    9.95    1.90
   1  10   7   14.50    2.25
  -2 -10  -7    5.61    2.33
  -2 -10  -7    3.71    1.33
  -2  10  -7    4.46    1.33
  -2  10  -7    5.90    1.27
   2  10   7    4.00    1.38
  -3 -10  -7   25.18    4.57
  -3 -10  -7   19.51    3.32
   3  10   7   19.48    3.00
  -3  10  -7   25.76    3.28
  -3  10  -7   26.77    2.96
  -4 -10  -7    6.36    1.84
  -4 -10  -7   13.43    3.02
  -4  10  -7   11.36    2.10
  -4  10  -7    8.71    1.88
   4  10   7    6.42    1.65
  -5 -10  -7    2.90    1.43
   5  10   7    5.17    1.48
  -5  10  -7    8.73    1.90
  -5  10  -7    5.74    1.72
  -6 -10  -7    6.22    2.03
  -6  10  -7    9.03    2.18
  -6  10  -7    9.06    2.15
   6  10   7   10.41    2.29
  -7 -10  -7    3.28    1.51
  -7  10  -7    5.62    1.87
   7  10   7    4.70    1.69
   6 -11  -7    1.58    2.05
   6  11  -7    0.20    0.59
   6  11  -7    0.69    0.80
  -6  11   7    0.38    1.16
   5 -11  -7   11.49    3.91
  -5  11   7    6.81    1.95
   5  11  -7    6.25    1.32
   5  11  -7    5.05    1.11
   4 -11  -7    1.17    2.01
  -4  11   7    1.93    1.16
  -4  11   7    2.30    1.31
   3 -11  -7    9.39    3.27
   3 -11  -7    4.69    1.62
  -3 -11   7    7.71    2.70
  -3  11   7    5.48    1.61
   2 -11  -7    4.12    1.62
  -2 -11   7    8.72    2.74
   2 -11  -7    8.85    3.21
   2  11  -7    6.85    1.42
  -2  11   7    5.19    1.58
   1 -11  -7   16.97    4.32
   1 -11  -7   15.24    2.81
   1  11  -7   19.20    2.48
  -1  11   7   16.66    2.64
   0 -11  -7    0.79    1.12
   0 -11  -7    2.08    2.10
   0  11   7    0.64    0.94
   0  11  -7    0.46    0.65
  -1 -11  -7   11.42    3.26
  -1 -11  -7    7.09    2.03
   1  11   7   13.97    2.35
  -1  11  -7   16.01    2.09
  -1  11  -7   13.34    2.07
  -2 -11  -7    2.72    1.34
  -2 -11  -7    8.51    2.77
   2  11   7    4.11    1.38
  -2  11  -7    4.57    1.21
  -2  11  -7    5.93    1.39
  -3 -11  -7    5.53    2.49
  -3 -11  -7    2.74    1.32
  -3  11  -7    6.76    1.56
   3  11   7    4.93    1.44
  -3  11  -7    3.97    1.29
  -4 -11  -7   -0.15    0.85
  -4 -11  -7   -1.81    1.23
   4  11   7   -0.28    0.78
  -4  11  -7    0.74    0.91
  -4  11  -7    0.52    0.93
  -5 -11  -7    0.54    1.11
  -5  11  -7    1.85    1.21
  -5  11  -7    3.38    1.42
   5  11   7    2.03    1.20
   4 -12  -7    2.80    2.60
   4 -12  -7    0.29    1.27
  -4  12   7    3.57    1.37
  -4  12   7    1.38    1.05
   3 -12  -7    0.79    1.98
   3 -12  -7    0.28    1.12
  -3  12   7    0.75    0.75
  -3  12   7    0.72    1.00
   2 -12  -7    0.62    1.10
   2 -12  -7    2.53    2.21
   2  12  -7    0.16    0.65
  -2  12   7    0.73    0.93
   1 -12  -7    1.20    1.89
   1 -12  -7    1.76    1.13
   1  12  -7    1.55    0.81
  -1  12   7    2.33    1.06
   0 -12  -7   -0.30    1.65
   0 -12  -7    1.65    1.17
   0  12   7   -0.60    0.73
   0  12  -7    0.07    0.59
  -1 -12  -7    5.12    2.64
  -1 -12  -7    2.74    1.21
  -1  12  -7    4.48    1.20
   1  12   7    2.29    1.17
  -1  12  -7    4.06    1.16
  -2 -12  -7    4.47    1.46
  -2 -12  -7    8.76    3.23
   2  12   7    6.09    1.55
  -2  12  -7    4.86    1.44
  -2  12  -7    7.67    1.55
  -3 -12  -7    6.66    2.71
  -3 -12  -7    2.28    1.23
  -3  12  -7    4.23    1.40
  -3  12  -7    2.84    1.18
   3  12   7    3.91    1.36
 -11   0   8    6.33    2.58
 -10   0   8   -0.95    1.22
  10   0  -8    1.72    1.92
  -9   0   8    6.57    2.29
   9   0  -8    7.54    2.52
  -9   0   8   16.58    3.98
  -8   0   8    1.06    1.18
  -8   0   8    0.63    1.80
  -7   0   8   13.70    3.06
  -7   0   8   15.72    3.67
  -6   0   8   -0.52    0.97
  -6   0   8    1.66    1.58
  -5   0   8    3.20    1.11
  -5   0   8    0.96    1.22
   5   0  -8    2.37    1.04
  -5   0   8    2.28    1.58
  -4   0   8   10.06    2.46
  -4   0   8   11.54    3.41
   4   0  -8   13.54    2.22
  -4   0   8   17.35    2.31
  -3   0   8    2.39    0.83
  -3   0   8    3.01    1.31
  -3   0   8    2.38    2.35
   3   0  -8    1.09    0.75
  -2   0   8   48.93    5.50
   2   0  -8   44.54    4.70
   2   0  -8   49.56    4.81
  -2   0   8   51.88    4.74
   1   0  -8    0.67    0.59
   1   0  -8    1.03    0.91
  -1   0   8    1.35    1.00
   1   0  -8    1.39    0.83
   1   0  -8    1.87    0.78
  -1   0   8    0.90    0.68
  -1   0   8    1.64    0.71
   0   0   8   13.17    1.82
   0   0  -8   13.14    2.10
   0   0  -8   13.57    2.40
   0   0   8   17.59    2.27
   0   0  -8    9.70    1.74
   0   0   8   10.93    2.27
   1   0   8   21.00    3.61
  -1   0  -8   23.88    2.64
  -1   0  -8   25.49    3.22
  -1   0  -8   25.07    3.62
  -1   0  -8   21.88    2.61
   1   0   8   22.69    2.65
   2   0   8    6.09    1.30
  -2   0  -8   10.25    1.89
  -2   0  -8    6.75    1.80
   2   0   8    6.35    1.84
  -2   0  -8   11.77    1.80
  -2   0  -8    9.01    1.56
  -3   0  -8   22.76    2.99
   3   0   8   22.42    3.03
  -3   0  -8   18.90    3.19
   3   0   8   22.44    3.76
   4   0   8   74.99    6.38
  -4   0  -8   78.92    6.57
  -4   0  -8   50.49    6.84
   4   0   8   64.98    7.29
  -5   0  -8    4.40    1.33
  -5   0  -8    2.07    1.24
   5   0   8    0.96    1.01
   5   0   8    3.39    1.29
  -6   0  -8   39.28    4.08
   6   0   8   34.40    3.87
  -6   0  -8   26.53    4.53
   6   0   8   32.27    5.26
  -7   0  -8   29.52    4.81
   7   0   8   28.00    5.08
   8   0   8   23.69    4.81
  -8   0  -8   27.58    4.68
  -9   0  -8   14.70    3.49
   9   0   8   14.25    3.44
  10   0   8    7.75    2.70
 -10   0  -8    6.80    2.46
 -11   0  -8    1.50    1.89
  11   0   8    4.50    2.60
 -11  -1   8    1.01    1.54
 -11   1   8    1.46    1.75
  10  -1  -8   -0.99    1.59
 -10  -1   8    0.04    1.40
  10   1  -8   -0.63    1.89
 -10   1   8    0.67    1.67
  -9  -1   8    1.33    1.69
  -9  -1   8    2.50    1.82
   9  -1  -8    0.60    1.69
  -9   1   8    1.21    1.37
  -9   1   8   -0.08    1.55
   8  -1  -8    2.68    1.87
  -8  -1   8    0.83    1.43
  -8  -1   8    2.74    1.83
  -8   1   8    0.65    1.21
  -8   1   8    3.74    2.11
  -7  -1   8    4.77    2.22
  -7  -1   8    2.91    1.61
  -7   1   8    3.91    1.72
  -7   1   8    4.50    2.19
  -6  -1   8    8.66    2.78
  -6  -1   8    5.85    1.92
  -6   1   8   12.85    2.06
  -6   1   8    7.29    2.57
  -6   1   8    7.21    2.26
  -5  -1   8   11.85    3.19
  -5  -1   8   11.50    2.60
  -5   1   8   14.49    2.20
  -5   1   8   13.81    2.88
   5   1  -8   16.76    2.65
  -5   1   8    9.99    3.25
  -4  -1   8   11.19    3.20
  -4  -1   8   22.72    2.73
  -4  -1   8   16.35    3.05
  -4   1   8   13.57    2.96
   4   1  -8   20.09    2.69
  -4   1   8   23.34    2.97
  -4   1   8   21.90    2.40
  -4   1   8   20.83    4.88
  -3  -1   8   37.46    4.43
  -3  -1   8   36.50    3.60
  -3   1   8   35.00    3.71
   3   1  -8   36.82    3.70
  -3   1   8   34.07    3.54
  -3   1   8   29.97    4.54
   3   1  -8   33.38    3.69
  -2  -1   8   20.92    4.18
  -2  -1   8   11.83    2.55
  -2  -1   8   12.98    2.00
   2  -1  -8   11.60    1.95
   2   1  -8   12.17    1.94
  -2   1   8   16.74    2.16
  -2   1   8   12.27    2.50
  -2   1   8   17.20    2.34
   2   1  -8   13.83    2.09
   1  -1  -8  110.41   10.90
   1  -1  -8  113.83    9.83
  -1  -1   8  110.83    9.69
   1  -1  -8  123.14   10.09
  -1  -1   8   99.58   10.84
  -1   1   8  124.94    9.88
   1   1  -8  109.34   10.86
  -1   1   8  122.22    9.88
  -1   1   8  112.83   11.02
   1   1  -8  105.59    9.95
   1   1  -8  115.86    9.82
   1   1  -8  107.93    9.77
   0  -1   8   19.95    3.36
   0  -1  -8   22.85    3.15
   0  -1   8   27.65    2.76
   0  -1  -8   22.08    3.39
   0  -1  -8   26.29    2.75
   0   1   8   28.53    2.81
   0   1   8   20.11    3.39
   0   1  -8   25.83    2.76
   0   1  -8   21.10    3.30
   0   1  -8   24.91    2.74
   0   1  -8   23.88    2.83
  -1  -1  -8   67.49    6.58
  -1  -1  -8   67.31    5.92
  -1  -1  -8   62.57    5.80
   1  -1   8   51.43    6.37
   1  -1   8   51.44    5.57
  -1   1  -8   65.20    5.88
   1   1   8   62.57    6.68
  -1   1  -8   60.07    6.44
   1   1   8   69.17    5.82
  -1   1  -8   67.40    5.96
  -1   1  -8   62.37    5.82
   2  -1   8   35.88    4.23
  -2  -1  -8   28.46    3.87
  -2  -1  -8   34.62    3.39
  -2  -1  -8   40.02    3.65
   2  -1   8   28.79    3.31
  -2   1  -8   29.51    3.51
  -2   1  -8   33.52    3.47
  -2   1  -8   30.85    3.91
  -2   1  -8   31.82    3.42
   2   1   8   32.80    3.53
   2   1   8   31.05    4.52
  -3  -1  -8   12.93    2.12
  -3  -1  -8   14.18    2.74
   3  -1   8   15.12    2.38
   3  -1   8   17.94    3.26
  -3  -1  -8   20.65    2.88
  -3   1  -8   20.58    2.79
  -3   1  -8   18.27    2.63
  -3   1  -8   16.49    2.81
   3   1   8   14.77    2.96
   3   1   8   17.91    2.55
  -3   1  -8   19.24    2.59
   4  -1   8   38.38    5.58
  -4  -1  -8   24.18    4.35
  -4  -1  -8   40.66    4.14
  -4  -1  -8   33.81    3.93
   4  -1   8   40.66    3.96
   4   1   8   39.79    3.95
  -4   1  -8   39.88    4.55
   4   1   8   27.85    4.86
  -4   1  -8   40.78    4.10
  -5  -1  -8    7.63    2.06
  -5  -1  -8    5.37    1.44
   5  -1   8    6.45    2.02
   5  -1   8    9.71    1.99
  -5   1  -8    5.86    1.75
  -5   1  -8    7.85    2.02
   5   1   8    8.13    1.78
   5   1   8    8.05    2.22
  -6  -1  -8    5.79    1.74
   6  -1   8    3.33    1.79
  -6  -1  -8    7.32    2.13
   6  -1   8    3.82    1.37
  -6   1  -8    7.65    1.81
   6   1   8    4.34    1.76
  -6   1  -8    3.05    1.38
   6   1   8    5.39    1.64
   7  -1   8    1.23    1.32
  -7  -1  -8    0.66    1.15
   7   1   8    0.02    1.02
  -7   1  -8    0.60    0.80
  -7   1  -8    0.60    1.07
   7   1   8   -0.62    0.95
  -8  -1  -8   -0.12    1.07
   8  -1   8    0.73    1.54
  -8   1  -8    0.90    1.23
   8   1   8    1.80    1.74
   9  -1   8    3.89    2.17
  -9  -1  -8    5.14    2.16
  -9   1  -8    3.41    1.96
   9   1   8    3.43    2.09
 -10  -1  -8    3.07    1.89
  10  -1   8    1.49    1.77
  10   1   8    0.78    1.63
 -10   1  -8    3.03    1.74
 -11  -1  -8    4.96    2.52
  11   1   8    4.67    2.75
 -11   1  -8    7.18    2.90
  11  -2  -8    1.35    1.86
 -11  -2   8    2.60    1.82
 -11   2   8    2.87    2.02
  10  -2  -8    5.33    2.54
 -10  -2   8    5.25    2.18
 -10   2   8   -0.97    1.31
   9  -2  -8    0.26    1.63
  -9  -2   8    0.66    1.15
  -9   2   8    3.26    2.12
  -9   2   8    1.65    1.45
  -8  -2   8   18.75    4.07
  -8  -2   8   13.48    3.10
   8  -2  -8    9.97    2.96
  -8   2   8   13.31    3.11
  -8   2   8   20.84    4.07
  -7  -2   8    4.06    2.03
  -7  -2   8    4.35    1.78
   7  -2  -8    3.36    2.12
  -7   2   8    4.60    2.21
  -7   2   8    2.56    1.48
  -6  -2   8   24.73    4.46
  -6  -2   8   14.52    3.01
  -6   2   8   19.10    2.87
  -6   2   8   15.42    3.81
  -6   2   8   11.41    2.76
  -5  -2   8   17.64    3.77
  -5  -2   8   14.79    3.02
  -5   2   8   25.99    5.14
   5   2  -8   19.93    2.74
  -5   2   8   14.39    2.38
  -5   2   8   14.61    3.13
   5   2  -8   16.40    2.46
  -4  -2   8    3.45    0.94
  -4  -2   8    1.98    1.13
  -4  -2   8    5.48    2.17
   4   2  -8    2.60    1.13
   4   2  -8    2.40    0.95
  -4   2   8    0.26    0.98
   4   2  -8    3.73    0.98
  -4   2   8    1.06    0.75
  -4   2   8    1.71    0.80
  -3  -2   8   20.68    2.40
  -3  -2   8   25.78    4.15
  -3  -2   8   17.79    3.24
  -3   2   8   21.27    2.53
  -3   2   8   16.65    3.10
   3   2  -8   25.37    2.63
   3   2  -8   17.72    2.47
  -3   2   8   20.90    2.88
  -2  -2   8    2.58    1.49
   2  -2  -8    3.20    1.13
  -2  -2   8    4.58    1.51
  -2  -2   8    4.45    1.04
   2   2  -8    2.72    1.12
  -2   2   8    2.75    0.97
   2   2  -8    2.84    0.96
  -2   2   8    3.76    0.99
   2   2  -8    1.79    0.79
  -2   2   8    3.34    1.40
  -1  -2   8   13.01    3.19
   1  -2  -8   10.27    2.16
   1  -2  -8   11.03    1.89
  -1  -2   8    8.86    2.14
  -1  -2   8   12.38    1.88
   1   2  -8   10.50    1.68
   1   2  -8    7.83    1.61
   1   2  -8    7.25    1.48
  -1   2   8   11.05    2.38
  -1   2   8   12.47    1.99
   1   2  -8   10.41    2.05
   0  -2  -8   11.09    2.01
   0  -2   8    8.79    2.13
   0  -2   8   13.27    1.89
   0  -2  -8   12.38    2.38
   0  -2  -8   15.69    2.05
   0   2   8   15.86    2.25
   0   2  -8   15.92    2.62
   0   2  -8   17.33    2.25
   0   2  -8   15.28    2.12
   0   2   8   13.72    2.65
   0   2   8   12.93    2.04
  -1  -2  -8    9.15    1.59
  -1  -2  -8    6.79    1.79
   1  -2   8    8.45    1.99
  -1  -2  -8    9.24    1.79
   1   2   8    9.60    2.25
   1   2   8    8.20    1.53
  -1   2  -8    7.37    1.71
  -1   2  -8    9.25    2.00
   1   2   8    9.22    1.69
  -1   2  -8    8.31    1.57
   2  -2   8   31.60    4.25
   2  -2   8   35.25    3.55
  -2  -2  -8   29.48    4.10
  -2  -2  -8   39.94    3.82
   2   2   8   35.76    3.80
  -2   2  -8   35.87    4.20
  -2   2  -8   32.67    3.61
  -2   2  -8   43.71    3.81
   2   2   8   28.75    3.58
   2   2   8   28.11    4.54
  -2   2  -8   41.29    3.95
   2   2   8   43.35    3.88
  -3  -2  -8    5.87    1.91
  -3  -2  -8   13.50    2.05
   3  -2   8    4.84    1.83
   3  -2   8   13.64    2.07
   3   2   8   10.73    2.46
   3   2   8   10.57    1.91
   3   2   8    6.80    1.54
   3   2   8   11.44    1.87
  -3   2  -8    9.18    1.66
  -3   2  -8   11.79    2.07
  -3   2  -8    7.75    1.61
  -3   2  -8    7.09    1.81
   4  -2   8   43.14    5.52
  -4  -2  -8   46.29    5.41
   4  -2   8   52.72    4.74
  -4  -2  -8   51.41    4.80
   4   2   8   48.41    4.75
   4   2   8   28.91    5.60
  -4   2  -8   46.03    4.70
  -4   2  -8   44.31    5.24
  -4   2  -8   51.44    4.85
  -4   2  -8   45.86    4.68
   5  -2   8   37.22    4.00
   5  -2   8   38.14    4.75
  -5  -2  -8   30.30    4.85
  -5  -2  -8   37.27    4.02
  -5   2  -8   36.65    4.12
   5   2   8   36.44    3.94
  -5   2  -8   44.62    4.18
  -5   2  -8   29.78    4.79
   5   2   8   29.24    5.02
   6  -2   8   13.54    3.38
  -6  -2  -8   18.15    3.54
   6   2   8   15.23    2.45
  -6   2  -8   19.04    3.05
  -6   2  -8   13.16    2.79
   6   2   8   23.32    4.06
   7  -2   8    9.51    2.74
  -7  -2  -8    7.71    2.47
  -7   2  -8   12.74    2.65
   7   2   8   12.48    2.50
  -7   2  -8   19.16    3.62
   7   2   8    9.49    2.87
   8  -2   8   17.44    3.84
  -8  -2  -8   12.24    3.14
   8   2   8   15.79    2.73
   8   2   8    7.59    2.72
  -8   2  -8   16.84    3.72
  -9  -2  -8   15.38    3.75
   9  -2   8   11.26    3.26
  -9   2  -8   16.81    3.55
   9   2   8   15.20    3.71
  10  -2   8    7.12    2.84
 -10  -2  -8    4.58    2.09
 -10   2  -8    6.58    2.51
  10   2   8    8.16    3.11
 -11  -2  -8    1.95    1.92
 -11   2  -8    6.01    2.80
  11   2   8    3.33    2.42
  11  -3  -8    2.38    2.12
 -11  -3   8   -1.30    1.30
  11   3  -8    2.67    1.45
 -11   3   8    1.83    2.03
 -10  -3   8    0.17    1.21
  10  -3  -8    0.25    1.79
  10   3  -8    0.02    1.11
 -10   3   8   -1.16    1.18
   9  -3  -8    0.75    1.64
  -9  -3   8    1.77    1.43
  -9   3   8    1.13    1.46
  -9   3   8    0.37    1.64
   8  -3  -8    0.62    1.60
  -8  -3   8    1.93    1.97
  -8  -3   8    0.87    1.46
  -8   3   8    3.10    1.72
  -8   3   8    2.60    2.13
   7  -3  -8    0.79    1.70
  -7  -3   8    1.81    1.80
  -7  -3   8    3.36    1.46
  -7   3   8    1.16    1.43
  -7   3   8    1.63    1.79
  -7   3   8    2.52    1.28
  -6  -3   8    1.80    1.33
  -6  -3   8    5.12    2.27
   6  -3  -8    2.35    1.99
  -6   3   8    5.12    1.96
  -6   3   8    3.48    1.13
  -6   3   8    3.26    2.50
  -5  -3   8    7.28    2.47
   5  -3  -8    5.46    2.57
  -5  -3   8    5.54    1.72
  -5   3   8    4.10    1.72
  -5   3   8    2.50    1.08
   5   3  -8    9.04    1.46
  -4  -3   8   41.89    4.89
  -4  -3   8   57.34    6.06
  -4  -3   8   46.75    4.06
   4   3  -8   41.22    4.19
  -4   3   8   44.61    4.40
  -4   3   8   27.87    5.04
  -4   3   8   37.97    4.15
   4   3  -8   43.61    4.10
   4   3  -8   35.02    4.05
  -3  -3   8   23.13    2.57
  -3  -3   8   22.08    4.03
  -3  -3   8   17.23    3.31
  -3   3   8   21.15    3.54
  -3   3   8   25.01    2.78
  -3   3   8   20.92    2.89
   3   3  -8   25.79    2.80
  -3   3   8   22.93    2.76
   3   3  -8   26.03    2.77
   2  -3  -8   45.97    4.73
  -2  -3   8   37.96    5.14
  -2  -3   8   53.04    4.49
  -2  -3   8   41.36    5.78
  -2   3   8   53.88    4.77
  -2   3   8   51.53    4.65
   2   3  -8   53.21    4.64
   2   3  -8   48.11    4.67
   2   3  -8   51.04    5.23
  -2   3   8   53.68    4.80
  -2   3   8   31.77    5.08
   1  -3  -8   23.47    3.90
   1  -3  -8   37.30    3.52
  -1  -3   8   29.16    4.31
  -1  -3   8   37.05    4.42
  -1  -3   8   34.90    3.15
   1   3  -8   31.90    3.25
   1   3  -8   22.79    3.76
   1   3  -8   32.73    3.30
   1   3  -8   32.96    3.32
  -1   3   8   30.90    3.38
  -1   3   8   22.43    3.95
   0  -3  -8   64.00    7.40
   0  -3   8   85.33    6.63
   0  -3   8   65.63    7.53
   0  -3  -8   70.26    6.77
   0  -3   8   84.08    8.52
   0   3   8   82.97    6.92
   0   3  -8   72.21    6.81
   0   3   8   74.61    6.88
   0   3  -8   71.81    6.72
   0   3  -8   73.86    7.50
   0   3  -8   71.59    6.70
   0   3   8   80.25    7.83
   1  -3   8   21.90    3.85
   1  -3   8   16.13    3.00
  -1  -3  -8   16.90    2.95
  -1  -3  -8   21.82    2.79
   1  -3   8   21.99    2.27
  -1   3  -8   17.31    2.44
  -1   3  -8   20.05    2.65
  -1   3  -8   16.10    2.47
   1   3   8   21.43    2.85
   1   3   8   19.91    3.41
  -1   3  -8   15.39    2.74
   1   3   8   19.75    2.69
   2  -3   8   47.20    5.77
  -2  -3  -8   56.07    5.03
   2  -3   8   57.28    4.91
  -2  -3  -8   41.62    5.48
   2   3   8   43.85    4.97
  -2   3  -8   55.57    4.99
   2   3   8   54.44    5.92
   2   3   8   55.63    5.06
  -2   3  -8   45.57    5.01
  -2   3  -8   49.16    4.94
  -2   3  -8   58.37    5.73
  -3  -3  -8    7.84    2.21
  -3  -3  -8    8.92    1.72
   3  -3   8   10.72    1.90
   3  -3   8    8.11    2.32
   3   3   8   11.88    2.10
  -3   3  -8   12.07    2.12
   3   3   8   13.08    2.69
   3   3   8   11.95    2.17
  -3   3  -8    7.91    1.67
   3   3   8    9.98    1.92
  -3   3  -8   11.56    2.24
  -3   3  -8    7.43    1.63
  -4  -3  -8    8.97    1.75
   4  -3   8    9.63    1.73
  -4  -3  -8    9.47    2.29
   4  -3   8   13.15    2.77
   4   3   8   10.34    2.12
   4   3   8   12.46    2.30
   4   3   8   12.51    2.95
  -4   3  -8    8.19    1.75
  -4   3  -8    8.28    1.78
  -4   3  -8    8.21    1.79
  -4   3  -8    9.84    2.25
  -5  -3  -8   12.19    2.51
   5  -3   8    9.31    2.51
  -5   3  -8    8.90    1.98
   5   3   8    6.02    2.07
  -5   3  -8   11.58    2.51
   5   3   8    7.52    1.69
  -5   3  -8   10.05    1.88
   6  -3   8    3.42    1.66
  -6  -3  -8    0.99    1.16
  -6   3  -8    0.99    1.19
   6   3   8    0.60    0.83
   6   3   8    1.08    1.46
  -6   3  -8    1.05    0.99
  -7  -3  -8    8.15    2.50
   7  -3   8   15.75    3.45
   7   3   8   10.75    2.16
  -7   3  -8   10.46    2.61
  -7   3  -8    8.52    2.13
   7   3   8   13.09    3.22
  -8  -3  -8    2.84    1.70
   8  -3   8    7.64    2.69
  -8   3  -8    5.49    2.15
  -8   3  -8   10.84    2.45
   8   3   8   10.27    3.17
   8   3   8   11.52    2.26
   9  -3   8   -0.03    1.32
  -9  -3  -8    0.85    1.48
   9   3   8    0.63    1.78
  -9   3  -8    0.03    1.21
 -10  -3  -8    4.46    2.16
  10  -3   8    6.18    2.86
 -10   3  -8    5.26    2.40
  10   3   8   11.54    3.69
 -11  -4   8    3.57    1.91
  11  -4  -8    3.37    2.66
 -11   4   8    2.33    2.07
  11   4  -8    5.90    2.50
  10  -4  -8    3.37    2.31
 -10  -4   8    3.88    2.06
 -10   4   8    3.33    2.21
  10   4  -8    4.52    1.82
   9  -4  -8    2.83    2.15
  -9  -4   8    2.18    1.72
  -9   4   8    0.50    1.42
  -9   4   8    2.37    2.15
   8  -4  -8    6.25    2.62
  -8  -4   8    4.55    1.80
  -8   4   8    5.42    2.42
  -8   4   8    2.11    1.71
   7  -4  -8    6.42    2.37
  -7  -4   8   11.46    2.97
  -7  -4   8    4.16    1.77
  -7   4   8    7.73    2.48
  -7   4   8    7.28    1.82
  -7   4   8    2.68    2.20
  -6  -4   8   11.37    3.03
   6  -4  -8   11.06    3.17
  -6  -4   8    9.46    2.46
  -6   4   8   14.12    3.05
  -6   4   8   18.48    2.87
  -6   4   8    9.75    3.78
  -5  -4   8   19.95    3.87
   5  -4  -8    8.16    2.81
  -5  -4   8   16.68    2.92
  -5   4   8   14.96    2.57
  -5   4   8   12.34    2.81
   5   4  -8   15.71    2.29
   5   4  -8   11.66    2.08
  -4  -4   8    8.21    2.43
   4  -4  -8   14.95    3.63
  -4  -4   8    7.62    2.04
  -4   4   8   10.45    1.98
  -4   4   8    6.99    1.95
  -4   4   8    9.68    1.92
   4   4  -8    6.24    1.42
   4   4  -8    6.14    1.28
   4   4  -8    7.11    1.39
  -4   4   8    4.51    1.71
   3  -4  -8    5.75    1.52
  -3  -4   8    5.16    1.11
  -3  -4   8    5.21    1.54
  -3  -4   8    5.18    1.94
   3  -4  -8    2.88    2.13
  -3   4   8    2.96    1.54
   3   4  -8    6.11    1.15
   3   4  -8    5.91    1.31
  -3   4   8    5.67    1.50
  -3   4   8    8.07    1.53
   3   4  -8    4.58    1.13
  -2  -4   8    6.89    1.77
  -2  -4   8    5.75    1.86
   2  -4  -8    4.70    2.33
   2  -4  -8    5.55    1.36
  -2  -4   8    3.60    0.94
  -2   4   8    3.23    1.06
  -2   4   8    5.98    1.76
   2   4  -8    4.76    1.16
  -2   4   8    5.69    1.33
   2   4  -8    6.03    1.57
  -2   4   8    6.05    1.26
   2   4  -8    6.01    1.37
  -1  -4   8    3.50    0.87
   1  -4  -8    4.95    1.58
  -1  -4   8    1.90    1.00
  -1  -4   8    3.33    1.46
   1  -4  -8    2.63    0.99
   1   4  -8    2.58    1.10
  -1   4   8    2.82    1.30
  -1   4   8    4.28    1.18
   1   4  -8    3.34    0.97
  -1   4   8    4.25    1.20
   1   4  -8    2.87    0.87
   1   4  -8    3.69    0.93
   0  -4  -8    1.96    1.05
   0  -4  -8    1.77    0.85
   0  -4   8    0.47    0.91
   0  -4   8    3.69    0.90
   0  -4   8    3.19    1.39
   0   4   8    2.05    0.87
   0   4  -8    4.01    1.02
   0   4  -8    3.62    0.93
   0   4  -8    3.80    1.25
   0   4  -8    4.01    1.04
   0   4   8    4.31    1.62
   1  -4   8   24.36    3.40
  -1  -4  -8   19.62    3.43
   1  -4   8   17.98    3.38
   1  -4   8   22.03    2.60
  -1   4  -8   27.86    2.88
   1   4   8   27.03    3.00
   1   4   8   23.20    3.96
  -1   4  -8   28.86    3.82
  -1   4  -8   31.04    2.94
   1   4   8   23.78    2.86
  -1   4  -8   26.84    2.92
   2  -4   8   25.51    3.25
   2  -4   8   28.10    4.06
  -2  -4  -8   20.51    2.95
   2  -4   8   24.43    2.61
  -2  -4  -8   24.05    3.59
  -2   4  -8   17.12    3.20
  -2   4  -8   18.06    2.63
  -2   4  -8   24.29    3.21
   2   4   8   20.41    3.05
   2   4   8   25.42    3.25
  -2   4  -8   25.36    2.73
   2   4   8   18.32    3.54
   2   4   8   22.54    2.70
   3  -4   8    9.78    2.44
  -3  -4  -8    8.38    1.63
  -3  -4  -8    6.15    1.83
   3  -4   8    9.06    1.77
   3  -4   8    7.18    1.87
  -3   4  -8    8.38    1.56
   3   4   8    9.06    1.84
  -3   4  -8    8.79    1.63
   3   4   8    6.08    1.42
   3   4   8    9.05    2.40
  -3   4  -8    9.07    1.88
  -3   4  -8    5.99    1.75
   4  -4   8   27.58    3.54
  -4  -4  -8   23.60    3.88
   4  -4   8   15.86    3.37
  -4   4  -8   23.24    3.18
   4   4   8   27.05    2.99
  -4   4  -8   19.23    3.41
  -4   4  -8   29.58    3.04
   4   4   8   27.95    4.70
  -5  -4  -8   28.58    4.72
   5  -4   8   38.53    5.62
  -5   4  -8   38.52    4.00
  -5   4  -8   37.98    3.90
   5   4   8   33.43    3.77
   5   4   8   28.50    5.12
  -5   4  -8   26.15    4.48
  -6  -4  -8   21.14    3.87
   6  -4   8   27.86    4.62
  -6   4  -8   26.89    4.44
   6   4   8   31.63    3.43
  -6   4  -8   27.52    3.91
   6   4   8   20.22    4.07
   7  -4   8   32.67    5.47
  -7  -4  -8   33.00    5.24
  -7   4  -8   20.64    3.52
   7   4   8   28.54    4.17
   7   4   8   28.87    5.38
  -7   4  -8   33.58    5.29
   8  -4   8   11.91    3.27
  -8  -4  -8    9.10    2.68
  -8   4  -8   12.86    3.11
   8   4   8   12.46    2.38
   8   4   8   12.87    3.46
  -8   4  -8   10.53    2.46
  -9  -4  -8   11.88    3.08
   9  -4   8    3.84    2.31
  -9   4  -8    7.79    2.68
   9   4   8    8.11    3.01
   9   4   8    7.34    2.30
 -10  -4  -8    5.95    2.56
 -10   4  -8    4.74    2.78
  10   4   8    8.66    3.23
  10  -5  -8    2.65    2.27
 -10  -5   8   -0.23    1.41
 -10   5   8   -0.49    1.51
  10   5  -8    0.42    1.10
   9  -5  -8    2.31    1.98
  -9  -5   8    1.40    1.37
   9   5  -8    1.59    1.16
  -9   5   8    1.54    1.58
  -9   5   8    2.50    2.13
   8  -5  -8    2.65    2.10
  -8  -5   8    1.45    1.41
  -8   5   8    2.42    1.85
  -8   5   8    2.77    1.81
   7  -5  -8    3.69    1.99
  -7  -5   8    5.52    1.96
  -7  -5   8    7.01    2.59
  -7   5   8    9.17    2.81
  -7   5   8    5.14    2.90
  -7   5   8    7.11    1.79
  -6  -5   8    0.72    1.25
   6  -5  -8   -0.60    1.58
  -6  -5   8    0.48    1.05
  -6   5   8    0.72    1.20
  -6   5   8   -0.12    0.71
  -5  -5   8    9.90    2.38
   5  -5  -8    8.67    2.82
  -5  -5   8   10.36    2.97
   5   5  -8    9.84    1.72
  -5   5   8    8.39    2.58
  -5   5   8   10.97    2.22
   5   5  -8   11.30    1.88
  -4  -5   8   10.79    2.62
  -4  -5   8    5.40    1.71
   4  -5  -8    4.21    2.11
  -4   5   8    4.51    1.36
  -4   5   8    5.00    1.41
  -4   5   8    5.60    1.79
   4   5  -8    3.47    0.94
   4   5  -8    2.51    0.92
  -3  -5   8   29.87    3.79
  -3  -5   8   40.91    4.81
   3  -5  -8   25.84    4.99
   3   5  -8   30.88    3.14
   3   5  -8   26.79    3.19
  -3   5   8   28.02    4.41
  -3   5   8   34.97    3.46
   3   5  -8   30.80    3.70
  -3   5   8   26.12    3.60
   3   5  -8   32.91    3.34
  -2  -5   8   24.26    3.68
   2  -5  -8   28.26    2.98
  -2  -5   8   22.66    3.89
   2  -5  -8   12.94    3.99
   2   5  -8   21.52    2.62
  -2   5   8   26.40    3.26
   2   5  -8   25.89    2.73
   2   5  -8   22.29    3.31
  -2   5   8   22.39    3.70
   1  -5  -8   33.37    3.63
  -1  -5   8   33.14    4.12
   1  -5  -8   30.30    4.09
  -1  -5   8   29.32    4.35
   1   5  -8   42.53    3.71
  -1   5   8   34.13    4.33
  -1   5   8   42.68    3.84
   1   5  -8   32.02    3.54
   1   5  -8   31.46    3.93
  -1   5   8   33.85    3.73
   1   5  -8   38.40    3.59
   0  -5  -8   21.82    2.87
   0  -5   8   26.66    3.82
   0  -5  -8   20.47    3.38
   0  -5  -8   11.40    3.45
   0  -5   8   21.66    3.54
   0   5   8   21.69    3.81
   0   5   8   27.05    2.88
   0   5  -8   20.05    2.78
   0   5   8   28.73    2.87
   0   5  -8   22.76    2.59
   0   5  -8   24.68    2.99
   0   5  -8   24.49    2.69
   1  -5   8   40.42    4.69
  -1  -5  -8   47.28    4.04
   1  -5   8   35.92    4.58
  -1  -5  -8   31.68    4.35
   1   5   8   37.69    4.03
  -1   5  -8   33.90    3.81
  -1   5  -8   31.20    4.24
  -1   5  -8   39.08    3.98
   1   5   8   46.32    4.16
   1   5   8   41.55    4.79
  -1   5  -8   37.83    3.88
   2  -5   8    4.98    1.19
   2  -5   8    3.44    1.31
  -2  -5  -8    2.47    1.34
   2  -5   8    4.59    1.73
  -2  -5  -8   16.56    3.77
  -2   5  -8    2.99    1.10
   2   5   8    1.67    1.23
  -2   5  -8    3.50    1.02
  -2   5  -8    3.71    0.99
  -2   5  -8    1.42    1.01
   2   5   8    4.97    1.36
   2   5   8    3.50    1.11
   3  -5   8   51.31    5.86
   3  -5   8   50.58    5.69
  -3  -5  -8   48.47    5.78
  -3   5  -8   52.71    5.11
   3   5   8   51.14    5.99
   3   5   8   50.64    5.14
  -3   5  -8   50.70    5.63
  -3   5  -8   53.00    5.09
   4  -5   8   11.26    2.97
  -4  -5  -8   20.41    3.50
   4  -5   8   19.75    2.57
  -4   5  -8   16.12    2.56
  -4   5  -8   20.69    3.44
   4   5   8   16.30    2.67
  -4   5  -8   18.23    2.80
   4   5   8   20.01    3.69
  -5  -5  -8    2.45    1.37
  -5  -5  -8    1.65    1.83
   5  -5   8    1.50    1.35
  -5   5  -8    4.74    1.87
  -5   5  -8    2.66    1.05
   5   5   8    2.84    1.60
   5   5   8    3.36    1.25
  -5   5  -8    2.72    1.16
  -6  -5  -8    5.92    2.02
  -6  -5  -8    2.42    1.66
   6  -5   8    4.24    1.89
  -6   5  -8    4.49    1.79
   6   5   8    5.50    1.57
  -6   5  -8    8.07    1.88
   6   5   8    7.23    2.41
  -7  -5  -8    4.59    1.88
   7  -5   8    4.66    2.01
   7   5   8    5.93    2.39
  -7   5  -8    4.76    1.61
  -7   5  -8    4.33    2.06
   7   5   8    4.40    1.60
   8  -5   8    4.49    2.05
  -8  -5  -8    4.20    2.13
   8   5   8    3.39    1.70
  -8   5  -8    4.91    2.12
   8   5   8    3.74    2.13
  -8   5  -8    3.90    1.58
   9  -5   8    4.59    2.42
  -9  -5  -8    3.66    1.93
  -9   5  -8    1.19    1.78
   9   5   8   11.89    2.74
 -10  -5  -8    1.51    1.75
 -10   5  -8    0.98    1.98
  10  -6  -8   -0.48    1.89
 -10  -6   8    0.61    1.32
 -10   6   8    2.08    1.92
  10   6  -8    0.16    1.12
  -9  -6   8    4.62    2.01
   9  -6  -8   12.63    3.63
   9   6  -8    4.72    1.59
  -9   6   8    7.52    2.44
  -9   6   8    6.30    2.84
  -8  -6   8    0.19    1.15
   8  -6  -8    0.67    1.54
  -8   6   8    0.29    1.50
  -8   6   8    2.04    2.25
  -7  -6   8   10.42    2.40
   7  -6  -8   12.68    3.41
  -7   6   8    9.07    2.62
  -7   6   8    6.85    3.59
  -7   6   8    9.46    2.22
  -6  -6   8    2.89    1.74
   6  -6  -8    3.53    2.03
  -6  -6   8    2.24    1.27
   6   6  -8    3.21    1.15
  -6   6   8    1.28    1.41
  -6   6   8    0.81    1.01
  -5  -6   8    8.36    2.63
   5  -6  -8    7.49    3.02
  -5  -6   8    7.03    1.90
   5   6  -8    7.67    1.55
  -5   6   8    5.65    1.67
  -5   6   8    3.36    1.79
   5   6  -8    8.42    1.44
  -4  -6   8   14.64    2.68
   4  -6  -8   15.44    3.83
  -4  -6   8   21.14    3.76
   4   6  -8   15.79    2.22
  -4   6   8   15.12    3.02
   4   6  -8   16.24    2.17
  -4   6   8   19.04    2.82
  -4   6   8   12.70    2.40
   3  -6  -8    7.44    2.64
  -3  -6   8    9.82    2.08
  -3  -6   8    7.98    2.40
   3   6  -8   11.95    1.81
  -3   6   8   18.08    3.24
  -3   6   8    8.85    1.86
   3   6  -8    9.49    1.67
  -3   6   8   12.89    2.22
   2  -6  -8   12.76    3.28
  -2  -6   8   13.59    2.93
  -2  -6   8   14.58    2.65
   2   6  -8   15.40    1.82
  -2   6   8   15.74    3.14
   2   6  -8   17.02    2.37
  -2   6   8   17.92    2.73
   2   6  -8   15.19    2.18
   2   6  -8   16.78    2.57
   1  -6  -8   12.11    2.48
  -1  -6   8   12.76    2.50
   1  -6  -8    6.33    2.63
  -1  -6   8   13.13    2.76
  -1   6   8   15.32    2.89
   1   6  -8   11.72    1.75
   1   6  -8   10.41    1.90
   1   6  -8   11.34    1.85
   1   6  -8   11.07    2.14
  -1   6   8   13.71    2.17
   0  -6   8    3.05    1.35
   0  -6  -8    0.84    0.92
   0  -6   8    0.60    0.82
   0  -6  -8    0.64    1.64
   0   6  -8    1.14    0.73
   0   6  -8    2.35    0.98
   0   6   8    1.58    0.71
   0   6   8    3.58    1.19
   0   6  -8    3.94    1.26
   0   6   8    3.91    1.54
   0   6  -8    2.72    0.89
  -1  -6  -8   13.65    3.43
  -1  -6  -8   16.94    3.12
   1  -6   8   21.91    3.61
   1  -6   8   25.64    3.63
   1   6   8   18.52    3.37
  -1   6  -8   21.47    3.27
  -1   6  -8   21.82    2.44
  -1   6  -8   22.91    2.90
   1   6   8   21.73    2.85
   1   6   8   19.93    2.85
  -1   6  -8   18.70    2.57
   2  -6   8    2.50    1.26
  -2  -6  -8    2.13    1.87
  -2  -6  -8    6.52    1.87
   2  -6   8    3.62    1.36
   2   6   8    2.66    1.50
  -2   6  -8    5.47    1.30
   2   6   8    2.67    1.01
  -2   6  -8    3.82    1.41
  -2   6  -8    5.17    1.42
   3  -6   8    6.69    2.05
   3  -6   8   12.45    2.15
  -3  -6  -8    6.20    2.20
  -3  -6  -8    4.98    1.83
  -3   6  -8    7.28    1.80
   3   6   8    7.59    2.30
  -3   6  -8   11.93    1.92
   3   6   8   10.03    1.82
  -3   6  -8    9.95    1.83
   4  -6   8   15.79    3.06
  -4  -6  -8   15.71    3.00
  -4  -6  -8   12.51    2.82
  -4   6  -8   18.04    2.70
  -4   6  -8   13.72    2.78
   4   6   8   14.99    2.54
   4   6   8   12.33    3.19
  -4   6  -8   17.62    2.79
  -5  -6  -8   14.11    2.88
  -5  -6  -8   14.78    2.97
   5  -6   8   13.07    3.01
   5   6   8   15.01    2.49
  -5   6  -8   17.18    2.82
   5   6   8   10.97    3.12
  -5   6  -8   17.62    2.81
  -5   6  -8   16.32    3.26
  -6  -6  -8   16.41    3.71
   6  -6   8   21.31    4.05
   6   6   8   16.42    3.84
  -6   6  -8   36.41    3.63
  -6   6  -8   23.54    4.21
  -6   6  -8   21.10    3.48
   6   6   8   26.71    3.61
  -7  -6  -8   16.04    3.53
   7  -6   8   16.38    3.71
  -7   6  -8   20.73    3.53
  -7   6  -8   20.81    4.25
   7   6   8   23.37    3.38
  -8  -6  -8   13.26    3.35
   8  -6   8   13.34    3.59
  -8   6  -8   15.57    3.01
   8   6   8   13.34    2.78
  -9  -6  -8    1.01    1.56
   9   6   8    2.25    1.44
  -9   6  -8    1.36    1.72
  -9  -7   8    0.17    1.25
   9  -7  -8    1.56    2.19
  -9   7   8    0.97    1.81
  -8  -7   8    0.95    1.17
   8  -7  -8    0.12    1.71
  -8   7   8   -0.45    2.47
  -8   7   8    2.96    1.82
  -7  -7   8    3.82    1.49
   7  -7  -8    2.86    2.16
  -7   7   8    2.29    1.64
  -7   7   8    2.58    1.41
  -6  -7   8    2.33    1.89
  -6  -7   8    3.59    1.29
   6  -7  -8    2.15    1.99
   6   7  -8    4.03    1.14
  -6   7   8    2.49    1.81
  -6   7   8    2.72    1.44
   6   7  -8    6.19    1.46
  -5  -7   8   10.79    2.34
  -5  -7   8    9.30    2.79
   5  -7  -8    7.87    2.75
   5   7  -8   11.18    1.90
  -5   7   8   15.67    3.44
   5   7  -8   11.96    1.85
  -5   7   8   15.66    2.67
   4  -7  -8    6.60    2.75
  -4  -7   8    8.30    1.98
  -4  -7   8    9.20    2.52
   4   7  -8    8.43    1.49
  -4   7   8    9.38    1.93
  -4   7   8    5.01    2.03
  -4   7   8   11.80    2.17
   4   7  -8    9.02    1.63
  -3  -7   8   13.27    2.74
  -3  -7   8   18.52    3.83
   3  -7  -8   14.46    3.85
   3   7  -8   24.69    2.47
  -3   7   8   18.83    2.96
  -3   7   8   22.27    3.98
  -3   7   8   26.65    2.83
   3   7  -8   24.43    2.56
   2  -7  -8   16.42    4.11
   2  -7  -8   18.59    3.40
  -2  -7   8   25.45    4.25
  -2  -7   8   21.22    3.36
   2   7  -8   23.90    2.57
   2   7  -8   23.29    2.45
  -2   7   8   31.41    3.17
  -2   7   8   19.50    3.75
  -1  -7   8    7.98    2.04
   1  -7  -8    7.18    2.55
   1  -7  -8    4.44    1.53
  -1  -7   8    5.31    1.49
  -1   7   8    2.68    1.48
   1   7  -8    5.49    1.21
  -1   7   8    4.27    1.31
   1   7  -8    6.52    1.42
   0  -7   8   15.49    2.91
   0  -7  -8   15.18    2.79
   0  -7   8   11.75    2.52
   0  -7  -8   15.48    3.47
   0   7   8   14.71    2.95
   0   7  -8   13.57    2.01
   0   7  -8   16.61    2.27
   0   7   8   14.77    2.37
  -1  -7  -8   15.40    3.40
   1  -7   8   13.80    2.64
  -1  -7  -8   13.91    2.76
   1  -7   8   11.78    2.43
   1   7   8   11.32    2.11
   1   7   8   13.76    2.98
  -1   7  -8   16.62    2.33
  -1   7  -8   17.64    2.50
   2  -7   8   25.93    3.32
   2  -7   8   20.13    3.50
  -2  -7  -8   14.81    3.58
  -2  -7  -8   21.46    3.63
  -2   7  -8   22.67    2.99
   2   7   8   25.01    3.15
  -2   7  -8   31.45    3.06
   2   7   8   22.69    3.99
   3  -7   8   12.04    2.55
  -3  -7  -8   11.90    2.56
  -3  -7  -8    9.90    2.65
  -3   7  -8   11.12    2.00
   3   7   8    8.53    2.41
  -3   7  -8   11.88    2.23
   3   7   8   11.82    2.12
   4  -7   8    2.63    1.47
  -4  -7  -8    2.10    1.61
  -4  -7  -8    3.46    1.54
   4   7   8    0.57    0.97
  -4   7  -8    1.57    0.95
  -4   7  -8    1.80    1.01
   4   7   8    3.75    1.82
   5  -7   8    6.65    2.17
  -5  -7  -8   11.68    2.62
  -5  -7  -8    6.14    2.08
  -5   7  -8   18.91    2.91
  -5   7  -8   10.26    2.16
   5   7   8    9.65    2.10
  -6  -7  -8    3.57    1.43
   6  -7   8    3.74    1.73
  -6   7  -8    2.78    1.27
  -6   7  -8    5.28    1.62
   6   7   8    4.67    1.39
   7  -7   8    0.01    1.21
  -7  -7  -8    0.40    1.21
  -7   7  -8    0.38    0.97
   7   7   8    0.29    1.03
  -8  -7  -8    3.47    1.74
   8   7   8    4.04    1.77
  -8   7  -8    3.35    1.56
  -9  -7  -8   -0.31    1.16
   9   7   8   -1.09    1.00
  -9   7  -8    2.27    1.55
   8  -8  -8    4.44    2.47
  -8  -8   8    2.44    1.44
   7  -8  -8    1.19    1.82
  -7  -8   8    0.84    1.02
  -7   8   8    1.33    1.23
   6  -8  -8   13.36    3.83
  -6  -8   8    6.03    1.81
   6   8  -8   11.96    1.95
   6   8  -8   10.88    1.91
  -6   8   8   11.45    2.60
  -5  -8   8    4.97    2.17
  -5  -8   8    1.55    1.18
   5  -8  -8    7.32    2.88
  -5   8   8    3.31    1.45
  -5   8   8    5.85    2.17
   5   8  -8    4.60    1.20
   5   8  -8    5.84    1.25
   4  -8  -8    3.32    2.40
  -4  -8   8    5.31    2.03
  -4  -8   8    0.73    0.86
   4   8  -8    4.04    1.08
  -4   8   8    1.20    1.41
  -4   8   8    3.94    1.28
  -4   8   8    4.59    1.37
   4   8  -8    3.05    0.89
  -3  -8   8    7.77    1.79
   3  -8  -8    8.44    2.99
  -3  -8   8   10.76    2.85
   3   8  -8   10.85    1.73
  -3   8   8   12.31    2.88
   3   8  -8    8.96    1.52
  -3   8   8   10.11    2.01
  -3   8   8   10.46    2.17
  -2  -8   8    3.28    1.60
   2  -8  -8   -0.28    1.46
   2  -8  -8    3.34    1.48
  -2  -8   8    3.58    1.14
   2   8  -8    2.41    0.72
  -2   8   8    2.49    1.35
   2   8  -8    2.50    0.86
  -2   8   8    0.33    0.78
   1  -8  -8    1.67    1.21
  -1  -8   8    2.18    0.99
  -1  -8   8    4.69    1.81
   1  -8  -8    1.23    1.63
   1   8  -8    2.51    0.95
   1   8  -8    1.07    0.69
  -1   8   8    2.25    1.43
  -1   8   8    3.21    1.08
   0  -8   8    6.94    1.74
   0  -8  -8    6.07    2.54
   0  -8  -8    6.37    1.81
   0  -8   8    7.45    2.07
   0   8   8    4.10    1.85
   0   8  -8    8.13    1.49
   0   8  -8    6.84    1.48
   0   8   8    6.26    1.57
  -1  -8  -8   -0.27    0.75
   1  -8   8    0.54    0.90
  -1  -8  -8   -0.36    1.28
   1  -8   8    0.08    0.75
   1   8   8   -0.12    0.72
  -1   8  -8    0.20    0.67
  -1   8  -8   -0.08    0.50
   2  -8   8   13.70    2.69
  -2  -8  -8   14.49    3.34
  -2  -8  -8   14.03    2.79
  -2   8  -8   15.74    2.52
   2   8   8   19.81    2.86
  -2   8  -8   17.30    2.46
  -3  -8  -8    3.57    1.92
   3  -8   8    2.14    1.33
  -3  -8  -8    2.54    1.47
   3   8   8    6.29    1.62
  -3   8  -8    4.13    1.28
  -3   8  -8    6.47    1.58
   4  -8   8    8.98    2.33
  -4  -8  -8   10.64    2.72
  -4  -8  -8    6.42    2.07
  -4   8  -8   14.30    2.49
   4   8   8   12.60    2.19
  -4   8  -8    8.18    1.92
   5  -8   8    4.40    1.77
  -5  -8  -8    4.08    1.53
  -5  -8  -8    2.02    1.72
  -5   8  -8    2.66    1.18
  -5   8  -8    3.21    1.23
   5   8   8    3.16    1.21
   6  -8   8   14.43    3.39
  -6  -8  -8   14.34    3.36
  -6   8  -8   16.94    3.25
   6   8   8   22.22    3.37
  -6   8  -8   21.66    3.41
  -7  -8  -8    1.17    1.30
  -7   8  -8    7.40    2.02
   7   8   8    5.33    1.65
  -8  -8  -8    3.64    1.90
  -8   8  -8    7.57    2.08
   8   8   8    2.04    1.50
  -8  -9   8    3.74    1.52
  -8   9   8    3.17    2.03
  -7  -9   8    1.07    1.04
   7  -9  -8    0.19    1.87
  -7   9   8    0.47    1.12
   6  -9  -8    3.05    2.49
  -6  -9   8    1.63    1.05
   6   9  -8    0.41    0.79
   6   9  -8    1.78    0.91
  -6   9   8    1.88    1.34
  -5  -9   8    4.69    1.40
   5  -9  -8    5.82    2.68
   5   9  -8    3.24    1.04
   5   9  -8    4.44    1.11
  -5   9   8    2.70    1.30
  -4  -9   8    7.64    1.87
  -4  -9   8   15.36    3.58
   4  -9  -8   12.49    3.67
   4   9  -8   11.63    1.76
  -4   9   8   14.79    2.64
  -4   9   8   16.59    2.80
   4   9  -8   11.91    1.85
  -3  -9   8    4.14    1.93
  -3  -9   8    4.35    1.32
   3  -9  -8    3.85    2.54
   3  -9  -8    3.19    1.53
   3   9  -8    6.51    1.24
  -3   9   8    7.05    1.69
  -3   9   8    6.96    1.71
   3   9  -8    5.90    1.18
  -2  -9   8   18.20    2.81
   2  -9  -8   16.40    3.12
   2  -9  -8   20.19    4.54
  -2  -9   8   18.80    3.77
   2   9  -8   20.08    2.67
   2   9  -8   20.13    2.37
  -2   9   8   19.01    3.01
   2   9  -8   20.55    2.17
  -1  -9   8    5.89    1.47
   1  -9  -8    3.93    1.57
  -1  -9   8    7.45    2.30
   1  -9  -8    6.60    2.65
   1   9  -8    6.60    1.42
   1   9  -8   10.60    1.58
  -1   9   8    5.91    1.56
   0  -9  -8   15.81    3.69
   0  -9   8   20.42    3.67
   0  -9   8   17.25    2.90
   0  -9  -8   17.19    3.03
   0   9  -8   19.28    2.49
   0   9   8   16.35    2.69
   0   9  -8   18.06    2.57
   1  -9   8    5.76    1.59
  -1  -9  -8    6.16    2.46
  -1  -9  -8    1.12    1.20
  -1   9  -8    5.97    1.34
  -1   9  -8    4.62    1.32
   1   9   8    3.34    1.22
   2  -9   8    3.98    1.40
  -2  -9  -8    5.77    2.37
  -2  -9  -8    3.87    1.54
  -2   9  -8    6.51    1.44
   2   9   8    4.95    1.41
  -2   9  -8    5.65    1.49
  -3  -9  -8   15.95    3.07
   3  -9   8   15.83    3.02
  -3  -9  -8   18.28    3.79
   3   9   8   19.53    2.86
  -3   9  -8   15.48    2.64
  -3   9  -8   19.32    2.86
  -4  -9  -8    1.83    1.45
   4  -9   8   -0.03    0.94
  -4  -9  -8    1.86    1.26
   4   9   8   -0.24    0.79
  -4   9  -8    1.47    1.01
  -4   9  -8    0.83    1.00
  -5  -9  -8    1.53    1.26
  -5   9  -8    5.68    1.74
   5   9   8    3.76    1.45
  -5   9  -8    3.84    1.38
  -6  -9  -8    0.52    1.04
  -6   9  -8    0.41    1.00
   6   9   8   -0.38    0.89
  -6   9  -8    1.41    1.19
  -7  -9  -8   -1.05    0.97
   7   9   8   -1.04    0.87
  -7   9  -8    2.76    1.61
   6 -10  -8    1.12    2.27
  -6  10   8    1.09    1.28
   6  10  -8    2.89    1.06
   6  10  -8    1.58    1.02
   5 -10  -8    1.57    2.28
  -5  10   8    3.51    1.55
   5  10  -8    1.10    0.74
   5  10  -8    2.33    0.89
   4 -10  -8    2.67    2.26
   4  10  -8    2.75    0.92
   4  10  -8    3.12    0.84
  -4  10   8    0.92    1.06
  -3 -10   8    0.87    1.62
   3 -10  -8    0.91    2.04
   3 -10  -8    0.02    0.97
   3  10  -8    1.65    0.73
   3  10  -8    0.81    0.59
  -3  10   8    1.28    0.88
  -3  10   8    0.80    0.93
  -2 -10   8    2.82    1.83
   2 -10  -8    0.77    1.66
   2 -10  -8    0.45    1.18
   2  10  -8    2.84    0.85
   2  10  -8    0.81    0.48
  -2  10   8    0.38    0.88
   2  10  -8    1.23    0.71
  -1 -10   8    1.81    0.84
   1 -10  -8    1.58    1.28
  -1 -10   8    3.83    1.86
   1 -10  -8    3.73    2.29
  -1  10   8    0.73    0.88
   1  10  -8    0.59    0.75
   1  10  -8    3.19    0.91
   0 -10   8    0.97    0.79
   0 -10  -8    0.45    1.06
   0 -10  -8    1.07    1.72
   0  10   8    1.33    0.99
   0  10  -8    0.01    0.60
   0  10  -8   -0.02    0.56
  -1 -10  -8    1.70    1.73
   1 -10   8    1.28    0.91
  -1 -10  -8    0.94    1.08
   1  10   8   -0.73    0.66
  -1  10  -8    1.96    0.89
  -1  10  -8    1.79    0.85
  -2 -10  -8    1.32    1.18
   2 -10   8    0.61    1.00
  -2 -10  -8    2.48    1.91
  -2  10  -8    3.21    1.10
  -2  10  -8    4.96    1.29
   2  10   8    4.16    1.37
  -3 -10  -8   12.23    2.64
  -3 -10  -8   13.61    3.44
  -3  10  -8   12.39    2.36
  -3  10  -8   16.49    2.75
   3  10   8   11.98    2.32
  -4 -10  -8    1.63    1.26
  -4 -10  -8   -0.34    1.36
  -4  10  -8    0.98    0.88
  -4  10  -8    0.77    1.05
   4  10   8    0.34    0.85
  -5 -10  -8    7.14    2.16
   5  10   8    8.09    2.02
  -5  10  -8   10.87    2.42
  -5  10  -8   13.16    2.49
  -6 -10  -8    2.83    1.52
  -6  10  -8    7.56    2.18
   6  10   8    3.80    1.58
  -6  10  -8    4.94    1.81
  -5  11   8    5.68    1.94
   5  11  -8    5.48    1.38
   5  11  -8    6.10    1.36
   4 -11  -8    1.67    1.27
   4 -11  -8   -0.44    2.04
   4  11  -8   -0.22    0.43
   4  11  -8    1.11    0.78
  -4  11   8    0.37    0.99
   3 -11  -8    6.42    2.17
   3 -11  -8    8.23    3.65
   3  11  -8    7.18    1.35
  -3  11   8    6.60    1.72
  -3  11   8   11.60    2.30
   3  11  -8    9.91    1.59
   2 -11  -8    2.54    2.31
   2 -11  -8    0.74    1.11
  -2 -11   8    2.92    2.00
  -2  11   8   -0.39    0.76
   2  11  -8    1.17    0.71
   2  11  -8    1.23    0.55
   2  11  -8    0.53    0.70
   1 -11  -8    4.73    1.64
   1 -11  -8    8.51    3.31
   1  11  -8    7.11    1.52
   1  11  -8    9.69    1.60
  -1  11   8    5.68    1.56
   0 -11  -8    8.37    3.10
   0 -11  -8    3.72    1.63
   0  11  -8    3.58    1.21
   0  11   8    6.97    1.71
   0  11  -8    8.52    1.51
  -1 -11  -8    3.92    1.60
  -1 -11  -8    7.66    2.90
  -1  11  -8    7.15    1.67
   1  11   8    5.05    1.56
  -1  11  -8    7.86    1.60
  -2 -11  -8    9.04    2.30
  -2 -11  -8   11.51    3.35
  -2  11  -8   10.87    2.05
   2  11   8    7.95    1.90
  -2  11  -8    9.82    2.02
  -3 -11  -8    2.62    1.92
  -3 -11  -8   -0.02    0.99
  -3  11  -8    1.01    0.97
  -3  11  -8    2.20    1.19
   3  11   8    0.19    0.80
  -4 -11  -8    1.38    1.23
   4  11   8    2.69    1.32
  -4  11  -8    1.46    1.12
  -4  11  -8    4.79    1.61
   2 -12  -8    2.09    1.44
   2 -12  -8    0.39    2.18
   2  12  -8    0.94    0.55
  -2  12   8    1.02    1.11
   2  12  -8    0.92    0.74
   2  12  -8    0.35    0.74
   1 -12  -8    2.89    2.39
   1 -12  -8    3.23    1.57
  -1  12   8    2.37    1.22
   1  12  -8    4.49    1.13
   1  12  -8    3.43    1.15
   0 -12  -8   -0.13    0.97
   0 -12  -8    2.03    2.22
   0  12  -8    0.31    0.72
   0  12   8   -0.72    0.93
   0  12  -8   -0.20    0.70
  -1 -12  -8    5.26    2.79
  -1 -12  -8    7.05    1.97
  -1  12  -8    8.63    1.66
  -1  12  -8    5.44    1.57
   1  12   8    3.19    1.40
 -11   0   9    2.85    2.20
 -10   0   9    0.72    1.45
  10   0  -9   -0.97    2.02
  -9   0   9    7.21    2.56
   9   0  -9    2.56    2.24
  -8   0   9    3.80    2.29
  -8   0   9    2.39    1.53
  -7   0   9    8.72    2.94
  -7   0   9    4.94    1.87
  -6   0   9    4.11    1.97
  -6   0   9    4.89    2.24
  -5   0   9    7.95    2.63
  -5   0   9    3.30    1.61
  -4   0   9    9.14    2.45
  -4   0   9    7.14    1.55
  -4   0   9    6.49    2.79
  -3   0   9    0.11    0.60
  -3   0   9    0.78    1.12
   3   0  -9    1.16    0.74
  -2   0   9   10.14    1.86
   2   0  -9    7.11    1.66
   2   0  -9    7.17    1.93
  -2   0   9    5.94    1.81
   2   0  -9    5.07    1.37
   2   0  -9    9.62    1.83
  -1   0   9    4.39    1.14
   1   0  -9    5.73    1.40
   1   0  -9    2.07    1.17
   1   0  -9    3.74    1.06
  -1   0   9    3.11    1.36
   1   0  -9    3.23    1.02
   0   0  -9    1.58    0.72
   0   0  -9    1.53    0.87
   0   0   9    1.74    1.18
   0   0  -9    3.66    1.23
   0   0   9    0.36    0.66
   1   0   9   29.72    3.24
  -1   0  -9   24.28    3.55
   1   0   9   27.84    4.41
  -1   0  -9   25.98    4.08
  -1   0  -9   28.92    3.09
  -2   0  -9    1.94    1.37
   2   0   9    6.82    2.08
   2   0   9    4.82    1.24
  -2   0  -9    5.07    1.46
  -2   0  -9    4.95    1.27
   3   0   9   43.27    4.53
   3   0   9   41.52    5.48
  -3   0  -9   48.58    4.77
  -3   0  -9   44.62    5.26
  -4   0  -9    0.43    0.98
   4   0   9    1.97    0.98
  -4   0  -9    0.74    0.83
   4   0   9    1.32    1.01
   5   0   9    8.31    2.41
   5   0   9    9.13    1.86
  -5   0  -9    8.37    2.41
  -5   0  -9   15.08    2.55
  -6   0  -9    9.51    2.55
   6   0   9   15.20    3.50
  -7   0  -9   11.08    2.74
   7   0   9   12.50    3.20
   8   0   9   10.45    2.94
  -8   0  -9    8.27    2.58
  -9   0  -9   14.25    3.64
   9   0   9   10.22    3.30
 -10   0  -9    9.38    3.00
  10   0   9    9.13    3.42
 -11  -1   9    3.49    2.13
 -11   1   9    1.02    1.62
 -10  -1   9    2.82    1.89
  10  -1  -9    0.00    2.01
 -10   1   9    3.10    1.96
  10   1  -9    2.54    2.37
  -9  -1   9    1.15    1.69
   9  -1  -9   -1.13    1.82
  -9   1   9    0.83    1.44
  -8  -1   9    3.67    1.88
  -8  -1   9    0.75    1.66
   8  -1  -9   -1.54    1.74
  -8   1   9    1.49    1.51
  -8   1   9    3.04    2.18
  -7  -1   9    0.56    1.76
  -7  -1   9    0.48    1.16
  -7   1   9    0.03    1.31
  -7   1   9    2.14    1.53
  -6  -1   9    9.55    2.51
  -6  -1   9    3.18    1.98
  -6   1   9    2.77    1.69
  -6   1   9    3.34    2.02
  -5  -1   9    0.39    1.40
  -5  -1   9    3.15    1.53
  -5   1   9    2.08    0.95
  -5   1   9    1.23    1.95
  -5   1   9    1.31    1.24
  -4  -1   9   23.62    3.88
  -4  -1   9   24.08    4.45
  -4   1   9   25.96    3.96
  -4   1   9   15.55    4.70
  -4   1   9   22.68    3.20
  -3  -1   9   40.01    4.00
  -3  -1   9   33.15    5.13
  -3  -1   9   39.63    6.47
  -3   1   9   39.21    4.10
  -3   1   9   34.98    5.22
   3   1  -9   41.75    4.28
   3   1  -9   41.92    4.19
  -2  -1   9   32.06    3.33
  -2  -1   9   26.48    5.64
   2  -1  -9   31.81    3.53
  -2  -1   9   29.92    4.56
   2  -1  -9   23.95    4.04
   2   1  -9   27.55    4.21
  -2   1   9   41.27    3.58
  -2   1   9   24.02    4.22
   2   1  -9   34.11    3.55
  -2   1   9   34.62    3.59
   2   1  -9   32.65    3.48
   2   1  -9   33.46    3.49
   1  -1  -9   35.14    4.03
   1  -1  -9   31.80    3.44
  -1  -1   9   30.84    4.56
   1  -1  -9   25.39    3.30
  -1  -1   9   29.36    3.25
   1   1  -9   33.76    3.41
  -1   1   9   29.52    4.48
   1   1  -9   26.14    4.04
   1   1  -9   29.44    3.36
   1   1  -9   34.35    3.39
  -1   1   9   28.57    3.36
  -1   1   9   31.11    3.19
   0  -1   9    7.27    1.44
   0  -1   9    4.46    1.64
   0  -1  -9    8.03    1.93
   0  -1  -9    6.35    1.50
   0  -1  -9    6.36    1.45
   0   1  -9    7.11    1.56
   0   1   9    8.46    1.62
   0   1  -9    6.28    1.36
   0   1  -9    5.42    1.49
   0   1   9    6.14    1.76
   0   1  -9    5.01    1.53
   1  -1   9   28.54    2.91
  -1  -1  -9   26.48    3.40
  -1  -1  -9   25.15    3.86
   1  -1   9   20.78    3.65
  -1  -1  -9   29.47    3.03
   1   1   9   29.94    3.18
  -1   1  -9   23.31    3.75
  -1   1  -9   24.21    3.17
  -1   1  -9   26.85    3.00
   1   1   9   18.37    3.57
  -1   1  -9   23.02    3.08
  -2  -1  -9   42.75    4.57
   2  -1   9   48.63    4.44
  -2  -1  -9   39.20    4.99
  -2  -1  -9   47.72    4.57
   2  -1   9   38.82    5.14
  -2   1  -9   47.66    4.54
  -2   1  -9   39.16    4.94
   2   1   9   32.52    5.48
  -2   1  -9   42.80    4.41
   2   1   9   44.54    4.46
  -2   1  -9   46.23    4.62
  -3  -1  -9   18.07    3.35
   3  -1   9   22.19    4.05
  -3  -1  -9   19.62    3.01
   3  -1   9   21.13    2.80
  -3   1  -9   27.27    3.46
  -3   1  -9   22.96    3.60
   3   1   9   17.21    3.40
   3   1   9   25.27    3.41
  -4  -1  -9   21.77    3.99
   4  -1   9   31.60    3.37
  -4  -1  -9   21.69    3.42
   4  -1   9   17.38    3.89
   4   1   9   33.71    3.38
   4   1   9   26.11    4.46
  -4   1  -9   30.88    4.36
  -4   1  -9   27.11    3.53
  -5  -1  -9    6.56    1.72
  -5  -1  -9    3.90    1.65
   5  -1   9    4.43    1.78
   5   1   9    2.43    1.13
  -5   1  -9    3.67    1.54
   5   1   9    8.51    2.67
  -5   1  -9    5.92    1.70
   6  -1   9   21.25    3.92
  -6  -1  -9   14.74    3.21
  -6   1  -9   14.22    2.78
   6   1   9    8.64    2.54
  -6   1  -9   10.46    2.70
   6   1   9   12.40    2.51
   7  -1   9    0.10    1.14
  -7  -1  -9    0.16    1.10
   7   1   9    0.18    1.34
  -7   1  -9    1.17    1.33
  -8  -1  -9    1.70    1.49
   8  -1   9    2.13    1.92
  -8   1  -9    3.09    1.61
   8   1   9   -0.24    1.31
  -9  -1  -9   -0.15    1.40
   9  -1   9    3.35    1.93
   9   1   9    0.93    1.70
  -9   1  -9    1.93    1.73
 -10  -1  -9    1.58    1.73
  10  -1   9    2.77    2.17
 -10   1  -9    1.75    1.91
  10   1   9    2.94    2.38
 -11  -2   9    1.53    1.74
 -11   2   9    1.69    1.82
  10  -2  -9    0.72    2.23
 -10  -2   9    3.35    2.11
 -10   2   9    4.35    2.13
   9  -2  -9   -0.55    1.80
  -9  -2   9    0.55    1.47
  -9   2   9    0.60    1.40
  -8  -2   9    3.31    1.63
   8  -2  -9    2.54    2.36
  -8   2   9    8.99    2.58
  -8   2   9    4.63    2.41
  -7  -2   9    0.96    1.66
  -7  -2   9    1.09    1.49
   7  -2  -9   -0.63    1.72
  -7   2   9    4.50    2.20
  -7   2   9   -0.41    1.19
  -6  -2   9    3.08    1.91
  -6  -2   9    4.19    1.85
  -6   2   9    1.89    1.51
  -6   2   9    4.41    2.32
  -5  -2   9   33.93    5.25
  -5  -2   9   25.12    3.94
  -5   2   9   21.39    3.97
  -5   2   9   27.64    3.67
  -5   2   9   13.75    4.60
  -4  -2   9   11.03    2.98
  -4  -2   9    5.78    1.96
   4   2  -9   11.77    2.12
  -4   2   9    8.47    1.79
  -4   2   9    6.20    1.94
   3  -2  -9   22.08    3.26
  -3  -2   9   24.06    4.37
  -3  -2   9   18.25    3.48
  -3  -2   9   28.61    2.92
  -3   2   9   21.50    3.77
   3   2  -9   29.56    2.99
   3   2  -9   26.22    2.97
  -3   2   9   20.48    3.08
  -2  -2   9    5.97    1.92
  -2  -2   9    9.07    1.54
   2  -2  -9    7.40    1.70
  -2  -2   9    5.97    2.29
   2   2  -9    6.32    1.80
   2   2  -9    8.93    1.73
   2   2  -9    7.18    1.54
  -2   2   9    5.55    1.96
  -2   2   9    5.55    1.47
  -2   2   9    7.40    1.50
  -1  -2   9    5.11    2.45
   1  -2  -9   10.13    2.00
  -1  -2   9   12.61    1.84
  -1  -2   9   11.03    2.26
   1  -2  -9    7.41    2.04
   1   2  -9   10.59    1.69
  -1   2   9   11.87    1.86
   1   2  -9   10.03    2.25
  -1   2   9    9.80    1.92
   1   2  -9   13.66    2.12
   1   2  -9   10.40    1.97
  -1   2   9   11.17    2.40
   0  -2   9   18.71    3.30
   0  -2   9   21.85    2.85
   0  -2  -9   20.45    3.35
   0  -2  -9   22.40    3.07
   0   2  -9   17.29    2.66
   0   2   9   21.35    3.65
   0   2  -9   18.93    2.80
   0   2  -9   23.52    3.10
   0   2   9   25.11    2.71
   0   2  -9   19.67    3.28
   1  -2   9    2.01    1.35
  -1  -2  -9    5.38    1.71
  -1  -2  -9    4.27    1.29
   1   2   9    4.79    1.69
  -1   2  -9    5.04    1.54
  -1   2  -9    4.35    1.27
  -1   2  -9    3.80    1.20
  -1   2  -9    3.16    1.08
   1   2   9    4.57    1.37
  -2  -2  -9    5.34    1.42
   2  -2   9    5.31    1.82
   2  -2   9    6.05    1.27
  -2  -2  -9    6.14    1.92
  -2   2  -9    3.48    1.27
   2   2   9    6.61    2.11
  -2   2  -9    4.66    1.32
   2   2   9    5.91    1.60
  -2   2  -9    5.84    1.46
  -2   2  -9    5.36    1.64
  -3  -2  -9    4.52    1.70
  -3  -2  -9    5.11    1.58
   3  -2   9   12.76    2.21
   3  -2   9    7.82    2.35
   3   2   9    7.56    2.24
   3   2   9   10.53    1.95
  -3   2  -9    6.68    1.56
  -3   2  -9   12.97    2.49
  -3   2  -9    7.31    2.04
  -3   2  -9   10.88    1.97
   4  -2   9   38.19    5.88
  -4  -2  -9   34.20    4.10
  -4  -2  -9   31.34    4.97
   4   2   9   36.75    5.64
  -4   2  -9   44.87    4.28
  -4   2  -9   29.53    4.88
   5  -2   9   13.40    3.19
  -5  -2  -9   17.54    3.40
  -5   2  -9   19.54    2.91
   5   2   9   13.41    3.27
   5   2   9   18.20    2.62
  -5   2  -9   11.50    2.72
  -6  -2  -9   23.54    4.17
   6  -2   9   21.09    4.11
  -6   2  -9   22.84    3.39
  -6   2  -9   16.51    3.51
   6   2   9   18.71    4.11
   6   2   9   26.32    3.82
   7  -2   9   25.61    4.60
  -7  -2  -9   20.08    3.94
  -7   2  -9   21.07    3.94
   7   2   9   15.87    3.91
  -8  -2  -9   12.83    3.14
   8  -2   9   11.32    3.34
   8   2   9   16.35    3.93
  -8   2  -9    8.85    2.91
   9  -2   9    8.52    2.99
  -9  -2  -9   15.47    3.61
   9   2   9    8.41    3.32
  -9   2  -9    5.84    2.27
 -10  -2  -9    4.37    2.18
  10  -2   9    7.24    2.94
 -10   2  -9    0.85    1.70
  10   2   9    7.57    3.17
  10  -3  -9    1.70    2.00
 -10  -3   9    0.54    1.49
 -10   3   9    1.49    1.69
   9  -3  -9   -0.27    1.76
  -9  -3   9    1.42    1.42
  -9   3   9    0.26    1.41
   8  -3  -9    2.21    2.21
  -8  -3   9    4.69    2.01
  -8   3   9    3.29    1.74
  -8   3   9    0.81    1.65
  -7  -3   9   -1.02    1.22
  -7  -3   9    0.47    1.52
   7  -3  -9   -2.09    1.54
  -7   3   9    0.12    1.09
  -7   3   9    0.27    1.53
   6  -3  -9    3.43    2.30
  -6  -3   9    0.37    1.01
  -6  -3   9    3.13    1.89
  -6   3   9    0.37    1.38
  -6   3   9    1.99    2.32
  -5  -3   9   10.01    3.01
  -5  -3   9    6.10    2.01
   5  -3  -9    7.30    2.59
  -5   3   9    3.36    1.73
  -5   3   9    8.91    2.02
  -4  -3   9   10.25    2.86
  -4  -3   9   12.94    2.79
   4   3  -9   11.87    2.05
  -4   3   9    9.08    2.41
  -4   3   9    7.74    1.75
  -3  -3   9    1.66    1.44
  -3  -3   9    0.40    0.92
   3  -3  -9    0.26    0.81
   3   3  -9    0.54    0.69
  -3   3   9    0.27    1.05
  -3   3   9    1.82    0.99
  -2  -3   9   23.28    3.79
   2  -3  -9   29.05    3.25
  -2  -3   9   31.68    4.72
  -2   3   9   30.48    3.10
  -2   3   9   20.02    3.83
  -2   3   9   30.53    3.37
   2   3  -9   22.30    3.26
   2   3  -9   28.10    3.06
   2   3  -9   27.17    4.05
   1  -3  -9   48.95    4.73
   1  -3  -9   38.21    5.14
  -1  -3   9   49.21    5.97
  -1  -3   9   51.24    4.46
  -1  -3   9   41.17    5.23
   1   3  -9   45.40    4.63
   1   3  -9   48.69    5.20
  -1   3   9   49.35    4.81
   1   3  -9   47.49    4.62
   1   3  -9   48.84    4.71
  -1   3   9   39.26    5.28
   0  -3  -9   58.16    7.21
   0  -3   9   71.88    6.41
   0  -3  -9   89.39    6.85
   0  -3   9   57.08    7.29
   0   3   9   79.22    7.77
   0   3  -9   68.78    7.31
   0   3  -9   83.24    6.83
   0   3  -9   75.67    6.66
   0   3  -9   56.75    6.50
   0   3   9   80.40    6.85
   1  -3   9   23.81    2.82
  -1  -3  -9   19.59    3.38
   1  -3   9   12.63    3.04
  -1  -3  -9   18.92    2.77
   1   3   9   19.54    2.85
  -1   3  -9   17.46    2.58
  -1   3  -9   14.89    2.87
  -1   3  -9   23.20    2.52
   1   3   9   12.74    2.92
  -1   3  -9   23.23    3.18
  -2  -3  -9   48.20    4.71
  -2  -3  -9   52.14    5.51
   2  -3   9   40.04    6.02
  -2   3  -9   47.53    4.80
  -2   3  -9   45.96    5.30
  -2   3  -9   38.36    4.52
   2   3   9   41.19    5.47
   2   3   9   57.66    5.00
  -3  -3  -9   40.01    5.26
   3  -3   9   49.34    5.62
   3   3   9   45.38    4.67
  -3   3  -9   40.98    4.64
   3   3   9   48.14    5.70
  -3   3  -9   45.54    4.64
  -3   3  -9   44.60    5.28
  -4  -3  -9    1.66    1.21
   4  -3   9    0.85    1.11
  -4   3  -9    1.89    1.27
   4   3   9    1.18    1.41
  -4   3  -9    1.38    1.00
   4   3   9    2.60    1.13
  -4   3  -9    1.31    0.92
  -5  -3  -9    7.08    2.21
   5  -3   9    4.47    1.73
   5   3   9   11.25    2.25
  -5   3  -9    3.87    1.66
   5   3   9    3.41    1.80
  -5   3  -9    7.18    1.90
   6  -3   9   -0.01    1.21
  -6  -3  -9    0.62    1.16
   6   3   9    2.07    1.09
  -6   3  -9    1.43    1.26
   6   3   9    2.21    1.71
  -6   3  -9    3.62    1.44
   7  -3   9    9.51    3.06
  -7  -3  -9    8.29    2.56
   7   3   9    9.33    3.13
  -7   3  -9    8.66    2.47
  -7   3  -9    5.63    2.31
   7   3   9    8.54    2.25
   8  -3   9    3.40    2.09
  -8  -3  -9    1.81    1.66
  -8   3  -9    0.96    1.46
   8   3   9    0.88    1.42
   9  -3   9    2.30    2.15
  -9  -3  -9    4.01    2.20
  -9   3  -9    1.20    1.58
   9   3   9    3.51    2.25
  10  -3   9    6.05    2.90
 -10  -3  -9    6.65    2.47
 -10   3  -9    5.55    2.38
  10   3   9    3.01    2.12
 -10  -4   9    4.16    1.99
  10  -4  -9    3.28    2.28
 -10   4   9    4.49    2.32
  -9  -4   9    3.06    1.84
   9  -4  -9    3.01    2.32
  -9   4   9    0.83    1.60
  -8  -4   9    4.13    1.95
   8  -4  -9    2.58    2.20
  -8   4   9    2.38    2.07
  -8   4   9    1.50    1.51
  -7  -4   9    6.08    2.10
   7  -4  -9    7.55    2.77
  -7   4   9   13.46    4.00
  -7   4   9    8.49    2.69
  -6  -4   9    7.09    2.23
  -6  -4   9   10.79    3.19
   6  -4  -9    5.38    2.38
  -6   4   9    9.83    2.04
  -6   4   9    6.61    3.64
  -6   4   9    8.37    2.64
  -5  -4   9   14.52    3.48
  -5  -4   9   11.19    2.70
   5  -4  -9   10.97    3.28
  -5   4   9    9.28    2.64
   5   4  -9   19.86    2.93
  -5   4   9   13.85    2.36
  -4  -4   9   32.77    5.45
   4  -4  -9   22.75    4.98
  -4  -4   9   43.13    4.76
  -4   4   9   34.77    3.98
   4   4  -9   40.94    3.94
  -4   4   9   35.02    5.40
   3  -4  -9    4.49    2.39
  -3  -4   9    5.48    2.02
  -3  -4   9    2.49    1.45
   3   4  -9    4.05    1.50
  -3   4   9    5.89    1.56
  -3   4   9    3.97    1.86
   3   4  -9    3.92    1.20
  -2  -4   9    7.67    2.41
   2  -4  -9    5.89    1.81
  -2  -4   9    8.04    2.03
  -2   4   9   12.80    1.91
  -2   4   9    7.80    1.75
   2   4  -9    7.31    1.84
  -2   4   9    7.14    2.15
   2   4  -9    7.74    1.52
  -1  -4   9    7.50    2.03
   1  -4  -9    7.46    1.66
  -1  -4   9    8.32    2.19
   1  -4  -9    7.03    1.93
   1   4  -9    7.12    1.62
   1   4  -9    8.59    1.93
   1   4  -9    6.41    1.53
  -1   4   9    9.15    2.31
  -1   4   9    9.74    1.89
   0  -4  -9   17.51    3.16
   0  -4   9   18.98    3.41
   0  -4  -9   24.80    3.04
   0  -4   9   20.29    3.56
   0   4   9   23.27    3.17
   0   4   9   22.45    3.78
   0   4  -9   16.58    3.16
   0   4  -9   23.07    2.91
   0   4  -9   14.74    2.56
   1  -4   9    3.58    1.70
  -1  -4  -9    2.39    1.26
   1  -4   9    1.31    1.17
  -1   4  -9    3.83    1.05
   1   4   9    2.37    1.35
  -1   4  -9    3.16    1.16
  -1   4  -9    2.72    1.36
   1   4   9    3.84    1.20
   2  -4   9    2.32    1.42
   2  -4   9    2.66    1.37
  -2  -4  -9    2.83    1.49
  -2   4  -9    5.25    1.71
   2   4   9    5.29    2.11
  -2   4  -9    6.28    1.53
  -2   4  -9    5.39    1.25
   2   4   9    6.19    1.50
  -3  -4  -9    6.72    2.14
   3  -4   9    6.91    1.98
   3  -4   9    5.02    1.92
  -3   4  -9    7.88    1.83
   3   4   9   14.62    2.32
   3   4   9    7.14    2.27
  -3   4  -9   14.66    2.41
  -3   4  -9   10.10    2.44
  -4  -4  -9   15.44    3.25
   4  -4   9   14.23    3.24
   4  -4   9   13.92    2.86
  -4   4  -9   11.23    2.61
  -4   4  -9   21.45    3.12
  -4   4  -9   15.13    2.62
   4   4   9   10.67    2.22
   4   4   9    9.95    2.96
   5  -4   9   14.23    3.44
  -5  -4  -9   15.19    3.22
  -5   4  -9   14.82    3.09
   5   4   9   18.82    3.97
   5   4   9   21.62    3.10
  -5   4  -9   21.22    3.05
   6  -4   9   10.23    2.81
  -6  -4  -9   13.16    3.06
   6   4   9   11.51    2.44
   6   4   9    9.34    2.96
  -6   4  -9   19.16    3.10
  -6   4  -9    9.69    2.95
   7  -4   9   15.47    3.90
  -7  -4  -9   14.19    3.33
  -7   4  -9   32.89    4.74
  -7   4  -9   21.63    4.22
   7   4   9   20.88    4.46
   7   4   9   22.05    3.40
   8  -4   9    5.74    2.41
  -8  -4  -9   10.50    3.10
   8   4   9   14.71    2.71
   8   4   9   12.20    3.20
  -8   4  -9   13.85    3.39
  -9  -4  -9   17.81    4.16
   9  -4   9   14.65    3.95
  -9   4  -9   13.14    3.44
   9   4   9   15.12    4.25
  10  -5  -9    2.09    2.35
 -10  -5   9   -0.93    1.52
 -10   5   9    3.27    2.38
  -9  -5   9   -0.76    1.32
   9  -5  -9    0.71    1.85
  -9   5   9   -0.92    1.55
  -8  -5   9    0.52    1.34
   8  -5  -9    2.24    2.15
  -8   5   9    0.27    1.83
  -8   5   9    1.19    1.63
   7  -5  -9    5.25    2.45
  -7  -5   9    1.27    1.41
  -7   5   9    2.59    1.85
  -7   5   9   -0.04    2.49
   6  -5  -9    3.46    2.11
  -6  -5   9    2.61    1.56
  -6  -5   9    2.15    1.72
  -6   5   9    2.81    1.97
  -6   5   9    5.87    1.65
  -5  -5   9    4.16    1.63
  -5  -5   9    6.52    2.26
   5  -5  -9   -0.59    1.58
  -5   5   9    6.16    1.63
  -5   5   9    4.66    1.87
   5   5  -9    5.18    1.45
  -4  -5   9   12.38    2.65
  -4  -5   9   19.58    3.93
   4  -5  -9    8.12    3.14
   4   5  -9   14.86    2.26
   4   5  -9   15.14    2.28
  -4   5   9   12.86    2.96
  -4   5   9   14.90    2.40
   3  -5  -9    8.49    3.28
  -3  -5   9   11.12    2.51
  -3  -5   9   15.83    3.21
   3   5  -9   14.31    2.14
   3   5  -9   16.67    2.85
  -3   5   9   16.13    2.44
  -3   5   9   11.92    2.90
  -2  -5   9   13.13    2.99
  -2  -5   9   21.03    3.62
   2  -5  -9   15.16    3.07
   2  -5  -9   15.04    3.87
   2   5  -9   26.25    2.74
  -2   5   9   28.79    3.46
  -2   5   9   20.51    3.72
   2   5  -9   21.75    3.22
  -2   5   9   24.30    3.33
   1  -5  -9    5.18    2.73
  -1  -5   9   10.10    2.27
  -1  -5   9   15.77    2.95
   1  -5  -9    8.58    2.15
  -1   5   9    7.96    1.77
  -1   5   9    9.82    2.41
   1   5  -9   10.17    1.82
   1   5  -9    6.50    1.75
   1   5  -9    9.16    1.72
   0  -5   9    6.25    1.94
   0  -5  -9    3.37    2.38
   0  -5  -9    4.73    1.56
   0  -5   9    4.18    1.57
   0   5  -9    2.99    1.40
   0   5  -9    4.48    1.28
   0   5   9    2.01    1.47
   0   5  -9    8.15    1.55
   0   5   9    4.67    1.41
  -1  -5  -9   53.13    6.41
   1  -5   9   59.06    6.68
   1  -5   9   57.45    6.80
  -1   5  -9   65.99    5.80
   1   5   9   62.62    5.86
  -1   5  -9   60.45    5.78
   1   5   9   52.66    6.59
  -1   5  -9   62.20    6.45
  -2  -5  -9    5.27    1.88
   2  -5   9    5.44    1.71
  -2  -5  -9   13.63    3.44
   2  -5   9    4.74    1.75
  -2   5  -9    3.22    1.20
   2   5   9    3.40    1.31
   2   5   9    5.31    1.97
  -2   5  -9    2.75    1.35
  -2   5  -9    4.16    1.29
   3  -5   9    2.56    1.34
   3  -5   9    5.21    1.72
  -3  -5  -9    3.45    1.63
  -3  -5  -9    3.54    2.24
   3   5   9    4.66    1.92
   3   5   9    4.09    1.34
  -3   5  -9    4.90    1.43
  -3   5  -9    3.64    1.25
  -3   5  -9    4.44    1.64
  -4  -5  -9   10.94    3.58
   4  -5   9   24.80    4.24
  -4  -5  -9   22.70    3.87
   4  -5   9   23.86    3.57
   4   5   9   23.24    3.30
  -4   5  -9   22.17    3.17
  -4   5  -9   29.97    4.23
   4   5   9   26.87    4.83
  -4   5  -9   29.99    3.83
   5  -5   9    0.27    0.97
  -5  -5  -9    1.19    1.96
  -5  -5  -9    2.63    1.47
  -5   5  -9    0.54    0.88
   5   5   9    3.04    1.65
  -5   5  -9    2.08    1.43
   5   5   9    1.22    0.94
   6  -5   9   15.43    3.40
  -6  -5  -9    6.22    2.49
  -6  -5  -9   10.78    2.73
  -6   5  -9   19.04    3.66
  -6   5  -9   17.39    3.05
   6   5   9   14.29    2.49
   6   5   9   17.46    3.67
  -7  -5  -9    1.92    1.53
   7  -5   9    0.78    1.36
  -7   5  -9    1.42    1.42
   7   5   9    2.06    1.36
   7   5   9    2.11    1.75
  -7   5  -9    1.46    1.73
   8  -5   9    5.19    2.51
  -8  -5  -9    4.32    2.12
   8   5   9    5.05    1.65
   8   5   9    3.26    2.26
  -8   5  -9    2.07    1.50
  -8   5  -9    2.27    1.82
   9  -5   9    2.44    1.98
  -9  -5  -9    2.89    1.99
  -9   5  -9    2.69    2.04
   9  -6  -9    6.06    2.86
  -9  -6   9    4.88    1.91
  -9   6   9    3.90    2.36
   8  -6  -9    5.93    2.82
  -8  -6   9    1.04    1.38
  -8   6   9    1.75    1.56
  -7  -6   9    6.29    2.08
   7  -6  -9    6.94    2.95
  -7   6   9    6.31    2.72
  -7   6   9    9.07    3.99
   6  -6  -9    7.35    3.17
  -6  -6   9    4.61    1.81
  -6   6   9    7.30    2.63
  -6   6   9    8.38    2.00
   6   6  -9    7.46    1.75
  -5  -6   9    7.01    2.52
  -5  -6   9    3.06    1.39
   5  -6  -9    0.97    1.85
  -5   6   9    4.46    1.47
  -5   6   9    4.46    1.95
   5   6  -9    3.00    1.14
  -4  -6   9    2.56    1.12
   4  -6  -9    1.25    1.98
  -4  -6   9    1.83    1.51
  -4   6   9    2.20    1.41
  -4   6   9   -0.25    0.79
   4   6  -9    2.17    0.93
   4   6  -9    2.93    0.95
  -3  -6   9   -0.07    0.88
  -3  -6   9    0.30    0.99
   3  -6  -9   -0.18    1.73
   3   6  -9    0.21    0.49
  -3   6   9   -0.66    0.99
   3   6  -9    0.22    0.65
  -3   6   9   -0.30    0.78
  -2  -6   9    2.64    1.28
   2  -6  -9    3.58    2.48
  -2  -6   9    4.97    1.96
   2  -6  -9    5.35    1.78
   2   6  -9    4.04    1.11
  -2   6   9    4.24    1.35
  -2   6   9    4.62    1.72
   1  -6  -9    2.25    1.94
  -1  -6   9    1.21    1.06
  -1  -6   9    2.59    1.32
   1  -6  -9    1.63    1.21
  -1   6   9    1.77    1.40
   1   6  -9    1.23    0.72
  -1   6   9    2.54    1.09
   1   6  -9    1.73    0.85
   0  -6   9   17.74    3.17
   0  -6   9   15.89    2.90
   0  -6  -9   11.90    2.63
   0  -6  -9    7.53    2.93
   0   6  -9   14.79    2.27
   0   6  -9   14.78    2.86
   0   6  -9   14.86    2.19
   0   6   9   16.25    2.58
   0   6   9   15.42    2.99
   1  -6   9    8.44    2.18
   1  -6   9   11.09    2.37
  -1  -6  -9    3.23    2.00
  -1  -6  -9    8.52    2.05
  -1   6  -9    4.88    1.34
  -1   6  -9    9.72    1.80
   1   6   9    7.00    2.15
  -1   6  -9   10.49    2.28
   1   6   9   12.45    2.14
  -2  -6  -9    2.88    2.11
   2  -6   9    3.88    1.56
  -2  -6  -9    5.26    1.86
   2  -6   9    3.33    1.31
  -2   6  -9    3.50    1.42
   2   6   9    5.45    2.03
  -2   6  -9    6.24    1.41
   2   6   9    1.76    0.97
  -2   6  -9    3.24    1.13
   3  -6   9    8.64    2.35
  -3  -6  -9    5.07    2.23
  -3  -6  -9    5.26    1.84
   3  -6   9    7.82    1.88
  -3   6  -9    6.51    1.94
   3   6   9    5.85    2.19
   3   6   9    6.69    1.65
  -3   6  -9    9.74    1.87
  -3   6  -9    7.99    1.62
  -4  -6  -9   -0.01    1.45
   4  -6   9    0.61    1.27
  -4  -6  -9    0.70    1.20
  -4   6  -9    1.31    0.86
   4   6   9    0.71    1.42
  -4   6  -9    0.41    0.77
  -4   6  -9   -1.01    0.97
   4   6   9    0.74    0.81
   5  -6   9   10.18    2.85
  -5  -6  -9    3.62    1.91
  -5  -6  -9    9.10    2.51
   5   6   9   10.02    2.82
   5   6   9   12.83    2.36
  -5   6  -9   13.24    2.43
  -5   6  -9   10.08    2.02
   6  -6   9    9.35    2.88
  -6  -6  -9    6.76    2.31
   6   6   9   11.95    2.27
  -6   6  -9    6.79    2.03
   6   6   9    8.74    2.76
  -7  -6  -9    6.36    2.34
   7  -6   9    6.14    2.45
  -7   6  -9   12.11    2.74
   7   6   9   12.13    2.43
  -8  -6  -9    8.64    2.89
   8  -6   9   10.95    3.52
   8   6   9   14.30    2.78
  -8   6  -9   15.74    3.32
  -9  -6  -9    2.19    2.05
   9   6   9    2.10    1.65
   8  -7  -9    2.53    2.20
  -8  -7   9    0.70    1.29
  -8   7   9    1.16    1.74
   7  -7  -9    0.59    2.13
  -7  -7   9    1.65    1.26
  -7   7   9    3.46    2.37
  -6  -7   9    1.80    1.31
   6  -7  -9    3.54    2.04
  -6   7   9    4.58    2.14
   6   7  -9    4.15    1.32
  -6   7   9    2.47    1.27
  -5  -7   9   13.13    3.27
   5  -7  -9    8.58    3.03
  -5  -7   9    5.11    1.71
   5   7  -9   10.62    1.87
  -5   7   9    4.32    1.47
  -5   7   9    6.27    2.41
  -4  -7   9    1.45    1.51
  -4  -7   9    3.53    1.35
   4  -7  -9    1.31    1.99
  -4   7   9    0.23    1.28
   4   7  -9    3.47    1.07
  -4   7   9    3.33    1.51
   4   7  -9    4.19    1.07
  -3  -7   9    6.40    2.18
   3  -7  -9    1.82    2.17
  -3  -7   9    2.81    1.32
  -3   7   9    3.17    1.32
   3   7  -9    2.25    1.02
  -3   7   9    3.44    1.84
   3   7  -9    3.72    0.92
   2  -7  -9    4.85    1.78
  -2  -7   9    4.25    1.45
   2  -7  -9    2.98    2.21
  -2  -7   9    7.11    2.15
   2   7  -9    8.27    1.67
  -2   7   9    4.51    1.42
  -2   7   9    3.54    1.84
   2   7  -9    6.18    1.35
  -1  -7   9   14.15    2.80
   1  -7  -9    5.52    1.89
   1  -7  -9    6.50    2.71
  -1  -7   9    6.60    1.86
  -1   7   9   14.82    2.51
   1   7  -9   13.79    2.04
  -1   7   9    4.39    1.96
   1   7  -9    9.19    1.67
   0  -7  -9   22.07    4.78
   0  -7  -9   25.08    4.27
   0  -7   9   28.12    4.40
   0  -7   9   35.39    4.43
   0   7  -9   34.72    3.59
   0   7  -9   31.15    3.52
   0   7   9   33.70    5.14
   0   7   9   39.63    3.85
   1  -7   9   19.01    3.21
  -1  -7  -9   14.02    2.98
  -1  -7  -9   12.39    3.39
   1  -7   9   18.36    3.23
  -1   7  -9   18.41    2.79
  -1   7  -9   20.52    2.64
   1   7   9   15.72    2.59
   1   7   9   11.26    3.13
  -2  -7  -9    5.55    2.33
   2  -7   9    5.36    1.73
  -2  -7  -9    6.02    1.92
   2  -7   9    4.99    1.73
   2   7   9    7.20    2.36
  -2   7  -9    7.46    1.62
   2   7   9    8.60    1.90
  -2   7  -9    7.92    1.73
   3  -7   9   12.07    2.78
  -3  -7  -9    6.43    2.43
  -3  -7  -9    6.93    2.32
  -3   7  -9   15.64    2.30
   3   7   9   13.87    2.57
   3   7   9    9.64    2.59
  -3   7  -9   16.41    2.63
  -4  -7  -9    7.26    2.34
  -4  -7  -9    7.71    2.21
   4  -7   9    2.14    1.36
  -4   7  -9   10.55    2.24
  -4   7  -9    9.52    2.02
   4   7   9    7.77    2.05
  -5  -7  -9    4.37    1.83
  -5  -7  -9    5.11    2.02
   5  -7   9    9.01    2.73
   5   7   9    8.54    2.17
  -5   7  -9    8.18    2.03
  -5   7  -9    8.92    2.06
  -6  -7  -9    0.60    1.20
   6  -7   9    4.30    1.92
  -6   7  -9    4.26    1.60
   6   7   9    3.53    1.35
   7  -7   9    0.79    1.47
  -7  -7  -9    0.62    1.31
  -7   7  -9    1.42    1.34
   7   7   9   -0.13    1.10
  -8  -7  -9   -0.35    1.39
   8   7   9    1.31    1.25
  -8   7  -9   -0.26    1.27
  -8  -8   9    3.03    1.52
   8  -8  -9    0.45    1.96
  -7  -8   9    3.98    1.59
   7  -8  -9    8.32    3.31
  -7   8   9    5.03    2.09
   6  -8  -9    1.60    2.14
  -6  -8   9    1.64    1.18
  -6   8   9    2.83    1.34
   6   8  -9    0.61    0.93
   5  -8  -9    4.43    2.64
  -5  -8   9    2.04    1.26
  -5   8   9    3.41    1.39
   5   8  -9    4.22    1.27
  -4  -8   9    1.48    1.39
  -4  -8   9    0.53    0.87
   4  -8  -9    4.50    2.36
   4   8  -9    3.30    1.04
   4   8  -9    1.17    0.72
  -4   8   9    3.47    1.37
  -3  -8   9   11.88    2.51
  -3  -8   9   15.39    3.51
   3  -8  -9   10.81    3.52
   3  -8  -9   16.78    3.25
  -3   8   9   19.21    3.08
   3   8  -9   13.38    2.19
   3   8  -9   17.15    2.26
  -2  -8   9    0.68    1.26
   2  -8  -9    1.11    1.26
   2  -8  -9    0.41    1.60
  -2  -8   9    0.56    0.86
   2   8  -9    0.36    0.74
   2   8  -9    0.00    0.57
  -2   8   9   -0.43    0.78
   1  -8  -9    9.85    2.45
  -1  -8   9    8.61    2.58
  -1  -8   9   13.62    2.60
   1  -8  -9   15.85    4.00
   1   8  -9   14.66    2.20
  -1   8   9   16.79    2.78
   1   8  -9   14.71    2.26
   0  -8   9    5.88    1.98
   0  -8  -9    3.74    2.38
   0  -8  -9    5.53    1.85
   0  -8   9    4.70    1.60
   0   8  -9    7.06    1.48
   0   8  -9    5.19    1.45
   0   8   9    5.26    1.60
  -1  -8  -9    1.89    1.30
   1  -8   9    1.95    1.32
   1  -8   9    1.74    1.08
  -1  -8  -9    2.12    1.80
   1   8   9    1.12    1.05
  -1   8  -9    1.38    0.80
  -1   8  -9    0.82    0.85
   2  -8   9    4.29    1.73
  -2  -8  -9    2.76    1.52
  -2  -8  -9    4.30    2.17
   2   8   9    6.37    1.56
  -2   8  -9    7.54    1.62
  -2   8  -9    9.21    2.01
   3  -8   9   -0.70    0.81
  -3  -8  -9    2.64    1.41
  -3  -8  -9    0.41    1.56
  -3   8  -9    1.46    0.93
  -3   8  -9    1.18    1.02
   3   8   9    1.75    0.96
  -4  -8  -9   15.04    3.13
   4  -8   9   10.48    2.77
  -4  -8  -9    9.20    2.43
  -4   8  -9   15.37    2.50
   4   8   9   12.87    2.52
  -4   8  -9    9.32    2.12
   5  -8   9    7.28    2.47
  -5  -8  -9   12.29    2.93
   5   8   9   15.00    2.63
  -5   8  -9   11.74    2.32
  -5   8  -9   18.64    3.22
  -6  -8  -9    4.28    1.73
   6  -8   9    3.71    1.93
  -6   8  -9    5.18    1.75
   6   8   9    7.87    2.11
  -7  -8  -9    5.29    2.23
   7   8   9    6.47    2.02
  -7   8  -9    5.26    1.88
  -7  -9   9   -0.75    0.87
  -7   9   9    0.73    1.31
  -6  -9   9    6.11    1.74
   6  -9  -9    3.54    2.92
   6   9  -9    4.54    1.45
  -6   9   9    5.18    1.73
  -5  -9   9    0.04    0.85
   5  -9  -9    0.62    1.96
   5   9  -9    2.48    1.05
  -5   9   9    0.31    1.06
   4  -9  -9   11.88    3.68
  -4  -9   9   10.89    2.10
   4   9  -9    7.24    1.64
  -4   9   9    5.43    1.79
   4   9  -9   11.69    1.85
   3  -9  -9    2.16    1.50
  -3  -9   9    2.62    1.78
  -3  -9   9    2.37    1.22
   3  -9  -9    0.57    2.02
   3   9  -9    3.45    0.99
  -3   9   9    3.92    1.51
   3   9  -9    5.14    1.23
  -2  -9   9   12.91    3.08
   2  -9  -9    9.55    3.48
  -2  -9   9    6.30    1.82
   2  -9  -9    9.01    2.41
   2   9  -9   10.59    1.96
   2   9  -9    9.62    1.72
  -2   9   9    8.85    2.11
  -1  -9   9    6.41    1.68
   1  -9  -9    3.94    1.67
  -1  -9   9    8.16    2.45
   1  -9  -9    5.05    2.81
  -1   9   9    7.32    1.80
   1   9  -9    6.03    1.39
   1   9  -9    7.35    1.69
   0  -9   9    6.39    2.19
   0  -9  -9    5.74    1.92
   0  -9   9    4.21    1.54
   0  -9  -9   10.87    3.50
   0   9  -9    7.51    1.60
   0   9   9    7.06    1.80
   0   9  -9    9.96    1.78
  -1  -9  -9    3.49    1.67
  -1  -9  -9    6.76    2.72
   1  -9   9    3.12    1.42
   1   9   9    5.45    1.55
  -1   9  -9    6.96    1.55
  -1   9  -9    5.33    1.42
  -2  -9  -9   11.57    2.91
   2  -9   9   15.05    3.11
  -2  -9  -9   17.22    4.02
   2   9   9   20.63    3.05
  -2   9  -9   21.02    3.07
  -2   9  -9   27.52    3.41
  -3  -9  -9   12.77    3.27
  -3  -9  -9   11.28    2.77
   3  -9   9   12.70    2.76
   3   9   9   11.91    2.52
  -3   9  -9   12.97    2.38
  -3   9  -9   14.90    2.50
  -4  -9  -9    2.60    1.99
   4  -9   9    1.45    1.25
  -4  -9  -9    4.13    1.70
  -4   9  -9    3.32    1.35
   4   9   9    3.98    1.59
  -4   9  -9    4.49    1.56
   5  -9   9    1.42    1.51
  -5  -9  -9    0.22    1.11
   5   9   9    3.42    1.38
  -5   9  -9    2.55    1.37
  -5   9  -9    2.43    1.35
  -6  -9  -9    0.58    1.25
   6   9   9   -0.22    1.15
  -6   9  -9   -0.05    1.09
   5 -10  -9    0.60    2.14
   5  10  -9    0.51    0.81
  -5  10   9    0.45    1.19
   4 -10  -9    2.14    2.43
   4 -10  -9    2.60    1.67
  -4  10   9    3.48    1.50
   4  10  -9    3.54    1.13
   4  10  -9    4.88    1.43
   3 -10  -9    2.87    1.58
   3 -10  -9    2.04    2.16
   3  10  -9    0.46    0.78
   3  10  -9    1.14    0.67
   3  10  -9    1.12    0.85
  -3  10   9    0.12    1.03
   2 -10  -9    2.89    2.56
  -2 -10   9    2.25    1.02
  -2 -10   9    5.16    2.31
   2 -10  -9    2.36    1.50
   2  10  -9    1.82    0.86
   2  10  -9    2.21    1.03
  -2  10   9    1.55    1.11
   1 -10  -9    0.81    1.17
   1 -10  -9    1.05    2.07
  -1 -10   9    0.51    0.91
   1  10  -9   -0.44    0.61
   1  10  -9    0.13    0.66
  -1  10   9    0.57    1.00
   0 -10  -9    5.33    2.79
   0 -10  -9    5.93    1.87
   0 -10   9    5.25    1.46
   0  10  -9    3.60    1.29
   0  10  -9    5.09    1.29
   0  10   9    4.93    1.59
  -1 -10  -9    0.94    1.29
   1 -10   9    1.30    1.12
  -1 -10  -9    1.93    2.11
   1  10   9    3.26    1.36
  -1  10  -9    3.28    1.14
  -1  10  -9    1.86    1.11
   2 -10   9    0.35    1.00
  -2 -10  -9    0.87    1.75
  -2 -10  -9    0.33    1.20
   2  10   9    1.53    0.91
  -2  10  -9    2.26    1.13
  -2  10  -9    2.43    1.25
  -3 -10  -9    2.42    1.94
  -3 -10  -9    0.90    1.47
   3 -10   9    0.86    1.21
  -3  10  -9    2.81    1.24
   3  10   9    1.50    1.17
  -3  10  -9    2.19    1.07
  -4 -10  -9    3.90    2.39
  -4 -10  -9    0.13    1.17
  -4  10  -9    1.77    1.18
   4  10   9    0.30    1.27
  -4  10  -9    1.08    0.95
  -5 -10  -9    4.66    1.82
  -5  10  -9    7.05    2.05
  -5  10  -9    7.35    2.01
   5  10   9    9.08    2.23
   3 -11  -9    9.76    2.76
   3 -11  -9   15.43    4.50
   3  11  -9   16.36    2.49
   3  11  -9   14.04    2.31
   3  11  -9   14.28    2.08
  -3  11   9   12.39    2.63
   2 -11  -9    3.03    2.61
   2 -11  -9    0.45    1.24
   2  11  -9    0.76    0.79
   2  11  -9    1.01    0.97
  -2  11   9    0.06    1.07
   1 -11  -9    7.66    3.17
   1 -11  -9    4.65    1.77
  -1  11   9    3.53    1.48
   1  11  -9    6.38    1.52
   1  11  -9    7.24    1.64
   0 -11  -9    1.87    1.48
   0 -11  -9   -0.15    1.93
   0  11  -9    0.26    0.86
   0  11   9    2.07    1.27
   0  11  -9    2.05    0.97
  -1 -11  -9    2.92    1.63
  -1 -11  -9    3.64    2.58
  -1  11  -9    5.16    1.50
   1  11   9    3.94    1.52
  -1  11  -9    4.36    1.47
  -2 -11  -9    0.86    1.26
  -2 -11  -9    2.02    2.14
   2  11   9    1.01    1.02
  -2  11  -9    3.48    1.37
  -2  11  -9    1.99    1.17
  -3 -11  -9   -0.74    1.61
  -3 -11  -9    0.17    1.06
   3  11   9    1.16    1.10
  -3  11  -9    0.63    0.97
  -3  11  -9    0.28    0.99
  10   0 -10   -0.22    2.28
 -10   0  10    0.39    1.58
   9   0 -10   -2.86    1.92
  -9   0  10    2.16    1.89
  -8   0  10    4.41    2.17
  -7   0  10    0.71    1.53
  -6   0  10   24.77    4.97
  -6   0  10   19.49    4.01
  -5   0  10    4.68    2.22
  -5   0  10    2.85    1.60
  -4   0  10   16.77    3.26
  -4   0  10   11.40    3.79
  -3   0  10    3.66    2.45
  -3   0  10    1.94    1.50
   2   0 -10   43.92    4.62
  -2   0  10   41.36    5.33
   2   0 -10   41.64    5.16
  -2   0  10   46.25    4.53
  -1   0  10    0.45    0.94
   1   0 -10    0.53    0.82
   1   0 -10   -0.33    0.83
  -1   0  10   -0.23    0.63
   0   0 -10   13.72    2.73
   0   0 -10   15.02    2.66
   0   0  10   13.79    2.96
   0   0  10   15.56    2.34
  -1   0 -10    3.48    1.35
   1   0  10    9.41    1.98
   1   0  10    3.87    1.46
  -1   0 -10    5.68    1.79
   2   0  10    4.00    1.87
   2   0  10    4.93    1.33
  -2   0 -10    4.82    1.46
  -2   0 -10    6.35    1.95
  -3   0 -10   12.45    2.75
   3   0  10   22.59    3.18
  -3   0 -10   14.21    2.52
   3   0  10   10.60    2.85
  -4   0 -10    7.28    2.14
  -4   0 -10   11.49    2.15
   4   0  10    4.97    2.11
  -5   0 -10    2.32    1.46
   5   0  10    1.17    1.38
  -6   0 -10   21.05    3.95
   6   0  10   20.09    4.03
   7   0  10    5.44    2.52
  -7   0 -10    6.06    2.07
   8   0  10    5.52    2.33
  -8   0 -10    6.15    2.25
  -9   0 -10    3.10    2.19
   9   0  10    7.36    3.07
 -10  -1  10    0.93    1.62
  10  -1 -10    3.59    2.52
  10   1 -10   -1.19    2.19
 -10   1  10    0.53    1.56
  -9  -1  10    1.99    1.84
   9  -1 -10    0.44    2.29
  -9   1  10   -0.50    1.33
  -8  -1  10   -0.57    1.32
   8  -1 -10   -1.74    1.88
  -8   1  10   -0.32    1.18
  -7  -1  10    5.72    2.23
  -7   1  10    4.92    2.13
  -7   1  10    5.85    2.71
  -6  -1  10    0.91    1.51
  -6  -1  10   -0.59    1.08
  -6   1  10   -0.01    1.13
  -6   1  10    0.51    1.33
  -5  -1  10    8.78    2.95
  -5  -1  10   12.54    3.00
  -5   1  10    9.46    3.31
  -5   1  10    9.60    2.70
  -4  -1  10    7.09    2.49
  -4  -1  10    4.41    1.87
  -4   1  10    5.69    2.02
  -4   1  10    9.88    3.55
   3  -1 -10   13.98    2.50
  -3  -1  10   12.51    3.60
  -3  -1  10   13.50    2.98
  -3   1  10   15.25    2.41
  -3   1  10   13.72    3.15
   3   1 -10   19.94    2.83
   2  -1 -10    5.56    1.63
  -2  -1  10    7.26    3.21
  -2  -1  10    8.38    2.36
   2  -1 -10   10.25    2.48
   2   1 -10    9.83    2.24
  -2   1  10   14.02    2.24
   2   1 -10   10.26    1.94
   2   1 -10    7.70    1.68
  -2   1  10   15.06    2.93
   1  -1 -10   14.53    2.84
  -1  -1  10   12.52    2.88
   1  -1 -10   12.27    2.43
   1   1 -10   29.87    3.27
   1   1 -10   18.99    2.85
  -1   1  10   14.13    3.00
  -1   1  10   16.35    2.39
   1   1 -10   12.43    2.59
   0  -1  10   40.60    4.64
   0  -1 -10   24.81    4.35
   0  -1  10   37.13    4.07
   0  -1 -10   35.86    3.85
   0   1  10   36.66    3.83
   0   1 -10   33.62    4.31
   0   1 -10   35.34    3.84
   0   1  10   21.78    4.25
   0   1 -10   35.77    3.77
  -1  -1 -10   20.96    3.62
   1  -1  10   24.33    4.04
  -1  -1 -10   24.05    3.40
  -1   1 -10   26.37    3.05
   1   1  10   29.56    3.17
   1   1  10   19.57    3.92
  -1   1 -10   24.00    4.03
  -1   1 -10   23.89    3.33
   2  -1  10   29.36    4.77
  -2  -1 -10   32.37    3.67
  -2  -1 -10   30.20    4.56
  -2   1 -10   34.55    4.20
  -2   1 -10   27.57    4.31
   2   1  10   28.88    4.73
   2   1  10   28.72    3.93
  -3  -1 -10   41.20    4.42
  -3  -1 -10   29.70    5.01
   3  -1  10   34.52    5.48
  -3   1 -10   43.12    4.41
   3   1  10   45.88    5.20
   3   1  10   33.21    4.03
  -3   1 -10   38.06    4.81
  -4  -1 -10   10.16    2.70
   4  -1  10    6.88    2.40
   4   1  10    8.85    2.87
  -4   1 -10   15.59    3.21
   4   1  10   10.54    2.07
  -4   1 -10   14.92    2.45
  -5  -1 -10   14.79    3.10
   5  -1  10   19.70    3.90
   5   1  10   10.51    3.05
  -5   1 -10   18.12    2.97
  -5   1 -10   13.10    2.89
   6  -1  10    4.51    1.98
  -6  -1 -10    9.09    2.57
  -6   1 -10    7.64    2.24
   6   1  10    5.53    2.23
  -7  -1 -10    0.64    1.24
   7  -1  10   -0.45    1.21
  -7   1 -10    0.65    1.26
   7   1  10    2.53    1.85
  -8  -1 -10    1.11    1.47
   8  -1  10    0.55    1.56
  -8   1 -10    2.46    1.67
   8   1  10    3.48    2.04
   9  -1  10    3.26    2.18
  -9  -1 -10    2.46    1.94
  -9   1 -10   -0.22    1.48
   9   1  10    2.66    1.94
  10  -2 -10    1.26    2.33
 -10  -2  10    5.85    2.41
 -10   2  10    3.54    2.33
  -9  -2  10    1.05    1.71
   9  -2 -10   -1.05    2.01
  -9   2  10    1.01    1.63
   8  -2 -10    2.13    2.35
  -8  -2  10    3.08    2.05
  -8   2  10    4.02    2.11
   7  -2 -10    2.64    2.29
  -7  -2  10    5.52    2.01
  -7   2  10    4.73    2.28
  -7   2  10    4.89    2.79
  -6  -2  10    2.66    1.87
  -6  -2  10    0.16    1.24
  -6   2  10    2.13    1.54
  -6   2  10    1.43    1.88
  -5  -2  10    7.92    2.76
  -5  -2  10    4.62    2.02
  -5   2  10   -0.72    1.87
  -5   2  10    7.11    2.25
  -4  -2  10   -0.07    1.57
  -4  -2  10    0.88    1.17
  -4   2  10   -1.58    0.95
  -3  -2  10   12.99    2.80
   3  -2 -10   13.46    2.45
  -3  -2  10   18.29    3.80
   3   2 -10   11.69    2.32
  -3   2  10   14.25    2.47
  -3   2  10   17.20    3.46
   3   2 -10   10.54    2.58
  -2  -2  10    1.81    1.76
  -2  -2  10    1.00    1.14
   2  -2 -10    1.19    0.96
   2  -2 -10    1.25    1.10
  -2   2  10    0.14    0.75
  -2   2  10   -0.12    1.01
   2   2 -10    1.68    0.95
   2   2 -10    0.98    1.05
   2   2 -10    1.24    0.85
  -1  -2  10   12.12    2.87
   1  -2 -10   14.49    2.32
   1  -2 -10   11.88    2.75
   1   2 -10   17.37    2.64
   1   2 -10   13.87    2.31
   1   2 -10   12.51    2.65
  -1   2  10   16.88    2.67
  -1   2  10   13.80    3.05
   0  -2  10    0.54    1.84
   0  -2  10    0.25    0.91
   0  -2 -10    1.12    0.84
   0  -2 -10    0.22    0.95
   0   2 -10    1.60    0.95
   0   2 -10   -0.17    0.62
   0   2  10    0.22    0.68
   0   2 -10    0.54    0.92
   0   2  10    0.02    1.04
  -1  -2 -10    6.05    1.79
   1  -2  10    7.59    2.28
  -1  -2 -10    5.92    1.61
   1   2  10    5.23    1.95
   1   2  10    7.22    1.68
  -1   2 -10    8.07    1.79
  -1   2 -10    5.20    1.67
  -1   2 -10    9.85    1.93
   2  -2  10   10.21    2.57
  -2  -2 -10   13.83    2.36
  -2  -2 -10    9.42    2.48
  -2   2 -10   13.88    2.82
   2   2  10   11.90    2.45
  -2   2 -10   15.78    2.72
   2   2  10   11.18    2.81
  -2   2 -10   12.06    2.15
  -3  -2 -10   -0.83    0.85
   3  -2  10    1.12    1.33
  -3   2 -10   -0.45    0.63
  -3   2 -10   -0.26    0.88
   3   2  10    0.42    1.29
   3   2  10    0.14    0.73
  -4  -2 -10   10.19    2.74
   4  -2  10    7.50    2.40
   4   2  10   10.54    1.97
  -4   2 -10   11.87    2.65
  -4   2 -10   12.16    2.47
   4   2  10   13.44    3.45
   5  -2  10    3.92    1.83
  -5  -2 -10    3.54    1.67
  -5   2 -10    2.22    1.56
   5   2  10    4.87    2.20
  -5   2 -10    6.55    1.96
   5   2  10    5.11    1.56
   6  -2  10   11.72    3.20
  -6  -2 -10   10.88    3.00
  -6   2 -10   12.46    2.56
   6   2  10   14.11    3.68
  -6   2 -10   10.65    2.71
   7  -2  10   15.21    3.67
  -7  -2 -10   14.01    3.13
   7   2  10   14.55    3.57
  -7   2 -10    5.96    2.46
   8  -2  10    6.91    2.82
  -8  -2 -10    5.23    2.36
  -8   2 -10    1.50    1.54
   8   2  10    4.52    2.15
   9  -2  10    3.62    2.37
  -9  -2 -10    7.01    2.81
   9   2  10    7.70    3.10
  -9   2 -10   13.94    3.56
 -10  -3  10   -0.27    1.71
 -10   3  10    0.62    1.78
  -9  -3  10    1.42    1.87
   9  -3 -10    0.08    1.97
  -9   3  10    1.09    1.57
  -8  -3  10    2.40    1.79
   8  -3 -10    0.97    2.16
  -8   3  10    3.05    1.94
  -7  -3  10    0.89    1.47
   7  -3 -10    0.63    2.27
  -7   3  10    2.57    1.81
  -6  -3  10    6.34    2.52
   6  -3 -10    2.01    2.12
  -6  -3  10    4.03    1.89
  -6   3  10    6.85    2.32
  -6   3  10    5.52    3.56
  -5  -3  10    1.35    1.84
  -5  -3  10    3.07    1.75
  -5   3  10    3.73    1.84
  -4  -3  10    1.10    1.35
  -4  -3  10    0.68    1.65
  -4   3  10    3.99    1.30
  -4   3  10    3.29    1.72
   4   3 -10    3.79    1.38
  -3  -3  10    7.01    2.44
  -3  -3  10    3.41    1.71
  -3   3  10    4.67    1.96
  -3   3  10    9.13    1.96
   3   3 -10   11.20    2.48
   3   3 -10    9.24    1.72
  -2  -3  10   12.99    3.17
   2  -3 -10   11.30    2.57
  -2  -3  10   12.33    2.82
   2   3 -10   16.49    2.56
  -2   3  10    7.57    2.48
  -2   3  10   14.90    2.47
   2   3 -10   14.47    2.34
   2   3 -10   10.21    2.49
  -1  -3  10    5.19    1.81
  -1  -3  10    8.62    2.36
   1  -3 -10    3.85    1.56
   1   3 -10    4.91    1.39
   1   3 -10    1.18    1.15
   1   3 -10    3.40    1.07
  -1   3  10    3.83    1.23
  -1   3  10    4.35    1.83
   0  -3 -10   14.29    2.86
   0  -3  10    7.89    2.28
   0  -3  10   18.62    3.62
   0   3 -10   15.33    2.90
   0   3 -10   16.73    2.69
   0   3  10   15.21    2.46
   0   3  10   12.76    2.96
   0   3 -10   15.98    2.57
   1  -3  10   19.88    3.58
  -1  -3 -10   16.35    3.11
  -1   3 -10   19.28    2.70
   1   3  10   12.50    3.05
  -1   3 -10   12.90    2.85
  -1   3 -10   22.70    3.09
   1   3  10   23.82    3.07
   2  -3  10   30.50    5.23
  -2  -3 -10   19.17    3.68
   2  -3  10   16.80    3.63
  -2   3 -10   28.39    3.61
   2   3  10   21.99    3.08
   2   3  10   15.81    3.61
  -2   3 -10   22.06    3.72
  -2   3 -10   21.48    3.22
  -3  -3 -10   12.35    2.84
   3  -3  10   15.38    3.45
  -3   3 -10   18.57    2.91
   3   3  10   16.01    3.55
  -3   3 -10   16.94    3.21
   3   3  10   17.17    2.81
   4  -3  10    1.72    1.38
  -4  -3 -10    2.07    1.44
  -4   3 -10    2.42    1.24
   4   3  10    1.59    1.58
  -4   3 -10    4.05    1.69
   4   3  10    1.27    1.07
   5  -3  10   20.30    4.22
  -5  -3 -10   22.24    4.03
   5   3  10   30.61    5.47
  -5   3 -10   21.01    3.85
  -5   3 -10   21.83    3.46
   5   3  10   26.12    3.46
  -6  -3 -10    5.90    2.28
   6  -3  10    4.81    2.29
  -6   3 -10    5.95    1.88
   6   3  10    5.96    1.76
   6   3  10    5.53    2.37
  -6   3 -10   11.65    2.93
   7  -3  10    3.89    2.04
  -7  -3 -10    3.81    1.76
  -7   3 -10    4.19    2.07
   7   3  10    6.02    2.48
   8  -3  10    0.29    1.65
  -8  -3 -10    1.10    1.37
   8   3  10    1.13    1.52
  -8   3 -10    1.11    1.65
   9  -3  10    1.49    1.79
  -9  -3 -10    2.19    2.17
   9   3  10    1.85    2.09
  -9   3 -10    4.49    2.56
   9  -4 -10    2.78    2.34
  -9  -4  10   -0.25    1.37
  -9   4  10   -0.14    1.41
  -8  -4  10    1.40    1.43
   8  -4 -10    2.44    2.35
  -8   4  10    0.46    1.57
  -7  -4  10    0.31    1.35
   7  -4 -10    0.89    2.03
  -7   4  10    3.33    2.00
   6  -4 -10    4.60    2.55
  -6  -4  10    5.43    2.08
  -6   4  10    3.85    1.85
  -6   4  10    8.45    3.99
  -5  -4  10    4.43    1.82
  -5  -4  10    6.19    2.24
   5  -4 -10    2.91    2.25
   5   4 -10    6.86    1.81
  -5   4  10    5.76    2.17
  -4  -4  10    8.13    2.68
  -4  -4  10    9.86    2.49
   4  -4 -10    5.98    2.71
  -4   4  10    9.56    2.83
   4   4 -10   10.20    1.87
  -4   4  10   15.33    2.60
  -3  -4  10   20.56    3.99
  -3  -4  10   17.81    3.24
   3  -4 -10   11.71    3.62
  -3   4  10   16.27    2.77
   3   4 -10   16.53    2.47
   3   4 -10   13.86    2.98
  -3   4  10   14.26    3.29
  -2  -4  10    3.68    1.65
  -2  -4  10    4.99    1.94
   2  -4 -10    3.97    1.71
  -2   4  10    4.11    1.76
   2   4 -10    3.38    1.49
   2   4 -10    6.39    1.59
   2   4 -10    2.78    1.04
  -2   4  10    2.86    1.11
  -1  -4  10    5.86    2.05
   1  -4 -10    4.25    1.82
  -1  -4  10    4.57    1.65
   1   4 -10    4.86    1.39
  -1   4  10    0.70    1.25
   1   4 -10    6.73    1.70
  -1   4  10    6.27    1.61
   1   4 -10    2.71    1.41
   0  -4 -10    0.85    1.07
   0  -4  10   -0.21    1.03
   0  -4  10    2.10    1.55
   0   4  10    1.69    1.30
   0   4 -10    1.94    1.05
   0   4 -10    0.66    1.10
   0   4  10    1.37    1.04
   0   4 -10    0.47    0.61
   1  -4  10    3.14    1.58
   1  -4  10    2.34    1.29
  -1  -4 -10    2.51    1.40
  -1   4 -10    2.91    1.13
  -1   4 -10    1.90    1.29
   1   4  10    3.84    1.80
  -1   4 -10    2.11    0.92
   1   4  10    3.10    1.26
   2  -4  10    5.38    2.09
  -2  -4 -10    3.33    1.69
   2  -4  10    5.25    1.77
  -2   4 -10    6.22    1.54
   2   4  10    3.89    1.84
  -2   4 -10    5.31    1.27
  -2   4 -10    2.85    1.43
   2   4  10    3.98    1.38
  -3  -4 -10    0.93    1.21
   3  -4  10    0.48    1.25
   3  -4  10    1.26    1.26
   3   4  10    0.79    0.89
   3   4  10    0.47    1.32
  -3   4 -10    0.56    0.77
  -3   4 -10    0.33    0.89
  -3   4 -10    1.42    0.99
   4  -4  10    6.28    2.19
   4  -4  10    2.31    1.66
  -4  -4 -10    2.97    1.73
   4   4  10    4.15    1.38
   4   4  10    5.81    2.64
  -4   4 -10    7.28    2.06
  -4   4 -10    2.21    1.54
  -5  -4 -10    7.86    2.46
   5  -4  10    4.39    1.99
   5   4  10    9.48    2.95
   5   4  10   14.71    2.77
  -5   4 -10    8.56    2.18
  -5   4 -10   11.66    2.90
  -6  -4 -10   14.09    3.39
   6  -4  10   11.81    3.13
   6   4  10   10.05    3.23
   6   4  10   17.50    3.00
  -6   4 -10    9.72    2.80
  -6   4 -10   14.65    2.97
  -7  -4 -10    8.61    2.64
   7  -4  10    5.43    2.37
  -7   4 -10   13.72    3.35
   7   4  10    6.04    2.55
   8  -4  10    6.53    2.50
  -8  -4 -10    8.39    2.85
   8   4  10    7.35    2.94
  -8   4 -10   10.35    3.05
  -9  -4 -10    2.56    2.05
   9  -4  10    5.16    2.70
  -9   4 -10    5.17    2.27
   9   4  10    7.06    3.04
  -9  -5  10    1.18    1.50
   9  -5 -10    0.58    2.04
  -9   5  10    1.36    1.76
  -8  -5  10   -0.42    1.21
   8  -5 -10    1.27    2.15
  -8   5  10    1.00    1.84
  -7  -5  10   -0.14    1.32
   7  -5 -10   -1.01    1.76
  -7   5  10   -0.26    1.32
  -6  -5  10    1.53    1.17
   6  -5 -10    1.63    2.15
  -6   5  10    3.03    1.83
   5  -5 -10    3.47    2.48
  -5  -5  10    2.10    1.84
  -5  -5  10    0.66    1.21
   5   5 -10    2.11    1.13
  -5   5  10    1.78    1.80
  -5   5  10    0.81    0.98
  -4  -5  10    1.28    1.21
  -4  -5  10    0.21    1.39
   4  -5 -10   -0.06    1.92
  -4   5  10    2.42    1.85
  -4   5  10    2.07    1.23
   4   5 -10    1.55    0.93
  -3  -5  10    4.37    1.97
   3  -5 -10    1.63    2.48
  -3  -5  10    2.06    1.38
  -3   5  10    3.24    1.70
   3   5 -10    6.99    1.52
  -3   5  10    4.64    1.44
  -2  -5  10    7.33    2.14
   2  -5 -10    8.57    2.33
  -2  -5  10   13.77    3.13
  -2   5  10    9.73    2.13
   2   5 -10   17.95    2.50
   2   5 -10   16.69    2.45
   2   5 -10   15.59    2.87
  -2   5  10    8.93    2.69
   1  -5 -10   26.67    4.51
  -1  -5  10   29.13    4.96
  -1  -5  10   27.99    4.50
   1   5 -10   33.43    4.20
  -1   5  10   31.27    5.09
   1   5 -10   33.12    3.73
   1   5 -10   42.08    3.97
  -1   5  10   42.16    4.16
   0  -5 -10   12.34    3.63
   0  -5  10   13.31    2.78
   0  -5  10    7.34    2.12
   0  -5 -10    7.18    2.17
   0   5  10   10.16    2.11
   0   5 -10    5.16    1.78
   0   5 -10    9.89    1.95
   0   5  10    7.10    2.34
   1  -5  10   19.89    3.77
  -1  -5 -10   17.79    3.33
  -1  -5 -10   15.13    4.09
   1  -5  10   23.51    3.75
  -1   5 -10   19.94    3.39
  -1   5 -10   20.84    2.96
   1   5  10   17.33    3.75
   1   5  10   20.98    3.04
  -1   5 -10   20.68    2.94
  -2  -5 -10   17.70    3.48
   2  -5  10   19.35    3.38
   2  -5  10   13.97    3.29
   2   5  10   18.36    3.84
  -2   5 -10   15.28    2.71
  -2   5 -10   25.59    3.17
  -2   5 -10   16.30    3.25
   2   5  10   17.08    2.81
  -3  -5 -10    8.89    2.96
   3  -5  10   15.23    2.86
  -3  -5 -10   14.19    3.03
   3  -5  10    9.63    2.58
   3   5  10   15.23    3.32
  -3   5 -10   11.46    2.67
   3   5  10   13.61    2.48
  -3   5 -10   14.06    2.31
  -3   5 -10   16.69    2.65
   4  -5  10   13.62    3.27
  -4  -5 -10   15.28    3.32
  -4   5 -10   16.56    3.33
  -4   5 -10   24.69    3.54
   4   5  10   19.33    4.16
   4   5  10   19.88    3.01
   5  -5  10    1.23    1.45
  -5  -5 -10    4.07    2.66
  -5  -5 -10    2.00    1.71
   5   5  10    2.70    1.93
   5   5  10    0.52    1.00
  -5   5 -10   -0.14    1.22
  -5   5 -10    1.99    1.36
   6  -5  10    4.68    2.39
  -6  -5 -10    3.15    1.69
  -6   5 -10    2.41    1.50
  -6   5 -10    3.94    2.01
   6   5  10    1.02    1.23
   6   5  10    1.89    1.85
  -7  -5 -10    0.07    1.06
   7  -5  10    0.01    1.30
  -7   5 -10    0.56    1.21
   7   5  10   -0.31    1.60
  -7   5 -10   -0.53    1.29
   7   5  10    0.47    1.16
  -8  -5 -10    2.95    2.00
   8  -5  10    4.11    2.16
  -8  -6  10   -0.22    1.20
   8  -6 -10   -1.49    1.74
  -8   6  10   -0.61    1.61
  -7  -6  10    0.46    1.18
   7  -6 -10    2.38    2.25
  -7   6  10    1.22    1.52
  -6  -6  10   12.99    2.97
   6  -6 -10   12.71    3.73
  -6   6  10   14.88    3.57
  -5  -6  10    1.20    1.21
   5  -6 -10    1.23    2.12
  -5   6  10    2.81    1.93
   5   6 -10    4.18    1.30
  -5   6  10    1.92    1.30
   4  -6 -10    7.02    2.92
  -4  -6  10    6.89    2.41
  -4  -6  10   11.16    2.56
  -4   6  10    8.98    2.80
   4   6 -10   11.63    2.01
  -4   6  10   10.61    2.26
   3  -6 -10   -0.72    1.96
  -3  -6  10    2.28    1.49
   3  -6 -10   -0.08    1.03
  -3  -6  10   -0.17    0.86
  -3   6  10   -0.49    1.21
   3   6 -10    1.28    0.90
  -3   6  10    1.12    1.02
   2  -6 -10   14.50    4.31
  -2  -6  10   26.74    4.44
  -2  -6  10   14.31    3.10
   2  -6 -10   17.75    3.52
  -2   6  10   27.98    3.65
   2   6 -10   19.58    2.95
  -2   6  10   19.47    3.97
   2   6 -10   26.64    3.26
  -1  -6  10    1.89    1.50
   1  -6 -10   -0.25    2.12
  -1  -6  10    1.56    1.19
   1  -6 -10    2.71    1.45
   1   6 -10    2.04    1.04
  -1   6  10    4.93    1.47
   1   6 -10    3.26    1.16
  -1   6  10    3.20    1.71
   0  -6 -10    1.42    1.33
   0  -6  10    1.59    1.37
   0  -6 -10    0.26    1.94
   0  -6  10    1.09    1.14
   0   6 -10    1.56    0.86
   0   6 -10    1.50    0.95
   0   6  10    1.83    1.07
   0   6  10    0.45    1.26
  -1  -6 -10    0.29    1.10
   1  -6  10    1.96    1.24
  -1  -6 -10    1.07    2.08
   1  -6  10    1.35    1.21
   1   6  10    4.30    1.90
  -1   6 -10    1.91    1.00
   1   6  10    1.60    1.01
  -1   6 -10    1.57    0.97
  -2  -6 -10    3.81    1.77
   2  -6  10    2.62    1.40
   2  -6  10    3.90    1.53
  -2  -6 -10    1.11    1.94
   2   6  10    3.21    1.33
  -2   6 -10    2.22    1.08
  -2   6 -10    4.68    1.43
   2   6  10    0.71    1.41
  -3  -6 -10    3.95    1.72
  -3  -6 -10    4.04    2.27
   3  -6  10    2.10    1.48
   3   6  10    5.00    1.58
  -3   6 -10    5.50    1.56
   3   6  10    4.87    1.93
  -3   6 -10    2.66    1.17
  -4  -6 -10    5.29    2.40
   4  -6  10    4.42    1.83
  -4  -6 -10    3.76    1.88
   4   6  10    5.42    2.45
  -4   6 -10    8.78    2.22
  -4   6 -10    6.31    1.79
   4   6  10    9.26    2.10
   5  -6  10    5.14    2.12
  -5  -6 -10    4.65    2.07
  -5  -6 -10    6.61    2.42
  -5   6 -10    9.32    2.15
   5   6  10    9.52    2.93
   5   6  10    4.31    1.53
  -6  -6 -10    7.14    2.52
   6  -6  10    2.90    1.90
   6   6  10    9.56    2.29
  -6   6 -10    5.03    1.80
   7  -6  10    2.34    1.85
  -7  -6 -10    2.42    1.76
  -7   6 -10    7.14    2.07
   7   6  10    9.48    2.52
  -8  -6 -10    5.96    2.65
   8  -6  10    5.05    2.28
  -8  -7  10    1.80    1.31
  -8   7  10   -0.26    1.91
  -7  -7  10    2.44    1.56
   7  -7 -10   -0.34    1.76
  -7   7  10    5.34    2.48
  -6  -7  10    0.12    1.03
   6  -7 -10    0.74    2.08
  -6   7  10   -1.43    1.08
   6   7 -10    0.29    0.89
   5  -7 -10    9.56    3.45
  -5  -7  10    8.90    2.34
  -5   7  10    7.22    2.60
   5   7 -10    8.50    1.85
  -5   7  10   10.01    2.37
  -4  -7  10    7.08    1.97
   4  -7 -10    4.84    2.91
  -4   7  10    4.37    1.52
  -4   7  10    4.22    2.03
   4   7 -10    8.03    1.69
  -3  -7  10    1.16    1.38
   3  -7 -10   -1.53    1.87
   3  -7 -10    0.19    1.00
  -3  -7  10   -0.05    0.89
  -3   7  10   -1.08    1.18
  -3   7  10    0.25    0.79
   3   7 -10    0.36    0.72
  -2  -7  10   23.70    3.69
   2  -7 -10   19.46    3.66
   2  -7 -10   11.86    3.91
  -2  -7  10   17.39    3.70
  -2   7  10   19.23    3.78
   2   7 -10   19.78    2.80
  -2   7  10   27.06    3.72
   2   7 -10   20.94    3.05
   1  -7 -10   -0.44    1.96
  -1  -7  10    0.62    1.01
   1  -7 -10    1.14    1.24
  -1  -7  10    2.25    1.43
  -1   7  10    3.13    1.31
   1   7 -10    3.36    1.24
   1   7 -10    4.00    1.24
  -1   7  10    1.17    1.53
   0  -7 -10   10.70    3.36
   0  -7  10   18.11    3.30
   0  -7 -10   13.25    2.97
   0  -7  10   16.05    3.22
   0   7  10   20.07    3.17
   0   7 -10   13.18    2.54
   0   7  10   14.71    3.24
   0   7 -10   17.85    2.52
  -1  -7 -10   15.62    3.71
   1  -7  10   12.92    2.79
  -1  -7 -10    7.79    2.34
   1  -7  10   10.99    2.70
   1   7  10   12.96    3.10
  -1   7 -10   21.17    2.88
   1   7  10   20.27    3.04
  -1   7 -10   20.32    2.87
  -2  -7 -10    0.32    1.23
  -2  -7 -10    4.49    2.32
   2  -7  10    1.69    1.32
  -2   7 -10    1.65    1.04
   2   7  10    1.94    1.67
  -2   7 -10    1.26    0.89
   2   7  10    1.82    1.11
   3  -7  10   10.02    2.65
  -3  -7 -10   10.06    2.65
  -3  -7 -10    5.53    2.39
  -3   7 -10   13.38    2.34
   3   7  10   11.68    2.35
  -3   7 -10    9.14    2.06
   4  -7  10    5.08    1.97
  -4  -7 -10    2.84    2.04
  -4  -7 -10    6.33    2.20
  -4   7 -10    7.57    1.85
   4   7  10    4.96    1.65
  -4   7 -10    4.54    1.61
   5  -7  10    6.81    2.51
  -5  -7 -10    3.98    2.01
  -5  -7 -10    6.00    2.45
  -5   7 -10    9.31    2.30
   5   7  10    5.87    1.83
  -6  -7 -10    1.87    1.52
   6  -7  10    6.14    2.18
  -6   7 -10    5.43    1.95
   6   7  10    6.42    2.02
   7  -7  10    2.74    1.85
  -7  -7 -10    2.92    1.93
   7   7  10    2.49    1.56
  -7   7 -10    2.30    1.72
  -7  -8  10    4.52    1.87
  -6  -8  10    0.35    1.17
   6  -8 -10    0.47    1.81
   6   8 -10    0.67    1.01
  -5  -8  10    1.14    1.05
   5  -8 -10    2.31    2.23
   5   8 -10    3.13    1.31
  -5   8  10    8.48    2.09
  -4  -8  10    1.29    1.15
   4  -8 -10    0.76    2.20
   4   8 -10    0.34    0.69
  -4   8  10   -0.28    0.89
   3  -8 -10    5.43    2.94
  -3  -8  10    4.11    1.62
   3  -8 -10    3.53    1.83
  -3  -8  10    5.94    2.30
   3   8 -10    3.25    1.25
  -3   8  10    5.56    1.86
  -2  -8  10   -0.18    0.90
  -2  -8  10    0.42    1.15
   2  -8 -10   -0.39    1.07
   2  -8 -10    1.39    2.28
   2   8 -10    0.24    0.72
  -2   8  10    0.89    1.08
   2   8 -10    0.44    0.78
   1  -8 -10    4.51    1.74
   1  -8 -10    5.24    2.93
  -1  -8  10    4.92    2.05
  -1  -8  10    5.74    1.79
   1   8 -10    4.93    1.47
   1   8 -10    4.71    1.35
  -1   8  10    4.70    1.55
   0  -8 -10    3.12    1.51
   0  -8  10    2.59    1.38
   0  -8  10    2.14    1.60
   0  -8 -10    2.73    2.33
   0   8  10    4.23    1.51
   0   8 -10    5.73    1.68
   0   8 -10    4.79    1.33
  -1  -8 -10    2.77    2.10
   1  -8  10    2.04    1.29
  -1  -8 -10    0.94    1.25
   1   8  10    1.44    1.07
  -1   8 -10    2.75    1.23
  -1   8 -10    2.89    1.23
  -2  -8 -10    1.46    1.84
  -2  -8 -10    1.34    1.22
   2  -8  10    2.30    1.41
  -2   8 -10   -0.19    0.78
   2   8  10    0.33    0.97
  -2   8 -10    1.01    1.02
  -3  -8 -10    1.41    1.40
   3  -8  10    1.57    1.16
  -3  -8 -10    3.89    2.18
  -3   8 -10   -0.05    0.99
   3   8  10    1.01    1.29
  -3   8 -10    0.64    0.87
  -4  -8 -10   -0.18    1.17
   4  -8  10    1.26    1.18
  -4  -8 -10    0.44    1.78
   4   8  10    4.49    1.85
  -4   8 -10    1.73    1.34
  -4   8 -10    1.44    1.16
  -5  -8 -10    3.52    1.76
   5  -8  10    2.56    1.62
  -5   8 -10    5.58    1.69
   5   8  10    9.52    2.34
  -6  -8 -10   -0.38    1.17
   6  -8  10    1.73    1.64
   6   8  10    3.44    1.59
  -6   8 -10   -0.05    1.15
  -5  -9  10    0.61    1.07
   5  -9 -10    0.85    2.08
  -5   9  10    0.66    1.17
   5   9 -10    1.48    1.12
   4  -9 -10    1.73    1.47
   4  -9 -10    3.21    2.58
  -4  -9  10    1.80    1.22
   4   9 -10    3.89    1.25
  -4   9  10    3.00    1.48
   3  -9 -10    3.11    2.68
   3  -9 -10    1.08    1.39
  -3  -9  10    0.74    1.08
  -3   9  10    1.13    1.24
   3   9 -10    3.37    1.33
   3   9 -10    2.70    1.14
   2  -9 -10    3.02    1.60
   2  -9 -10    1.40    2.22
  -2  -9  10    2.14    1.13
  -2  -9  10    4.50    2.08
  -2   9  10    3.47    1.62
   2   9 -10    1.95    1.05
   2   9 -10    3.53    1.19
  -1  -9  10    8.62    2.66
  -1  -9  10   10.14    2.36
   1  -9 -10    8.06    2.45
   1  -9 -10   11.38    3.61
  -1   9  10   12.53    2.45
   1   9 -10   11.41    2.14
   1   9 -10   12.41    2.10
   0  -9 -10    0.83    1.91
   0  -9  10    0.38    1.04
   0  -9 -10    1.17    1.33
   0   9 -10    0.65    0.79
   0   9 -10    0.53    0.84
   0   9  10    1.07    1.08
  -1  -9 -10    6.56    2.30
   1  -9  10    7.76    2.17
  -1  -9 -10   11.22    3.42
  -1   9 -10   11.50    2.24
   1   9  10    8.28    2.18
  -1   9 -10   12.13    2.25
   2  -9  10    5.03    1.83
  -2  -9 -10    3.86    1.76
  -2  -9 -10    5.56    2.65
   2   9  10    5.01    1.66
  -2   9 -10    6.92    1.83
  -2   9 -10    3.68    1.38
  -3  -9 -10    2.76    2.26
   3  -9  10    4.10    1.70
  -3  -9 -10    2.31    1.57
   3   9  10    4.26    1.59
  -3   9 -10    4.24    1.41
  -3   9 -10    5.48    1.66
  -4  -9 -10    2.47    1.65
   4  -9  10    5.32    1.98
  -4  -9 -10    4.55    2.38
   4   9  10    2.43    1.37
  -4   9 -10    6.52    1.89
  -4   9 -10    3.92    1.57
  -5  -9 -10    0.83    1.39
   5  -9  10    6.31    2.14
   5   9  10    6.19    1.95
  -5   9 -10    4.70    1.63
   4 -10 -10    2.83    1.67
  -4  10  10    2.58    1.52
  -3 -10  10    0.69    1.07
   3 -10 -10    0.86    1.50
   3 -10 -10    2.05    3.01
  -3  10  10    0.44    1.15
   3  10 -10    0.82    0.85
   3  10 -10    1.28    0.96
  -2 -10  10    5.46    1.65
   2 -10 -10    6.92    3.46
   2 -10 -10    3.29    1.63
   2  10 -10    4.04    1.37
   2  10 -10    5.36    1.57
  -2  10  10    5.38    1.88
   1 -10 -10    0.35    1.17
   1 -10 -10    1.87    2.31
  -1 -10  10    0.65    0.92
   1  10 -10    1.10    0.91
   1  10 -10    0.93    0.84
  -1  10  10    1.74    1.39
   0 -10  10    2.65    1.21
   0 -10 -10    1.27    2.27
   0 -10 -10    2.63    1.47
   0  10  10    2.09    1.32
   0  10 -10    2.66    1.32
   0  10 -10    3.16    1.19
   1 -10  10    3.79    1.56
  -1 -10 -10    3.73    2.72
  -1 -10 -10    2.47    1.58
   1  10  10    3.17    1.54
  -1  10 -10    4.03    1.52
  -1  10 -10    4.39    1.49
   2 -10  10    1.84    1.30
  -2 -10 -10    0.94    1.34
  -2 -10 -10   -0.03    1.74
  -2  10 -10    2.98    1.31
  -2  10 -10    2.25    1.29
   2  10  10    1.96    1.25
  -3 -10 -10    1.20    1.34
   3 -10  10    0.06    1.06
  -3 -10 -10    0.12    1.72
  -3  10 -10    0.92    1.03
   3  10  10   -0.65    0.97
  -3  10 -10    0.97    1.05
   9   0 -11   -2.89    2.14
  -9   0  11    2.38    1.94
  -8   0  11    0.53    1.36
  -7   0  11   -0.88    1.18
  -6   0  11    8.65    2.60
  -5   0  11   -0.20    1.28
  -5   0  11    3.92    2.36
  -4   0  11    0.97    2.22
  -4   0  11    3.42    1.82
  -3   0  11    0.26    1.30
   3   0 -11    1.72    1.36
   3   0 -11    1.93    1.21
  -3   0  11    0.94    2.36
  -2   0  11   16.59    3.40
   2   0 -11   17.59    2.69
   2   0 -11   15.79    3.22
  -1   0  11    1.02    1.21
   1   0 -11    1.24    1.06
   1   0 -11    0.30    1.02
   0   0  11    4.39    1.74
   0   0 -11   13.36    2.41
   0   0 -11   10.84    2.49
  -1   0 -11   -0.23    0.77
  -1   0 -11   -0.44    0.98
   1   0  11    0.02    1.00
   2   0  11    1.37    1.23
  -2   0 -11    0.59    0.88
  -2   0 -11   -0.74    0.78
  -3   0 -11    0.10    0.80
   3   0  11   -0.21    1.37
   4   0  11    9.00    2.79
  -4   0 -11    6.28    2.12
   5   0  11    1.71    1.64
  -5   0 -11    6.17    2.21
   6   0  11    6.24    2.51
  -6   0 -11    8.24    2.76
   7   0  11    3.45    2.12
  -7   0 -11    1.72    1.71
  -8   0 -11    6.09    2.48
   8   0  11    7.21    2.84
  -9  -1  11   -0.21    1.50
   9  -1 -11   -2.78    2.07
  -9   1  11   -0.48    1.67
  -8  -1  11    0.06    1.37
   8  -1 -11   -2.70    2.19
  -8   1  11    0.14    1.70
  -7  -1  11    0.01    1.28
  -7   1  11    0.74    1.60
  -6  -1  11    0.14    1.22
  -6   1  11   -0.31    1.32
  -5  -1  11    3.63    2.17
  -5  -1  11    4.97    2.14
  -5   1  11    1.06    1.97
  -5   1  11    3.05    1.91
  -4  -1  11   -0.29    1.18
  -4  -1  11    1.03    1.60
  -4   1  11    0.12    1.92
  -4   1  11   -0.06    1.13
  -3  -1  11    7.20    2.33
  -3  -1  11   17.25    4.19
   3  -1 -11   11.99    2.35
   3  -1 -11   12.30    2.83
  -3   1  11   13.86    3.11
   3   1 -11    8.85    2.02
   3   1 -11   10.45    2.67
   2  -1 -11    5.49    1.45
  -2  -1  11    2.89    2.75
  -2  -1  11    4.50    1.79
   2  -1 -11    4.94    1.93
   2   1 -11    0.89    0.92
   2   1 -11    3.87    1.55
  -2   1  11    0.42    1.16
  -1  -1  11    2.48    1.38
   1  -1 -11    6.82    1.70
   1  -1 -11    6.45    1.79
  -1   1  11    1.15    1.33
   1   1 -11    3.01    1.49
   1   1 -11    5.30    1.53
   0  -1 -11   33.83    3.76
   0  -1  11   30.29    4.76
   0  -1 -11   29.20    4.69
   0   1  11   20.57    4.25
   0   1 -11   37.43    3.80
   0   1 -11   26.56    4.35
  -1  -1 -11    1.64    1.45
  -1  -1 -11    5.29    1.59
   1  -1  11    4.28    1.86
  -1   1 -11    6.09    1.64
  -1   1 -11    3.63    1.59
   1   1  11    1.22    1.15
   2  -1  11   24.98    4.60
  -2  -1 -11   34.44    5.11
  -2   1 -11   35.96    4.37
   2   1  11   21.52    4.45
  -2   1 -11   30.07    4.73
  -3  -1 -11    4.87    1.83
   3  -1  11    3.84    2.05
  -3   1 -11    6.00    2.06
  -3   1 -11    9.23    2.13
   3   1  11    6.39    2.29
  -4  -1 -11   20.86    4.16
   4  -1  11   25.31    4.63
  -4   1 -11   23.64    4.18
  -4   1 -11   31.44    4.27
   4   1  11   14.95    3.94
   5  -1  11    6.08    2.39
  -5  -1 -11    5.66    2.16
  -5   1 -11    5.70    2.05
   5   1  11    6.84    2.58
  -6  -1 -11    3.28    1.90
   6  -1  11    5.30    2.39
   6   1  11    3.59    2.18
  -6   1 -11    6.87    2.41
  -7  -1 -11    2.76    1.70
   7  -1  11    4.17    2.20
   7   1  11   -0.14    1.45
  -7   1 -11    2.74    1.72
  -8  -1 -11    2.79    2.02
   8  -1  11    1.40    1.85
  -8   1 -11   -0.66    1.27
   8   1  11    2.06    1.78
  -9  -2  11    1.43    1.76
   9  -2 -11    0.47    2.36
  -9   2  11    0.28    1.71
  -8  -2  11    0.66    1.51
   8  -2 -11    1.60    2.52
  -8   2  11    1.11    1.62
  -7  -2  11    7.70    2.64
   7  -2 -11    3.46    2.76
  -7   2  11    5.75    2.33
  -6  -2  11    2.98    1.98
  -6   2  11    1.37    1.46
  -5  -2  11   10.53    3.51
  -5  -2  11    4.47    1.96
  -5   2  11    5.41    2.29
  -5   2  11    4.97    3.27
  -4  -2  11    8.37    3.04
  -4  -2  11    4.30    1.95
  -4   2  11    4.18    1.94
  -3  -2  11   18.63    3.72
  -3  -2  11   27.76    4.92
   3  -2 -11   17.61    3.41
  -3   2  11   19.46    3.84
   3   2 -11   19.35    2.88
   3   2 -11   20.96    3.80
  -2  -2  11    1.53    1.95
   2  -2 -11    2.61    1.40
  -2  -2  11    2.06    1.35
   2   2 -11    4.22    1.43
  -2   2  11    3.99    1.71
   2   2 -11    3.93    1.70
  -1  -2  11   12.65    3.80
  -1  -2  11    9.56    2.40
   1  -2 -11   10.33    2.52
  -1   2  11    9.45    2.70
   1   2 -11   10.84    2.48
   1   2 -11   15.96    2.66
  -1   2  11    7.22    1.97
   0  -2 -11    3.28    1.70
   0  -2  11    5.55    2.74
   0  -2  11    2.91    1.41
   0   2 -11    6.89    1.93
   0   2 -11    4.56    1.38
   0   2  11    2.86    1.22
   0   2  11    3.60    1.73
  -1  -2 -11    1.28    1.22
   1  -2  11    1.22    1.40
   1   2  11    2.83    1.33
   1   2  11    2.23    1.52
  -1   2 -11    1.73    1.10
  -1   2 -11    3.29    1.45
   2  -2  11    2.97    1.57
  -2  -2 -11    6.55    2.28
   2   2  11    6.33    1.72
   2   2  11    3.90    1.95
  -2   2 -11    4.71    1.57
  -2   2 -11    6.85    2.08
   3  -2  11    5.22    2.48
  -3  -2 -11    5.08    1.95
   3   2  11    4.96    2.15
  -3   2 -11    7.16    1.90
  -3   2 -11    3.79    1.66
   4  -2  11    0.36    1.30
  -4  -2 -11    1.44    1.57
  -4   2 -11    0.33    1.18
   4   2  11    0.63    1.59
  -4   2 -11    0.13    1.03
  -5  -2 -11    5.85    2.30
   5  -2  11    1.98    1.63
  -5   2 -11    3.04    1.43
   5   2  11    1.55    1.64
   6  -2  11    2.21    1.76
  -6  -2 -11    3.92    1.93
   6   2  11    2.20    1.86
  -6   2 -11    5.78    2.11
  -7  -2 -11    1.75    1.80
   7  -2  11    3.19    2.36
  -7   2 -11    0.83    1.36
   7   2  11   -0.22    1.68
  -8  -2 -11    3.98    2.20
   8  -2  11    5.17    2.62
  -8   2 -11    1.97    1.89
   8   2  11   -0.64    1.54
  -9  -3  11    2.38    1.86
   9  -3 -11   -0.35    1.99
  -9   3  11    0.61    1.83
   8  -3 -11   -2.59    1.72
  -8  -3  11    1.06    1.58
  -8   3  11    0.72    1.63
  -7  -3  11    2.84    1.77
   7  -3 -11    1.29    2.28
  -7   3  11    3.06    1.83
   6  -3 -11    2.01    2.41
  -6  -3  11    3.42    1.94
  -6   3  11    8.57    2.68
  -5  -3  11    0.00    1.07
  -5   3  11    0.27    1.35
  -4  -3  11    6.58    2.24
  -4  -3  11    4.80    2.47
   4   3 -11    1.20    1.34
  -4   3  11    3.68    1.82
  -3  -3  11    7.54    2.23
   3  -3 -11   14.21    2.92
  -3  -3  11    9.28    2.94
  -3   3  11    7.98    2.37
   3   3 -11    6.34    2.00
   3   3 -11    7.93    1.76
  -2  -3  11   15.65    3.65
   2  -3 -11   11.55    2.78
  -2  -3  11   17.30    3.50
   2   3 -11   13.43    2.40
  -2   3  11   14.44    3.26
  -2   3  11   14.94    2.69
   2   3 -11   16.29    3.13
   2   3 -11   14.48    2.64
  -1  -3  11    6.22    2.22
  -1  -3  11    8.90    2.77
   1  -3 -11   10.15    2.44
  -1   3  11    8.62    2.50
   1   3 -11   11.33    2.02
  -1   3  11   16.17    2.75
   1   3 -11   13.63    2.35
   1   3 -11    7.70    2.24
   0  -3  11    1.60    1.24
   0  -3  11    4.73    2.26
   0  -3 -11    0.92    1.28
   0   3  11    6.12    1.74
   0   3 -11    6.33    2.03
   0   3  11    2.05    1.55
   0   3 -11    3.56    1.23
   1  -3  11   54.72    6.41
  -1  -3 -11   33.01    5.10
   1  -3  11   41.33    5.93
   1   3  11   36.90    4.08
  -1   3 -11   29.26    4.80
  -1   3 -11   37.73    4.17
   1   3  11   24.60    4.82
  -2  -3 -11    3.83    1.81
   2  -3  11    2.81    2.26
   2  -3  11    3.61    1.82
  -2   3 -11    3.88    1.81
  -2   3 -11    6.01    1.66
   2   3  11    2.54    1.83
   2   3  11    3.22    1.48
   3  -3  11   12.87    3.27
  -3  -3 -11   15.75    3.32
   3   3  11   17.90    3.08
  -3   3 -11   22.30    3.30
  -3   3 -11   13.71    3.16
   3   3  11   16.73    3.76
   4  -3  11    0.37    1.16
  -4  -3 -11    0.12    1.28
   4   3  11    0.67    1.67
  -4   3 -11    2.48    1.47
  -4   3 -11    0.85    1.15
  -5  -3 -11   18.60    3.89
   5  -3  11   19.38    4.12
   5   3  11   20.46    4.49
  -5   3 -11   27.25    4.62
  -5   3 -11   25.36    4.03
   6  -3  11    0.42    1.34
  -6  -3 -11    1.06    1.26
   6   3  11   -0.42    1.32
  -6   3 -11    0.54    1.41
  -7  -3 -11    1.38    1.44
   7  -3  11    1.44    1.73
  -7   3 -11    5.41    2.25
   7   3  11    0.60    1.53
  -8  -3 -11    2.07    1.96
   8  -3  11    1.45    1.69
   8   3  11    0.17    1.90
  -8   3 -11    1.97    1.66
  -8  -4  11    1.10    1.52
   8  -4 -11    1.74    2.40
  -8   4  11    0.34    1.58
  -7  -4  11    8.90    2.79
   7  -4 -11    5.12    3.05
  -7   4  11   11.12    3.12
  -6  -4  11    3.73    1.91
   6  -4 -11    0.81    2.21
  -6   4  11    0.53    1.62
   5  -4 -11    8.60    3.29
  -5  -4  11    9.94    2.59
  -5   4  11    4.16    2.27
  -4  -4  11    4.74    1.94
   4  -4 -11    1.85    2.35
  -4  -4  11    4.75    2.25
  -4   4  11    4.92    2.06
   4   4 -11    3.82    1.74
  -3  -4  11    8.92    2.82
  -3  -4  11    8.68    2.42
   3  -4 -11    7.53    2.30
   3   4 -11   12.58    2.35
  -3   4  11    7.27    2.48
   3   4 -11   13.18    2.36
   3   4 -11   10.18    2.63
  -2  -4  11    5.70    2.31
  -2  -4  11    0.85    1.09
   2  -4 -11    3.52    1.55
   2   4 -11    1.53    1.03
  -2   4  11    1.35    1.43
  -2   4  11    6.12    1.67
   2   4 -11    4.20    1.62
   2   4 -11    2.19    1.12
  -1  -4  11    0.24    1.04
  -1  -4  11    1.74    1.60
   1  -4 -11    1.31    1.14
  -1   4  11    0.34    1.16
  -1   4  11    2.00    1.11
   1   4 -11    0.97    0.94
   1   4 -11    2.62    1.04
   1   4 -11    1.42    1.21
   0  -4  11    1.85    1.53
   0  -4 -11   -1.53    0.82
   0  -4  11    1.42    1.44
   0   4  11    1.05    1.36
   0   4 -11    0.84    0.81
   0   4 -11    2.31    1.13
   0   4  11    1.82    0.98
   0   4 -11    1.50    1.23
   1  -4  11    3.40    1.60
   1  -4  11    3.00    1.72
  -1  -4 -11    2.88    1.58
   1   4  11    1.21    1.49
   1   4  11    2.66    1.36
  -1   4 -11    2.88    1.51
  -1   4 -11    4.01    1.39
  -1   4 -11    3.62    1.27
  -2  -4 -11    0.87    1.25
   2  -4  11    2.53    1.53
   2  -4  11    2.07    1.73
  -2   4 -11    1.80    1.20
  -2   4 -11    1.89    1.34
   2   4  11    0.50    1.35
   2   4  11    2.56    1.22
   3  -4  11    0.86    1.52
   3  -4  11    4.24    2.08
  -3  -4 -11   -0.86    1.00
   3   4  11    0.60    1.43
  -3   4 -11    2.54    1.27
  -3   4 -11    1.74    1.49
   3   4  11    1.71    1.07
   4  -4  11    0.81    1.11
  -4  -4 -11    1.29    1.51
  -4   4 -11    1.96    1.50
   4   4  11    0.06    1.52
  -4   4 -11   -0.08    1.14
   4   4  11    0.05    0.98
   5  -4  11    0.07    1.18
  -5  -4 -11    4.98    2.20
  -5   4 -11    2.80    1.69
  -5   4 -11    1.85    1.60
   5   4  11    0.92    1.89
   6  -4  11    5.55    2.56
  -6  -4 -11    2.78    1.95
  -6   4 -11    5.05    1.79
   6   4  11    7.17    2.77
  -6   4 -11    7.27    2.50
  -7  -4 -11    5.15    2.48
   7  -4  11    6.51    2.68
   7   4  11    5.21    2.57
  -7   4 -11    2.70    1.98
  -8  -4 -11    6.17    2.77
   8  -4  11    9.94    3.49
  -8   4 -11    3.81    2.26
   8   4  11    6.33    3.10
  -8  -5  11    0.73    1.66
   8  -5 -11    1.37    2.32
  -8   5  11    1.28    1.68
   7  -5 -11   -1.39    1.78
  -7  -5  11    0.64    1.34
  -7   5  11   -1.75    1.22
  -6  -5  11    1.25    1.46
   6  -5 -11    0.13    2.07
  -6   5  11    1.07    1.67
   5  -5 -11   -2.41    2.00
  -5  -5  11    1.74    1.44
  -5   5  11   -0.34    1.32
   4  -5 -11   -0.39    2.53
  -4  -5  11   -0.30    1.07
  -4   5  11    1.30    1.48
   4   5 -11    0.93    0.98
   3  -5 -11    2.57    2.35
   3  -5 -11    6.71    2.16
  -3  -5  11    7.24    2.04
  -3  -5  11    5.42    2.22
   3   5 -11    5.86    1.64
  -3   5  11    4.62    1.66
   3   5 -11    6.00    1.50
  -3   5  11    6.53    2.29
  -2  -5  11    1.63    1.59
   2  -5 -11    0.12    2.00
   2  -5 -11   -1.10    1.00
  -2  -5  11   -0.41    0.87
   2   5 -11    1.06    0.84
  -2   5  11    1.44    1.46
   2   5 -11    0.02    0.91
  -2   5  11    0.63    1.02
   1  -5 -11    5.53    3.00
   1  -5 -11    5.35    2.06
  -1  -5  11    6.54    2.10
  -1  -5  11   10.25    2.70
   1   5 -11   10.56    2.04
  -1   5  11    7.67    2.45
  -1   5  11    8.89    2.09
   1   5 -11    9.87    2.08
   0  -5  11   15.44    3.39
   0  -5  11   19.57    3.81
   0  -5 -11   19.75    3.68
   0  -5 -11    5.78    3.06
   0   5 -11   18.41    2.85
   0   5  11   24.03    3.42
   0   5 -11   22.17    3.11
   0   5  11   13.12    3.25
  -1  -5 -11    0.51    1.45
   1  -5  11    3.19    1.81
   1  -5  11    3.87    1.95
  -1  -5 -11    3.02    2.69
  -1   5 -11    2.05    1.12
  -1   5 -11    3.84    1.96
   1   5  11    2.13    1.20
   1   5  11    2.23    1.56
  -1   5 -11    5.32    1.64
   2  -5  11   24.03    4.06
   2  -5  11   17.77    3.65
  -2  -5 -11    7.65    3.41
  -2  -5 -11   19.78    3.76
  -2   5 -11   18.82    3.54
  -2   5 -11   31.12    3.87
   2   5  11   22.68    4.38
   2   5  11   34.38    4.37
   3  -5  11    0.52    1.18
  -3  -5 -11    6.27    3.26
  -3  -5 -11    2.64    1.63
   3   5  11    3.40    1.74
  -3   5 -11    1.86    1.13
  -3   5 -11    2.52    1.61
   3   5  11    3.47    1.80
   4  -5  11   18.42    3.96
  -4  -5 -11   17.85    3.99
   4   5  11   33.89    4.35
  -4   5 -11   32.07    4.41
   4   5  11   23.49    4.82
   5  -5  11    0.35    1.40
  -5  -5 -11    0.71    1.40
  -5  -5 -11   -0.71    2.08
   5   5  11    1.34    1.31
  -5   5 -11    1.01    1.29
   5   5  11    2.09    1.97
  -6  -5 -11   15.08    3.59
   6  -5  11    9.60    2.88
  -6   5 -11   11.61    2.47
   6   5  11   11.18    3.42
   7  -5  11    2.92    1.87
  -7  -5 -11    2.96    1.83
   7   5  11    0.87    1.71
   7  -6 -11    1.84    2.43
  -7  -6  11    3.04    1.78
  -7   6  11    0.06    1.65
   6  -6 -11    3.71    2.59
  -6  -6  11    7.45    2.33
  -6   6  11    7.45    2.70
   5  -6 -11    0.01    2.12
  -5  -6  11    1.17    1.29
  -5   6  11    3.62    2.12
   5   6 -11    1.84    1.16
  -4  -6  11    7.60    2.31
   4  -6 -11    6.23    3.03
   4   6 -11   10.09    2.14
  -4   6  11   13.31    3.30
   3  -6 -11    1.48    1.52
  -3  -6  11    1.82    1.56
   3  -6 -11   -0.47    2.33
  -3  -6  11    1.03    1.13
  -3   6  11    0.40    1.38
   3   6 -11    2.16    1.08
  -3   6  11    2.29    1.32
   3   6 -11    1.73    1.09
   2  -6 -11   10.31    3.54
  -2  -6  11   12.63    3.13
  -2  -6  11    8.00    2.13
   2  -6 -11   12.94    3.01
  -2   6  11   16.55    2.85
   2   6 -11   14.10    2.38
  -2   6  11    7.35    2.45
   2   6 -11   10.84    2.16
  -1  -6  11    0.74    1.13
   1  -6 -11    0.14    1.02
  -1  -6  11    1.39    1.43
   1  -6 -11    3.25    2.95
  -1   6  11    0.41    1.35
   1   6 -11    1.64    0.88
   1   6 -11   -0.49    0.74
  -1   6  11    1.15    1.20
   0  -6  11    0.62    1.03
   0  -6 -11   -0.78    2.55
   0  -6  11    1.05    1.27
   0  -6 -11   -0.48    1.15
   0   6 -11    0.96    0.90
   0   6 -11    0.79    0.92
   0   6  11    0.91    1.46
   0   6  11    0.41    1.07
  -1  -6 -11    1.70    1.29
   1  -6  11    2.75    1.49
  -1  -6 -11    0.50    2.54
   1  -6  11    0.57    1.13
   1   6  11    1.29    1.31
  -1   6 -11    1.15    0.97
   1   6  11    1.72    1.14
  -1   6 -11    0.62    0.94
   2  -6  11    2.44    1.56
  -2  -6 -11   -0.19    2.17
  -2  -6 -11    0.12    1.16
   2   6  11    1.29    1.50
  -2   6 -11    0.88    0.86
  -2   6 -11   -0.24    0.84
   2   6  11    0.87    0.88
   3  -6  11    1.48    1.31
  -3  -6 -11   -0.18    1.34
  -3  -6 -11    0.75    2.07
   3   6  11    2.10    1.34
   3   6  11    3.18    1.82
  -3   6 -11    1.01    1.04
  -4  -6 -11   -0.40    1.30
  -4  -6 -11    1.40    2.06
   4  -6  11    1.42    1.62
  -4   6 -11    0.28    0.99
   4   6  11   -0.87    1.52
   4   6  11    0.58    1.12
  -5  -6 -11    0.34    1.41
  -5  -6 -11   -0.33    1.91
   5  -6  11    0.68    1.26
   5   6  11    1.55    1.81
  -5   6 -11    0.62    1.18
   5   6  11    2.23    1.44
  -6  -6 -11    5.54    2.25
   6  -6  11    5.68    2.39
  -6   6 -11    5.16    2.08
  -6  -7  11   -0.24    1.01
   6  -7 -11    2.02    2.44
  -6   7  11    1.05    2.17
  -5  -7  11    2.46    1.46
   5  -7 -11    1.46    2.63
   5   7 -11    1.79    1.13
  -5   7  11    1.99    1.81
  -4  -7  11    2.11    1.30
   4  -7 -11   -0.10    1.77
   4  -7 -11    1.55    1.50
  -4   7  11    1.26    1.33
   4   7 -11    2.68    1.21
  -4   7  11    2.00    1.87
  -3  -7  11   -0.03    0.81
   3  -7 -11   -0.07    2.09
   3  -7 -11    0.67    1.25
  -3   7  11   -0.46    1.02
   3   7 -11   -0.03    0.68
  -3   7  11    1.61    1.70
   3   7 -11   -0.13    0.86
   2  -7 -11    8.76    3.34
   2  -7 -11    4.94    2.03
  -2  -7  11    8.87    2.42
  -2  -7  11    6.50    2.33
  -2   7  11    9.17    2.32
  -2   7  11    7.48    2.58
   2   7 -11    7.40    1.88
   2   7 -11   10.05    2.12
   1  -7 -11    1.95    2.26
  -1  -7  11    5.04    1.98
   1  -7 -11    5.52    2.03
  -1  -7  11    0.37    1.05
  -1   7  11    3.57    1.85
   1   7 -11    5.71    1.50
   1   7 -11    5.73    1.55
  -1   7  11    5.42    1.79
   0  -7  11    1.23    1.42
   0  -7  11    5.38    1.89
   0  -7 -11    1.49    1.42
   0  -7 -11    2.03    2.30
   0   7  11    2.80    1.46
   0   7 -11    2.73    1.19
   0   7 -11    2.98    1.24
   0   7  11    3.10    2.04
  -1  -7 -11    3.53    2.34
  -1  -7 -11    1.25    1.32
   1  -7  11    0.74    1.13
   1   7  11    6.83    2.47
  -1   7 -11    4.15    1.40
   1   7  11    4.15    1.42
  -1   7 -11    3.55    1.16
  -2  -7 -11    8.95    2.96
   2  -7  11    6.36    2.34
  -2  -7 -11    4.83    2.03
   2   7  11    6.32    2.04
  -2   7 -11    7.31    1.87
  -2   7 -11    8.52    1.93
  -3  -7 -11   11.04    2.91
  -3  -7 -11    7.31    2.61
   3  -7  11   10.09    2.80
  -3   7 -11   16.89    3.04
   3   7  11   13.34    2.81
  -4  -7 -11    3.89    1.94
  -4  -7 -11    1.27    1.93
   4  -7  11    3.02    1.76
  -4   7 -11    5.14    1.76
   4   7  11    6.29    1.95
  -5  -7 -11    2.03    1.79
   5  -7  11    2.19    1.74
   5   7  11    3.12    1.60
  -5   7 -11    1.95    1.53
  -6  -7 -11    2.50    1.84
   6  -7  11    5.43    2.41
  -6   7 -11    5.76    2.05
   6   7  11    7.21    2.20
   5  -8 -11    7.21    3.27
  -5  -8  11    6.24    2.09
   5   8 -11   12.49    2.36
   4  -8 -11   -0.87    2.05
  -4  -8  11    0.09    0.76
   4  -8 -11    0.05    1.14
   4   8 -11    0.50    0.95
  -4   8  11    0.42    1.16
   3  -8 -11    5.61    2.25
  -3  -8  11    6.72    2.16
   3  -8 -11    6.81    3.37
   3   8 -11    8.71    1.80
   3   8 -11    6.51    1.71
  -3   8  11    5.58    1.88
   2  -8 -11    1.05    1.31
   2  -8 -11    1.87    2.54
  -2  -8  11    1.30    1.71
  -2  -8  11    0.08    0.93
   2   8 -11    0.64    0.88
  -2   8  11    1.79    1.27
   2   8 -11    0.31    0.82
   1  -8 -11    4.74    2.82
   1  -8 -11    0.67    1.40
  -1  -8  11    1.22    1.44
  -1  -8  11    0.74    1.27
   1   8 -11    2.30    1.21
  -1   8  11    1.12    1.26
   1   8 -11    1.86    1.13
   0  -8 -11    1.37    1.34
   0  -8  11    1.03    1.08
   0  -8 -11    3.04    2.47
   0   8 -11    1.01    1.04
   0   8  11    0.10    1.03
   0   8 -11    0.00    0.72
   1  -8  11    3.10    1.63
  -1  -8 -11    1.66    1.62
  -1  -8 -11    3.24    2.63
   1   8  11    5.77    1.58
  -1   8 -11    3.48    1.43
  -1   8 -11    2.94    1.30
  -2  -8 -11   -0.26    1.84
   2  -8  11    1.16    1.19
  -2  -8 -11    1.05    1.23
  -2   8 -11   -0.63    0.78
  -2   8 -11    1.08    1.06
   2   8  11    0.72    1.18
  -3  -8 -11    0.98    1.32
  -3  -8 -11    2.88    2.10
   3  -8  11    0.55    1.22
   3   8  11   -0.49    0.96
  -3   8 -11    0.13    1.14
  -4  -8 -11    0.20    1.44
  -4  -8 -11   -0.39    1.65
   4  -8  11    0.60    1.31
   4   8  11    1.01    1.28
  -4   8 -11    1.12    1.21
   5  -8  11    3.30    1.84
  -5  -8 -11    3.88    1.93
  -5   8 -11    4.30    1.81
   5   8  11    4.24    1.79
   4  -9 -11    1.72    1.58
  -4  -9  11    1.42    1.20
   3  -9 -11    3.13    1.75
  -3  -9  11    1.01    1.18
   3  -9 -11    3.08    2.84
  -3   9  11    3.68    1.70
   3   9 -11    2.32    1.20
   3   9 -11    2.36    1.32
   2  -9 -11    7.59    3.37
  -2  -9  11    3.61    1.54
   2  -9 -11    1.08    1.36
   2   9 -11    2.29    1.09
  -2   9  11    2.19    1.36
   2   9 -11    4.21    1.39
   1  -9 -11    2.94    1.68
   1  -9 -11    4.19    2.62
  -1  -9  11    3.51    1.49
  -1   9  11    2.68    1.54
   1   9 -11    5.21    1.55
   1   9 -11    4.13    1.44
   0  -9 -11    1.71    2.09
   0  -9 -11    1.33    1.40
   0  -9  11    0.27    1.05
   0   9 -11    1.64    1.12
   0   9 -11    1.10    0.88
   0   9  11    1.59    1.35
   1  -9  11    9.68    2.50
  -1  -9 -11    7.29    2.96
  -1  -9 -11   10.50    2.86
  -1   9 -11   14.78    2.58
  -1   9 -11   11.00    2.36
   1   9  11   12.69    2.64
  -2  -9 -11    0.70    1.41
   2  -9  11    1.78    1.35
  -2  -9 -11    2.11    2.14
  -2   9 -11    2.90    1.38
  -2   9 -11    1.78    1.22
   2   9  11    0.71    1.21
  -3  -9 -11    1.95    1.71
  -3  -9 -11    2.51    2.33
   3  -9  11    5.73    2.12
  -3   9 -11    4.97    1.74
   3   9  11    5.50    1.94
  -8   0  12    4.36    2.33
  -7   0  12    0.25    1.45
  -6   0  12    9.80    2.99
  -5   0  12    4.18    2.17
  -4   0  12   11.36    3.11
   4   0 -12   12.63    2.92
  -3   0  12    0.28    1.19
  -3   0  12    4.04    3.23
   3   0 -12    2.12    1.38
  -2   0  12    5.20    2.06
  -2   0  12    3.77    3.25
   2   0 -12    4.28    1.88
   2   0 -12    5.72    1.76
   1   0 -12   -0.40    0.76
   1   0 -12    0.00    1.09
  -1   0  12   -0.36    1.06
   0   0  12    2.49    1.54
   0   0 -12    3.88    1.80
   1   0  12    1.13    1.55
  -1   0 -12    1.57    1.16
   2   0  12    0.02    1.31
  -2   0 -12   -0.42    0.92
   3   0  12    1.11    1.62
  -3   0 -12    0.95    1.39
   4   0  12    0.82    1.43
  -4   0 -12    0.03    1.21
  -5   0 -12    1.82    1.69
   5   0  12   -0.04    1.34
   6   0  12    6.27    2.57
  -6   0 -12    4.31    2.23
   7   0  12    1.70    2.06
  -7   0 -12   -0.86    1.38
  -8  -1  12    1.24    1.77
   8  -1 -12   -2.82    2.14
  -8   1  12    0.28    1.78
  -7  -1  12   -0.94    1.32
  -7   1  12    2.12    1.88
  -6  -1  12    2.32    1.72
  -6   1  12    1.85    1.84
  -5  -1  12    1.20    1.55
  -5   1  12   -0.07    1.40
  -4  -1  12    1.43    1.53
   4  -1 -12    0.59    1.38
  -4   1  12    2.58    1.66
   4   1 -12    2.26    1.68
   4   1 -12    3.19    1.21
   3  -1 -12    4.38    1.78
  -3  -1  12    3.76    1.92
  -3  -1  12    4.88    2.56
   3   1 -12    4.41    1.83
   3   1 -12    5.70    1.64
  -3   1  12    5.28    2.17
   2  -1 -12    3.19    1.67
  -2  -1  12    2.75    1.72
  -2  -1  12   12.12    4.15
   2   1 -12    7.42    1.72
  -2   1  12    2.87    1.69
   2   1 -12    4.15    1.94
  -1  -1  12    7.10    3.61
  -1  -1  12    5.26    2.18
   1  -1 -12    1.75    1.38
   1   1 -12    3.62    1.79
  -1   1  12    4.03    2.00
   1   1 -12    6.89    1.89
   0  -1  12    7.72    2.37
   0  -1 -12    7.57    2.26
   0   1  12    7.95    2.49
   0   1 -12   10.24    2.47
   0   1 -12   11.82    2.44
  -1  -1 -12    1.62    1.37
   1  -1  12    1.20    1.47
  -1   1 -12    2.04    1.29
  -1   1 -12    0.27    1.08
   1   1  12    3.15    1.73
   2  -1  12    8.64    2.66
  -2  -1 -12   10.74    2.81
   2   1  12    6.06    2.25
  -2   1 -12    7.18    2.34
  -2   1 -12    9.23    2.24
  -3  -1 -12    9.63    2.67
   3  -1  12    7.80    2.80
   3   1  12   11.39    3.25
  -3   1 -12   10.57    2.80
  -4  -1 -12   12.22    3.08
   4  -1  12   12.43    3.27
  -4   1 -12   17.92    3.79
   4   1  12    9.08    2.96
  -5  -1 -12    4.19    2.07
   5  -1  12    5.58    2.31
   5   1  12    3.92    2.17
  -5   1 -12    6.53    2.38
   6  -1  12    4.67    2.23
  -6  -1 -12    8.29    2.77
  -6   1 -12    8.68    2.86
   6   1  12    1.98    2.03
  -7  -1 -12    2.80    2.02
   7  -1  12    4.65    2.45
   7   1  12    6.14    2.75
  -7   1 -12    3.67    1.97
  -8  -2  12    5.88    2.61
   8  -2 -12   -0.80    2.29
  -8   2  12    0.37    1.70
  -7  -2  12    2.62    2.07
   7  -2 -12    0.57    2.36
  -7   2  12    3.29    2.06
  -6  -2  12    3.85    1.96
  -6   2  12    2.64    1.98
  -5  -2  12    8.71    2.73
  -5   2  12    8.53    2.63
   4  -2 -12    0.82    1.27
  -4  -2  12    1.76    1.56
   4   2 -12    1.71    1.35
   4   2 -12    2.71    1.37
  -4   2  12    1.65    1.66
  -3  -2  12    9.24    2.76
  -3  -2  12    9.01    3.13
   3  -2 -12    9.25    2.68
   3   2 -12    9.73    2.19
  -3   2  12    6.61    2.38
   3   2 -12    8.35    2.55
   2  -2 -12    1.79    1.52
  -2  -2  12    3.30    1.60
  -2  -2  12    4.30    2.46
  -2   2  12    1.99    1.73
   2   2 -12    5.05    1.59
   2   2 -12    2.52    1.45
   1  -2 -12    6.15    1.96
  -1  -2  12    3.82    1.72
  -1  -2  12   13.75    3.95
   1   2 -12    4.49    1.88
  -1   2  12    8.15    2.49
   1   2 -12    7.73    1.71
   0  -2  12   -0.50    2.02
   0  -2  12    0.20    1.20
   0  -2 -12   -0.66    1.00
   0   2 -12   -0.14    0.97
   0   2 -12    0.92    1.04
   0   2  12    0.34    1.20
  -1  -2 -12    0.01    1.00
   1  -2  12    3.19    2.78
   1  -2  12    1.09    1.34
   1   2  12    0.62    1.03
  -1   2 -12    0.83    0.98
  -1   2 -12    0.18    1.19
   2  -2  12    1.41    1.61
  -2  -2 -12    1.74    1.50
   2   2  12    1.86    1.67
  -2   2 -12    0.84    1.05
  -2   2 -12    1.58    1.50
   3  -2  12    1.02    1.41
  -3  -2 -12    0.94    1.57
   3   2  12    0.58    1.23
  -3   2 -12    1.29    1.22
  -3   2 -12   -0.43    0.92
  -4  -2 -12    3.70    1.88
   4  -2  12    5.77    2.61
  -4   2 -12    2.50    1.69
   4   2  12    2.41    1.90
  -5  -2 -12    2.56    1.73
   5  -2  12    0.35    1.33
  -5   2 -12    4.90    1.98
   5   2  12    6.65    2.66
   6  -2  12    0.14    1.35
  -6  -2 -12    2.66    1.82
   6   2  12    1.28    1.72
  -6   2 -12    1.17    1.50
   7  -2  12    1.82    2.05
  -7  -2 -12   -0.27    1.56
   7   2  12   -0.80    1.53
  -7   2 -12    1.68    1.81
  -8  -3  12    1.31    1.91
  -8   3  12    0.37    1.70
  -7  -3  12    0.03    1.35
   7  -3 -12    0.11    2.40
  -7   3  12    0.52    1.70
   6  -3 -12   -0.87    2.35
  -6  -3  12   -0.17    1.07
  -6   3  12    1.13    1.86
  -5  -3  12    0.23    1.35
   5   3 -12    0.45    1.33
  -5   3  12    0.99    1.38
   4  -3 -12    0.09    1.17
  -4  -3  12    3.39    1.74
  -4   3  12    2.09    1.80
   4   3 -12    2.75    1.54
  -3  -3  12    0.16    1.23
   3  -3 -12    0.99    1.34
   3   3 -12    0.53    0.90
   3   3 -12    0.75    1.22
  -3   3  12    0.44    1.53
   2  -3 -12    2.08    1.42
  -2  -3  12    0.43    1.20
  -2  -3  12    1.00    1.66
   2   3 -12    1.54    1.13
   2   3 -12    2.11    1.41
  -2   3  12    3.17    1.82
   1  -3 -12    8.54    2.40
  -1  -3  12    6.25    2.40
  -1   3  12   10.04    2.98
   1   3 -12   10.76    2.56
   1   3 -12   11.19    2.35
   0  -3  12    4.73    2.16
   0  -3  12    8.80    2.61
   0  -3 -12    5.79    2.12
   0   3 -12    7.62    2.23
   0   3  12    7.08    2.50
   0   3 -12    8.91    2.10
   1  -3  12   32.47    5.40
   1  -3  12   25.39    5.07
  -1  -3 -12   24.47    4.49
   1   3  12   17.75    3.94
  -1   3 -12   34.11    4.97
  -1   3 -12   31.66    4.35
  -2  -3 -12    1.93    1.70
   2  -3  12    0.67    1.54
   2  -3  12    0.50    2.17
  -2   3 -12    2.13    1.49
  -2   3 -12    2.09    1.37
   2   3  12    1.50    1.77
   3  -3  12   23.96    4.69
  -3  -3 -12   17.26    3.68
  -3   3 -12   18.86    3.20
   3   3  12   16.41    3.79
  -3   3 -12   18.74    3.94
  -4  -3 -12    2.34    1.72
   4  -3  12    1.67    1.56
  -4   3 -12    2.57    1.59
   4   3  12    2.93    2.19
  -4   3 -12    0.47    1.22
  -5  -3 -12   16.29    3.83
   5  -3  12   23.01    4.70
   5   3  12   15.11    4.00
  -5   3 -12   19.21    3.87
   6  -3  12   -0.20    1.27
  -6  -3 -12    2.78    1.82
  -6   3 -12    2.38    1.81
   6   3  12    1.76    1.78
   7  -3  12    5.21    2.47
  -7  -3 -12    2.52    2.10
  -7   3 -12    6.83    2.76
   7   3  12    4.90    2.37
   7  -4 -12    0.50    2.47
  -7  -4  12    1.09    1.49
  -7   4  12   -0.67    1.54
  -6  -4  12    6.12    2.40
   6  -4 -12    0.91    2.39
  -6   4  12    7.87    2.90
  -5  -4  12    3.45    2.12
   5  -4 -12    1.65    2.57
  -5   4  12    3.83    2.00
  -4  -4  12    8.24    2.52
   4  -4 -12    6.99    2.36
   4  -4 -12    7.97    3.43
  -4   4  12   14.10    3.44
   3  -4 -12    1.37    1.44
  -3  -4  12    1.17    1.22
  -3   4  12    0.47    1.44
   3   4 -12    0.50    0.90
   2  -4 -12    0.09    1.14
  -2  -4  12    1.77    1.24
  -2  -4  12    5.79    2.44
   2   4 -12    2.84    1.30
  -2   4  12   -0.12    1.24
  -1  -4  12    2.07    1.32
  -1  -4  12    7.89    2.77
   1  -4 -12    2.32    1.38
   1   4 -12    6.32    1.81
   1   4 -12    8.38    2.45
  -1   4  12    4.37    2.06
   0  -4  12    0.93    1.35
   0  -4  12    2.42    1.92
   0  -4 -12    0.66    1.26
   0   4 -12    1.22    1.13
   0   4 -12    0.29    1.20
   0   4  12    1.78    1.61
  -1  -4 -12    1.29    1.45
   1  -4  12    0.95    1.32
   1  -4  12    1.65    1.75
  -1   4 -12    2.73    1.63
  -1   4 -12    0.78    0.93
   1   4  12   -0.07    1.11
   2  -4  12   -0.69    1.33
  -2  -4 -12   -0.72    0.98
   2  -4  12    0.92    1.42
   2   4  12    0.30    1.57
  -2   4 -12    0.07    1.23
  -2   4 -12    0.27    0.89
   3  -4  12    0.90    1.55
  -3  -4 -12    1.61    1.48
  -3   4 -12    0.09    1.31
  -3   4 -12   -0.25    1.11
   3   4  12   -0.18    1.21
   4  -4  12    2.01    1.65
  -4  -4 -12    5.00    2.14
   4   4  12    4.02    2.37
  -4   4 -12    2.78    1.72
  -4   4 -12    3.34    1.61
  -5  -4 -12    2.24    1.93
   5  -4  12    4.37    2.15
   5   4  12    3.06    2.33
  -5   4 -12    3.56    2.03
  -6  -4 -12   -0.11    1.47
   6  -4  12    0.31    1.62
  -6   4 -12    0.69    1.45
   6   4  12    1.20    1.60
  -7  -5  12   -0.06    1.56
  -7   5  12   -0.36    1.57
   6  -5 -12    0.92    2.28
  -6  -5  12    0.32    1.49
  -6   5  12   -0.44    1.75
  -5  -5  12   -0.93    0.90
   5  -5 -12    1.23    2.53
  -5   5  12    1.14    1.56
   4  -5 -12    2.08    1.54
  -4  -5  12    0.28    1.24
   4  -5 -12    0.84    2.56
  -4   5  12    0.74    1.62
  -3  -5  12    1.56    1.29
   3  -5 -12    4.08    1.87
   3  -5 -12   -0.18    2.41
  -3   5  12    3.16    1.97
   3   5 -12    1.75    1.10
   2  -5 -12    0.21    1.28
   2  -5 -12    0.47    2.56
  -2  -5  12    1.54    1.16
  -2  -5  12    1.60    1.78
   2   5 -12    3.06    1.39
  -2   5  12    1.59    1.58
   1  -5 -12   -0.30    1.03
  -1  -5  12   -0.52    1.19
   1  -5 -12    1.17    2.67
  -1  -5  12    2.39    1.67
  -1   5  12    2.07    1.75
   1   5 -12    1.41    1.14
   0  -5  12    4.35    2.17
   0  -5 -12    1.63    2.63
   0  -5 -12   -0.22    1.23
   0  -5  12    2.43    1.73
   0   5  12    3.17    1.96
   0   5 -12    4.96    1.58
   1  -5  12    1.63    1.65
   1  -5  12    0.40    1.46
  -1  -5 -12   -0.41    2.31
  -1  -5 -12    1.34    1.25
   1   5  12    0.55    1.40
  -1   5 -12    3.45    1.44
  -2  -5 -12    6.22    3.33
   2  -5  12   22.78    4.40
  -2  -5 -12   19.79    3.74
   2   5  12   16.23    3.78
  -2   5 -12   22.69    3.37
   3  -5  12    4.68    2.16
  -3  -5 -12    2.31    1.76
  -3  -5 -12    1.77    2.69
  -3   5 -12    5.12    1.87
   3   5  12    3.41    2.23
   4  -5  12   11.14    3.10
  -4  -5 -12    2.28    2.91
  -4  -5 -12    8.59    2.78
   4   5  12   13.45    3.61
  -4   5 -12   11.89    2.53
  -5  -5 -12    1.95    1.95
   5  -5  12    2.90    2.01
  -5  -5 -12   -0.16    2.68
   5   5  12   -1.04    1.63
  -5   5 -12   -0.01    1.17
  -6  -5 -12    8.66    2.86
   6  -5  12   12.07    3.46
   6   5  12    8.81    3.21
  -6  -6  12    3.22    1.76
   6  -6 -12    2.27    2.81
  -6   6  12    5.77    3.02
  -5  -6  12    0.12    1.09
   5  -6 -12   -1.21    2.00
  -5   6  12    2.25    1.90
   4  -6 -12    2.81    2.91
   4  -6 -12    5.67    2.17
  -4  -6  12    4.00    1.77
   4   6 -12    5.17    1.72
  -4   6  12    4.22    2.34
   3  -6 -12    2.17    2.77
  -3  -6  12   -1.04    0.82
   3  -6 -12    2.30    1.55
  -3   6  12    0.08    1.44
   3   6 -12    0.54    1.08
  -2  -6  12    1.06    1.26
   2  -6 -12    2.63    1.65
   2  -6 -12   -0.04    2.42
  -2   6  12    2.32    1.90
   2   6 -12    1.28    1.01
   1  -6 -12    1.67    1.49
  -1  -6  12    0.68    1.40
  -1  -6  12    2.01    1.43
   1  -6 -12    1.23    2.59
  -1   6  12    0.72    1.63
   1   6 -12    0.73    0.93
   0  -6 -12    0.66    2.48
   0  -6  12    1.14    1.48
   0  -6 -12    3.07    1.69
   0  -6  12    1.71    1.45
   0   6  12    0.36    0.98
   0   6  12    1.68    1.99
   0   6 -12    2.30    1.23
   1  -6  12    1.82    1.37
  -1  -6 -12    1.81    2.71
  -1  -6 -12    2.36    1.51
  -1   6 -12    2.79    1.43
   1   6  12    2.80    1.49
   1   6  12    2.22    1.94
  -2  -6 -12    0.47    1.20
  -2  -6 -12   -1.48    2.17
   2  -6  12    1.07    1.29
   2   6  12   -1.31    1.01
  -2   6 -12    1.13    1.07
   2   6  12    0.87    1.49
  -3  -6 -12    1.76    2.53
  -3  -6 -12    2.56    1.72
   3  -6  12    1.02    1.42
   3   6  12   -0.57    1.57
  -3   6 -12    0.78    1.13
  -4  -6 -12    1.47    2.31
   4  -6  12    1.38    1.54
  -4  -6 -12    2.21    1.67
   4   6  12    2.03    1.97
  -4   6 -12    2.45    1.31
   5  -6  12    0.85    1.58
  -5  -6 -12   -0.88    1.55
  -5   6 -12   -0.83    1.06
  -5  -7  12   -0.25    1.04
   5  -7 -12   -0.30    1.35
  -5   7  12   -1.26    1.63
  -4  -7  12    1.12    1.26
   4  -7 -12    2.44    2.73
   4  -7 -12    0.95    1.51
  -4   7  12    0.11    1.73
   4   7 -12    0.14    1.01
  -3  -7  12    0.17    1.01
   3  -7 -12    0.82    2.55
   3  -7 -12    2.51    1.82
   3   7 -12   -0.26    0.91
   3   7 -12    0.65    1.07
  -3   7  12    1.81    1.75
  -2  -7  12    0.73    1.20
   2  -7 -12    2.22    2.53
   2  -7 -12    1.48    1.61
  -2   7  12    1.81    1.96
   2   7 -12    0.88    1.02
   2   7 -12    1.34    1.21
  -1  -7  12    1.52    1.61
  -1  -7  12    0.72    1.25
   1  -7 -12    2.05    1.83
   1  -7 -12   -0.44    2.33
  -1   7  12    0.48    1.71
  -1   7  12    4.33    1.70
   1   7 -12    5.15    1.67
   1   7 -12    3.31    1.62
   0  -7 -12    3.66    2.74
   0  -7  12    3.07    1.69
   0  -7 -12    2.50    1.69
   0   7  12    4.44    1.65
   0   7 -12    4.21    1.51
  -1  -7 -12    3.13    2.49
  -1  -7 -12    6.71    2.29
   1  -7  12    7.93    2.48
   1   7  12    9.02    2.39
  -1   7 -12   12.08    2.38
  -2  -7 -12    4.56    2.83
  -2  -7 -12    6.47    2.46
   2  -7  12    4.56    2.04
   2   7  12    8.98    2.34
  -2   7 -12   13.81    2.65
   3  -7  12    2.30    1.77
  -3  -7 -12    0.04    1.80
  -3  -7 -12    6.85    2.48
  -3   7 -12    4.99    1.91
   3   7  12   10.38    2.60
  -4  -7 -12    1.20    1.70
  -4  -7 -12    1.60    2.27
   4  -7  12    1.84    1.71
  -4   7 -12    2.19    1.50
   3  -8 -12    5.92    2.40
   3  -8 -12    3.58    3.36
  -3  -8  12    4.70    1.83
   3   8 -12    7.22    2.04
   3   8 -12    4.11    1.40
   2  -8 -12   -1.27    1.01
  -2  -8  12    1.13    1.21
   2  -8 -12    0.75    2.44
   2   8 -12    0.88    1.17
   2   8 -12    1.05    1.05
  -1  -8  12    4.70    1.96
   1  -8 -12    1.99    2.78
   1  -8 -12    3.19    1.89
   1   8 -12    6.27    1.83
  -1   8  12    5.84    1.89
   1   8 -12    8.60    2.00
   0  -8 -12    1.84    2.46
   0  -8  12    1.84    1.40
   0  -8 -12    1.61    1.73
   0   8  12    2.73    1.62
   0   8 -12    3.09    1.41
   0   8 -12    2.11    1.31
  -1  -8 -12   -0.05    2.14
  -1  -8 -12   -1.28    1.21
   1  -8  12    0.22    1.02
   1   8  12    0.74    1.27
  -1   8 -12    0.37    0.98
   2  -8  12   -0.56    1.07
  -2  -8 -12    1.29    1.66
  -2  -8 -12    1.03    2.23
  -2   8 -12    0.27    1.22
   2   8  12    0.72    1.12
  -7   0  13   -0.13    1.39
  -6   0  13    9.70    3.36
   5   0 -13    0.03    1.38
  -5   0  13   -1.18    1.08
   4   0 -13    7.42    2.57
  -4   0  13   12.10    3.15
   3   0 -13    0.98    1.38
  -3   0  13    1.01    1.33
  -2   0  13   10.90    3.02
   2   0 -13    3.03    1.71
  -1   0  13    4.04    2.17
   1   0 -13    2.68    1.58
   0   0 -13    0.05    1.31
   0   0  13    0.51    1.08
  -1   0 -13    8.97    2.66
   1   0  13    6.20    2.51
  -2   0 -13    2.61    1.79
   2   0  13    3.11    2.07
   3   0  13    0.75    1.73
  -3   0 -13    1.42    1.59
   4   0  13    2.30    2.03
  -4   0 -13    3.31    1.94
  -5   0 -13   -0.02    1.34
   5   0  13   -1.16    1.20
  -6   0 -13    0.46    1.50
   6   0  13    1.40    1.75
  -7  -1  13    2.66    1.81
  -7   1  13   -0.22    1.64
  -6  -1  13    1.21    1.93
  -6   1  13    1.28    1.82
  -5  -1  13   -1.30    1.11
  -5   1  13    1.29    1.50
   5   1 -13    0.88    1.39
  -4  -1  13    1.01    1.35
   4  -1 -13    0.20    1.32
  -4   1  13    2.63    1.94
   4   1 -13    1.30    1.43
  -3  -1  13    0.96    1.42
   3  -1 -13    1.97    1.53
  -3   1  13    2.16    1.77
   3   1 -13    1.71    1.49
   2  -1 -13   -0.52    1.11
  -2  -1  13    1.36    1.41
   2   1 -13    1.77    1.36
  -2   1  13   -0.71    1.34
  -1  -1  13    2.23    1.59
   1  -1 -13    3.16    1.81
   1   1 -13    3.35    1.73
  -1   1  13    4.35    2.17
   0  -1 -13    4.85    1.83
   0  -1  13    4.50    2.10
   0  -1  13    3.19    3.13
   0   1  13    3.90    2.07
   0   1 -13    6.92    2.34
  -1  -1 -13    2.71    1.60
   1  -1  13    1.81    1.88
   1   1  13    6.91    2.80
  -1   1 -13    4.41    2.23
  -2  -1 -13   14.60    3.24
   2  -1  13    6.72    2.56
  -2   1 -13   15.39    3.33
   2   1  13   14.14    3.60
  -3  -1 -13    5.46    2.25
   3  -1  13    2.88    1.98
  -3   1 -13    3.86    2.21
   3   1  13    5.55    2.43
  -4  -1 -13    9.46    2.90
   4  -1  13    7.51    2.75
   4   1  13    9.98    3.02
  -4   1 -13    5.40    2.38
   5  -1  13    1.69    1.95
  -5  -1 -13    1.41    1.82
  -5   1 -13   -0.12    1.27
   5   1  13    4.78    2.32
  -6  -1 -13    7.03    2.57
   6  -1  13    7.17    2.93
  -6   1 -13    4.40    2.32
   6   1  13    4.68    2.52
  -6  -2  13    2.23    2.02
  -6   2  13    2.60    1.99
  -5  -2  13   13.17    3.37
  -5   2  13   12.13    3.33
   5   2 -13   14.31    3.34
   4  -2 -13    0.39    1.49
  -4  -2  13    0.10    1.32
   4   2 -13   -0.45    1.28
  -4   2  13   -1.18    1.13
   3  -2 -13    4.69    2.13
  -3  -2  13    1.90    1.69
   3   2 -13    1.61    1.26
   3   2 -13    1.55    1.66
  -3   2  13    2.28    1.71
   2  -2 -13    4.66    1.88
  -2  -2  13    5.89    2.31
   2   2 -13    6.87    2.03
   2   2 -13    4.18    2.05
  -2   2  13    5.11    2.31
   1  -2 -13   -0.10    1.22
  -1  -2  13    0.69    1.42
   1   2 -13   -0.18    0.91
   1   2 -13    1.03    1.41
  -1   2  13    0.22    1.19
   0  -2  13    4.75    3.10
   0  -2 -13    6.34    2.28
   0  -2  13    6.16    2.30
   0   2  13    6.19    2.55
   0   2 -13    8.41    2.06
   0   2 -13    2.59    1.68
  -1  -2 -13    1.89    1.41
   1  -2  13    2.04    1.74
   1  -2  13    4.07    3.03
  -1   2 -13    1.07    1.51
   1   2  13    1.35    1.56
   2  -2  13   -1.83    2.44
   2  -2  13    2.76    1.75
  -2  -2 -13    1.30    1.41
   2   2  13    1.61    1.77
  -2   2 -13    1.71    1.58
   3  -2  13    5.32    2.50
  -3  -2 -13    2.21    1.70
  -3   2 -13    2.20    1.60
   3   2  13    0.62    1.87
   4  -2  13    1.88    1.70
  -4  -2 -13    0.66    1.24
   4   2  13    0.90    1.55
  -4   2 -13   -0.95    1.26
  -5  -2 -13    2.83    2.09
   5  -2  13    0.89    1.50
   5   2  13    6.52    2.62
  -5   2 -13    4.13    2.09
   6  -2  13    0.48    1.56
  -6  -2 -13   -0.06    1.46
   6   2  13   -1.38    1.35
  -6   2 -13   -0.41    1.40
  -6  -3  13    1.03    1.56
   6  -3 -13   -0.67    2.20
  -6   3  13    3.02    2.19
  -5  -3  13    0.65    1.52
  -5   3  13   -0.31    1.45
  -4  -3  13    0.48    1.27
   4  -3 -13    0.71    1.44
   4   3 -13    0.18    0.99
  -4   3  13    1.07    1.69
   3  -3 -13   -0.03    1.35
  -3  -3  13    0.71    1.13
   3   3 -13    0.58    1.13
   3   3 -13    0.53    1.25
  -3   3  13   -0.04    1.34
   2  -3 -13    0.15    1.09
  -2  -3  13    1.90    1.57
   2   3 -13   -0.43    1.00
  -2   3  13   -0.29    1.34
   2   3 -13    0.05    1.36
   1  -3 -13    3.31    1.67
  -1  -3  13    4.93    1.98
   1   3 -13    3.28    1.42
  -1   3  13    1.56    1.75
   1   3 -13    4.74    2.01
   0  -3  13    0.53    1.57
   0  -3 -13    3.02    1.73
   0  -3  13    1.48    1.76
   0   3 -13    0.04    1.14
   0   3  13    1.34    1.87
   0   3 -13    2.23    1.36
   1  -3  13    5.40    2.69
  -1  -3 -13    6.55    2.22
   1  -3  13    2.92    2.02
   1   3  13    0.81    1.52
  -1   3 -13    2.90    1.73
  -1   3 -13    7.21    1.92
   2  -3  13    3.40    2.70
  -2  -3 -13    0.84    1.36
   2  -3  13    0.32    1.64
  -2   3 -13    1.40    1.56
  -2   3 -13    0.86    1.20
   2   3  13    2.56    1.74
   3  -3  13   11.33    3.24
  -3  -3 -13   10.14    2.88
  -3   3 -13   13.92    3.33
   3   3  13    7.47    2.67
   4  -3  13   -0.74    1.05
  -4  -3 -13   -0.14    1.32
  -4   3 -13    2.42    1.72
   4   3  13    2.06    1.72
  -5  -3 -13    8.93    3.07
   5  -3  13    8.32    3.04
  -5   3 -13    9.50    2.98
   5   3  13   12.80    4.13
  -6  -4  13    2.42    2.03
  -6   4  13    5.19    2.26
   5  -4 -13    0.10    2.66
   5  -4 -13    0.63    1.54
  -5  -4  13    0.76    1.37
  -5   4  13    0.92    1.63
   4  -4 -13   -0.85    2.38
   4  -4 -13    4.25    2.19
  -4  -4  13    2.83    1.74
  -4   4  13    0.14    1.65
   4   4 -13    1.38    1.19
  -3  -4  13    1.30    1.64
   3  -4 -13   -0.21    1.23
   3   4 -13    1.26    1.28
  -3   4  13    3.42    2.06
  -2  -4  13   -0.25    1.14
   2  -4 -13    2.63    1.70
  -2   4  13    2.47    2.07
   2   4 -13    4.35    1.60
  -1  -4  13    2.14    1.75
   1  -4 -13    3.48    1.80
   1   4 -13    2.83    1.37
  -1   4  13    1.16    1.84
   0  -4  13    0.74    1.73
   0  -4 -13   -0.81    1.11
   0  -4  13    0.30    1.32
   0   4 -13    1.62    1.40
   0   4  13   -0.04    1.53
   1  -4  13    1.35    1.88
  -1  -4 -13    0.02    1.19
   1  -4  13    0.10    1.19
   1   4  13    0.26    1.35
  -1   4 -13   -0.79    0.85
   2  -4  13    6.18    2.43
   2  -4  13    1.06    1.87
  -2  -4 -13    4.94    2.26
   2   4  13    2.21    1.82
  -2   4 -13    2.82    1.59
   3  -4  13    0.42    1.46
  -3  -4 -13    0.86    1.37
  -3   4 -13   -0.10    1.22
   3   4  13   -0.24    1.54
  -4  -4 -13    2.58    1.90
   4  -4  13   -0.51    1.01
   4   4  13    0.12    1.74
   5  -4  13   -0.42    1.26
  -5  -4 -13    0.52    1.54
   5   4  13    0.48    1.98
   5  -5 -13    0.40    1.45
  -5  -5  13   -0.25    1.33
  -5   5  13   -1.01    1.43
   4  -5 -13    2.64    1.68
  -4  -5  13   -0.59    1.19
   4  -5 -13    3.56    3.28
  -4   5  13    0.83    1.57
   4   5 -13    2.40    1.39
  -3  -5  13   -1.47    0.86
   3  -5 -13   -0.01    1.34
   3  -5 -13    1.72    2.98
  -3   5  13    0.60    1.49
   3   5 -13   -0.29    1.01
   2  -5 -13    2.62    3.11
   2  -5 -13    1.70    1.51
  -2  -5  13    2.86    1.58
  -2   5  13    2.20    2.09
   2   5 -13    2.07    1.39
   1  -5 -13    3.41    2.04
   1  -5 -13    5.46    3.86
  -1  -5  13    3.35    1.91
   1   5 -13    5.81    1.75
  -1   5  13    3.63    2.08
   0  -5 -13    5.81    2.12
   0  -5  13    5.30    2.52
   0  -5  13    4.81    2.09
   0  -5 -13    3.12    3.26
   0   5 -13    8.21    2.18
   0   5  13    5.02    2.44
   1  -5  13   -0.36    1.82
  -1  -5 -13    1.62    2.88
   1  -5  13    2.70    1.83
  -1  -5 -13    1.37    1.55
   1   5  13    1.83    1.66
  -1   5 -13    1.91    1.44
   2  -5  13    9.40    3.15
  -2  -5 -13    8.12    2.64
  -2  -5 -13   12.09    3.84
  -2   5 -13    9.81    2.44
   2   5  13    3.28    2.10
  -3  -5 -13   -1.66    2.56
  -3  -5 -13    2.36    1.75
   3  -5  13    1.70    1.60
  -3   5 -13   -1.21    1.09
   3   5  13   -0.02    1.52
   4  -5  13   10.34    3.01
  -4  -5 -13    2.82    3.03
  -4  -5 -13   14.09    3.56
   4   5  13   12.07    3.58
   4  -6 -13    5.36    2.28
  -4  -6  13    6.57    2.34
  -4   6  13    7.26    2.90
   3  -6 -13    2.93    3.09
   3  -6 -13    1.93    1.77
  -3  -6  13    3.21    1.61
   3   6 -13    3.76    1.62
  -3   6  13    3.01    2.29
  -2  -6  13   -0.99    1.18
   2  -6 -13    4.86    3.26
   2  -6 -13    1.29    1.49
  -2   6  13    0.24    1.60
   2   6 -13    1.21    1.26
   1  -6 -13    1.76    1.64
  -1  -6  13    1.17    1.69
   1  -6 -13    1.97    3.00
   1   6 -13    4.08    1.68
  -1   6  13    3.97    2.31
   0  -6 -13    1.34    3.04
   0  -6 -13    0.26    1.32
   0  -6  13    0.48    1.38
   0   6 -13    0.09    1.09
   0   6  13   -1.77    1.37
  -1  -6 -13   -0.18    1.33
  -1  -6 -13    0.08    2.75
   1  -6  13    0.79    1.40
   1   6  13    1.01    1.95
  -1   6 -13   -0.24    1.07
  -2  -6 -13    0.92    1.53
   2  -6  13    0.71    1.33
  -2  -6 -13    1.91    2.71
  -2   6 -13    1.62    1.37
   2   6  13    1.39    2.32
  -3  -6 -13   -0.69    1.48
   3  -6  13    2.30    1.83
  -3   6 -13    0.76    1.42
   1  -7 -13    2.26    1.77
  -1  -7  13    2.93    1.90
   1  -7 -13    1.62    2.94
   1   7 -13    4.71    1.74
   0  -7  13    2.51    1.67
   0  -7 -13    3.14    2.86
   0  -7 -13    0.33    1.47
   0   7 -13    2.70    1.67
   1  -7  13    3.27    1.70
  -5   0  14   -0.42    1.78
   5   0 -14    0.98    1.59
  -4   0  14    1.62    2.06
   4   0 -14    2.01    1.87
   3   0 -14    0.43    1.31
  -3   0  14   -0.87    1.34
   2   0 -14    4.15    1.88
  -2   0  14    1.31    1.81
  -1   0  14    2.76    1.85
   1   0 -14    2.87    1.73
   0   0 -14   -0.20    1.34
   0   0  14    0.38    1.54
  -1   0 -14    1.45    1.72
   1   0  14   -0.08    1.56
   2   0  14   -1.44    1.25
  -2   0 -14   -0.31    1.16
   3   0  14    5.42    2.65
  -3   0 -14    2.90    2.09
  -4   0 -14    1.52    1.91
   4   0  14    0.90    1.92
   5  -1 -14    1.32    1.75
  -5  -1  14    2.18    2.02
   5   1 -14    3.80    2.07
  -5   1  14    2.62    1.99
   4  -1 -14    3.39    2.03
  -4  -1  14    1.60    1.83
  -4   1  14   -0.40    1.57
   4   1 -14    1.89    1.78
   3  -1 -14    0.04    1.29
  -3  -1  14    0.96    1.58
  -3   1  14    0.59    1.52
   3   1 -14    1.17    1.49
   2  -1 -14   -1.03    0.99
  -2  -1  14    1.14    1.59
  -2   1  14    1.55    1.85
   2   1 -14   -0.61    1.13
  -1  -1  14    1.31    1.70
   1  -1 -14    2.18    1.57
   1   1 -14   -0.79    1.11
  -1   1  14    1.03    1.44
   0  -1  14    1.64    1.92
   0  -1 -14    0.40    1.40
   0   1 -14    1.73    1.57
   0   1  14    2.38    1.57
   1  -1  14    0.42    1.72
  -1  -1 -14    0.72    1.61
  -1   1 -14    1.61    1.65
   1   1  14    2.00    1.96
  -2  -1 -14    5.75    2.36
   2  -1  14    1.39    1.76
  -2   1 -14    3.54    2.09
   2   1  14    2.38    1.80
   3  -1  14    2.78    2.20
  -3  -1 -14   -1.20    1.19
  -3   1 -14    3.79    1.88
   3   1  14    0.16    1.53
  -4  -1 -14    0.08    1.56
   4  -1  14    0.99    1.84
  -4   1 -14    1.03    1.75
   4   1  14    0.00    1.75
   4  -2 -14    0.58    1.46
  -4  -2  14    1.01    1.64
   4   2 -14   -0.08    1.54
  -4   2  14    0.27    1.56
   3  -2 -14    2.48    1.98
  -3  -2  14    1.69    1.70
   3   2 -14    1.38    1.44
  -3   2  14    4.22    2.33
   2  -2 -14    6.29    2.18
  -2  -2  14    3.34    1.91
   2   2 -14    4.32    2.18
  -2   2  14    5.88    2.65
   1  -2 -14    0.48    1.38
  -1  -2  14    0.39    1.06
   1   2 -14    1.91    1.54
  -1   2  14    2.13    1.91
   0  -2 -14    4.52    2.28
   0  -2  14    6.04    2.61
   0   2 -14    3.49    1.95
   0   2  14    5.85    2.36
   1  -2  14    4.24    2.37
  -1  -2 -14   -0.10    1.30
  -1   2 -14    0.60    1.46
   1   2  14    2.87    2.15
   2  -2  14    3.38    2.27
  -2  -2 -14    1.84    1.57
   2   2  14   -0.28    1.87
  -2   2 -14   -0.63    1.43
  -3  -2 -14    0.38    1.43
   3  -2  14    2.74    1.95
   3   2  14   -1.10    1.41
  -3   2 -14    1.28    1.76
   4  -2  14    3.20    2.01
   4   2  14    2.94    2.08
  -4  -3  14   -0.24    1.43
   4  -3 -14    0.40    1.58
  -4   3  14    1.74    1.82
  -3  -3  14    0.47    1.27
   3  -3 -14    3.11    2.03
  -3   3  14    0.10    1.49
   2  -3 -14    1.07    1.31
  -2  -3  14    0.14    1.32
  -2   3  14   -0.38    1.47
   1  -3 -14    3.80    2.10
  -1  -3  14    6.07    2.54
  -1   3  14    4.59    2.20
   0  -3  14   -1.64    1.25
   0  -3 -14    0.64    1.50
   0   3  14    1.11    1.51
   1  -3  14    5.18    2.46
  -1  -3 -14    9.02    2.81
  -1   3 -14   11.48    3.13
   1   3  14   12.85    3.59
   2  -3  14    0.56    1.62
  -2  -3 -14    1.11    1.46
   2   3  14   -0.52    1.61
  -2   3 -14   -0.19    1.48
  -3  -3 -14    6.99    2.62
   3  -3  14    8.12    2.92
   3   3  14    5.30    2.78
  -3   3 -14    6.92    2.62
  -3  -4  14    2.26    1.78
   3  -4 -14    1.60    1.57
  -3   4  14    0.78    1.79
   3   4 -14    3.68    1.66
   2  -4 -14    0.72    1.41
  -2  -4  14   -0.51    0.81
  -2   4  14    1.87    1.83
   2   4 -14    0.86    1.14
   1  -4 -14    1.61    1.56
  -1  -4  14    2.70    2.16
  -1   4  14    2.94    2.03
   1   4 -14    2.64    1.67
   0  -4 -14    0.50    1.46
   0  -4  14   -1.80    1.43
   0   4 -14    0.58    1.28
   0   4  14    0.51    1.55
   1  -4  14    1.17    2.08
  -1  -4 -14    0.81    1.58
   1   4  14   -0.91    1.59
   2  -4  14   -0.77    1.29
  -2  -4 -14    1.90    1.69
   2   4  14   -0.75    1.75
   1  -5 -14   -0.10    1.33
  -1  -5  14   -1.00    1.26
  -1   5  14    1.07    1.85
   0  -5 -14    0.40    1.45
   0  -5  14    0.61    1.57
   0   5 -14    1.87    1.51
   0   5  14    3.01    1.93
   0   0   0    0.00    0.00
;
_shelx_hkl_checksum              98355
_olex2_submission_special_instructions 'No special instructions were received'
loop_
_space_group_symop_operation_xyz
'x, y, z'
'-x, y+1/2, -z'
loop_
_atom_site_label
_atom_site_type_symbol
_atom_site_fract_x
_atom_site_fract_y
_atom_site_fract_z
_atom_site_U_iso_or_equiv
_atom_site_adp_type
_atom_site_occupancy
_atom_site_site_symmetry_order
_atom_site_calc_flag
_atom_site_refinement_flags_posn
I1 I 1.03086(5) 0.24506(6) 0.47202(4) 0.04581(19) Uani 1 1 d .
S1 S 0.46595(17) 0.56280(14) 0.44440(15) 0.0227(4) Uani 1 1 d .
O1 O 0.3831(5) 0.6643(4) 0.4486(4) 0.0295(11) Uani 1 1 d .
Cl2S Cl 1.1914(4) 0.6699(3) 0.1535(5) 0.1159(15) Uani 1 1 d .
O2 O 0.4139(5) 0.4450(4) 0.4231(5) 0.0258(12) Uani 1 1 d .
N1 N 0.6155(5) 0.7032(4) 0.3376(5) 0.0221(12) Uani 1 1 d .
N2 N 0.5624(5) 0.5866(4) 0.3368(5) 0.0211(12) Uani 1 1 d .
O3 O 0.8243(7) 0.6443(7) 0.9212(5) 0.0581(18) Uani 1 1 d .
C4 C 0.7126(7) 0.4200(6) 0.3833(6) 0.0227(15) Uani 1 1 d .
H4 H 0.6626 0.3564 0.4128 0.027 Uiso 1 1 calc R
C1 C 0.9051(9) 1.0290(8) 0.1984(8) 0.049(2) Uani 1 1 d .
H1 H 0.9455 1.1028 0.1803 0.059 Uiso 1 1 calc R
C2 C 0.9308(9) 0.9275(9) 0.1372(8) 0.049(2) Uani 1 1 d .
H2 H 0.9900 0.9309 0.0765 0.058 Uiso 1 1 calc R
C3 C 0.8710(8) 0.8177(7) 0.1624(7) 0.0364(18) Uani 1 1 d .
H3 H 0.8906 0.7470 0.1201 0.044 Uiso 1 1 calc R
C5 C 0.7839(7) 0.8142(7) 0.2491(6) 0.0275(16) Uani 1 1 d .
C6 C 0.7158(7) 0.7011(6) 0.2750(7) 0.0248(16) Uani 1 1 d .
C7 C 0.5557(8) 0.5597(7) 0.5761(7) 0.0252(17) Uani 1 1 d .
C8 C 0.5678(7) 0.4532(6) 0.6380(6) 0.0285(16) Uani 1 1 d .
H8 H 0.5300 0.3814 0.6081 0.034 Uiso 1 1 calc R
C9 C 0.6355(8) 0.4525(7) 0.7436(6) 0.0333(18) Uani 1 1 d .
H9 H 0.6426 0.3812 0.7889 0.040 Uiso 1 1 calc R
C10 C 0.6921(8) 0.5568(7) 0.7815(6) 0.0313(17) Uani 1 1 d .
N10 N 0.7644(7) 0.5531(7) 0.8934(6) 0.0404(17) Uani 1 1 d .
O11 O 0.7617(7) 0.4617(7) 0.9514(5) 0.0571(18) Uani 1 1 d .
C12 C 0.7597(8) 0.9173(7) 0.3141(8) 0.0360(19) Uani 1 1 d .
H12 H 0.7025 0.9138 0.3763 0.043 Uiso 1 1 calc R
C13 C 0.8187(9) 1.0236(7) 0.2880(8) 0.042(2) Uani 1 1 d .
H13 H 0.8007 1.0940 0.3313 0.051 Uiso 1 1 calc R
C14 C 0.6829(8) 0.6643(7) 0.7201(7) 0.0356(19) Uani 1 1 d .
H14 H 0.7236 0.7350 0.7494 0.043 Uiso 1 1 calc R
C15 C 0.6137(8) 0.6662(7) 0.6164(7) 0.0330(18) Uani 1 1 d .
H15 H 0.6053 0.7384 0.5725 0.040 Uiso 1 1 calc R
C16 C 0.6523(7) 0.4947(6) 0.2867(6) 0.0233(15) Uani 1 1 d .
C17 C 0.8278(7) 0.4343(6) 0.4309(6) 0.0293(16) Uani 1 1 d .
H17 H 0.8813 0.4948 0.4005 0.035 Uiso 1 1 calc R
C18 C 0.8780(8) 0.3603(7) 0.5300(7) 0.0338(18) Uani 1 1 d .
H18A H 0.8084 0.3104 0.5605 0.041 Uiso 1 1 calc R
H18B H 0.9108 0.4133 0.5936 0.041 Uiso 1 1 calc R
C19 C 0.7434(7) 0.5807(6) 0.2253(6) 0.0255(15) Uani 1 1 d .
H19A H 0.8337 0.5578 0.2419 0.031 Uiso 1 1 calc R
H19B H 0.7264 0.5800 0.1399 0.031 Uiso 1 1 calc R
C20 C 0.5814(7) 0.4163(6) 0.1964(6) 0.0240(15) Uani 1 1 d .
C21 C 0.4764(7) 0.4594(7) 0.1318(6) 0.0326(17) Uani 1 1 d .
H21 H 0.4420 0.5362 0.1489 0.039 Uiso 1 1 calc R
C22 C 0.4218(9) 0.3911(8) 0.0429(7) 0.040(2) Uani 1 1 d .
H22 H 0.3517 0.4220 -0.0027 0.048 Uiso 1 1 calc R
C23 C 0.4688(9) 0.2780(8) 0.0199(7) 0.049(3) Uani 1 1 d .
H23 H 0.4294 0.2299 -0.0396 0.059 Uiso 1 1 calc R
C24 C 0.5730(8) 0.2352(9) 0.0837(7) 0.045(2) Uani 1 1 d .
H24 H 0.6075 0.1585 0.0665 0.054 Uiso 1 1 calc R
C25 C 0.6269(8) 0.3033(7) 0.1721(7) 0.0366(19) Uani 1 1 d .
H25 H 0.6971 0.2719 0.2174 0.044 Uiso 1 1 calc R
Cl4 Cl 1.0760(3) 0.4347(3) 0.1809(3) 0.0816(9) Uani 1 1 d .
C11 C 1.1542(13) 0.5511(17) 0.2510(11) 0.113(6) Uani 1 1 d .
H11A H 1.2342 0.5205 0.2889 0.135 Uiso 1 1 calc R
H11B H 1.0999 0.5829 0.3127 0.135 Uiso 1 1 calc R
loop_
_atom_site_aniso_label
_atom_site_aniso_U_11
_atom_site_aniso_U_22
_atom_site_aniso_U_33
_atom_site_aniso_U_23
_atom_site_aniso_U_13
_atom_site_aniso_U_12
I1 0.0441(3) 0.0406(3) 0.0516(3) -0.0034(3) -0.0129(2) 0.0147(3)
S1 0.0247(10) 0.0153(7) 0.0284(9) 0.0006(6) 0.0039(8) -0.0003(6)
O1 0.029(3) 0.027(3) 0.032(3) 0.001(2) 0.002(2) 0.006(2)
Cl2S 0.077(2) 0.072(2) 0.198(5) -0.013(3) -0.012(3) 0.0106(19)
O2 0.030(3) 0.021(3) 0.027(3) 0.000(2) -0.001(2) -0.009(2)
N1 0.028(3) 0.014(2) 0.025(3) 0.003(2) -0.001(3) -0.003(2)
N2 0.023(3) 0.013(3) 0.028(3) 0.002(2) 0.001(3) -0.001(2)
O3 0.056(4) 0.072(5) 0.045(4) -0.022(3) -0.016(3) 0.001(3)
C4 0.027(4) 0.017(3) 0.024(4) 0.005(3) 0.002(3) 0.003(3)
C1 0.044(6) 0.043(5) 0.061(6) 0.015(4) -0.004(5) -0.022(4)
C2 0.053(6) 0.060(6) 0.034(5) 0.004(4) 0.008(4) -0.021(5)
C3 0.038(5) 0.039(4) 0.033(4) 0.000(3) 0.002(4) -0.007(4)
C5 0.030(4) 0.028(4) 0.024(4) 0.007(3) -0.003(3) -0.001(3)
C6 0.027(4) 0.020(3) 0.027(4) -0.001(3) -0.004(3) 0.000(3)
C7 0.027(4) 0.026(4) 0.023(4) -0.003(3) 0.006(3) 0.005(3)
C8 0.036(4) 0.024(4) 0.026(4) 0.000(3) 0.001(3) -0.002(3)
C9 0.045(5) 0.030(4) 0.025(4) 0.005(3) 0.007(4) 0.002(3)
C10 0.036(4) 0.039(4) 0.019(4) -0.002(3) 0.001(3) 0.000(3)
N10 0.038(4) 0.050(5) 0.033(4) -0.014(3) 0.000(3) 0.003(3)
O11 0.065(4) 0.072(5) 0.033(3) 0.013(3) -0.009(3) -0.006(4)
C12 0.033(5) 0.027(4) 0.048(5) -0.007(3) 0.001(4) -0.002(3)
C13 0.044(5) 0.022(4) 0.061(6) -0.003(4) 0.000(5) -0.006(4)
C14 0.045(5) 0.033(4) 0.029(4) -0.010(3) 0.002(4) -0.011(3)
C15 0.043(5) 0.023(4) 0.034(4) 0.000(3) 0.004(4) -0.003(3)
C16 0.025(4) 0.020(3) 0.025(4) 0.003(2) -0.002(3) 0.005(3)
C17 0.035(4) 0.021(3) 0.031(4) -0.001(3) -0.003(3) 0.003(3)
C18 0.031(4) 0.035(4) 0.035(5) -0.003(3) -0.004(4) 0.008(3)
C19 0.026(4) 0.024(4) 0.027(4) -0.001(3) 0.003(3) -0.002(3)
C20 0.029(4) 0.022(3) 0.021(4) -0.001(3) 0.003(3) -0.004(3)
C21 0.036(5) 0.030(4) 0.031(4) -0.003(3) -0.003(4) 0.002(3)
C22 0.042(5) 0.045(5) 0.032(5) -0.001(3) -0.004(4) -0.006(4)
C23 0.056(6) 0.054(8) 0.037(5) -0.017(4) -0.001(5) -0.020(4)
C24 0.052(5) 0.034(5) 0.050(5) -0.022(5) 0.001(4) -0.003(5)
C25 0.035(5) 0.035(4) 0.040(5) -0.011(3) -0.003(4) 0.002(3)
Cl4 0.082(2) 0.092(2) 0.0713(19) 0.0094(17) 0.0139(17) 0.0146(18)
C11 0.067(9) 0.217(19) 0.055(8) -0.030(10) 0.006(7) -0.035(11)
loop_
_atom_type_symbol
_atom_type_description
_atom_type_scat_dispersion_real
_atom_type_scat_dispersion_imag
_atom_type_scat_source
C C 0.0033 0.0016 'International Tables Vol C Tables 4.2.6.8 and 6.1.1.4'
H H 0.0000 0.0000 'International Tables Vol C Tables 4.2.6.8 and 6.1.1.4'
Cl Cl 0.1484 0.1585 'International Tables Vol C Tables 4.2.6.8 and 6.1.1.4'
I I -0.4742 1.8119 'International Tables Vol C Tables 4.2.6.8 and 6.1.1.4'
N N 0.0061 0.0033 'International Tables Vol C Tables 4.2.6.8 and 6.1.1.4'
O O 0.0106 0.0060 'International Tables Vol C Tables 4.2.6.8 and 6.1.1.4'
S S 0.1246 0.1234 'International Tables Vol C Tables 4.2.6.8 and 6.1.1.4'
loop_
_geom_angle_atom_site_label_1
_geom_angle_atom_site_label_2
_geom_angle_atom_site_label_3
_geom_angle
O1 S1 O2 120.0(3)
O1 S1 N2 106.8(3)
O1 S1 C7 107.1(3)
O2 S1 N2 105.0(3)
O2 S1 C7 108.5(4)
N2 S1 C7 109.1(3)
C6 N1 N2 107.9(5)
N1 N2 S1 113.3(4)
N1 N2 C16 111.9(5)
C16 N2 S1 125.6(4)
C16 C4 H4 116.8
C17 C4 H4 116.8
C17 C4 C16 126.3(6)
C2 C1 H1 120.3
C2 C1 C13 119.3(8)
C13 C1 H1 120.3
C1 C2 H2 119.5
C1 C2 C3 121.1(8)
C3 C2 H2 119.5
C2 C3 H3 120.5
C5 C3 C2 119.0(8)
C5 C3 H3 120.5
C3 C5 C6 120.4(7)
C3 C5 C12 120.1(7)
C12 C5 C6 119.5(7)
N1 C6 C5 120.1(6)
N1 C6 C19 113.7(6)
C5 C6 C19 125.9(6)
C8 C7 S1 119.8(6)
C8 C7 C15 121.6(7)
C15 C7 S1 118.7(6)
C7 C8 H8 120.3
C9 C8 C7 119.3(7)
C9 C8 H8 120.3
C8 C9 H9 120.8
C10 C9 C8 118.5(7)
C10 C9 H9 120.8
C9 C10 N10 117.3(7)
C9 C10 C14 123.2(7)
C14 C10 N10 119.5(7)
O3 N10 C10 116.5(7)
O11 N10 O3 124.8(7)
O11 N10 C10 118.7(7)
C5 C12 H12 120.0
C13 C12 C5 120.0(8)
C13 C12 H12 120.0
C1 C13 H13 119.8
C12 C13 C1 120.5(8)
C12 C13 H13 119.8
C10 C14 H14 120.7
C15 C14 C10 118.6(7)
C15 C14 H14 120.7
C7 C15 H15 120.6
C14 C15 C7 118.8(7)
C14 C15 H15 120.6
N2 C16 C19 99.1(5)
N2 C16 C20 110.5(5)
C4 C16 N2 110.0(5)
C4 C16 C19 115.4(6)
C4 C16 C20 111.4(5)
C20 C16 C19 109.8(6)
C4 C17 H17 118.5
C4 C17 C18 123.0(7)
C18 C17 H17 118.5
I1 C18 H18A 109.7
I1 C18 H18B 109.7
C17 C18 I1 109.7(5)
C17 C18 H18A 109.7
C17 C18 H18B 109.7
H18A C18 H18B 108.2
C6 C19 C16 104.6(6)
C6 C19 H19A 110.8
C6 C19 H19B 110.8
C16 C19 H19A 110.8
C16 C19 H19B 110.8
H19A C19 H19B 108.9
C21 C20 C16 121.4(6)
C25 C20 C16 119.8(6)
C25 C20 C21 118.7(7)
C20 C21 H21 119.9
C22 C21 C20 120.2(8)
C22 C21 H21 119.9
C21 C22 H22 119.9
C21 C22 C23 120.2(8)
C23 C22 H22 119.9
C22 C23 H23 120.2
C24 C23 C22 119.7(8)
C24 C23 H23 120.2
C23 C24 H24 120.0
C25 C24 C23 119.9(9)
C25 C24 H24 120.0
C20 C25 H25 119.4
C24 C25 C20 121.3(8)
C24 C25 H25 119.4
Cl2S C11 H11A 109.2
Cl2S C11 H11B 109.2
Cl4 C11 Cl2S 112.1(7)
Cl4 C11 H11A 109.2
Cl4 C11 H11B 109.2
H11A C11 H11B 107.9
loop_
_geom_bond_atom_site_label_1
_geom_bond_atom_site_label_2
_geom_bond_distance
I1 C18 2.174(8)
S1 O1 1.425(5)
S1 O2 1.436(5)
S1 N2 1.646(6)
S1 C7 1.750(8)
Cl2S C11 1.784(17)
N1 N2 1.411(7)
N1 C6 1.295(9)
N2 C16 1.517(9)
O3 N10 1.229(10)
C4 H4 0.9500
C4 C16 1.505(9)
C4 C17 1.315(10)
C1 H1 0.9500
C1 C2 1.362(14)
C1 C13 1.395(13)
C2 H2 0.9500
C2 C3 1.407(11)
C3 H3 0.9500
C3 C5 1.376(12)
C5 C6 1.482(9)
C5 C12 1.395(11)
C6 C19 1.488(9)
C7 C8 1.383(11)
C7 C15 1.403(11)
C8 H8 0.9500
C8 C9 1.382(10)
C9 H9 0.9500
C9 C10 1.366(11)
C10 N10 1.467(10)
C10 C14 1.390(11)
N10 O11 1.216(10)
C12 H12 0.9500
C12 C13 1.372(11)
C13 H13 0.9500
C14 H14 0.9500
C14 C15 1.370(11)
C15 H15 0.9500
C16 C19 1.540(10)
C16 C20 1.525(9)
C17 H17 0.9500
C17 C18 1.484(10)
C18 H18A 0.9900
C18 H18B 0.9900
C19 H19A 0.9900
C19 H19B 0.9900
C20 C21 1.389(10)
C20 C25 1.376(10)
C21 H21 0.9500
C21 C22 1.379(11)
C22 H22 0.9500
C22 C23 1.380(13)
C23 H23 0.9500
C23 C24 1.376(12)
C24 H24 0.9500
C24 C25 1.370(10)
C25 H25 0.9500
Cl4 C11 1.716(15)
C11 H11A 0.9900
C11 H11B 0.9900
loop_
_geom_torsion_atom_site_label_1
_geom_torsion_atom_site_label_2
_geom_torsion_atom_site_label_3
_geom_torsion_atom_site_label_4
_geom_torsion
S1 N2 C16 C4 -39.6(8)
S1 N2 C16 C19 -161.0(5)
S1 N2 C16 C20 83.7(6)
S1 C7 C8 C9 -178.0(6)
S1 C7 C15 C14 179.3(6)
O1 S1 N2 N1 46.8(5)
O1 S1 N2 C16 -169.4(5)
O1 S1 C7 C8 132.3(6)
O1 S1 C7 C15 -47.6(7)
O2 S1 N2 N1 175.2(4)
O2 S1 N2 C16 -40.9(6)
O2 S1 C7 C8 1.4(7)
O2 S1 C7 C15 -178.6(6)
N1 N2 C16 C4 104.6(6)
N1 N2 C16 C19 -16.8(7)
N1 N2 C16 C20 -132.0(6)
N1 C6 C19 C16 -9.9(8)
N2 S1 C7 C8 -112.5(6)
N2 S1 C7 C15 67.6(7)
N2 N1 C6 C5 173.3(6)
N2 N1 C6 C19 -0.9(8)
N2 C16 C19 C6 14.9(7)
N2 C16 C20 C21 28.6(9)
N2 C16 C20 C25 -156.0(6)
C4 C16 C19 C6 -102.5(7)
C4 C16 C20 C21 151.1(7)
C4 C16 C20 C25 -33.5(9)
C4 C17 C18 I1 111.8(7)
C1 C2 C3 C5 1.1(13)
C2 C1 C13 C12 -0.3(14)
C2 C3 C5 C6 177.8(7)
C2 C3 C5 C12 -2.7(12)
C3 C5 C6 N1 -165.1(7)
C3 C5 C6 C19 8.3(12)
C3 C5 C12 C13 2.9(12)
C5 C6 C19 C16 176.3(7)
C5 C12 C13 C1 -1.4(13)
C6 N1 N2 S1 160.8(5)
C6 N1 N2 C16 11.9(7)
C6 C5 C12 C13 -177.6(7)
C7 S1 N2 N1 -68.7(5)
C7 S1 N2 C16 75.1(6)
C7 C8 C9 C10 -2.2(11)
C8 C7 C15 C14 -0.6(12)
C8 C9 C10 N10 -179.4(7)
C8 C9 C10 C14 1.3(12)
C9 C10 N10 O3 173.6(7)
C9 C10 N10 O11 -6.2(11)
C9 C10 C14 C15 0.0(13)
C10 C14 C15 C7 -0.3(12)
N10 C10 C14 C15 -179.3(7)
C12 C5 C6 N1 15.5(11)
C12 C5 C6 C19 -171.1(7)
C13 C1 C2 C3 0.4(14)
C14 C10 N10 O3 -7.1(11)
C14 C10 N10 O11 173.1(7)
C15 C7 C8 C9 1.9(11)
C16 C4 C17 C18 177.0(7)
C16 C20 C21 C22 173.6(7)
C16 C20 C25 C24 -173.6(7)
C17 C4 C16 N2 -100.0(8)
C17 C4 C16 C19 11.1(10)
C17 C4 C16 C20 137.2(7)
C19 C16 C20 C21 -79.7(8)
C19 C16 C20 C25 95.7(8)
C20 C16 C19 C6 130.6(6)
C20 C21 C22 C23 2.0(12)
C21 C20 C25 C24 1.9(12)
C21 C22 C23 C24 -2.1(13)
C22 C23 C24 C25 2.1(13)
C23 C24 C25 C20 -2.1(13)
C25 C20 C21 C22 -1.9(11)
