#------------------------------------------------------------------------------
#$Date: 2016-03-22 14:24:33 +0200 (Tue, 22 Mar 2016) $
#$Revision: 178988 $
#$URL: svn://www.crystallography.net/cod/cif/1/54/29/1542918.cif $
#------------------------------------------------------------------------------
#
# This file is available in the Crystallography Open Database (COD),
# http://www.crystallography.net/
#
# All data on this site have been placed in the public domain by the
# contributors.
#
data_1542918
loop_
_publ_author_name
'N. Golovnev'
'M. Molokeev'
'A. Samoilo'
'V. Atuchin'
_publ_section_title
;
 Influence of alkyl substituents in 1,3-diethyl-2-thiobarbituric acid on
 the coordination environment in M(H2O)2(1,3-diethyl-2-thiobarbiturate)2 M
 = Ca2+, Sr2+
;
_journal_issue                   6
_journal_name_full               'Journal of Coordination Chemistry'
_journal_page_first              957
_journal_page_last               965
_journal_paper_doi               10.1080/00958972.2016.1149168
_journal_volume                  69
_journal_year                    2016
_chemical_formula_moiety         'C16 H26 N4 O6 S2 Sr'
_chemical_formula_sum            'C16 H26 N4 O6 S2 Sr'
_chemical_formula_weight         522.15
_chemical_name_systematic
;
Catena-bis (mu~2~-1,3-diethyl-2-thiobarbiturato-O,O')-diaqua-strontium
;
_space_group_crystal_system      orthorhombic
_space_group_IT_number           61
_space_group_name_Hall           '-P 2ac 2ab'
_space_group_name_H-M_alt        'P b c a'
_symmetry_space_group_name_Hall  '-P 2ac 2ab'
_symmetry_space_group_name_H-M   'P b c a'
_atom_sites_solution_hydrogens   mixed
_audit_creation_method           SHELXL-2014/7
_cell_angle_alpha                90
_cell_angle_beta                 90
_cell_angle_gamma                90
_cell_formula_units_Z            4
_cell_length_a                   9.5290(18)
_cell_length_b                   14.161(3)
_cell_length_c                   17.094(3)
_cell_measurement_temperature    298(2)
_cell_volume                     2306.7(8)
_computing_structure_refinement  'SHELXL-2014/7 (Sheldrick, 2014)'
_diffrn_ambient_temperature      298(2)
_diffrn_measured_fraction_theta_full 1.000
_diffrn_measured_fraction_theta_max 0.999
_diffrn_measurement_device_type  'SMART APEXII'
_diffrn_measurement_method       'phi and omega scans'
_diffrn_radiation_monochromator  graphite
_diffrn_radiation_source         'fine-focus sealed tube'
_diffrn_radiation_type           MoK\a
_diffrn_radiation_wavelength     0.71073
_diffrn_reflns_av_R_equivalents  0.0673
_diffrn_reflns_av_unetI/netI     0.0411
_diffrn_reflns_laue_measured_fraction_full 1.000
_diffrn_reflns_laue_measured_fraction_max 0.999
_diffrn_reflns_limit_h_max       11
_diffrn_reflns_limit_h_min       -11
_diffrn_reflns_limit_k_max       17
_diffrn_reflns_limit_k_min       -17
_diffrn_reflns_limit_l_max       21
_diffrn_reflns_limit_l_min       -21
_diffrn_reflns_number            17490
_diffrn_reflns_point_group_measured_fraction_full 1.000
_diffrn_reflns_point_group_measured_fraction_max 0.999
_diffrn_reflns_theta_full        25.000
_diffrn_reflns_theta_max         26.424
_diffrn_reflns_theta_min         2.383
_exptl_absorpt_coefficient_mu    2.556
_exptl_absorpt_correction_T_max  0.7454
_exptl_absorpt_correction_T_min  0.4680
_exptl_absorpt_correction_type   multi-scan
_exptl_absorpt_process_details
'SADABS-2004/1. Bruker AXS Inc., Madison, Wisconsin, USA, 2004'
_exptl_crystal_colour            colourless
_exptl_crystal_density_diffrn    1.504
_exptl_crystal_description       bulk
_exptl_crystal_F_000             1072
_exptl_crystal_size_max          0.450
_exptl_crystal_size_mid          0.450
_exptl_crystal_size_min          0.100
_refine_diff_density_max         0.399
_refine_diff_density_min         -0.286
_refine_diff_density_rms         0.058
_refine_ls_extinction_coef       .
_refine_ls_extinction_method     none
_refine_ls_goodness_of_fit_ref   0.996
_refine_ls_hydrogen_treatment    mixed
_refine_ls_matrix_type           full
_refine_ls_number_parameters     139
_refine_ls_number_reflns         2371
_refine_ls_number_restraints     2
_refine_ls_restrained_S_all      0.995
_refine_ls_R_factor_all          0.0663
_refine_ls_R_factor_gt           0.0322
_refine_ls_shift/su_max          0.014
_refine_ls_shift/su_mean         0.001
_refine_ls_structure_factor_coef Fsqd
_refine_ls_weighting_details
'w=1/[\s^2^(Fo^2^)+(0.0383P)^2^+0.7736P] where P=(Fo^2^+2Fc^2^)/3'
_refine_ls_weighting_scheme      calc
_refine_ls_wR_factor_gt          0.0711
_refine_ls_wR_factor_ref         0.0845
_reflns_Friedel_coverage         0.000
_reflns_friedel_fraction_full    .
_reflns_friedel_fraction_max     .
_reflns_number_gt                1546
_reflns_number_total             2371
_reflns_threshold_expression     'I > 2\s(I)'
_cod_data_source_file            SrH2O2Detba2.cif
_cod_data_source_block           c
_cod_database_code               1542918
_shelx_shelxl_version_number     2014/7
_shelx_space_group_comment
;
The symmetry employed for this shelxl refinement is uniquely defined
by the following loop, which should always be used as a source of
symmetry information in preference to the above space-group names.
They are only intended as comments.
;
_shelx_estimated_absorpt_t_min   0.393
_shelx_estimated_absorpt_t_max   0.784
_shelx_res_file
;

    c.res created by SHELXL-2014/7

TITL c in Pbca
CELL 0.71073   9.5290  14.1605  17.0945  90.000  90.000  90.000
ZERR   4.00   0.0018   0.0027   0.0033   0.000   0.000   0.000
LATT  1
SYMM 0.5-X, -Y, 0.5+Z
SYMM -X, 0.5+Y, 0.5-Z
SYMM 0.5+X, 0.5-Y, -Z
SFAC C H N O S SR
UNIT 64 104 16 24 8 4
TEMP 23.000
SIZE 0.45 0.45 0.10

DFIX 0.8 0.01 O H1 O H2

L.S. 4
BOND
FMAP 2
PLAN 20

ACTA 50

WGHT    0.038300    0.773600
FVAR       0.14465
SR    6    0.500000    0.000000    0.500000    10.50000    0.03400    0.02556 =
         0.04201    0.00085    0.00607   -0.00127
S     5    0.598437    0.411159    0.733681    11.00000    0.04460    0.06650 =
         0.05037   -0.01853   -0.01338   -0.00148
N1    3    0.388656    0.409347    0.629532    11.00000    0.03091    0.02832 =
         0.03901   -0.00564   -0.00318    0.00294
N3    3    0.493024    0.263729    0.655399    11.00000    0.03485    0.03581 =
         0.03928   -0.00081   -0.00625    0.00774
O1    4    0.435359    0.132410    0.585170    11.00000    0.05926    0.03053 =
         0.06270   -0.00960   -0.00103    0.00641
O2    4    0.211916    0.421870    0.540132    11.00000    0.05093    0.04357 =
         0.06660   -0.00219   -0.02405    0.01339
C2    1    0.486883    0.358309    0.669546    11.00000    0.03007    0.03805 =
         0.03595   -0.00399    0.00071    0.00028
C4    1    0.413489    0.218720    0.596034    11.00000    0.03817    0.03133 =
         0.04163   -0.00608    0.00211   -0.00024
C5    1    0.317910    0.273861    0.557022    11.00000    0.04601    0.03489 =
         0.04320   -0.00781   -0.01469    0.00165
AFIX  43
H5    2    0.263174    0.246024    0.518330    11.00000   -1.20000
AFIX   0
C6    1    0.299288    0.368376    0.572476    11.00000    0.03056    0.03656 =
         0.04070   -0.00100   -0.00618    0.00202
C7    1    0.369767    0.511640    0.644874    11.00000    0.05222    0.02733 =
         0.05001   -0.01273   -0.00092    0.00730
AFIX  23
H7A   2    0.400954    0.525566    0.697643    11.00000   -1.20000
H7B   2    0.270703    0.526913    0.641654    11.00000   -1.20000
AFIX   0
C8    1    0.449638    0.573091    0.588153    11.00000    0.07121    0.03626 =
         0.07657   -0.00306    0.00291   -0.00795
AFIX  33
H8A   2    0.433872    0.638335    0.600626    11.00000   -1.20000
H8B   2    0.548065    0.559344    0.591870    11.00000   -1.20000
H8C   2    0.417795    0.560691    0.535873    11.00000   -1.20000
AFIX   0
C9    1    0.582848    0.201259    0.705071    11.00000    0.05293    0.04743 =
         0.05330    0.01000   -0.00585    0.01020
AFIX  23
H9A   2    0.537291    0.140389    0.710767    11.00000   -1.20000
H9B   2    0.591497    0.228960    0.756743    11.00000   -1.20000
AFIX   0
C10   1    0.726341    0.186885    0.671504    11.00000    0.04769    0.06915 =
         0.09123    0.01119   -0.00675    0.01299
AFIX  33
H10A  2    0.779677    0.146465    0.705397    11.00000   -1.20000
H10B  2    0.718587    0.158200    0.620804    11.00000   -1.20000
H10C  2    0.772793    0.246772    0.666781    11.00000   -1.20000
AFIX   0
O     4    0.381865    0.069090    0.381048    11.00000    0.05959    0.10123 =
         0.06599    0.02644   -0.00020    0.01623
H1    2    0.438837    0.081897    0.348566    11.00000   -1.20000
H2    2    0.301873    0.076058    0.367702    11.00000   -1.20000
HKLF 4

REM  c in Pbca
REM R1 =  0.0322 for    1546 Fo > 4sig(Fo)  and  0.0663 for all    2371 data
REM    139 parameters refined using      2 restraints

END

WGHT      0.0365      0.6418

REM Highest difference peak  0.399,  deepest hole -0.286,  1-sigma level  0.058
Q1    1   0.4993  0.0474  0.5431  11.00000  0.05    0.40
Q2    1   0.4961 -0.0463  0.5511  11.00000  0.05    0.39
Q3    1   0.6476  0.2341  0.6482  11.00000  0.05    0.30
Q4    1   0.5232  0.2937  0.6152  11.00000  0.05    0.27
Q5    1   0.6031  0.4497  0.6799  11.00000  0.05    0.27
Q6    1   0.4254  0.2578  0.6376  11.00000  0.05    0.23
Q7    1   0.6064  0.0343  0.5215  11.00000  0.05    0.22
Q8    1   0.3588  0.3948  0.5947  11.00000  0.05    0.22
Q9    1   0.3929  0.3823  0.6562  11.00000  0.05    0.21
Q10   1   0.3755  0.4572  0.6423  11.00000  0.05    0.21
Q11   1   0.4694  0.1105  0.6295  11.00000  0.05    0.21
Q12   1   0.1272  0.4512  0.5292  11.00000  0.05    0.21
Q13   1   0.1969  0.4076  0.5768  11.00000  0.05    0.20
Q14   1   0.5082  0.1368  0.5608  11.00000  0.05    0.20
Q15   1   0.5922  0.3510  0.7907  11.00000  0.05    0.19
Q16   1   0.5145  0.2410  0.6724  11.00000  0.05    0.19
Q17   1   0.5945 -0.0215  0.5257  11.00000  0.05    0.19
Q18   1   0.5501  0.3828  0.6874  11.00000  0.05    0.19
Q19   1   0.5783  0.3685  0.6669  11.00000  0.05    0.18
Q20   1   0.3614  0.3367  0.5495  11.00000  0.05    0.18
;
_shelx_res_checksum              24475
_shelx_hkl_file
;
   1   0   0    1.67    0.29
   2   0   0  907.21   49.96
   2   0   0 1000.00   46.77
  -2   0   0  950.97   47.63
   3   0   0    0.63    0.37
   3   0   0   -0.41    0.49
  -3   0   0    0.16    0.32
   4   0   0   48.53    2.50
   4   0   0   40.04    2.83
  -4   0   0   43.76    2.55
   5   0   0    0.63    0.59
   5   0   0   -0.39    0.72
  -5   0   0   -0.04    0.51
  -6   0   0    1.74    0.62
  -6   0   0    3.40    0.79
   6   0   0    0.67    1.00
  -7   0   0   -0.79    0.77
  -7   0   0    0.05    0.71
   7   0   0   -2.80    1.17
  -8   0   0   98.34    5.41
   8   0   0   85.91    5.93
   9   0   0   -0.80    1.47
  -9   0   0   -0.29    1.12
  10   0   0  148.27    9.24
 -10   0   0  158.31    8.56
  11   0   0   -1.05    1.95
  -1   1   0    0.05    0.14
   1   1   0    0.55    0.21
  -1  -1   0    0.15    0.14
   1  -1   0    0.94    0.26
   2  -1   0   23.52    1.57
   2   1   0   26.72    1.69
  -2  -1   0   23.89    1.35
  -2  -1   0   23.04    1.42
   2  -1   0   28.39    1.48
  -2   1   0   27.05    1.46
  -3   1   0   -0.06    0.33
  -3  -1   0   -0.32    0.26
   3   1   0    0.47    0.51
   3  -1   0   -0.07    0.49
   3  -1   0   -0.35    0.37
  -3  -1   0   -0.15    0.31
  -4   1   0    1.66    0.47
  -4  -1   0    2.61    0.52
  -4  -1   0    1.38    0.41
   4   1   0    0.39    0.66
   4  -1   0    1.83    0.69
   4  -1   0    3.15    0.55
   5  -1   0   -1.06    0.76
   5  -1   0    0.41    0.57
  -5  -1   0    0.00    0.44
  -5  -1   0    0.12    0.55
  -5   1   0    0.23    0.49
   5   1   0    0.16    0.82
  -6  -1   0    4.38    0.87
   6   1   0    4.52    1.21
   6  -1   0    3.28    1.13
  -6   1   0    3.26    0.80
   6  -1   0    4.44    0.85
  -6  -1   0    3.38    0.66
   7  -1   0   -0.37    1.21
   7  -1   0   -0.63    0.80
  -7  -1   0   -0.34    0.78
  -7   1   0    0.26    0.84
   7   1   0   -1.49    1.20
  -7  -1   0    0.43    0.67
  -8   1   0   12.46    1.29
   8   1   0   12.20    1.97
  -8  -1   0   11.72    1.48
  -8   1   0   10.43    1.45
   8  -1   0   11.23    1.94
   9   1   0    0.13    1.53
  -9   1   0   -0.50    1.12
   9  -1   0    0.80    1.57
  -9  -1   0   -1.31    1.02
  10  -1   0    3.18    1.81
  10   1   0   -0.06    1.81
 -10   1   0   -0.43    1.38
  11  -1   0   -0.72    1.84
  11   1   0    1.10    1.99
   0   2   0  373.16   19.43
   0  -2   0  402.71   19.08
  -1   2   0    0.18    0.23
  -1  -2   0    0.14    0.25
   1  -2   0    0.57    0.32
  -1  -2   0    0.22    0.20
   1   2   0    0.52    0.28
   2   2   0  270.78   13.36
   2  -2   0  256.33   12.55
  -2  -2   0  251.55   12.67
  -2   2   0  248.39   12.69
   2  -2   0  233.57   13.26
  -2  -2   0  245.84   12.40
   3  -2   0   -0.33    0.49
   3  -2   0    0.00    0.51
  -3   2   0    0.34    0.35
   3   2   0   -0.05    0.54
  -3  -2   0    0.43    0.31
  -3  -2   0    0.33    0.34
   4  -2   0    2.66    0.74
   4   2   0    2.31    0.76
   4  -2   0    3.91    0.67
  -4  -2   0    2.96    0.46
  -4  -2   0    3.22    0.54
  -4   2   0    3.34    0.60
  -5  -2   0   -0.95    0.48
   5  -2   0    0.06    0.61
   5   2   0    1.42    0.86
   5  -2   0    0.30    0.77
  -5   2   0   -0.99    0.54
  -5  -2   0   -0.18    0.43
   6  -2   0   40.55    3.03
  -6  -2   0   37.83    2.33
  -6  -2   0   44.03    2.59
  -6   2   0   36.91    2.48
   6  -2   0   41.28    2.52
   6   2   0   37.31    3.10
   7  -2   0    1.25    0.90
   7   2   0    0.52    1.23
  -7  -2   0    0.25    0.67
   7  -2   0   -0.79    1.21
  -7  -2   0    1.41    0.84
  -7   2   0    0.21    0.86
  -8   2   0   90.02    5.49
   8  -2   0   97.07    6.07
  -8  -2   0  103.79    5.56
   8  -2   0   91.86    5.26
   8   2   0   95.52    6.14
   9  -2   0   -2.02    1.45
  -9  -2   0    0.15    1.11
  -9   2   0   -0.11    1.15
   9   2   0    0.73    1.55
 -10   2   0   22.33    2.39
  10   2   0   22.57    2.90
  10  -2   0   25.71    2.87
  11  -2   0    1.09    1.92
 -11   2   0   -0.08    1.61
  11   2   0   -2.15    1.83
   0  -3   0    0.20    0.31
   0   3   0   -0.30    0.26
  -1   3   0    0.29    0.33
   1  -3   0    1.07    0.45
  -1  -3   0   -0.03    0.33
   1   3   0    0.39    0.40
  -1  -3   0    0.75    0.39
   2   3   0   44.96    2.54
  -2  -3   0   42.07    2.33
  -2   3   0   40.37    2.35
  -2  -3   0   40.05    2.23
   2  -3   0   40.19    2.34
   2  -3   0   39.17    2.49
   3   3   0   -0.12    0.56
  -3   3   0    0.11    0.41
  -3  -3   0   -0.06    0.37
   3  -3   0    0.33    0.48
   3  -3   0    0.31    0.66
  -3  -3   0    0.16    0.36
  -4  -3   0   -0.12    0.40
   4   3   0   -0.58    0.67
  -4  -3   0    0.31    0.42
  -4   3   0    0.53    0.48
   4  -3   0   -0.09    0.60
   4  -3   0   -0.42    0.67
   5  -3   0    0.59    0.74
  -5  -3   0   -0.30    0.48
  -5  -3   0    0.61    0.48
   5   3   0   -1.49    0.81
   5  -3   0   -0.83    0.80
  -5   3   0   -0.85    0.54
  -6  -3   0    9.70    0.93
   6  -3   0   10.13    1.20
  -6   3   0    9.76    1.15
   6  -3   0    8.85    1.41
  -6  -3   0    9.86    1.07
   6   3   0    8.41    1.44
  -7  -3   0    0.79    0.80
   7   3   0    0.53    1.30
  -7  -3   0   -0.13    0.67
   7  -3   0   -0.74    0.94
  -7   3   0   -1.92    0.84
   7  -3   0   -2.16    1.17
   8   3   0   10.22    1.87
  -8   3   0   10.97    1.54
  -8  -3   0   10.74    1.42
   8  -3   0    8.08    1.38
   8  -3   0   10.92    1.86
   9  -3   0   -1.98    1.40
  -9  -3   0   -0.73    1.10
  -9   3   0    0.53    1.19
   9   3   0    1.82    1.63
  10  -3   0    3.38    1.78
  10   3   0    4.15    1.96
 -10   3   0   -0.27    1.40
 -11   3   0   -1.05    1.58
  11  -3   0   -0.21    1.87
  11   3   0   -0.36    1.95
   0   4   0   10.03    0.82
   0   4   0   12.88    0.90
   0  -4   0   12.56    0.98
   1  -4   0    0.27    0.46
   1   4   0    0.38    0.42
  -1  -4   0    0.41    0.37
  -1  -4   0   -0.46    0.38
  -1   4   0   -0.05    0.36
  -2  -4   0  133.73    7.13
   2   4   0  150.86    7.71
   2  -4   0  146.50    7.31
   2  -4   0  138.76    7.53
  -2   4   0  144.49    7.36
  -2  -4   0  138.16    7.40
  -3  -4   0    0.25    0.41
   3  -4   0   -0.86    0.44
   3   4   0   -0.60    0.59
  -3  -4   0    0.36    0.42
   3  -4   0   -0.70    0.74
  -3   4   0    0.29    0.48
   4  -4   0  207.30   11.14
   4   4   0  229.19   11.88
  -4   4   0  228.41   11.24
  -4  -4   0  207.58   11.14
   4  -4   0  221.58   11.69
  -4  -4   0  212.72   10.88
  -5  -4   0   -0.38    0.53
   5  -4   0    0.08    0.76
   5  -4   0   -0.52    0.88
   5   4   0   -0.37    0.90
  -5  -4   0    0.29    0.59
  -5   4   0    0.29    0.66
  -6  -4   0  218.02   11.09
   6  -4   0  225.95   12.09
  -6   4   0  225.04   11.50
   6  -4   0  226.79   11.33
   6   4   0  226.49   12.28
  -6  -4   0  202.41   11.38
  -7  -4   0    0.77    0.76
  -7  -4   0   -0.10    0.76
   7  -4   0    0.32    1.21
   7   4   0   -0.26    1.28
   7  -4   0   -1.73    1.01
  -7   4   0   -0.07    0.89
   8  -4   0   71.73    4.23
   8   4   0   65.63    4.84
  -8   4   0   68.78    4.29
  -8  -4   0   71.93    4.24
   8  -4   0   70.78    4.80
   9  -4   0    3.51    1.58
  -9   4   0   -0.82    1.22
   9   4   0   -1.11    1.54
 -10   4   0    7.94    1.79
  10   4   0    5.00    2.07
 -11   4   0   -3.38    1.52
  11   4   0    2.03    2.05
   0   5   0   -0.15    0.36
   0   5   0    0.16    0.31
   0  -5   0    0.05    0.45
  -1   5   0   -0.60    0.38
   1   5   0   -0.10    0.42
  -1  -5   0    0.87    0.45
   1  -5   0    0.08    0.50
  -1  -5   0    0.19    0.39
  -2  -5   0   13.39    1.10
  -2  -5   0   11.64    1.06
  -2   5   0   10.53    0.98
   2  -5   0   12.38    1.13
   2   5   0   10.83    1.07
  -3   5   0    0.40    0.55
  -3  -5   0   -1.32    0.44
  -3  -5   0    0.50    0.48
   3   5   0   -1.16    0.61
   3  -5   0   -0.79    0.45
   3  -5   0   -0.72    0.81
  -4  -5   0   12.17    1.08
  -4   5   0   10.41    1.13
   4   5   0   11.13    1.35
  -4  -5   0   10.43    0.95
   4  -5   0    8.43    1.39
   4  -5   0   10.38    1.07
  -5   5   0   -0.03    0.71
  -5  -5   0    0.32    0.59
   5  -5   0   -2.47    0.69
   5   5   0   -0.48    0.96
  -5  -5   0    0.50    0.60
   5  -5   0   -1.07    1.06
  -6   5   0   16.00    1.68
   6  -5   0   17.17    1.71
  -6  -5   0   16.72    1.36
  -6  -5   0   18.08    1.52
   6   5   0   16.51    1.97
   6  -5   0   14.07    1.75
   7  -5   0    0.99    1.30
  -7  -5   0    0.34    0.81
  -7  -5   0    1.12    0.83
   7  -5   0   -0.83    1.22
  -7   5   0   -0.36    1.06
   7   5   0   -1.64    1.32
   8  -5   0   -0.09    1.30
  -8  -5   0    1.34    0.95
  -8   5   0    1.51    1.23
   8  -5   0   -0.63    1.26
   8   5   0    0.61    1.47
  -9   5   0    1.99    1.37
   9   5   0    0.95    1.68
 -10   5   0    0.50    1.52
  10   5   0    1.07    1.91
 -11   5   0    0.71    1.78
  11   5   0    0.00    2.03
   0   6   0   93.96    4.85
   0   6   0   87.21    4.90
   0  -6   0   91.70    4.77
  -1   6   0   -0.05    0.46
   1   6   0   -0.28    0.46
  -1  -6   0    0.45    0.54
   1  -6   0   -1.40    0.54
   1   6   0    0.13    0.56
   2  -6   0   93.97    4.98
  -2   6   0   90.05    4.95
  -2  -6   0   88.32    5.00
  -2  -6   0   93.26    4.83
   2   6   0   95.03    5.19
  -3  -6   0   -0.78    0.55
  -3   6   0    0.20    0.57
   3  -6   0    1.06    0.92
   3   6   0   -0.39    0.70
   3  -6   0   -0.27    0.41
  -3  -6   0   -0.52    0.55
  -4   6   0  354.64   17.46
  -4  -6   0  340.76   17.46
   4  -6   0  338.40   18.05
   4   6   0  338.66   18.33
  -4  -6   0  339.93   16.99
   4  -6   0  332.21   17.31
   5  -6   0   -0.02    1.24
   5  -6   0    0.52    0.76
  -5  -6   0    0.48    0.70
  -5   6   0   -0.85    0.87
  -5  -6   0    0.03    0.72
   5   6   0   -0.57    1.05
   6  -6   0  183.09    9.95
   6  -6   0  179.35    9.63
   6   6   0  173.70   10.21
  -6  -6   0  185.42    9.51
  -6   6   0  182.53    9.62
  -6  -6   0  175.72    9.20
  -7   6   0   -2.02    1.07
   7   6   0   -2.50    1.31
  -7  -6   0    0.00    0.88
  -7  -6   0    0.35    0.83
   7  -6   0    0.67    1.46
  -8   6   0   30.68    2.62
   8  -6   0   30.56    2.62
   8   6   0   25.44    2.86
   9   6   0   -0.27    1.70
  -9   6   0    1.77    1.41
 -10   6   0    1.22    1.62
  10   6   0    2.83    1.97
  11   6   0    1.32    2.16
 -11   6   0   -3.09    1.70
   0   7   0   -0.33    0.42
   0  -7   0   -0.17    0.63
   0   7   0   -0.35    0.51
   1   7   0   -0.78    0.53
  -1   7   0    0.14    0.56
   1  -7   0    0.27    0.69
   1   7   0   -0.18    0.66
  -1  -7   0   -0.18    0.63
   2   7   0   16.63    1.39
  -2   7   0   12.36    1.23
  -2  -7   0   16.39    1.27
  -2  -7   0   14.62    1.30
   2  -7   0   12.91    1.34
   3   7   0   -1.00    0.82
   3  -7   0   -1.77    0.97
  -3   7   0   -0.04    0.68
  -3  -7   0   -0.16    0.66
  -3  -7   0   -0.25    0.67
   4   7   0    0.81    1.02
  -4  -7   0    2.25    0.78
  -4   7   0    2.04    0.93
  -4  -7   0    0.63    0.77
   4  -7   0    1.48    1.24
   5  -7   0   -1.34    1.38
  -5  -7   0   -0.68    0.79
  -5   7   0    2.01    1.06
   5   7   0    0.69    1.21
  -5  -7   0    0.30    0.85
   6   7   0    4.08    1.54
  -6   7   0    6.49    1.32
  -6  -7   0    6.80    1.10
  -6  -7   0    6.78    1.17
   6  -7   0    3.98    1.68
  -7  -7   0   -1.83    0.83
   7  -7   0   -2.04    1.54
  -7   7   0   -0.17    1.08
   7   7   0    1.10    1.51
  -7  -7   0   -0.60    0.97
  -8   7   0    0.46    1.22
   8   7   0    1.66    1.61
   8  -7   0   -2.57    1.54
  -9   7   0   -0.17    1.41
   9   7   0    0.01    1.78
 -10   7   0    3.12    1.67
  10   7   0    1.36    2.04
   0   8   0  176.50    9.58
   0  -8   0  180.88    9.20
   0   8   0  181.53    9.37
   1   8   0    0.25    0.74
  -1   8   0   -0.39    0.61
   1  -8   0    0.35    0.79
  -1  -8   0   -0.13    0.72
   1   8   0   -0.51    0.61
   2   8   0  220.34   12.41
  -2  -8   0  245.19   11.69
  -2   8   0  231.93   11.91
   2  -8   0  232.41   11.80
   2   8   0  220.96   11.97
   3   8   0    0.11    0.92
  -3  -8   0   -0.78    0.75
  -3   8   0    1.41    0.82
   3  -8   0   -0.47    1.08
  -3  -8   0    1.05    0.73
  -4   8   0  165.65    8.55
  -4  -8   0  156.42    8.25
  -4  -8   0  159.84    8.57
   4  -8   0  159.33    8.67
   4   8   0  156.55    9.02
  -5   8   0    0.99    1.10
  -5  -8   0    0.35    0.88
   5  -8   0    1.04    1.47
   5   8   0   -1.37    1.23
  -5  -8   0    1.41    0.92
  -6  -8   0  156.44    8.63
  -6   8   0  157.86    8.56
   6   8   0  153.82    9.15
   6  -8   0  149.01    8.72
  -6  -8   0  163.89    8.22
  -7   8   0    2.48    1.32
   7   8   0   -0.39    1.51
   7  -8   0    1.98    1.75
   8   8   0   27.91    3.12
   8  -8   0   28.01    2.99
  -8   8   0   33.94    2.89
  -9   8   0   -2.38    1.33
   9   8   0    1.45    1.91
 -10   8   0   16.81    2.37
  10   8   0   13.19    2.71
   0   9   0    0.79    0.60
   0   9   0   -0.29    0.78
   0  -9   0   -0.96    0.83
   1  -9   0   -0.67    0.90
  -1  -9   0   -0.31    0.85
   1   9   0   -0.54    0.84
  -1   9   0    1.31    0.81
   1   9   0   -0.49    0.72
  -2   9   0   54.20    3.30
   2   9   0   51.96    3.40
  -2  -9   0   50.67    3.25
   2   9   0   52.93    3.39
   2  -9   0   54.44    3.47
  -3  -9   0    0.27    0.89
   3  -9   0   -0.40    1.19
   3   9   0   -2.35    1.07
  -3   9   0    0.07    0.79
  -3  -9   0    0.33    0.81
  -4   9   0    6.34    1.18
   4   9   0    6.45    1.46
  -4  -9   0    5.69    1.10
  -4  -9   0    5.34    1.15
   4  -9   0    8.27    1.66
  -5   9   0    0.43    1.15
  -5  -9   0   -2.09    0.91
   5   9   0    0.70    1.51
   5  -9   0   -2.51    1.58
  -5  -9   0    0.05    1.02
   6  -9   0   41.07    3.51
   6   9   0   37.65    3.48
  -6  -9   0   41.39    2.92
  -6   9   0   45.82    3.19
  -6  -9   0   36.29    3.19
   7   9   0   -1.31    1.57
  -7   9   0    0.61    1.22
   7  -9   0   -0.18    1.91
   8   9   0    5.99    2.11
  -8   9   0    3.59    1.49
   8  -9   0    6.01    2.20
   9   9   0    0.87    2.02
  -9   9   0   -0.57    1.56
  10   9   0    1.57    2.27
 -10   9   0   -1.77    1.61
   0 -10   0  185.84    9.72
   0  10   0  188.85    9.91
   1  10   0    1.45    1.01
  -1  10   0    0.48    0.84
  -1 -10   0    1.60    1.03
   1 -10   0   -0.68    1.02
  -2 -10   0   60.20    3.50
  -2  10   0   52.80    3.46
   2  10   0   58.60    3.70
   2 -10   0   57.06    3.68
   2  10   0   54.49    3.67
   3 -10   0    0.42    1.30
   3  10   0   -1.08    1.12
  -3  10   0   -0.12    0.94
  -3 -10   0    1.40    1.06
   3  10   0    0.39    1.18
  -4 -10   0    1.84    1.08
  -4  10   0    2.20    1.10
   4 -10   0    3.95    1.62
   4  10   0    0.46    1.48
  -4 -10   0    2.08    1.01
  -5  10   0   -0.48    1.16
   5  10   0   -3.27    1.38
  -5 -10   0   -0.29    1.01
  -5 -10   0    0.18    1.13
   5 -10   0    1.96    1.67
  -6 -10   0    1.81    1.19
  -6  10   0    4.20    1.46
   6  10   0    1.47    1.70
   6 -10   0    1.51    1.83
  -6 -10   0    3.95    1.29
   7  10   0    1.45    1.80
   7 -10   0    1.30    1.99
  -7  10   0   -0.10    1.37
   8 -10   0   22.98    3.12
   8  10   0   25.19    3.16
  -8  10   0   26.91    2.63
   9 -10   0   -1.38    2.23
  -9  10   0    3.31    1.74
   9  10   0   -1.38    1.99
   0 -11   0   -1.73    1.07
   0  11   0    0.90    1.00
   1  11   0    0.65    1.13
   1 -11   0   -1.29    1.14
  -1  11   0   -0.66    0.90
  -1 -11   0   -0.58    1.13
  -2  11   0    0.06    0.91
   2  11   0   -0.84    1.13
   2 -11   0   -0.05    1.26
  -2 -11   0   -1.87    1.03
  -3 -11   0    0.43    1.15
  -3  11   0    0.32    1.05
   3  11   0   -1.08    1.30
   3  11   0   -1.05    1.20
   3 -11   0   -3.09    1.31
  -4 -11   0   -0.42    0.98
  -4 -11   0    0.60    1.15
   4 -11   0    0.72    1.55
   4  11   0    0.47    1.43
  -4  11   0   -2.58    0.99
  -5  11   0    0.85    1.16
  -5 -11   0    0.24    1.03
  -5 -11   0    1.45    1.25
   5  11   0   -1.33    1.65
   5 -11   0   -0.03    1.72
  -6  11   0    3.44    1.51
   6  11   0    5.37    1.95
  -6 -11   0    6.52    1.45
   6 -11   0    5.21    2.07
   7  11   0   -0.16    1.87
  -7  11   0    0.79    1.48
   7 -11   0    2.42    2.13
   8 -11   0   -5.87    2.10
   8  11   0   -1.54    2.01
  -8  11   0   -0.80    1.49
   9  11   0    1.19    2.35
   9 -11   0   -2.01    2.47
  -9  11   0   -1.14    1.61
   0  12   0  151.82    8.18
   0 -12   0  145.98    8.06
   1  12   0    1.31    1.26
  -1 -12   0    0.08    1.24
   1 -12   0    1.93    1.36
  -1  12   0    2.12    1.10
   2 -12   0   56.75    3.98
  -2 -12   0   57.59    3.83
  -2  12   0   54.37    3.69
   2  12   0   64.01    3.97
   3  12   0   -1.41    1.21
  -3 -12   0    0.59    1.21
   3 -12   0   -0.09    1.42
  -3  12   0   -1.34    1.05
   4 -12   0   20.49    2.47
  -4  12   0   17.71    2.03
   4  12   0   23.05    2.38
  -4 -12   0   23.15    2.05
  -5 -12   0   -1.73    1.23
   5 -12   0   -0.10    1.75
  -5 -12   0    0.18    1.19
  -5  12   0    0.51    1.38
   5  12   0    2.27    1.74
  -6 -12   0   31.23    2.41
  -6  12   0   19.95    2.36
   6 -12   0   22.71    2.93
   6  12   0   20.13    2.91
   7  12   0    1.16    2.07
  -7  12   0    1.63    1.55
   7 -12   0   -1.89    2.11
   8  12   0   37.75    4.01
   8 -12   0   40.23    3.97
  -8  12   0   38.20    3.26
   0  13   0    1.59    1.26
   0 -13   0   -1.22    1.32
   1 -13   0   -0.79    1.39
   1  13   0   -1.39    1.25
  -1 -13   0   -0.88    1.27
  -1  13   0    2.55    1.29
  -2  13   0   17.18    2.11
   2  13   0   23.58    2.34
  -2 -13   0   18.31    2.03
   2 -13   0   19.37    2.28
  -3  13   0    1.82    1.30
   3 -13   0    0.99    1.67
  -3 -13   0    0.85    1.34
   3  13   0    0.85    1.43
  -4 -13   0    1.60    1.35
   4 -13   0   -2.39    1.60
  -4  13   0    0.12    1.27
   4  13   0    0.09    1.45
  -5 -13   0    0.17    1.36
   5 -13   0    1.76    2.00
  -5  13   0    1.97    1.34
  -6  13   0   -1.70    1.45
   6 -13   0   -2.73    1.98
  -6 -13   0    2.07    1.50
   7  13   0   -0.25    2.19
  -7  13   0    0.00    1.60
   7 -13   0   -1.32    2.29
  -8  13   0    4.82    1.95
   8  13   0    1.25    2.48
   8 -13   0    2.97    2.63
   0  14   0  160.57    8.77
   0 -14   0  152.32    8.59
   1  14   0    1.48    1.45
  -1 -14   0    0.83    1.53
   1 -14   0   -2.50    1.47
  -1  14   0   -0.18    1.25
   2 -14   0   64.02    4.32
  -2  14   0   54.99    4.08
  -2 -14   0   63.69    4.09
   2  14   0   55.24    4.12
   3 -14   0    0.16    1.80
  -3  14   0    1.09    1.37
   3  14   0    1.06    1.53
  -3 -14   0   -0.01    1.45
  -4  14   0   25.34    2.58
   4  14   0   23.86    2.68
  -4 -14   0   27.35    2.46
   4 -14   0   23.52    2.85
   5 -14   0   -0.74    1.98
  -5 -14   0   -1.08    1.44
  -5  14   0    0.31    1.39
   6 -14   0   13.33    2.61
  -6  14   0   11.94    2.02
   7 -14   0   -2.31    2.27
  -7  14   0   -0.47    1.51
   0 -15   0    1.60    1.69
   0  15   0    1.96    1.47
  -1  15   0    0.30    1.46
   1 -15   0    1.09    1.77
  -1 -15   0   -1.64    1.56
   1  15   0    1.90    1.54
   2 -15   0    2.06    1.80
  -2 -15   0    1.43    1.61
  -2  15   0    3.63    1.61
   2  15   0    0.10    1.54
  -3  15   0    0.25    1.35
   3 -15   0   -2.04    1.87
   3  15   0   -2.83    1.42
  -3 -15   0    1.24    1.57
   4 -15   0    0.18    1.95
  -4 -15   0   -0.69    1.60
  -4  15   0    0.33    1.43
   5 -15   0    5.19    2.23
  -5 -15   0    0.47    1.59
  -5  15   0    0.21    1.62
  -6  15   0    1.26    1.76
   6 -15   0   -0.21    2.31
   0  16   0   17.48    2.52
   0 -16   0   23.44    2.63
  -1 -16   0    1.72    1.76
  -1  16   0    2.57    1.70
   1 -16   0    0.97    1.86
   1  16   0    3.45    1.77
  -2 -16   0   19.67    2.48
   2  16   0   19.32    2.64
   2 -16   0   19.75    2.66
  -2  16   0   22.69    2.67
   3  16   0   -0.66    1.71
  -3 -16   0    2.06    1.70
  -3  16   0    0.05    1.60
   3 -16   0   -2.39    1.94
   4 -16   0   43.42    4.03
  -4 -16   0   46.48    3.80
  -4  16   0   48.14    3.72
  -5  16   0    0.07    1.82
  -5 -16   0    1.00    1.74
   5 -16   0    1.35    2.28
   0  17   0   -3.30    1.66
   0 -17   0   -1.79    1.96
  -1  17   0   -0.18    1.78
  -1 -17   0   -0.42    1.94
   1  17   0    0.31    1.80
   1 -17   0    1.53    2.16
   2  17   0    4.54    1.95
   2 -17   0    4.41    2.26
  -2  17   0    0.40    1.67
  -2 -17   0   -0.10    1.86
  -3  17   0    1.39    1.81
   3 -17   0    1.46    2.31
  -3 -17   0    2.44    1.98
   1   0   1    0.15    0.15
   1   0  -1   -0.08    0.17
  -1   0   1   -0.08    0.12
   1   0   1   -0.09    0.14
  -2   0   1    1.18    0.35
   2   0  -1    1.41    0.49
   2   0   1    0.57    0.43
   2   0   1    0.16    0.35
  -2   0  -1    0.94    0.29
   2   0  -1    0.59    0.27
   3   0  -1    0.43    0.34
   3   0   1    0.42    0.40
  -3   0  -1    0.14    0.31
   3   0   1    0.26    0.52
  -3   0   1    0.63    0.39
   3   0  -1   -0.84    0.49
   4   0   1   -0.34    0.46
   4   0  -1    0.35    0.42
   4   0  -1   -0.33    0.61
   4   0   1   -0.28    0.58
  -4   0  -1   -0.60    0.35
  -4   0   1    0.19    0.40
   5   0   1   -0.50    0.59
  -5   0   1    0.06    0.55
  -5   0  -1   -0.36    0.50
   5   0  -1    0.02    0.82
   5   0   1   -0.41    0.76
  -6   0   1    0.51    0.63
   6   0   1   -1.65    0.94
  -6   0  -1   -0.36    0.61
   6   0  -1   -0.46    0.98
  -6   0  -1   -0.49    0.60
  -6   0   1   -0.43    0.51
  -7   0  -1   -0.03    0.77
  -7   0  -1   -0.58    0.75
   7   0   1    0.59    1.21
  -7   0   1    0.42    0.66
   7   0  -1   -0.22    1.23
  -7   0   1   -0.06    0.87
  -8   0  -1    0.58    0.88
   8   0   1   -0.95    1.42
   8   0  -1   -1.51    1.37
  -8   0   1    0.24    1.10
  -8   0  -1    0.54    1.06
  -9   0   1   -0.59    1.11
  -9   0  -1    0.69    1.18
   9   0   1    1.64    1.64
   9   0  -1    1.55    1.60
  10   0   1    0.30    1.80
 -10   0   1   -0.49    1.38
  10   0  -1   -1.03    1.71
  11   0   1    1.28    2.01
  11   0  -1    3.74    1.97
   0  -1   1    0.62    0.18
  -1  -1  -1  224.97   11.60
   1  -1   1  251.97   11.66
  -1   1   1  212.16   11.83
   1   1  -1  235.87   12.42
   1  -1  -1  233.30   11.60
   1  -1  -1  246.09   12.42
  -1  -1   1  232.18   11.84
   1   1   1  239.92   12.42
  -1   1  -1  239.72   11.82
  -2   1   1   20.15    1.22
   2  -1   1   19.10    1.26
  -2  -1  -1   14.80    1.14
   2   1  -1   20.61    1.48
  -2  -1  -1   18.70    1.15
   2  -1   1   16.43    1.32
  -2   1  -1   21.34    1.19
   2  -1  -1   19.28    1.36
   2  -1  -1   24.69    1.29
  -2  -1   1   19.97    1.25
   2   1   1   18.90    1.38
  -2  -1   1   19.50    1.08
   3  -1   1  190.77    9.32
   3  -1   1  190.13    9.99
  -3   1   1  187.09    9.49
  -3  -1  -1  182.25    9.25
   3   1  -1  192.24   10.04
  -3  -1  -1  177.02    9.43
   3   1   1  179.70   10.00
  -3   1  -1  191.53    9.46
   3  -1  -1  190.46    9.27
  -3  -1   1  174.76    9.20
   3  -1  -1  183.53    9.99
  -3  -1   1  192.62    9.49
  -4  -1  -1   14.09    1.18
  -4   1   1   15.24    1.30
   4  -1   1   16.76    1.51
   4   1  -1   17.56    1.49
   4  -1   1   17.67    1.27
  -4  -1  -1   15.63    1.14
  -4  -1   1   18.91    1.32
   4   1   1   15.05    1.38
   4  -1  -1   16.23    1.39
  -4  -1   1   14.19    1.04
  -4   1  -1   15.20    1.18
   4  -1  -1   15.93    1.16
   5  -1   1  174.23    8.87
  -5  -1  -1  164.47    9.00
  -5   1   1  176.15    9.07
   5   1  -1  176.81    9.69
  -5  -1  -1  170.41    8.79
   5  -1   1  177.26    9.63
  -5  -1   1  165.42    8.72
   5  -1  -1  179.73    9.65
  -5  -1   1  182.68    9.08
   5  -1  -1  175.18    8.81
   5   1   1  171.42    9.66
  -5   1  -1  183.91    9.03
   6  -1   1   -0.59    0.70
  -6  -1  -1    0.10    0.64
  -6  -1  -1    0.33    0.60
   6   1  -1   -0.08    0.98
  -6   1   1   -0.77    0.68
   6  -1   1   -0.41    0.94
  -6   1  -1    0.07    0.64
  -6  -1   1    0.49    0.67
   6  -1  -1    0.22    0.66
  -6  -1   1   -0.28    0.50
   6  -1  -1    0.52    0.98
   6   1   1   -0.09    0.98
  -7  -1  -1   32.15    2.38
  -7   1   1   39.89    2.72
   7  -1   1   36.49    3.11
   7   1  -1   38.80    3.22
  -7  -1  -1   31.17    2.54
   7  -1   1   40.18    2.55
  -7   1  -1   37.63    2.62
  -7  -1   1   38.04    2.29
   7  -1  -1   38.68    3.14
  -7  -1   1   42.03    2.69
   7   1   1   37.49    3.16
   7  -1  -1   37.84    2.48
   8   1  -1   15.41    2.13
  -8  -1  -1   14.33    1.53
  -8   1   1   11.64    1.57
  -8  -1  -1   12.12    1.33
   8  -1   1   11.29    1.98
  -8  -1   1   11.80    1.58
   8  -1  -1   17.15    2.13
   8   1   1   12.76    2.02
  -8   1  -1   14.40    1.60
  -8   1  -1   13.34    1.41
   9   1  -1   35.70    3.32
  -9  -1  -1   36.78    2.81
   9  -1   1   32.49    3.21
  -9   1   1   33.96    2.95
   9  -1  -1   39.06    3.39
  -9   1  -1   35.45    2.88
  -9  -1   1   39.23    3.07
   9   1   1   32.02    3.28
  10   1  -1    9.41    2.12
  10  -1   1    6.62    2.08
 -10   1   1    6.52    1.63
 -10  -1   1    3.22    1.50
  10   1   1    6.12    2.04
 -10   1  -1    3.27    1.56
  10  -1  -1    4.07    1.91
  11   1  -1   10.40    2.44
 -11   1   1   13.19    2.10
  11  -1   1   13.13    2.57
  11  -1  -1   12.57    2.43
  11   1   1   14.09    2.57
   0   2   1  259.10   15.06
   0   2   1  302.11   14.39
   0  -2   1  288.44   14.43
   0  -2   1  296.73   14.16
  -1  -2  -1   79.46    4.15
  -1  -2  -1   80.53    4.07
   1  -2   1   79.40    4.20
   1   2  -1   90.09    4.39
  -1   2   1   74.73    4.16
  -1  -2   1   80.66    4.20
   1  -2  -1   85.33    4.38
   1  -2  -1   77.54    4.08
  -1  -2   1   74.31    4.05
   1   2   1   84.63    4.38
  -1   2  -1   79.85    4.17
  -2  -2  -1   12.17    0.89
  -2   2   1   12.22    0.95
   2  -2   1   13.10    1.06
  -2  -2  -1   12.56    0.91
   2   2  -1   17.80    1.31
   2  -2   1   12.99    1.01
   2   2   1   15.14    1.21
   2  -2  -1   13.96    1.05
  -2  -2   1   13.24    0.86
   2  -2  -1   11.94    1.06
  -2  -2   1   13.27    1.01
  -2   2  -1   14.32    1.00
   3  -2   1  288.01   15.82
  -3  -2  -1  284.33   15.03
   3   2  -1  314.50   15.93
   3  -2   1  305.29   14.89
  -3  -2  -1  281.82   14.76
  -3   2   1  285.79   15.10
   3  -2  -1  326.90   14.88
  -3  -2   1  304.25   15.10
   3   2   1  317.57   15.92
  -3  -2   1  294.19   14.72
  -3   2  -1  296.57   15.09
   3  -2  -1  285.08   15.83
  -4   2   1   80.37    4.22
  -4  -2  -1   79.91    4.13
   4   2  -1   76.11    4.57
  -4  -2  -1   71.72    4.01
   4  -2   1   78.89    4.47
   4  -2   1   79.97    4.17
  -4  -2   1   73.74    3.96
  -4   2  -1   77.41    4.17
   4  -2  -1   77.17    4.47
  -4  -2   1   79.37    4.20
   4   2   1   78.50    4.55
   4  -2  -1   78.76    4.11
  -5   2   1    3.11    0.77
   5   2  -1    4.84    1.03
   5  -2   1    3.84    0.81
  -5  -2  -1    3.05    0.63
   5  -2   1    4.71    0.98
  -5  -2  -1    5.57    0.72
   5   2   1    5.52    1.06
  -5   2  -1    4.70    0.77
   5  -2  -1    4.95    1.00
   5  -2  -1    4.65    0.75
  -5  -2   1    5.59    0.78
  -5  -2   1    4.15    0.57
   6  -2   1   -0.31    0.76
   6  -2   1   -1.15    0.94
  -6  -2  -1    0.92    0.63
   6   2  -1   -0.09    0.99
  -6  -2  -1    0.44    0.61
  -6   2   1    0.54    0.68
   6  -2  -1   -0.75    1.00
  -6  -2   1    0.80    0.53
   6  -2  -1   -0.03    0.68
  -6   2  -1    2.07    0.74
   6   2   1   -1.14    0.94
  -6  -2   1   -0.16    0.67
  -7  -2  -1    0.70    0.83
   7   2  -1    3.13    1.35
   7  -2   1    1.61    0.95
   7  -2   1    0.80    1.23
  -7  -2  -1    1.72    0.78
  -7   2   1    2.10    0.95
   7   2   1    1.13    1.27
  -7  -2   1   -0.21    0.89
   7  -2  -1    2.45    0.90
  -7  -2   1    2.77    0.68
  -7   2  -1    2.95    0.94
   7  -2  -1    2.30    1.30
   8  -2   1   13.11    2.07
  -8  -2  -1   16.04    1.41
   8   2  -1   16.54    2.24
   8  -2   1   16.32    1.64
  -8   2   1   12.40    1.58
  -8  -2  -1   14.48    1.57
  -8  -2   1   17.33    1.75
   8  -2  -1   15.53    2.11
   8   2   1   13.07    2.11
  -8   2  -1   15.35    1.67
  -9   2   1    1.00    1.10
   9   2  -1    2.19    1.57
   9  -2   1    0.13    1.56
   9   2   1    1.20    1.60
   9  -2  -1    1.51    1.57
  -9  -2   1    0.51    1.12
  -9   2  -1    1.96    1.22
  10  -2   1   19.75    2.75
 -10   2   1   25.22    2.53
  10   2  -1   23.92    2.93
  10   2   1   23.41    2.98
  10  -2  -1   28.05    3.00
 -10  -2   1   26.31    2.47
 -10   2  -1   26.87    2.49
  11  -2   1    5.27    2.14
 -11   2   1    5.71    1.90
  11   2  -1    7.38    2.18
  11   2   1    5.92    2.15
  11  -2  -1    3.13    1.96
   0   3  -1   -0.03    0.33
   0  -3   1    0.54    0.37
   0   3   1    0.40    0.27
   0  -3  -1    0.36    0.36
   0  -3   1    0.45    0.31
   0   3   1   -0.20    0.25
  -1  -3  -1  173.32    8.40
   1   3  -1  173.89    8.97
  -1  -3  -1  160.54    8.52
  -1   3   1  181.64    8.98
  -1   3   1  165.16    8.56
  -1  -3   1  163.34    8.37
   1   3   1  168.45    8.96
  -1   3  -1  160.81    8.55
  -1  -3   1  167.07    8.68
   1  -3  -1  162.39    8.40
  -2   3   1    9.09    0.79
   2  -3   1    8.91    0.99
   2   3  -1   11.43    0.96
  -2  -3  -1   10.19    0.79
   2  -3   1    8.21    0.77
  -2  -3   1    8.29    0.75
  -2  -3   1    9.89    0.80
   2  -3  -1   10.24    0.88
  -2   3  -1   11.52    0.86
   2  -3  -1    8.48    0.74
   3   3  -1  197.02    9.95
   3  -3   1  180.60    9.78
  -3   3   1  178.48    9.39
  -3  -3  -1  181.86    9.15
   3  -3   1  181.69    9.34
  -3  -3  -1  180.17    9.32
   3  -3  -1  178.33    9.80
  -3  -3   1  178.51    9.11
  -3   3  -1  186.99    9.40
  -3  -3   1  184.92    9.38
   3  -3  -1  172.07    9.31
   3   3   1  197.96    9.93
  -4   3   1    6.89    0.87
   4   3  -1    6.79    1.06
  -4  -3  -1    7.83    0.73
   4  -3   1    7.04    0.91
  -4  -3  -1    6.95    0.69
   4  -3   1    6.80    0.97
  -4  -3   1    7.07    0.65
  -4   3  -1    6.51    0.83
   4  -3  -1    8.58    1.00
   4  -3  -1    7.38    0.94
  -4  -3   1    7.34    0.79
   4   3   1    5.68    0.98
   5  -3   1  320.02   16.77
  -5  -3  -1  314.26   15.88
  -5  -3  -1  296.81   15.54
   5  -3   1  323.43   15.73
   5   3  -1  317.02   16.90
  -5   3   1  309.60   15.98
   5  -3  -1  310.03   16.77
   5   3   1  328.85   16.91
   5  -3  -1  313.85   15.67
  -5   3  -1  319.64   15.96
  -5  -3   1  301.24   15.50
  -5  -3   1  301.06   15.92
   6  -3   1   17.85    1.77
  -6   3   1   17.25    1.59
   6  -3   1   15.66    1.52
   6   3  -1   16.28    1.82
  -6  -3  -1   17.13    1.40
  -6  -3  -1   18.43    1.33
  -6  -3   1   16.88    1.23
   6   3   1   16.01    1.82
   6  -3  -1   16.85    1.47
   6  -3  -1   16.84    1.79
  -6   3  -1   15.60    1.48
  -6  -3   1   18.26    1.48
   7  -3   1  112.93    6.56
   7  -3   1  110.46    5.92
  -7   3   1  107.85    6.03
  -7  -3  -1  112.00    5.94
   7   3  -1  113.50    6.74
  -7  -3  -1  107.01    5.75
   7   3   1  111.22    6.66
   7  -3  -1  101.21    5.83
   7  -3  -1  108.99    6.55
  -7   3  -1  106.77    6.01
  -7  -3   1  109.11    6.02
   8  -3   1   -0.88    1.04
  -8   3   1   -2.13    0.99
   8   3  -1   -2.48    1.32
   8  -3   1    0.26    1.38
  -8  -3  -1   -1.02    0.83
  -8  -3  -1    1.16    0.96
   8  -3  -1    0.90    1.39
  -8   3  -1   -0.91    1.00
  -8  -3   1   -1.83    0.89
   8   3   1    0.89    1.45
   9  -3   1   53.01    4.02
   9   3  -1   42.65    3.99
  -9   3   1   46.09    3.50
   9   3   1   45.37    4.05
  -9  -3   1   46.29    3.55
   9  -3  -1   57.05    4.06
  -9   3  -1   49.61    3.64
 -10   3   1   -0.73    1.39
  10  -3   1   -0.32    1.66
  10   3  -1    0.92    1.80
  10   3   1   -0.12    1.76
 -10   3  -1    1.63    1.46
  10  -3  -1   -0.95    1.65
 -11   3   1   28.20    2.80
  11  -3   1   20.53    2.94
  11   3  -1   24.98    3.20
  11  -3  -1   22.94    2.90
  11   3   1   21.62    3.14
   0   4  -1  559.43   27.24
   0  -4  -1  562.79   26.71
   0  -4   1  564.42   26.72
   0   4   1  544.47   27.18
   0   4   1  518.84   28.42
   0   4  -1  501.84   28.39
  -1  -4  -1    6.17    0.63
  -1   4   1    5.92    0.63
   1  -4   1    6.34    0.75
  -1   4   1    5.86    0.63
   1   4  -1    6.95    0.71
   1   4   1    6.97    0.68
  -1  -4   1    7.45    0.77
  -1   4  -1    7.81    0.66
  -1  -4   1    6.23    0.62
   1  -4  -1    5.46    0.64
   1   4   1    6.66    0.64
  -2  -4  -1    2.36    0.52
  -2  -4  -1    3.28    0.51
   2   4  -1    3.88    0.66
   2  -4   1    4.14    0.80
  -2   4   1    2.68    0.55
   2  -4  -1    4.06    0.64
  -2   4  -1    2.45    0.50
   2   4   1    3.28    0.63
  -2  -4   1    3.06    0.47
  -2  -4   1    3.20    0.60
   2  -4  -1    3.12    0.45
  -3  -4  -1   12.94    1.08
  -3   4   1   11.75    1.07
   3  -4   1   12.55    1.06
   3   4  -1   13.54    1.25
  -3  -4  -1   12.20    1.00
   3  -4   1    9.72    1.25
  -3  -4   1   13.27    1.02
  -3  -4   1   12.58    1.04
   3  -4  -1   12.59    1.14
  -3   4  -1   13.26    1.11
   3  -4  -1   12.13    1.22
   3   4   1   13.35    1.21
  -4  -4  -1  115.46    5.97
  -4   4   1  117.43    6.22
  -4  -4  -1  112.72    6.10
   4  -4   1  118.78    6.43
   4  -4   1  114.62    6.27
   4   4  -1  112.93    6.60
   4  -4  -1  117.99    6.46
   4   4   1  132.04    6.67
  -4  -4   1  115.01    6.17
  -4   4  -1  123.15    6.21
   4  -4  -1  111.13    6.24
  -4  -4   1  111.00    5.92
   5  -4   1    2.37    0.99
   5  -4   1    1.20    0.79
   5   4  -1   -0.45    0.89
  -5   4   1    1.37    0.77
  -5  -4  -1    0.97    0.59
  -5  -4  -1    1.32    0.58
  -5   4  -1    3.03    0.79
  -5  -4   1    1.47    0.64
   5  -4  -1    1.14    0.91
   5  -4  -1    2.41    0.88
   5   4   1    1.65    0.95
  -5  -4   1    0.75    0.55
   6  -4   1   91.20    5.18
  -6  -4  -1   95.30    5.07
  -6  -4  -1   90.62    4.89
   6  -4   1   93.66    5.53
   6   4  -1   92.16    5.72
  -6   4   1   89.82    5.14
   6  -4  -1   96.01    5.56
   6   4   1   86.54    5.66
  -6  -4   1   91.70    5.11
   6  -4  -1   89.63    5.10
  -6  -4   1   93.51    4.83
  -6   4  -1   93.68    5.18
   7   4  -1    1.72    1.41
  -7   4   1    1.52    1.05
   7  -4   1    0.91    1.17
   7  -4   1    0.65    1.07
  -7  -4  -1    1.55    0.81
  -7  -4  -1    1.08    0.82
  -7  -4   1    1.06    0.90
   7  -4  -1    0.94    1.06
   7  -4  -1    1.10    1.21
  -7   4  -1    2.56    1.06
   7   4   1    0.64    1.32
  -8   4   1    0.89    1.19
   8  -4   1    1.38    1.22
   8   4  -1    1.59    1.49
   8  -4   1    0.81    1.38
  -8  -4   1    0.85    0.99
   8   4   1    2.11    1.55
  -8   4  -1    1.49    1.12
   8  -4  -1    1.32    1.45
  -9   4   1   -0.08    1.28
   9  -4   1    1.13    1.53
   9   4  -1    0.10    1.64
  -9  -4   1    1.63    1.16
  -9   4  -1    0.75    1.27
   9  -4  -1    2.27    1.65
   9   4   1    1.87    1.63
 -10   4   1    7.20    1.75
  10   4  -1    5.00    2.03
 -10   4  -1    8.22    1.76
  10  -4  -1    4.99    1.90
  10   4   1    6.07    2.13
  11   4  -1   -1.47    1.94
 -11   4   1    0.37    1.63
  11   4   1   -0.88    1.95
 -11   4  -1    0.04    1.67
   0  -5  -1   -0.04    0.43
   0   5  -1   -0.15    0.40
   0   5   1   -0.07    0.33
   0  -5   1    0.31    0.46
   0   5   1   -0.07    0.31
   0   5  -1   -0.14    0.30
   1   5  -1  248.47   13.53
   1  -5   1  253.01   12.78
  -1  -5  -1  273.10   12.74
  -1   5   1  267.38   12.98
  -1   5   1  244.24   13.47
   1   5   1  255.05   12.94
  -1  -5   1  257.02   13.04
  -1  -5   1  262.02   12.71
   1  -5  -1  263.76   12.74
   1   5   1  230.23   13.51
  -1   5  -1  252.08   12.97
  -2  -5  -1  111.68    5.57
  -2  -5  -1  101.66    5.68
   2  -5   1  108.22    5.77
  -2   5   1  109.11    5.73
   2   5  -1  111.41    5.99
   2  -5  -1  103.44    5.80
   2   5   1  108.49    5.97
  -2  -5   1  106.38    5.80
  -2   5  -1  110.20    5.71
   2  -5  -1  106.80    5.65
  -2  -5   1  110.13    5.55
   3  -5   1  283.54   14.02
   3   5  -1  282.49   14.77
  -3   5   1  278.77   14.08
   3  -5   1  272.08   14.52
  -3  -5  -1  270.29   14.07
  -3  -5  -1  263.24   13.71
  -3  -5   1  261.34   13.68
  -3   5  -1  277.74   14.05
   3   5   1  297.93   14.78
   3  -5  -1  273.05   14.57
   3  -5  -1  270.52   13.91
  -3  -5   1  271.38   14.09
   4   5  -1    8.41    1.20
   4  -5   1    9.03    0.89
  -4   5   1    7.88    1.01
  -4  -5  -1    6.70    0.83
  -4  -5  -1    6.57    0.86
   4  -5   1    7.18    1.27
   4  -5  -1    7.10    1.27
  -4  -5   1    8.01    0.81
  -4   5  -1    7.26    1.01
   4  -5  -1    7.63    0.93
  -4  -5   1    6.30    0.88
   4   5   1    7.52    1.15
   5   5  -1   41.31    3.10
  -5  -5  -1   40.88    2.55
  -5  -5  -1   41.88    2.55
   5  -5   1   39.57    2.75
  -5   5   1   44.12    2.79
   5  -5   1   40.41    3.03
  -5  -5   1   39.55    2.45
  -5   5  -1   43.99    2.78
  -5  -5   1   44.39    2.72
   5  -5  -1   46.59    2.90
   5  -5  -1   41.94    3.04
   5   5   1   39.77    3.06
  -6   5   1    0.23    0.98
  -6  -5  -1    1.97    0.75
   6  -5   1    1.40    0.99
   6   5  -1   -0.07    1.22
   6  -5   1    2.61    1.29
  -6  -5  -1    0.01    0.75
   6  -5  -1    0.96    1.08
   6  -5  -1    1.78    1.18
  -6  -5   1    0.49    0.68
   6   5   1    1.05    1.21
  -6   5  -1    0.98    0.94
  -6  -5   1    0.69    0.80
   7   5  -1   52.11    3.94
  -7  -5  -1   49.95    3.18
   7  -5   1   46.88    3.43
  -7  -5  -1   48.69    3.02
  -7   5   1   49.03    3.22
   7  -5   1   48.25    3.55
  -7  -5   1   49.09    3.31
   7  -5  -1   51.95    3.61
   7   5   1   41.13    3.78
   7  -5  -1   49.34    3.35
  -7   5  -1   47.77    3.19
   8  -5   1   14.56    1.82
  -8   5   1   15.46    1.81
   8   5  -1   11.05    2.06
   8  -5   1   14.56    1.94
  -8   5  -1   11.86    1.70
   8  -5  -1   15.01    1.99
  -8  -5   1   15.11    1.64
   8  -5  -1   12.68    1.72
   8   5   1   10.95    2.02
   9   5  -1   32.66    3.42
   9  -5   1   39.82    3.13
  -9   5   1   45.04    3.27
   9   5   1   33.22    3.40
  -9   5  -1   37.88    3.02
  10   5  -1    1.52    1.97
 -10   5   1    1.98    1.44
 -10   5  -1   -2.08    1.39
  10   5   1    1.20    1.90
  11   5  -1   18.23    2.98
 -11   5   1   13.11    2.33
  11   5   1   20.96    3.04
 -11   5  -1   14.42    2.35
   0   6  -1   70.39    3.72
   0   6   1   66.41    3.58
   0  -6   1   70.48    3.62
   0  -6  -1   69.31    3.59
   0   6  -1   60.52    3.60
   0   6   1   63.54    3.66
   1  -6   1    1.26    0.64
  -1   6   1    0.65    0.44
  -1  -6  -1    0.87    0.56
  -1   6   1    0.68    0.50
   1   6  -1    0.90    0.53
   1  -6  -1    1.53    0.60
  -1   6  -1    0.53    0.47
  -1  -6   1    1.50    0.53
   1   6   1    0.85    0.51
  -1  -6   1    0.93    0.53
   1   6   1    1.04    0.51
   2  -6   1   -0.62    0.76
  -2   6   1    0.31    0.52
  -2  -6  -1    0.17    0.57
  -2  -6  -1    0.14    0.46
   2   6  -1   -0.60    0.62
   2   6   1   -0.75    0.60
  -2   6  -1    0.74    0.52
  -2  -6   1    0.10    0.50
  -2  -6   1    0.09    0.54
   2  -6  -1    0.27    0.38
   2  -6  -1    0.25    0.68
  -3  -6  -1    0.84    0.59
  -3   6   1    1.13    0.70
   3   6  -1   -0.05    0.78
   3  -6   1    0.94    0.98
  -3  -6  -1    1.44    0.65
   3  -6  -1    0.63    0.88
  -3  -6   1    1.11    0.63
   3  -6  -1    1.11    0.50
  -3   6  -1    2.09    0.71
   3   6   1    1.56    0.80
  -3  -6   1    1.47    0.59
  -4  -6  -1    3.86    0.75
  -4   6   1    1.75    0.89
   4   6  -1    2.79    1.07
  -4  -6  -1    2.95    0.78
   4  -6   1    2.00    0.64
   4  -6   1    1.20    1.23
  -4  -6   1    2.98    0.69
   4   6   1    2.94    1.04
  -4  -6   1    2.67    0.78
   4  -6  -1    1.38    1.10
  -4   6  -1    3.71    0.85
   4  -6  -1    2.63    0.72
   5  -6   1    3.25    1.40
   5  -6   1    3.78    0.84
   5   6  -1    1.78    1.18
  -5   6   1    4.25    1.09
  -5  -6  -1    4.29    0.87
  -5  -6  -1    4.53    0.85
  -5   6  -1    1.94    1.00
  -5  -6   1    3.07    0.76
   5   6   1    2.63    1.17
   5  -6  -1    1.09    1.31
   5  -6  -1    2.16    0.92
  -5  -6   1    5.39    0.93
  -6   6   1    9.13    1.43
   6  -6   1    6.51    1.66
  -6  -6  -1    8.73    1.10
  -6  -6  -1    7.36    1.07
   6   6  -1    6.56    1.58
  -6  -6   1    9.39    1.18
  -6   6  -1    6.35    1.22
  -6  -6   1    9.33    1.06
   6   6   1    7.10    1.60
   6  -6  -1    5.55    1.27
   6  -6  -1    8.45    1.65
  -7  -6  -1   -0.22    0.82
  -7   6   1   -0.58    1.15
  -7  -6  -1    1.06    0.93
   7  -6   1   -0.25    1.45
   7   6  -1   -2.70    1.34
  -7   6  -1    0.24    1.13
  -7  -6   1    2.07    1.03
   7   6   1    0.15    1.40
   7  -6  -1    0.90    1.42
   8   6  -1   -0.42    1.56
  -8   6   1    0.98    1.25
   8  -6   1    1.43    1.49
   8  -6  -1   -0.42    1.41
  -8  -6   1    0.24    0.97
   8   6   1   -1.78    1.47
  -8   6  -1    0.82    1.24
   9   6  -1    0.31    1.73
   9  -6   1   -1.86    1.52
  -9   6   1   -0.20    1.21
   9   6   1    0.77    1.71
  -9   6  -1    0.98    1.35
 -10   6   1    1.66    1.71
  10   6  -1    0.96    1.99
  10   6   1    1.37    1.95
 -10   6  -1    3.02    1.57
 -11   6   1    2.89    1.95
  11   6  -1    3.94    2.31
  11   6   1    5.41    2.26
 -11   6  -1    3.40    1.89
   0   7   1   -0.41    0.51
   0  -7   1    0.05    0.64
   0   7  -1    0.71    0.41
   0  -7  -1   -0.45    0.61
   0   7  -1   -0.02    0.57
   0   7   1    0.24    0.45
   1   7  -1  198.84   11.34
   1   7  -1  215.47   11.06
  -1  -7  -1  217.50   10.74
  -1   7   1  217.96   10.93
   1  -7   1  206.00   10.79
   1   7   1  201.76   11.36
  -1  -7   1  216.26   10.73
   1  -7  -1  218.38   10.78
  -1   7  -1  216.55   10.98
   1   7   1  216.77   10.93
  -2  -7  -1    1.32    0.71
  -2   7   1    1.68    0.67
   2   7  -1    1.73    0.76
   2  -7   1    1.41    0.89
   2   7   1    1.72    0.75
  -2  -7   1    1.90    0.68
   2   7   1    1.87    0.77
  -2   7  -1    1.52    0.62
   2  -7  -1    2.00    0.42
  -2  -7   1    1.93    0.73
   2  -7  -1    2.40    0.83
  -3  -7  -1  301.41   14.99
   3   7  -1  300.23   16.10
   3  -7   1  307.11   15.26
  -3  -7  -1  277.75   15.29
  -3  -7   1  291.18   14.96
  -3   7  -1  300.62   15.35
   3  -7  -1  290.63   15.15
  -3  -7   1  310.16   15.43
   3  -7  -1  299.38   15.79
   3   7   1  313.38   16.09
  -4   7   1    0.02    0.85
  -4  -7  -1    0.43    0.74
   4  -7   1   -1.98    1.17
  -4  -7  -1    1.67    0.73
   4   7  -1   -0.34    1.00
   4  -7  -1    0.66    1.18
  -4   7  -1    1.20    0.77
   4  -7  -1   -0.97    0.60
  -4  -7   1   -0.09    0.81
   4   7   1   -0.23    0.99
  -4  -7   1   -0.13    0.68
  -5   7   1   64.31    3.83
  -5  -7  -1   60.77    3.79
   5   7  -1   63.77    4.18
  -5  -7  -1   60.00    3.56
   5  -7   1   57.33    4.10
  -5   7  -1   62.79    3.79
  -5  -7   1   57.88    3.46
  -5  -7   1   56.16    3.75
   5  -7  -1   56.07    3.97
   5   7   1   61.13    4.12
  -6  -7  -1    0.34    0.92
  -6  -7  -1    0.26    0.92
   6   7  -1   -0.72    1.34
   6  -7   1    0.09    1.54
  -6   7   1   -0.25    1.13
  -6  -7   1    0.77    0.84
  -6   7  -1    2.18    1.08
  -6  -7   1    2.56    0.96
   6   7   1    0.44    1.34
   6  -7  -1    1.08    1.58
  -7  -7  -1   64.15    3.74
   7  -7   1   58.97    4.29
  -7   7   1   62.99    4.09
   7   7  -1   60.67    4.49
   7   7   1   51.09    4.38
  -7   7  -1   65.27    4.02
  -7  -7   1   63.42    3.94
   7  -7  -1   63.08    4.24
   8  -7   1    1.28    1.73
   8   7  -1    2.16    1.72
  -8   7   1    3.60    1.36
  -8  -7   1    1.64    1.11
   8  -7  -1    1.46    1.62
   8   7   1    1.70    1.60
  -8   7  -1    1.39    1.35
  -9   7   1    7.96    1.70
   9   7  -1    9.42    2.21
   9  -7   1   10.11    2.05
  -9   7  -1    8.05    1.74
   9   7   1    7.49    2.09
  10   7  -1   -1.11    1.95
 -10   7   1   -1.59    1.64
 -10   7  -1   -0.70    1.53
  10   7   1   -0.96    1.86
   0   8   1  103.32    5.99
   0  -8   1  115.66    5.86
   0   8  -1  122.17    6.03
   0   8  -1  103.76    5.92
   0  -8  -1  110.78    5.82
   0   8   1  106.58    5.87
  -1   8   1   17.84    1.46
  -1  -8  -1   16.44    1.43
   1   8  -1   17.24    1.66
   1  -8   1   17.75    1.52
   1   8  -1   18.41    1.40
   1   8   1   18.64    1.54
  -1   8  -1   14.36    1.41
   1   8   1   16.32    1.38
  -1  -8   1   14.62    1.38
   1  -8  -1   17.22    1.46
   2   8  -1   -0.76    0.78
   2  -8   1    0.20    0.98
  -2   8   1    0.18    0.67
  -2  -8  -1   -0.78    0.79
   2   8   1    0.55    0.78
   2  -8  -1    0.52    0.87
  -2   8  -1    0.82    0.73
   2   8   1   -1.38    0.76
  -2  -8   1    1.45    0.79
  -2  -8   1    0.53    0.74
  -3   8   1    1.54    0.81
  -3  -8  -1    1.37    0.70
   3  -8   1    2.04    1.18
   3   8  -1    2.77    1.04
  -3  -8  -1    2.68    0.90
   3  -8  -1    1.43    1.09
  -3   8  -1    2.77    0.86
  -3  -8   1    1.71    0.82
  -3  -8   1    3.14    0.85
   3   8   1    3.08    1.02
  -4   8   1   25.38    2.27
   4   8  -1   29.95    2.53
  -4  -8  -1   31.36    2.24
  -4  -8  -1   24.74    2.30
   4  -8   1   29.40    2.56
  -4   8  -1   27.93    2.16
   4  -8  -1   28.07    2.45
  -4  -8   1   31.60    2.45
   4   8   1   27.18    2.52
  -4  -8   1   27.99    2.14
  -5  -8  -1    3.45    1.03
  -5   8   1    3.82    1.17
   5  -8   1    2.90    1.58
   5   8  -1    2.85    1.42
  -5  -8  -1    1.69    0.97
  -5   8  -1    1.96    1.08
  -5  -8   1    2.93    0.96
  -5  -8   1    3.75    1.12
   5  -8  -1    3.07    1.60
   5   8   1    0.58    1.32
  -6   8   1    5.45    1.38
  -6  -8  -1    6.42    1.23
   6   8  -1    6.63    1.76
  -6  -8  -1    5.53    1.23
   6  -8   1    1.93    1.78
   6  -8  -1    4.22    1.76
  -6  -8   1    6.47    1.30
   6   8   1    3.50    1.60
  -6  -8   1    5.49    1.12
  -6   8  -1    6.98    1.38
  -7   8   1    2.36    1.30
   7  -8   1   -0.07    1.77
  -7  -8  -1    1.69    1.11
   7   8  -1    0.45    1.53
   7   8   1   -0.53    1.45
  -7  -8   1   -0.35    1.09
   7  -8  -1   -0.02    1.69
  -7   8  -1   -2.26    1.12
  -8   8   1    2.59    1.52
   8   8  -1    0.90    1.76
   8  -8   1    4.84    1.99
   8  -8  -1    3.19    1.91
   8   8   1    1.02    1.70
  -8   8  -1    1.55    1.30
   9  -8   1   -0.45    1.97
   9   8  -1    2.67    2.05
  -9   8   1   -0.62    1.49
  -9   8  -1   -0.71    1.43
   9   8   1    1.04    1.88
 -10   8   1    3.51    1.81
  10   8  -1    4.79    2.34
 -10   8  -1    7.68    1.90
  10   8   1    3.09    2.17
   0  -9  -1    1.09    0.90
   0   9  -1   -1.33    0.74
   0  -9   1   -1.67    0.82
   0   9   1   -0.35    0.62
   0   9   1    0.45    0.75
  -1  -9  -1  107.36    5.73
   1   9  -1   94.82    5.90
  -1   9   1  102.67    5.76
   1  -9   1  107.62    5.82
   1   9  -1  113.69    6.00
  -1  -9   1  112.16    5.75
   1   9   1  103.43    5.94
   1  -9  -1  104.29    5.75
  -1   9  -1  108.62    5.86
   1   9   1  112.77    5.83
  -2  -9  -1    0.02    0.88
  -2   9   1    0.42    0.78
   2   9  -1    1.39    0.93
   2  -9   1    1.82    1.13
   2   9  -1   -1.53    0.89
   2   9   1    1.75    0.90
  -2  -9   1    0.69    0.86
   2  -9  -1    0.04    0.99
   2   9   1   -0.57    0.85
  -2   9  -1   -0.04    0.73
   3  -9   1  186.19    9.99
  -3  -9  -1  194.06    9.76
  -3   9   1  180.02    9.92
   3   9  -1  189.18   10.47
   3  -9  -1  189.87    9.93
   3   9   1  200.68   10.48
   3   9   1  180.34    9.95
  -3  -9   1  189.97    9.97
  -3  -9   1  187.18    9.69
   4   9  -1    7.36    1.52
   4  -9   1    3.67    1.54
  -4  -9  -1    6.20    1.19
  -4  -9  -1    4.23    0.99
  -4   9   1    8.16    1.27
  -4  -9   1    6.31    1.16
  -4  -9   1    4.22    1.04
   4  -9  -1    5.98    1.58
  -4   9  -1    4.37    1.10
   4   9   1    3.99    1.38
  -5   9   1   24.24    2.29
   5  -9   1   26.17    2.67
   5   9  -1   23.24    2.57
  -5  -9  -1   29.85    2.47
  -5  -9  -1   29.76    2.37
   5   9   1   22.55    2.54
  -5   9  -1   26.66    2.36
  -5  -9   1   28.73    2.09
   5  -9  -1   26.72    2.66
  -5  -9   1   26.49    2.27
   6   9  -1    0.51    1.56
   6  -9   1    1.00    1.71
  -6   9   1    0.74    1.30
  -6  -9  -1    1.65    1.13
  -6  -9   1   -1.20    1.01
   6   9   1   -1.46    1.41
  -6   9  -1   -0.48    1.10
  -6  -9   1    0.78    1.06
   6  -9  -1   -1.08    1.67
  -7   9   1   23.24    2.39
   7   9  -1   19.92    2.62
   7  -9   1   21.23    2.68
  -7  -9  -1   23.95    2.02
   7  -9  -1   21.49    2.66
   7   9   1   17.91    2.48
  -7  -9   1   24.58    2.29
  -7   9  -1   20.00    2.21
  -8   9   1    0.73    1.41
   8  -9   1    0.77    2.05
   8   9  -1    1.35    1.92
  -8   9  -1    1.83    1.51
   8   9   1   -2.18    1.64
   8  -9  -1   -3.88    1.85
   9  -9   1   10.00    2.45
  -9   9   1   10.31    1.90
   9   9  -1    9.92    2.53
  -9   9  -1   10.00    1.96
   9   9   1    7.78    2.26
  10   9  -1    4.74    2.44
 -10   9   1   -0.80    1.66
  10   9   1    3.32    2.28
 -10   9  -1    0.59    1.72
   0  10   1   23.14    1.86
   0  10  -1   24.56    2.03
   0 -10  -1   20.19    1.85
   0 -10   1   19.32    1.89
   1 -10   1    2.87    1.18
  -1 -10  -1    1.17    1.06
  -1  10   1    0.43    0.81
   1  10  -1    3.27    1.20
   1  10   1    1.22    0.90
  -1 -10   1    1.99    1.04
  -1  10  -1    4.29    1.12
   1 -10  -1    1.48    1.10
   1  10   1    2.17    0.94
  -2 -10  -1    1.10    1.08
   2  10  -1    0.14    1.03
   2  10  -1   -0.94    1.01
  -2  10   1    0.53    0.93
   2 -10   1    0.68    1.22
   2 -10  -1    0.23    1.17
  -2 -10   1    0.33    0.98
  -2  10  -1   -0.19    0.86
   2  10   1   -0.21    1.00
   2  10   1    0.72    0.99
   3  10  -1    0.95    1.23
  -3  10   1    0.90    0.99
   3 -10   1    1.61    1.40
  -3 -10  -1    0.02    1.03
  -3  10  -1    0.23    1.02
  -3 -10   1    1.50    0.99
  -3 -10   1    1.00    1.02
   3 -10  -1    2.71    1.36
   3  10   1    1.53    1.17
   3  10   1    0.02    1.07
   4  10  -1   47.28    3.71
   4 -10   1   44.18    3.64
  -4 -10  -1   47.13    3.26
  -4 -10  -1   52.11    3.22
  -4  10   1   46.12    3.17
  -4  10  -1   39.30    3.06
   4 -10  -1   42.86    3.51
   4  10   1   48.85    3.63
  -4 -10   1   45.43    3.09
  -4 -10   1   47.74    3.31
   5  10  -1    5.32    1.72
  -5 -10  -1    3.60    1.25
  -5  10   1    2.81    1.31
   5 -10   1    4.32    1.78
  -5 -10  -1    3.21    1.08
   5 -10  -1    2.35    1.67
  -5 -10   1    5.29    1.19
   5  10   1    2.77    1.61
  -5  10  -1    3.53    1.33
  -5 -10   1    2.72    1.12
  -6 -10  -1   19.78    1.96
   6  10  -1   21.60    2.60
   6 -10   1   18.94    2.60
  -6  10   1   15.90    2.08
   6  10   1   16.52    2.45
  -6 -10   1   22.24    2.14
  -6 -10   1   24.06    1.92
  -6  10  -1   22.51    2.23
   6 -10  -1   16.94    2.57
  -7  10   1    0.86    1.49
  -7 -10  -1    3.76    1.36
   7  10  -1    3.06    1.94
   7 -10   1    3.53    2.16
   7 -10  -1    6.51    2.20
   7  10   1    2.14    1.80
  -7  10  -1    3.49    1.50
   8  10  -1    1.17    2.04
   8 -10   1   -3.19    2.07
  -8  10   1   -0.08    1.54
   8 -10  -1    0.77    2.14
  -8  10  -1    0.86    1.48
   8  10   1   -0.68    1.86
  -9  10   1   -0.79    1.59
   9 -10   1   -2.59    2.21
   9  10  -1    0.93    2.21
   9  10   1    1.00    2.04
  -9  10  -1   -2.45    1.50
   0  11  -1    0.69    1.14
   0 -11   1    1.15    1.13
   0  11   1   -0.19    0.99
   0 -11  -1   -2.17    1.10
   1 -11   1   60.10    3.69
  -1  11   1   51.96    3.43
   1  11  -1   51.33    3.67
  -1 -11  -1   53.27    3.53
   1 -11  -1   51.94    3.54
  -1  11  -1   50.14    3.45
   1  11   1   57.11    3.47
  -1 -11   1   50.16    3.50
  -2 -11  -1   -0.02    1.16
   2  11  -1   -0.19    1.23
   2 -11   1    1.48    1.36
  -2  11   1    0.16    0.97
  -2  11  -1    1.41    1.05
   2 -11  -1    1.00    1.29
   2  11   1    2.53    1.20
  -2 -11   1   -0.80    1.11
  -3  11   1   44.84    3.14
   3 -11   1   49.60    3.60
  -3 -11  -1   51.04    3.35
   3  11  -1   45.80    3.49
   3  11  -1   45.98    3.55
   3  11   1   48.20    3.43
  -3 -11   1   47.26    3.23
   3 -11  -1   49.88    3.49
  -3  11  -1   44.74    3.20
   3  11   1   47.21    3.54
  -4  11   1    2.49    1.11
   4 -11   1   -0.55    1.50
   4  11  -1    0.31    1.47
  -4 -11  -1    0.26    1.12
  -4 -11   1    0.38    1.10
   4  11   1    1.67    1.44
   4 -11  -1   -1.12    1.47
  -4 -11   1    0.19    1.05
   4  11   1   -0.86    1.18
  -4  11  -1    0.30    1.12
  -5 -11  -1  183.81    9.35
   5  11  -1  174.71   10.25
   5 -11   1  176.67    9.75
  -5 -11   1  173.91    9.25
  -5 -11   1  185.10    9.59
   5  11   1  164.26   10.16
   5 -11  -1  173.39    9.70
  -6  11   1    0.22    1.23
  -6 -11  -1    0.55    1.33
   6 -11   1   -0.16    1.88
   6  11  -1    2.72    1.89
  -6  11  -1   -0.16    1.22
   6 -11  -1   -1.20    1.85
  -6 -11   1    1.53    1.15
   6  11   1    0.51    1.73
  -7  11   1   23.31    2.57
   7  11  -1   25.01    3.10
   7 -11   1   29.19    3.17
   7  11   1   22.38    2.93
   7 -11  -1   27.89    3.12
  -7  11  -1   23.95    2.56
   8  11  -1    2.23    2.18
   8 -11   1    0.69    2.33
  -8  11   1    0.11    1.57
   8  11   1   -0.49    1.98
  -8  11  -1    0.50    1.52
   8 -11  -1    1.07    2.32
  -9  11   1   14.95    2.41
   9 -11   1   18.85    3.20
   9  11  -1   16.85    3.12
  -9  11  -1   18.40    2.44
   9  11   1   16.13    3.02
   0  12   1    3.17    1.21
   0 -12   1    1.15    1.34
   0 -12  -1    3.03    1.36
   0  12  -1    3.14    1.35
   1  12  -1    0.48    1.34
  -1  12   1    1.43    1.00
  -1 -12  -1   -2.64    1.18
   1 -12   1   -1.38    1.27
   1  12   1    0.88    1.15
   1 -12  -1   -1.78    1.21
  -1 -12   1   -0.03    1.21
  -1  12  -1   -0.03    1.17
  -2 -12  -1    0.32    1.23
   2 -12   1    1.07    1.41
   2  12  -1    0.03    1.23
  -2  12   1    0.02    1.05
   2  12   1   -0.61    1.13
   2 -12  -1    0.48    1.34
  -2 -12   1    1.94    1.27
  -2  12  -1   -0.13    1.20
  -3  12   1    6.14    1.34
   3  12  -1    7.56    1.70
   3 -12   1    8.82    1.85
  -3 -12  -1    7.69    1.50
   3 -12  -1    9.23    1.77
  -3 -12   1   12.11    1.54
   3  12   1   11.89    1.72
  -3  12  -1    6.66    1.50
   4 -12   1   10.06    1.99
   4  12  -1    9.76    1.85
  -4 -12  -1    8.04    1.54
  -4  12   1    5.93    1.48
   4 -12  -1    6.16    1.88
  -4  12  -1    5.14    1.46
  -4 -12   1    7.15    1.45
   4  12   1    6.88    1.65
   5 -12   1    3.93    1.91
  -5 -12  -1    1.83    1.35
  -5  12   1    1.15    1.22
   5  12  -1    4.54    1.95
   5  12   1    1.10    1.72
   5 -12  -1   -0.73    1.78
  -5 -12   1   -0.61    1.22
  -5 -12   1   -0.18    1.21
  -5  12  -1    0.19    1.26
  -6  12   1    4.29    1.63
   6 -12   1    6.10    2.15
  -6 -12  -1    5.34    1.56
   6  12  -1    6.55    2.25
   6 -12  -1   -0.83    2.01
   6  12   1    4.27    2.17
  -6  12  -1    0.22    1.30
   7  12  -1    1.98    2.14
   7 -12   1    4.57    2.28
  -7  12   1   -0.82    1.57
  -7  12  -1    0.76    1.39
   7 -12  -1    3.21    2.25
   7  12   1    1.00    2.06
   8  12  -1   -0.06    2.19
  -8  12   1    0.70    1.82
   8 -12   1    1.94    2.53
   8 -12  -1    0.96    2.45
   8  12   1    3.38    2.33
  -8  12  -1    3.54    1.85
   0  13   1    0.58    1.15
   0  13  -1   -1.07    1.15
   0 -13  -1   -0.84    1.33
   0 -13   1   -1.67    1.34
   1  13  -1   31.50    2.62
  -1  13   1   23.45    2.34
   1 -13   1   26.18    2.54
  -1 -13  -1   28.52    2.47
  -1 -13   1   28.83    2.48
   1  13   1   30.12    2.58
   1 -13  -1   25.43    2.47
  -1  13  -1   27.39    2.61
  -2 -13  -1    0.49    1.33
   2 -13   1    1.53    1.53
   2  13  -1   -2.13    1.34
  -2  13   1   -0.90    1.05
   2 -13  -1    1.59    1.47
   2  13   1    1.25    1.24
  -2 -13   1    1.70    1.34
  -2  13  -1    1.80    1.32
   3  13  -1   29.19    2.95
   3 -13   1   29.52    2.91
  -3  13   1   23.88    2.60
  -3 -13  -1   30.95    2.63
  -3 -13   1   35.68    2.77
   3  13   1   36.32    3.02
   3 -13  -1   39.55    3.14
  -3  13  -1   36.15    2.93
  -4 -13  -1   -0.58    1.34
   4 -13   1    1.09    1.75
   4  13  -1    0.97    1.50
  -4  13   1    0.04    1.15
   4  13   1   -2.91    1.26
  -4  13  -1    1.76    1.23
  -4 -13   1    0.47    1.32
   4 -13  -1    3.67    1.84
   5 -13   1   30.61    3.17
   5  13  -1   36.56    3.09
  -5 -13  -1   34.85    2.76
  -5  13   1   27.28    2.81
   5 -13  -1   28.00    3.13
  -5 -13   1   33.79    2.84
  -6  13   1   -0.83    1.45
   6 -13   1    1.65    2.11
  -6 -13  -1   -0.84    1.49
  -6  13  -1    0.35    1.52
   6 -13  -1   -0.27    2.12
  -7  13   1    6.23    2.01
   7 -13   1    9.29    2.64
   7  13  -1   13.75    2.87
  -7  13  -1   10.86    1.96
   7  13   1   14.22    2.84
   7 -13  -1   13.09    2.73
   8 -13   1    3.67    2.66
  -8  13   1    4.84    1.78
   8  13  -1    4.62    2.70
   8 -13  -1    3.88    2.69
  -8  13  -1    3.90    1.93
   8  13   1    4.68    2.60
   0 -14  -1   16.33    2.18
   0  14   1   17.86    2.14
   0  14  -1   17.69    2.30
   0 -14   1   18.05    2.24
   1  14  -1   -2.85    1.37
  -1  14   1   -0.28    1.21
   1 -14   1   -1.36    1.57
  -1 -14  -1    0.85    1.47
  -1  14  -1    1.84    1.35
   1  14   1    2.16    1.36
   1 -14  -1   -1.16    1.50
  -1 -14   1    2.25    1.52
   2 -14   1    3.28    1.77
  -2 -14  -1    4.31    1.64
  -2  14   1    2.77    1.42
   2  14  -1    1.41    1.62
   2  14   1    2.66    1.46
   2 -14  -1    4.96    1.80
  -2  14  -1    2.81    1.54
  -2 -14   1    6.97    1.62
  -3 -14  -1   -0.60    1.40
  -3  14   1   -1.03    1.25
   3 -14   1   -2.06    1.75
   3  14  -1    0.97    1.63
   3  14   1    1.64    1.42
  -3  14  -1   -0.01    1.34
   3 -14  -1   -1.50    1.60
  -3 -14   1    1.78    1.43
   4  14  -1    2.38    1.61
   4 -14   1   -1.21    1.82
  -4 -14  -1   -0.96    1.46
  -4  14   1   -0.62    1.40
  -4 -14   1    1.50    1.51
  -4  14  -1    2.25    1.49
   4 -14  -1   -0.29    1.83
   5  14  -1   -1.18    1.52
  -5  14   1   -0.58    1.39
   5 -14   1    4.12    2.09
  -5 -14  -1   -0.71    1.53
  -5  14  -1   -0.23    1.41
   5 -14  -1    0.44    2.00
  -5 -14   1   -0.53    1.45
   6 -14   1    2.78    2.25
  -6  14   1    3.09    1.54
  -6 -14  -1    0.04    1.63
  -6  14  -1    5.09    1.84
   6 -14  -1    8.05    2.41
   7 -14   1    1.66    2.43
  -7  14   1    0.40    1.78
  -7  14  -1    0.06    1.70
   7 -14  -1   -4.75    2.26
   0  15  -1   -1.20    1.50
   0 -15   1   -0.88    1.67
   0  15   1    0.83    1.41
   0 -15  -1    1.12    1.67
   1  15  -1   41.03    3.77
   1 -15   1   40.39    3.66
  -1  15   1   44.86    3.61
  -1 -15  -1   47.80    3.81
  -1 -15   1   52.44    3.83
   1 -15  -1   52.79    3.94
   1  15   1   50.51    3.66
  -1  15  -1   51.10    3.72
  -2 -15  -1    1.17    1.63
   2 -15   1    1.74    1.85
  -2  15   1    1.53    1.46
   2  15  -1    1.16    1.68
   2  15   1    2.69    1.70
  -2 -15   1    2.54    1.67
   2 -15  -1   -1.54    1.74
  -2  15  -1    2.41    1.52
   3  15  -1   22.93    2.86
   3 -15   1   20.61    2.85
  -3  15   1   27.11    2.71
  -3 -15  -1   32.07    2.71
   3  15   1   30.09    2.88
  -3  15  -1   25.93    2.76
   3 -15  -1   26.42    2.92
  -3 -15   1   28.54    2.62
  -4 -15  -1   -0.52    1.56
   4 -15   1    3.85    2.06
   4  15  -1    3.26    1.83
  -4  15   1   -0.18    1.49
  -4 -15   1   -1.47    1.45
   4 -15  -1   -0.31    1.94
  -4  15  -1   -1.16    1.40
   5 -15   1   14.79    2.65
  -5  15   1   13.13    2.21
  -5 -15  -1   17.60    2.24
  -5 -15   1   14.44    2.12
  -5  15  -1   13.48    2.27
   5 -15  -1   15.02    2.66
  -6  15   1    2.24    1.62
  -6 -15  -1    3.67    1.76
   6 -15   1    2.89    2.23
   6 -15  -1   -1.41    2.25
  -6  15  -1    1.59    1.82
   0  16   1    0.16    1.55
   0  16  -1    0.85    1.72
   0 -16   1   -0.62    1.76
   0 -16  -1   -1.00    1.77
   1 -16   1   -1.76    1.89
  -1 -16  -1    0.24    1.75
   1  16  -1   -1.58    1.50
  -1  16   1    0.92    1.58
   1  16   1    0.94    1.58
  -1 -16   1    0.42    1.78
   1 -16  -1    2.62    1.91
  -1  16  -1   -0.56    1.51
   2  16  -1   -1.75    1.70
  -2 -16  -1    2.31    1.83
  -2  16   1    1.09    1.58
   2 -16   1    2.70    2.07
  -2 -16   1    2.81    1.80
   2  16   1    3.50    1.78
  -2  16  -1   -1.20    1.70
   2 -16  -1   -0.51    1.91
  -3 -16  -1    4.29    1.88
  -3  16   1    3.53    1.70
   3 -16   1    1.24    2.09
   3  16  -1    4.15    1.91
   3 -16  -1    5.77    2.30
  -3  16  -1    6.76    1.96
  -3 -16   1    0.85    1.79
  -4  16   1   -1.43    1.65
   4 -16   1   -2.07    2.01
  -4 -16  -1    1.87    1.82
   4  16  -1   -0.66    1.84
  -4  16  -1    0.95    1.73
  -4 -16   1   -2.15    1.66
   4 -16  -1    0.91    2.19
  -5 -16  -1    0.42    1.79
  -5  16   1   -0.43    1.70
   5 -16   1   -1.22    2.22
   5 -16  -1   -0.60    2.22
  -5  16  -1    3.22    1.92
   0  17  -1   -0.41    1.89
   0 -17  -1   -1.14    1.87
   0 -17   1   -0.90    1.93
   0  17   1   -0.05    1.67
  -1 -17  -1   17.90    2.54
   1  17  -1   17.54    2.68
  -1  17   1   20.08    2.66
   1 -17   1   16.90    2.72
   1 -17  -1   17.38    2.62
  -1 -17   1   17.10    2.58
   1  17   1   25.38    2.83
  -1  17  -1   20.98    2.70
  -2  17   1   -0.02    1.73
   2 -17   1   -0.46    2.06
  -2 -17  -1    0.22    1.92
   2  17  -1    1.74    1.99
  -2  17  -1    4.85    2.08
  -2 -17   1    0.17    1.89
   2  17   1   -0.49    1.73
   2 -17  -1    3.48    2.24
   3 -17   1   18.34    2.96
   3  17  -1   14.21    2.60
  -3  17   1   17.85    2.49
  -3 -17  -1   20.55    2.55
  -3 -17   1   21.69    2.60
   3 -17  -1   19.09    2.91
  -3  17  -1   17.97    2.76
   0   0   2  108.88    5.80
  -1   0   2  183.48    9.27
   1   0   2  174.18    9.71
   1   0  -2  182.85    9.79
   1   0   2  194.40    9.12
  -2   0  -2    6.40    0.55
   2   0  -2    7.50    0.78
  -2   0   2    7.15    0.64
   2   0   2    6.57    0.71
   2   0   2    5.76    0.61
  -3   0  -2  100.03    5.19
   3   0  -2  103.29    5.06
   3   0  -2   99.44    5.61
   3   0   2  104.44    5.20
  -3   0   2  101.83    5.29
   3   0   2   96.50    5.59
   4   0  -2  526.99   24.21
   4   0   2  477.66   26.02
  -4   0   2  485.93   24.78
   4   0   2  502.85   24.33
  -4   0  -2  485.01   24.69
   4   0  -2  466.68   26.04
  -5   0  -2   12.86    1.05
   5   0   2    9.82    1.29
   5   0  -2   12.42    1.39
  -5   0   2   11.80    1.17
  -6   0  -2  248.38   12.31
  -6   0   2  234.78   12.16
   6   0   2  245.69   13.40
  -6   0   2  242.68   12.63
  -6   0  -2  253.18   12.56
   6   0  -2  242.15   13.39
  -7   0  -2   16.22    1.50
  -7   0   2   18.02    1.74
   7   0  -2   18.74    2.10
  -7   0  -2   20.21    1.65
   7   0   2   17.84    2.06
  -8   0  -2    5.17    1.12
   8   0   2    4.73    1.65
   8   0  -2    4.39    1.60
  -8   0  -2    7.02    1.28
  -8   0   2    9.29    1.42
   9   0  -2    0.07    1.57
   9   0   2    2.33    1.66
  -9   0   2   -0.32    1.17
  10   0  -2    4.89    1.98
  10   0   2    2.97    1.96
 -10   0   2    7.63    1.61
  11   0   2    1.88    2.09
 -11   0   2    2.30    1.73
  11   0  -2    1.85    1.95
   0  -1   2    0.89    0.23
   0  -1   2    1.05    0.27
   0   1   2    0.87    0.23
   0  -1  -2    0.10    0.17
   0  -1   2    0.93    0.25
   1   1  -2  629.96   30.55
  -1   1   2  594.67   30.58
   1  -1   2  591.39   28.59
  -1   1   2  573.44   29.09
   1  -1   2  558.86   30.46
  -1  -1  -2  567.58   28.55
  -1  -1   2  578.23   29.10
  -1   1  -2  557.92   29.05
   1  -1  -2  548.99   28.52
   1   1   2  607.33   30.50
   2  -1   2  313.03   15.66
   2   1  -2  345.14   16.78
  -2   1   2  319.13   15.93
  -2  -1  -2  304.80   15.83
  -2  -1  -2  312.45   15.60
   2  -1   2  301.42   16.67
  -2  -1   2  313.74   15.93
   2  -1  -2  310.37   15.61
   2  -1  -2  317.88   16.74
   2   1   2  311.51   16.72
  -2   1  -2  322.22   15.88
  -3  -1  -2   10.27    0.85
   3  -1   2    8.86    0.81
   3   1  -2    9.69    1.00
  -3  -1  -2    7.87    0.72
   3  -1   2    9.55    0.92
  -3   1   2    8.39    0.79
  -3  -1   2    9.61    0.79
   3  -1  -2   10.19    0.79
   3  -1  -2    9.58    0.94
  -3  -1   2    7.74    0.61
  -3   1  -2    8.18    0.75
   3   1   2    9.77    0.96
  -4   1   2   19.31    1.44
   4  -1   2   20.52    1.66
   4  -1   2   18.70    1.48
  -4  -1  -2   20.23    1.39
  -4  -1  -2   18.43    1.33
   4   1  -2   19.58    1.66
   4  -1  -2   22.63    1.76
   4  -1  -2   20.87    1.29
  -4   1  -2   20.29    1.38
  -4  -1   2   18.88    1.17
  -4  -1   2   19.88    1.51
   4   1   2   22.73    1.76
  -5  -1  -2    7.90    0.82
  -5  -1  -2    6.45    0.78
   5  -1   2    5.41    0.89
   5   1  -2    6.56    1.16
   5  -1   2    7.91    1.11
  -5   1   2    7.39    0.95
  -5  -1   2    6.58    0.90
   5  -1  -2    7.25    0.76
   5  -1  -2    7.42    1.14
  -5   1  -2    7.11    0.81
   5   1   2    6.88    1.14
  -5  -1   2    7.54    0.63
   6   1  -2    0.41    1.05
   6  -1   2    1.71    1.06
  -6  -1  -2    0.81    0.69
  -6  -1  -2    1.78    0.72
  -6   1   2    1.21    0.75
   6  -1   2    1.99    0.81
  -6   1  -2    2.03    0.70
   6  -1  -2    0.42    0.66
   6  -1  -2    2.21    1.10
  -6  -1   2    0.70    0.49
   6   1   2   -0.41    1.00
  -6  -1   2    2.73    0.81
  -7  -1  -2    3.17    0.86
   7  -1   2    2.26    0.99
  -7  -1  -2    1.87    0.85
   7  -1   2    1.88    1.32
   7   1  -2    0.19    1.30
  -7   1   2    2.49    1.04
   7  -1  -2    2.69    1.36
   7   1   2    0.88    1.30
  -7  -1   2    2.59    0.90
  -7   1  -2    2.13    0.92
  -8  -1  -2   18.57    1.70
  -8   1   2   16.70    1.77
   8  -1   2   20.51    2.31
  -8  -1  -2   16.69    1.58
   8   1  -2   18.21    2.27
  -8  -1   2   19.43    1.79
   8   1   2   19.44    2.35
   8  -1  -2   17.02    2.22
  -8   1  -2   16.59    1.72
  -8   1  -2   17.72    1.64
   9  -1   2    6.10    1.88
   9   1  -2    3.52    1.74
  -9   1   2    5.54    1.54
   9   1   2    7.44    1.96
  -9  -1   2    5.22    1.39
  -9   1  -2    6.74    1.36
  -9   1  -2    8.19    1.35
   9  -1  -2    6.98    1.85
  10  -1   2    1.10    1.81
  10   1  -2    2.48    1.89
 -10   1   2    3.88    1.51
  10   1   2    6.97    2.06
  10  -1  -2    3.38    1.94
 -10  -1   2    4.08    1.50
  11   1  -2    3.26    2.06
 -11   1   2    5.36    1.83
  11  -1   2    8.42    2.24
 -11  -1   2    3.75    1.71
  11  -1  -2    1.99    1.98
  11   1   2    3.12    2.05
   0   2   2  384.67   19.83
   0  -2   2  398.85   19.56
   0  -2  -2  403.53   19.50
   0  -2   2  358.39   19.92
   0   2   2  433.57   20.82
  -1   2   2   14.53    1.20
   1   2  -2   15.14    1.07
  -1   2   2   12.09    0.89
  -1  -2  -2   13.27    0.88
   1  -2   2   12.57    0.84
  -1  -2   2   12.12    0.84
   1  -2  -2   11.77    0.86
  -1   2  -2   12.14    0.88
   1   2   2   14.88    1.01
  -1  -2   2   12.44    0.99
  -2  -2  -2  326.92   17.27
  -2   2   2  322.06   17.36
   2   2  -2  365.78   18.28
   2  -2   2  322.86   18.15
   2  -2   2  357.96   17.14
  -2  -2  -2  337.39   17.01
   2  -2  -2  353.77   17.04
  -2  -2   2  340.59   17.38
  -2  -2   2  314.38   16.94
   2  -2  -2  356.64   18.24
   2   2   2  381.42   18.26
  -2   2  -2  358.12   17.35
  -3  -2  -2   18.19    1.24
   3  -2   2   20.45    1.49
  -3  -2  -2   21.41    1.29
  -3   2   2   19.68    1.42
   3  -2   2   20.45    1.51
   3   2  -2   25.86    1.74
  -3  -2   2   18.97    1.16
  -3   2  -2   22.32    1.36
  -3  -2   2   21.22    1.38
   3  -2  -2   20.73    1.50
   3  -2  -2   19.65    1.53
   3   2   2   20.12    1.56
  -4  -2  -2  458.63   23.01
   4  -2   2  462.42   24.66
   4  -2   2  449.44   23.11
  -4  -2  -2  476.32   23.42
  -4   2   2  464.74   23.53
   4   2  -2  474.50   24.77
  -4  -2   2  460.63   23.51
  -4  -2   2  464.44   22.92
   4  -2  -2  453.15   24.68
   4   2   2  484.34   24.75
  -4   2  -2  467.71   23.47
   4  -2  -2  473.07   23.04
   5  -2   2   -1.32    0.71
   5   2  -2    0.91    0.86
  -5  -2  -2    0.88    0.54
  -5  -2  -2    0.51    0.48
  -5   2   2   -0.29    0.59
   5  -2   2   -0.19    0.69
   5  -2  -2    0.99    0.81
  -5  -2   2    0.38    0.39
   5   2   2    0.80    0.83
  -5   2  -2    0.73    0.54
  -5  -2   2   -0.04    0.57
   5  -2  -2    0.20    0.57
  -6  -2  -2  121.50    6.30
  -6  -2  -2  115.06    6.42
   6   2  -2  114.09    7.07
  -6   2   2  124.67    6.58
   6  -2   2  125.89    7.01
   6  -2   2  122.31    6.43
  -6   2  -2  125.75    6.49
  -6  -2   2  121.22    6.51
  -6  -2   2  119.55    6.15
   6  -2  -2  118.78    7.01
   6   2   2  123.93    7.06
   6  -2  -2  122.58    6.29
   7  -2   2    1.46    1.26
  -7  -2  -2    2.90    0.87
   7   2  -2    2.38    1.35
  -7   2   2    2.04    0.95
   7  -2   2    1.39    1.02
  -7  -2  -2    2.52    0.86
  -7  -2   2    2.51    0.97
   7   2   2    0.88    1.31
   7  -2  -2    3.45    0.90
   7  -2  -2    1.73    1.33
  -7   2  -2    2.35    0.92
   8   2  -2   58.80    4.38
  -8  -2  -2   61.14    3.71
   8  -2   2   63.22    4.31
  -8  -2  -2   58.93    3.52
  -8   2   2   54.67    3.82
   8  -2   2   54.64    3.63
  -8   2  -2   60.31    3.73
   8   2   2   53.30    4.27
   8  -2  -2   61.67    4.31
  -8  -2   2   59.28    3.82
   9  -2   2    1.52    1.60
  -9   2   2   -0.07    1.24
   9   2  -2    2.12    1.66
   9  -2  -2    0.66    1.53
   9   2   2    2.59    1.66
  -9   2  -2    2.05    1.21
  -9  -2   2    1.96    1.20
  10  -2   2   19.09    2.59
  10   2  -2   16.84    2.61
 -10   2   2   15.64    2.15
  10  -2  -2   17.43    2.53
 -10  -2   2   14.03    2.01
  10   2   2   12.15    2.45
  11  -2   2    1.32    1.92
  11   2  -2    0.52    1.91
 -11   2   2   -2.16    1.57
  11   2   2    3.59    2.09
  11  -2  -2    0.43    1.90
   0   3   2    0.03    0.28
   0  -3  -2    0.42    0.37
   0   3  -2    0.00    0.39
   0  -3   2   -0.18    0.45
   0  -3   2    0.16    0.35
   0   3   2    0.10    0.32
  -1   3   2  124.53    6.57
  -1  -3  -2  134.52    6.46
   1  -3   2  125.31    6.61
  -1   3   2  132.45    6.93
   1   3  -2  145.56    6.94
   1  -3  -2  123.24    6.44
   1   3   2  130.86    6.89
  -1   3  -2  118.04    6.56
  -1  -3   2  121.04    6.41
   1   3   2  124.96    6.49
  -1  -3   2  125.59    6.70
   2  -3   2   17.29    1.54
  -2  -3  -2   17.23    1.23
   2  -3   2   17.94    1.21
  -2   3   2   17.35    1.23
  -2  -3  -2   20.18    1.26
   2   3  -2   20.25    1.52
  -2  -3   2   18.12    1.35
  -2   3  -2   19.45    1.24
   2  -3  -2   19.75    1.31
   2  -3  -2   21.56    1.42
   2   3   2   20.08    1.44
  -2  -3   2   16.45    1.14
   3  -3   2    0.54    0.69
  -3  -3  -2   -0.02    0.29
   3   3  -2   -0.27    0.62
  -3  -3  -2    0.81    0.40
   3  -3   2    0.35    0.45
  -3   3   2    0.55    0.43
   3   3   2   -0.47    0.55
   3  -3  -2    1.07    0.66
  -3  -3   2    0.63    0.40
  -3   3  -2    0.50    0.44
   3  -3  -2    0.14    0.49
  -3  -3   2   -0.06    0.30
  -4  -3  -2   67.25    3.62
  -4   3   2   66.42    3.73
  -4  -3  -2   63.99    3.58
   4  -3   2   65.68    3.92
   4  -3   2   72.72    3.83
   4   3  -2   64.41    4.12
  -4  -3   2   69.96    3.73
  -4   3  -2   69.58    3.73
  -4  -3   2   63.81    3.47
   4   3   2   75.42    4.11
   4  -3  -2   69.89    3.77
   4  -3  -2   62.03    3.95
  -5  -3  -2   13.66    1.15
   5  -3   2   14.52    1.46
  -5  -3  -2   14.48    1.17
   5   3  -2   17.14    1.74
  -5   3   2   16.08    1.42
   5  -3   2   17.49    1.51
   5   3   2   14.62    1.62
  -5  -3   2   14.69    1.17
  -5  -3   2   18.69    1.54
  -5   3  -2   17.74    1.43
   5  -3  -2   15.28    1.53
   5  -3  -2   16.80    1.35
  -6  -3  -2   30.28    2.11
  -6  -3  -2   30.88    2.07
   6  -3   2   29.20    2.58
   6  -3   2   29.94    2.34
   6   3  -2   31.75    2.85
  -6   3   2   29.55    2.29
   6   3   2   33.59    2.75
   6  -3  -2   33.09    2.61
  -6   3  -2   32.59    2.22
   6  -3  -2   30.94    2.17
  -6  -3   2   31.47    1.94
  -6  -3   2   34.76    2.34
   7   3  -2    0.48    1.28
  -7  -3  -2    0.77    0.71
  -7  -3  -2   -0.71    0.76
  -7   3   2    1.65    1.03
   7  -3   2    0.26    1.20
   7  -3   2    1.07    1.06
  -7  -3   2    1.28    0.90
   7  -3  -2    0.35    0.88
   7  -3  -2    1.09    1.27
   7   3   2   -1.47    1.27
  -7   3  -2   -0.39    0.89
   8  -3   2    4.01    1.30
  -8   3   2    4.02    1.28
  -8  -3  -2    7.19    1.14
   8  -3   2    5.52    1.62
   8   3  -2    4.54    1.65
   8   3   2    7.67    1.79
  -8  -3   2    7.83    1.30
   8  -3  -2    4.42    1.60
  -8   3  -2    7.38    1.27
   9  -3   2    2.37    1.60
   9   3  -2   -0.47    1.58
   9  -3   2    0.17    1.24
  -9   3   2   -0.93    1.12
   9  -3  -2   -0.86    1.49
  -9  -3   2    2.49    1.24
   9   3   2   -0.99    1.56
  -9   3  -2   -0.26    1.14
 -10   3   2    1.87    1.49
  10   3  -2   -0.92    1.76
  10  -3   2   -3.17    1.54
  10   3   2    0.12    1.81
  10  -3  -2    0.11    1.70
 -10   3  -2   -0.90    1.33
 -10  -3   2   -0.96    1.38
 -11   3   2   -0.08    1.66
  11   3  -2    1.29    2.02
  11   3   2    2.65    2.10
  11  -3  -2    0.60    1.85
   0  -4   2  310.87   15.64
   0  -4   2  327.22   15.97
   0  -4  -2  330.93   15.62
   0   4   2  288.52   16.60
   0   4   2  317.66   15.87
  -1   4   2    0.77    0.40
  -1  -4  -2    0.65    0.42
  -1   4   2    0.57    0.47
   1  -4   2    0.27    0.58
   1   4  -2    1.44    0.49
   1  -4  -2    0.43    0.43
  -1   4  -2    0.17    0.36
  -1  -4   2    1.46    0.51
   1   4   2    0.79    0.42
  -1  -4   2    1.09    0.42
   1   4   2    0.99    0.32
  -2  -4  -2  297.69   15.29
  -2  -4  -2  308.71   15.06
   2  -4   2  295.02   15.26
   2   4  -2  323.69   16.16
   2  -4   2  297.34   15.93
  -2   4   2  297.78   15.38
  -2  -4   2  294.17   15.42
   2  -4  -2  302.45   16.07
  -2   4  -2  294.24   15.36
   2   4   2  322.03   16.13
  -2  -4   2  301.34   15.01
   2  -4  -2  303.69   15.09
  -3   4   2    1.29    0.57
   3  -4   2    1.54    0.48
  -3  -4  -2    1.55    0.46
   3  -4   2    1.62    0.85
   3   4  -2    1.31    0.73
  -3  -4  -2    0.65    0.48
   3  -4  -2    0.80    0.67
  -3  -4   2    2.31    0.56
   3  -4  -2    1.49    0.55
   3   4   2    0.90    0.64
  -3   4  -2    1.91    0.54
  -3  -4   2    1.62    0.43
  -4   4   2   76.92    4.29
  -4  -4  -2   75.19    4.11
   4  -4   2   76.72    4.41
  -4  -4  -2   74.74    4.14
   4  -4   2   82.29    4.46
   4   4  -2   78.28    4.72
  -4   4  -2   85.76    4.28
  -4  -4   2   74.50    4.01
   4  -4  -2   71.67    4.37
  -4  -4   2   78.13    4.29
   4  -4  -2   73.79    4.44
   4   4   2   86.31    4.66
  -5   4   2   16.29    1.52
  -5  -4  -2   17.02    1.45
  -5  -4  -2   15.31    1.38
   5  -4   2   17.86    1.70
   5   4  -2   18.66    1.85
   5  -4   2   18.29    1.51
   5  -4  -2   16.37    1.57
  -5   4  -2   20.52    1.63
  -5  -4   2   16.68    1.29
   5   4   2   15.84    1.71
  -5  -4   2   16.85    1.44
   5  -4  -2   16.22    1.56
  -6  -4  -2   59.98    3.49
  -6  -4  -2   57.69    3.55
   6  -4   2   60.89    3.82
  -6   4   2   63.63    3.79
   6  -4   2   62.39    4.03
   6   4  -2   63.90    4.35
   6  -4  -2   60.31    4.08
  -6  -4   2   62.15    3.39
  -6  -4   2   65.97    3.76
   6  -4  -2   65.98    3.70
  -6   4  -2   63.80    3.72
   6   4   2   60.46    4.15
   7  -4   2    2.75    1.26
  -7  -4  -2    1.78    0.87
   7  -4   2    2.75    1.29
   7   4  -2    3.29    1.47
  -7   4   2    4.35    1.12
  -7  -4  -2    2.62    0.84
  -7  -4   2    5.50    1.13
   7   4   2    3.26    1.43
   7  -4  -2    2.93    1.39
  -7   4  -2    3.93    1.10
   7  -4  -2    2.40    1.08
   8   4  -2   70.46    4.88
  -8  -4  -2   65.67    3.93
   8  -4   2   64.65    4.15
  -8   4   2   66.94    4.16
   8  -4   2   68.31    4.61
  -8   4  -2   67.07    4.12
   8   4   2   67.06    4.74
  -8  -4   2   68.46    4.23
   8  -4  -2   66.07    4.63
  -9   4   2    0.53    1.33
   9  -4   2    1.81    1.39
   9  -4   2   -1.01    1.38
   9   4  -2    0.37    1.63
  -9  -4   2    1.42    1.20
   9   4   2   -0.09    1.63
  -9   4  -2   -1.27    1.20
   9  -4  -2    2.17    1.59
  10   4  -2   29.10    3.50
 -10   4   2   36.53    3.12
  10   4   2   39.95    3.77
  10  -4  -2   40.22    3.59
 -10   4  -2   40.54    3.32
 -11   4   2   -0.06    1.64
  11   4  -2    1.29    2.03
  11   4   2   -2.82    1.87
   0   5  -2    0.09    0.38
   0   5   2    0.18    0.39
   0   5   2    0.01    0.35
   0   5  -2   -0.18    0.55
   0  -5  -2    0.07    0.49
   0  -5   2   -0.48    0.47
   1   5  -2   60.02    3.27
  -1   5   2   55.88    3.23
  -1   5   2   60.65    3.16
   1  -5   2   57.48    3.27
  -1  -5  -2   56.57    3.09
   1   5   2   50.35    3.22
  -1  -5   2   57.73    3.26
   1   5   2   54.14    3.03
  -1   5  -2   57.41    3.15
  -1  -5   2   57.01    3.07
   1  -5  -2   55.73    3.10
  -2  -5  -2    2.43    0.44
  -2  -5  -2    1.98    0.57
   2   5  -2    2.84    0.72
  -2   5   2    1.62    0.56
   2  -5   2    1.47    0.81
   2  -5  -2    2.07    0.57
  -2   5  -2    2.76    0.59
  -2  -5   2    2.11    0.69
  -2  -5   2    2.28    0.51
   2   5   2    2.20    0.63
   2  -5  -2    3.13    0.66
   3   5  -2    5.39    0.98
  -3  -5  -2    4.78    0.68
   3  -5   2    4.84    0.58
  -3   5   2    4.52    0.78
  -3  -5  -2    5.23    0.71
   3  -5   2    4.91    1.11
   3  -5  -2    3.89    0.87
   3   5   2    4.21    0.89
   3  -5  -2    4.70    0.70
  -3   5  -2    3.98    0.77
  -3  -5   2    4.68    0.64
  -3  -5   2    5.37    0.81
  -4   5   2    2.99    0.78
   4   5  -2    3.76    1.04
  -4  -5  -2    2.93    0.66
  -4  -5  -2    3.44    0.70
   4  -5   2    4.67    0.70
   4  -5   2    2.92    1.15
   4  -5  -2    2.20    1.03
   4  -5  -2    3.85    0.79
  -4  -5   2    4.07    0.75
  -4  -5   2    2.34    0.58
   4   5   2    3.68    0.96
  -4   5  -2    3.78    0.77
   5  -5   2    1.40    1.19
  -5   5   2    2.30    0.87
   5   5  -2    2.26    1.15
  -5  -5  -2    0.75    0.58
   5  -5   2    0.06    0.74
  -5  -5  -2    1.43    0.70
  -5  -5   2    2.42    0.62
   5  -5  -2   -0.75    1.06
  -5  -5   2    1.27    0.71
   5   5   2    0.06    0.99
   5  -5  -2    1.69    0.88
  -5   5  -2    1.41    0.78
  -6  -5  -2   14.78    1.31
   6  -5   2   17.99    1.90
   6   5  -2   14.80    1.92
  -6   5   2   15.00    1.58
   6  -5   2   14.61    1.54
  -6  -5  -2   15.12    1.32
   6  -5  -2   13.25    1.63
   6  -5  -2   18.17    1.75
  -6  -5   2   14.45    1.19
  -6  -5   2   16.05    1.50
   6   5   2   10.38    1.73
  -6   5  -2   14.42    1.55
   7  -5   2    4.73    1.35
   7   5  -2    3.94    1.62
   7  -5   2    3.50    1.45
  -7   5   2    3.22    1.16
  -7  -5  -2    5.78    1.06
  -7  -5   2    5.44    1.12
  -7   5  -2    6.41    1.31
   7  -5  -2    7.19    1.43
   7  -5  -2    4.90    1.48
   7   5   2    4.35    1.58
  -8  -5  -2    0.27    0.96
   8   5  -2   -2.07    1.45
  -8   5   2   -1.54    1.11
   8  -5   2    0.80    1.37
   8   5   2    0.21    1.46
   8  -5  -2    0.04    1.35
  -8   5  -2    0.19    1.13
  -8  -5   2    0.01    0.99
  -9   5   2   -1.12    1.32
   9  -5   2    0.52    1.49
   9   5  -2   -1.16    1.68
  -9  -5   2    0.37    1.24
  -9   5  -2    0.43    1.26
   9   5   2    0.62    1.64
  10   5  -2    2.68    1.93
 -10   5   2   -1.61    1.37
  10   5   2    4.45    1.96
 -10   5  -2   -2.63    1.45
 -11   5   2    4.20    1.95
  11   5  -2    1.21    2.17
  11   5   2    3.92    2.21
   0  -6  -2  185.07    8.96
   0   6  -2  164.32    9.36
   0  -6   2  179.93    8.98
   0   6   2  172.93    9.44
   0   6  -2  180.77    9.20
   0   6   2  178.33    9.07
   1   6  -2    5.76    0.77
  -1  -6  -2    5.25    0.77
  -1   6   2    4.79    0.72
  -1   6   2    6.76    0.78
   1  -6   2    4.71    0.88
  -1  -6   2    5.96    0.81
   1   6   2    6.66    0.70
   1   6   2    4.68    0.70
  -1   6  -2    4.31    0.74
  -1  -6   2    5.73    0.75
   1  -6  -2    4.63    0.76
  -2  -6  -2  456.62   22.13
  -2   6   2  455.94   22.58
   2   6  -2  458.17   23.64
   2  -6  -2  434.46   22.15
  -2  -6   2  464.07   22.70
   2   6   2  418.34   22.47
  -2  -6   2  449.11   22.09
  -2   6  -2  434.56   22.56
   2   6   2  437.90   23.61
   2  -6  -2  450.43   23.53
  -3  -6  -2    7.27    0.82
   3  -6   2    8.52    1.34
  -3  -6  -2    8.27    0.91
  -3   6   2    5.96    0.94
   3   6  -2    6.72    1.12
   3  -6  -2    7.49    0.79
  -3  -6   2    8.60    1.04
  -3   6  -2    6.66    0.92
   3  -6  -2    5.78    1.03
   3   6   2    6.95    1.04
  -3  -6   2    6.49    0.80
  -4  -6  -2   23.31    1.92
   4  -6   2   24.43    2.15
  -4  -6  -2   25.78    1.84
  -4   6   2   26.15    1.94
   4  -6   2   24.25    1.69
   4   6  -2   26.45    2.33
  -4  -6   2   25.75    1.75
   4  -6  -2   23.18    2.03
  -4   6  -2   25.31    1.84
   4   6   2   24.87    2.22
  -4  -6   2   22.89    2.03
   4  -6  -2   22.04    1.84
  -5  -6  -2    9.27    1.10
  -5  -6  -2    8.36    1.09
   5  -6   2    8.63    1.67
  -5   6   2    7.47    1.23
   5   6  -2    8.87    1.55
   5  -6   2    9.89    1.08
   5  -6  -2    8.78    1.58
   5   6   2   10.27    1.50
  -5  -6   2   10.95    1.01
  -5  -6   2    9.23    1.17
   5  -6  -2   10.79    1.24
  -5   6  -2   10.60    1.30
  -6  -6  -2   25.26    2.06
  -6  -6  -2   30.85    2.18
   6  -6   2   24.82    2.51
  -6   6   2   26.15    2.24
   6   6  -2   26.34    2.61
   6  -6  -2   28.06    2.24
   6  -6  -2   26.47    2.40
  -6  -6   2   28.70    2.29
  -6   6  -2   25.46    2.14
  -6  -6   2   22.78    1.96
   6   6   2   26.91    2.50
   7  -6   2    3.28    1.60
  -7   6   2    0.25    1.20
   7   6  -2    3.53    1.62
  -7  -6  -2    1.72    0.98
  -7   6  -2    0.61    1.12
   7   6   2    1.39    1.44
   7  -6  -2    3.38    1.42
   7  -6  -2    0.89    1.27
  -7  -6   2    1.10    0.99
   8  -6   2   60.24    4.15
  -8  -6  -2   60.69    3.71
   8   6  -2   58.88    4.64
  -8   6   2   60.26    4.04
  -8   6  -2   59.38    3.98
  -8  -6   2   68.28    4.04
   8   6   2   56.21    4.48
   9   6  -2    1.61    1.85
   9  -6   2    1.71    1.67
  -9   6   2    2.47    1.60
  -9   6  -2    1.37    1.37
  -9  -6   2    0.38    1.21
   9   6   2    1.53    1.73
  10   6  -2   40.42    3.89
 -10   6   2   40.33    3.46
  10   6   2   31.66    3.58
 -10   6  -2   38.02    3.18
 -11   6   2    2.80    1.94
  11   6  -2    2.16    2.27
 -11   6  -2    3.30    1.85
  11   6   2   -0.77    2.09
   0   7   2   -1.27    0.49
   0   7  -2   -0.24    0.41
   0   7   2   -1.04    0.46
   0  -7   2   -1.01    0.64
   0   7  -2    0.03    0.67
   0  -7  -2    0.10    0.67
  -1  -7  -2   81.10    4.25
   1   7  -2   75.45    4.40
   1  -7   2   77.82    4.33
  -1   7   2   78.59    4.27
  -1  -7   2   78.78    4.46
  -1   7  -2   78.83    4.36
   1   7   2   74.37    4.18
   1  -7  -2   79.61    4.25
  -1  -7   2   76.70    4.20
   1   7   2   75.90    4.40
  -2   7   2   20.73    1.60
   2   7  -2   19.63    1.80
  -2  -7  -2   21.88    1.69
   2  -7   2   21.17    1.79
  -2  -7   2   21.55    1.63
   2   7   2   18.72    1.56
  -2  -7   2   20.00    1.75
  -2   7  -2   18.13    1.58
   2   7   2   21.89    1.72
   2  -7  -2   18.78    1.56
  -3  -7  -2    0.76    0.74
  -3   7   2   -0.19    0.72
   3   7  -2    1.53    0.96
   3  -7   2    0.13    1.09
  -3  -7  -2    0.36    0.54
   3   7   2   -0.72    0.83
   3  -7  -2   -0.01    0.50
  -3  -7   2    0.60    0.68
  -3   7  -2   -0.38    0.69
   3  -7  -2    0.52    0.90
  -3  -7   2   -1.10    0.63
  -4   7   2    5.81    1.12
   4   7  -2    2.59    1.21
  -4  -7  -2    4.20    0.80
  -4  -7  -2    4.14    0.92
   4  -7   2    5.08    1.47
  -4   7  -2    6.14    1.05
   4   7   2    3.75    1.18
  -4  -7   2    6.22    1.12
  -4  -7   2    4.55    0.84
   4  -7  -2    3.96    0.83
   4  -7  -2    4.52    1.31
  -5   7   2    1.91    1.10
   5   7  -2    2.00    1.39
   5  -7   2    0.79    1.50
  -5  -7  -2    2.21    0.90
  -5  -7  -2    3.03    0.90
  -5   7  -2    0.81    0.94
   5   7   2    0.80    1.23
  -5  -7   2    1.29    0.77
  -5  -7   2    2.95    0.97
   5  -7  -2    0.41    1.39
  -6   7   2    3.82    1.31
  -6  -7  -2    5.86    1.11
   6  -7   2    3.36    1.67
   6   7  -2    5.22    1.66
   6   7   2    4.98    1.50
  -6  -7   2    3.87    1.13
   6  -7  -2    1.32    1.55
  -6   7  -2    3.97    1.24
   7  -7   2    3.45    1.76
  -7   7   2    3.36    1.27
   7   7  -2    3.12    1.68
  -7  -7  -2    4.03    1.11
   7   7   2    0.39    1.45
  -7  -7   2    3.33    1.17
   7  -7  -2    4.90    1.65
  -7   7  -2    1.20    1.24
  -8   7   2    1.01    1.31
   8   7  -2   -0.53    1.68
   8  -7   2    2.69    1.74
  -8  -7   2    1.21    1.21
   8   7   2    5.70    1.71
  -8   7  -2    1.79    1.35
   9  -7   2    0.18    1.81
  -9   7   2   -0.35    1.45
   9   7  -2    2.60    1.95
   9   7   2    3.38    1.85
  -9   7  -2    1.34    1.39
 -10   7   2    1.11    1.77
  10   7  -2    1.25    2.05
  10   7   2    4.22    2.18
 -10   7  -2    2.13    1.53
   0   8   2  179.63    9.63
   0  -8   2  178.34    9.19
   0  -8  -2  175.31    9.15
   0   8  -2  171.05    9.50
   0   8   2  179.85    9.26
   0   8  -2  188.73    9.45
   1   8  -2   49.78    3.23
   1   8  -2   48.26    3.44
   1  -8   2   51.68    3.30
  -1  -8  -2   60.93    3.23
  -1   8   2   51.84    3.12
   1   8   2   51.18    3.25
  -1  -8   2   56.50    3.18
  -1   8  -2   56.50    3.26
   1   8   2   53.66    3.10
   1  -8  -2   57.97    3.28
  -2   8   2  109.50    6.10
  -2  -8  -2  115.67    6.03
   2  -8   2  119.29    6.26
   2   8  -2  111.84    6.38
  -2  -8   2  115.55    5.96
   2   8   2  109.19    6.01
  -2   8  -2  113.65    6.15
   2   8   2  107.64    6.33
   2  -8  -2  112.13    6.07
  -2  -8   2  113.11    6.23
   3   8  -2   17.63    1.79
  -3   8   2   15.16    1.58
  -3  -8  -2   17.71    1.51
   3  -8   2   16.64    1.87
  -3  -8   2   15.44    1.38
   3  -8  -2   17.44    1.65
  -3   8  -2   16.76    1.57
   3   8   2   17.57    1.70
  -3  -8   2   17.86    1.64
   3   8   2   14.10    1.47
  -4  -8  -2   54.64    3.20
   4  -8   2   55.15    3.69
  -4   8   2   50.24    3.25
  -4  -8  -2   46.77    3.06
   4   8  -2   45.87    3.64
   4  -8  -2   52.31    3.51
  -4   8  -2   51.07    3.19
   4   8   2   53.91    3.56
  -4  -8   2   51.73    3.37
  -4  -8   2   48.21    3.07
  -5   8   2    2.74    1.13
   5   8  -2   -2.16    1.33
   5  -8   2   -2.19    1.50
  -5  -8  -2    1.09    1.00
  -5  -8  -2    0.11    0.78
   5  -8  -2    0.54    1.49
  -5  -8   2    0.88    0.87
  -5  -8   2   -1.08    0.97
   5   8   2   -0.18    1.24
  -5   8  -2    0.15    1.03
  -6  -8  -2   25.99    2.09
  -6   8   2   27.78    2.43
   6   8  -2   24.24    2.69
   6  -8   2   24.34    2.71
   6   8   2   26.74    2.65
  -6   8  -2   26.37    2.36
  -6  -8   2   29.16    2.41
   6  -8  -2   27.31    2.73
  -7  -8  -2    1.83    1.14
  -7   8   2    0.97    1.37
   7  -8   2   -0.41    1.73
   7   8  -2   -1.16    1.53
  -7   8  -2   -0.08    1.22
   7   8   2    0.26    1.46
  -7  -8   2   -1.58    0.99
   7  -8  -2   -0.51    1.64
   8  -8   2   16.04    2.54
  -8   8   2   16.61    2.14
   8   8  -2    9.84    2.29
   8   8   2   11.98    2.25
  -8   8  -2   16.16    2.02
  -8  -8   2   17.22    1.95
  -9   8   2   -0.13    1.40
   9   8  -2    1.38    2.00
   9  -8   2    1.87    2.02
  -9   8  -2   -0.57    1.43
   9   8   2   -3.22    1.64
  10   8  -2   13.64    2.93
 -10   8   2   19.16    2.49
  10   8   2   17.63    2.85
 -10   8  -2   19.90    2.43
   0   9  -2    0.10    0.95
   0  -9   2   -2.13    0.84
   0   9   2    0.69    0.73
   0   9   2   -0.33    0.71
   0  -9  -2    0.22    0.89
   1  -9   2   16.12    1.66
   1   9  -2   15.13    1.45
  -1   9   2   19.84    1.65
  -1  -9  -2   15.22    1.56
   1   9  -2   13.69    1.69
  -1  -9   2   16.58    1.55
   1   9   2   18.75    1.56
   1   9   2   16.96    1.46
   1  -9  -2   18.63    1.62
  -1   9  -2   16.84    1.66
   2  -9   2    5.47    1.34
  -2  -9  -2    7.71    1.21
  -2   9   2    6.80    1.12
   2   9  -2    5.90    1.17
  -2  -9   2    5.07    1.04
  -2   9  -2    6.77    1.18
   2   9   2    6.38    1.07
   2   9   2    5.90    1.14
  -2  -9   2    6.84    1.12
   2  -9  -2    3.28    1.15
   3  -9   2   16.59    1.97
  -3  -9  -2   21.08    1.73
  -3   9   2   16.80    1.70
   3   9  -2   18.98    1.95
  -3  -9   2   19.67    1.81
   3   9   2   20.97    1.78
   3   9   2   17.39    1.86
   3  -9  -2   15.27    1.81
  -3   9  -2   17.64    1.70
  -3  -9   2   18.51    1.61
  -4  -9  -2   17.85    1.60
   4   9  -2   22.34    2.22
   4  -9   2   18.84    2.23
  -4  -9  -2   19.83    1.77
  -4   9   2   18.07    1.84
  -4  -9   2   20.86    1.86
   4  -9  -2   16.54    2.04
  -4   9  -2   19.21    1.86
   4   9   2   18.46    2.05
  -4  -9   2   19.60    1.64
  -5   9   2   36.94    2.86
   5   9  -2   32.83    3.04
   5  -9   2   37.65    3.12
  -5  -9  -2   39.04    2.70
  -5  -9  -2   32.07    2.57
   5  -9  -2   30.01    2.91
  -5  -9   2   35.52    2.92
   5   9   2   33.17    3.07
  -5  -9   2   30.95    2.47
  -5   9  -2   31.62    2.71
  -6  -9  -2   12.93    1.54
  -6   9   2   16.58    1.94
   6  -9   2   11.04    2.18
   6   9  -2    6.93    2.00
  -6  -9   2   10.49    1.69
  -6   9  -2   12.78    1.72
   6  -9  -2   11.93    2.15
   6   9   2    9.98    1.95
   7  -9   2   -0.10    1.93
   7   9  -2    1.78    1.85
  -7   9   2    0.38    1.33
  -7  -9  -2   -2.27    1.16
  -7   9  -2    0.17    1.20
   7   9   2   -0.81    1.51
   7  -9  -2   -2.82    1.82
  -7  -9   2    0.16    1.22
  -8   9   2    1.96    1.61
   8   9  -2    3.13    2.06
   8  -9   2    3.57    2.16
   8   9   2    3.54    1.89
   8  -9  -2    2.06    2.02
  -8   9  -2    2.73    1.47
   9  -9   2    1.02    2.22
  -9   9   2   -1.26    1.54
   9   9  -2   -0.84    2.04
  -9   9  -2    1.82    1.55
   9   9   2    1.61    1.95
  10   9  -2    0.19    2.33
 -10   9   2    0.11    1.74
  10   9   2    1.10    2.15
 -10   9  -2    0.80    1.53
   0  10  -2   20.46    1.99
   0 -10  -2   20.74    1.84
   0  10   2   20.26    1.72
   0 -10   2   21.77    1.92
   1  10  -2    2.39    1.15
  -1  10   2    1.13    0.88
   1 -10   2    0.59    1.09
  -1 -10  -2    0.03    1.04
   1 -10  -2    1.46    1.11
  -1 -10   2   -0.29    1.05
   1  10   2    0.29    0.90
   1  10   2   -1.08    0.78
  -1  10  -2    3.33    1.11
   2  10  -2   73.75    4.80
  -2 -10  -2   83.41    4.64
  -2  10   2   74.09    4.58
   2 -10   2   81.53    4.82
   2  10  -2   80.05    4.91
  -2  10  -2   79.67    4.66
  -2 -10   2   74.99    4.56
   2 -10  -2   82.97    4.66
   2  10   2   78.00    4.79
   2  10   2   85.49    4.61
   3 -10   2    0.62    1.36
  -3 -10  -2    0.12    1.16
   3  10  -2    0.05    1.29
  -3  10   2   -0.10    0.92
   3  10   2    2.59    1.04
   3  10   2    1.25    1.14
  -3 -10   2    0.75    1.01
   3 -10  -2    0.05    1.25
  -3 -10   2    0.08    0.89
  -3  10  -2    1.22    0.98
  -4 -10  -2  138.84    7.33
   4  10  -2  137.31    8.04
  -4  10   2  129.74    7.45
   4 -10   2  144.77    7.75
   4 -10  -2  132.57    7.53
  -4 -10   2  134.05    7.22
   4  10   2  141.66    7.94
   4  10   2  136.15    7.41
  -4 -10   2  137.16    7.56
  -4  10  -2  125.89    7.41
   5 -10   2   15.44    2.20
  -5 -10  -2   10.91    1.58
   5  10  -2   14.30    2.11
  -5  10   2   11.40    1.69
  -5 -10   2   14.89    1.72
  -5 -10   2   13.24    1.48
   5 -10  -2   13.02    2.07
  -5  10  -2   11.24    1.62
   5  10   2    9.88    1.87
   6  10  -2  106.93    6.76
  -6  10   2  102.72    6.20
  -6 -10  -2  111.64    5.95
   6 -10   2  109.19    6.51
   6 -10  -2  112.42    6.47
   6  10   2   97.15    6.53
  -6 -10   2   98.88    6.17
  -6  10  -2   97.71    6.05
  -7 -10  -2    3.59    1.40
   7 -10   2    2.23    2.09
   7  10  -2    2.74    1.99
  -7  10   2    3.72    1.51
  -7  10  -2    5.33    1.56
   7 -10  -2    4.04    2.10
   7  10   2    2.74    1.80
  -7 -10   2    4.70    1.50
  -8  10   2   25.72    2.65
   8  10  -2   20.62    3.02
   8 -10   2   19.89    2.97
  -8  10  -2   20.54    2.27
   8 -10  -2   17.48    2.81
   8  10   2   16.45    2.70
   9  10  -2    2.07    2.35
  -9  10   2    0.15    1.64
   9 -10   2   -2.62    2.30
  -9  10  -2   -1.45    1.50
   9  10   2    0.84    1.99
   0  11  -2    1.30    1.11
   0  11   2    0.13    0.80
   0 -11  -2   -0.36    1.12
   0 -11   2    0.16    1.18
   1 -11   2    1.58    1.33
   1  11  -2    1.20    1.32
  -1 -11  -2    1.68    1.20
  -1  11   2    3.55    1.06
  -1  11  -2    3.25    1.29
   1  11   2    3.53    1.11
  -1 -11   2    2.06    1.22
   1 -11  -2    2.88    1.27
  -2  11   2    7.98    1.31
   2 -11   2    5.25    1.54
   2  11  -2    5.86    1.47
  -2 -11  -2    4.06    1.38
  -2  11  -2    3.09    1.27
   2 -11  -2    4.71    1.40
   2  11   2    6.46    1.21
  -2 -11   2    3.79    1.23
   3 -11   2   -1.45    1.43
  -3  11   2    1.11    1.00
  -3 -11  -2    0.21    1.19
   3  11   2   -0.65    1.22
   3 -11  -2   -1.95    1.34
   3  11   2    2.04    1.14
  -3  11  -2    0.00    1.01
  -3 -11   2    1.13    1.15
  -3 -11   2   -0.05    1.11
  -4  11   2   -0.05    1.13
   4 -11   2   -0.47    1.51
  -4 -11  -2    0.03    1.24
   4  11  -2   -2.45    1.45
  -4 -11   2   -1.15    1.02
   4 -11  -2    1.73    1.60
   4  11   2    0.46    1.22
  -4 -11   2    1.11    1.08
  -4  11  -2   -0.56    1.12
   4  11   2   -0.63    1.37
   5 -11   2    2.11    1.76
  -5  11   2    0.08    1.15
   5  11  -2    0.52    1.72
  -5 -11  -2    1.33    1.30
  -5 -11   2   -0.43    1.12
  -5 -11   2    1.87    1.15
   5  11   2   -0.88    1.57
   5 -11  -2   -1.05    1.71
  -5  11  -2   -0.15    1.14
  -6  11   2    4.13    1.55
   6 -11   2    1.46    1.92
   6  11  -2    2.25    1.99
  -6 -11  -2    3.20    1.44
   6 -11  -2   -0.02    1.91
   6  11   2    2.29    1.79
  -6  11  -2    2.25    1.32
  -6 -11   2    1.87    1.26
   7  11  -2    5.13    2.26
  -7  11   2    5.15    1.79
  -7 -11  -2    3.03    1.52
   7 -11   2    3.70    2.23
   7  11   2    4.79    2.13
  -7  11  -2    6.12    1.63
   7 -11  -2    2.13    2.18
  -7 -11   2    5.47    1.57
   8 -11   2    1.77    2.30
  -8  11   2   -0.39    1.55
   8  11  -2    0.36    2.18
   8  11   2    0.99    1.99
  -8  11  -2    0.00    1.34
   8 -11  -2   -1.97    2.21
  -9  11   2    2.94    1.94
   9 -11   2   -0.79    2.57
   9  11  -2    1.41    2.52
   9  11   2   -3.29    2.10
  -9  11  -2    1.45    1.82
   0 -12   2   30.83    2.54
   0  12  -2   27.92    2.65
   0  12   2   29.36    2.39
   0 -12  -2   27.88    2.44
  -1 -12  -2   -0.40    1.23
   1  12  -2   -1.29    1.33
  -1  12   2   -1.08    0.98
   1 -12   2    1.29    1.41
  -1  12  -2    2.61    1.37
   1 -12  -2    0.34    1.31
  -1 -12   2   -0.14    1.25
   1  12   2    0.02    0.99
  -2  12   2   37.54    2.69
   2  12  -2   34.29    2.95
   2 -12   2   41.21    3.34
  -2 -12  -2   34.88    2.98
  -2  12  -2   37.87    3.00
   2  12   2   34.44    2.72
   2 -12  -2   36.78    3.00
  -2 -12   2   36.03    2.93
  -3  12   2   -0.11    0.99
  -3 -12  -2   -0.48    1.30
   3  12  -2   -2.44    1.38
   3 -12   2    2.11    1.58
  -3 -12   2    0.70    1.20
   3 -12  -2   -1.00    1.39
  -3  12  -2   -1.72    1.05
   3  12   2    0.25    1.14
  -4  12   2   82.20    5.21
   4 -12   2   86.99    5.51
  -4 -12  -2   84.52    5.10
   4 -12  -2   88.23    5.43
  -4 -12   2   85.24    5.07
   4  12   2   85.57    5.61
  -4 -12   2   96.15    5.37
  -4  12  -2   82.45    5.17
   5 -12   2    1.77    1.88
  -5  12   2    0.88    1.24
   5  12  -2   -0.05    1.79
  -5 -12  -2   -1.09    1.40
  -5 -12   2    1.62    1.24
   5  12   2    1.71    1.66
  -5  12  -2    0.58    1.33
   5 -12  -2    0.93    1.73
  -5 -12   2   -0.65    1.18
  -6 -12  -2   47.83    3.43
   6 -12   2   41.82    3.77
   6  12  -2   38.90    3.94
  -6  12   2   39.11    3.27
  -6  12  -2   37.00    3.34
  -6 -12   2   47.31    3.55
   6  12   2   45.47    3.96
   6 -12  -2   49.02    4.04
  -7  12   2   -1.32    1.54
  -7 -12  -2    2.18    1.57
   7 -12   2    5.22    2.32
   7  12  -2    1.30    2.21
   7  12   2    2.45    2.01
   7 -12  -2   -2.36    2.18
  -7  12  -2    0.02    1.47
  -8  12   2   15.08    2.36
   8 -12   2   15.18    3.02
   8  12  -2   14.85    2.98
  -8  12  -2   14.65    2.27
   8 -12  -2   17.57    3.05
   8  12   2   15.29    2.90
   0  13  -2   -1.27    1.22
   0 -13   2    0.57    1.41
   0  13   2    0.29    1.12
   0 -13  -2    1.22    1.38
   1 -13   2    0.37    1.52
   1  13  -2    2.91    1.57
  -1 -13  -2    2.79    1.45
  -1  13   2    5.18    1.30
   1 -13  -2    0.19    1.49
  -1 -13   2    5.63    1.54
  -1  13  -2    4.93    1.56
   1  13   2    1.50    1.20
  -2 -13  -2    0.56    1.39
   2  13  -2    0.80    1.49
  -2  13   2   -0.29    1.11
   2 -13   2   -0.37    1.54
  -2 -13   2   -0.62    1.28
  -2  13  -2   -2.00    1.17
   2  13   2    1.54    1.22
   2 -13  -2   -1.09    1.42
  -3 -13  -2   -1.53    1.35
   3  13  -2    0.15    1.30
  -3  13   2   -1.09    1.02
   3 -13   2    0.80    1.71
   3 -13  -2   -2.58    1.45
  -3  13  -2    1.39    1.42
  -3 -13   2   -0.88    1.23
   3  13   2    0.75    1.18
   4  13  -2    3.13    1.62
   4 -13   2    0.96    1.76
  -4  13   2   -0.48    1.17
  -4 -13  -2    1.44    1.53
  -4 -13   2    0.98    1.33
  -4  13  -2    1.66    1.43
   4 -13  -2    2.31    1.78
   5 -13   2   -1.39    1.81
  -5  13   2   -0.55    1.25
  -5 -13  -2    0.20    1.50
   5 -13  -2   -1.04    1.80
  -5 -13   2    1.50    1.36
  -5  13  -2    1.06    1.35
  -5 -13   2    1.01    1.36
  -6  13   2    0.62    1.41
  -6 -13  -2    2.56    1.62
   6 -13   2    1.57    2.05
  -6 -13   2    2.04    1.43
   6 -13  -2   -1.27    2.06
  -6  13  -2   -1.14    1.33
   6  13   2    4.53    2.16
   7 -13   2    3.36    2.40
  -7  13   2    1.76    1.73
  -7  13  -2    3.06    1.69
   7  13   2    0.84    2.23
   7 -13  -2    1.46    2.43
   8  13  -2    1.60    2.53
   8 -13   2    1.94    2.60
  -8  13   2    0.66    1.88
  -8  13  -2    1.42    1.79
   8 -13  -2   -2.99    2.50
   8  13   2    0.14    2.34
   0  14  -2   74.26    4.84
   0 -14   2   76.71    4.84
   0  14   2   69.17    4.53
   0 -14  -2   69.86    4.71
   1  14  -2    4.55    1.76
   1 -14   2    1.68    1.73
  -1 -14  -2    4.26    1.64
  -1  14   2    2.77    1.27
   1  14   2    3.07    1.35
  -1 -14   2    2.59    1.63
   1 -14  -2    3.14    1.64
  -1  14  -2    4.33    1.65
  -2 -14  -2   29.05    2.59
  -2  14   2   23.52    2.46
   2  14  -2   25.30    2.85
   2 -14   2   26.10    2.77
   2 -14  -2   28.43    2.69
  -2 -14   2   27.96    2.56
   2  14   2   33.44    2.71
  -2  14  -2   26.49    2.78
   3  14  -2   -1.78    1.51
  -3 -14  -2   -0.72    1.50
  -3  14   2    0.01    1.33
   3 -14   2   -0.65    1.73
   3 -14  -2   -1.06    1.67
  -3  14  -2    1.35    1.43
  -3 -14   2    1.15    1.46
   3  14   2   -1.60    1.22
  -4  14   2   26.47    2.89
   4  14  -2   42.02    3.39
  -4 -14  -2   40.05    3.25
   4 -14   2   37.64    3.46
  -4  14  -2   37.95    3.30
  -4 -14   2   34.29    2.84
   4 -14  -2   36.36    3.38
   5 -14   2   -0.79    1.95
  -5 -14  -2    4.05    1.72
   5  14  -2    4.07    1.77
  -5  14   2    2.05    1.44
   5 -14  -2    2.20    2.11
  -5  14  -2    1.23    1.62
  -6 -14  -2   19.46    2.27
   6 -14   2   14.34    2.67
  -6  14   2   13.93    2.22
   6 -14  -2   15.37    2.80
  -6  14  -2   13.71    2.16
   7 -14   2    2.31    2.45
  -7  14   2   -0.77    1.72
   7 -14  -2    0.81    2.46
  -7  14  -2    1.06    1.70
   0 -15   2   -1.19    1.67
   0  15   2    1.20    1.38
   0 -15  -2    0.55    1.72
   0  15  -2   -0.16    1.69
  -1  15   2   -0.50    1.21
   1  15  -2   -3.80    1.53
   1 -15   2    3.28    1.89
  -1 -15  -2    2.29    1.65
  -1 -15   2   -0.60    1.62
   1 -15  -2   -0.46    1.68
   1  15   2   -0.45    1.32
  -1  15  -2    3.92    1.79
   2  15  -2    2.34    1.85
  -2 -15  -2    5.45    1.75
   2 -15   2    3.50    1.99
  -2  15   2    1.12    1.46
   2  15   2    3.43    1.55
   2 -15  -2    4.13    1.92
  -2 -15   2    3.39    1.71
  -2  15  -2    3.70    1.76
  -3 -15  -2    3.12    1.70
  -3  15   2    1.04    1.42
   3  15  -2    0.30    1.65
   3 -15   2    2.36    2.01
   3 -15  -2    0.86    1.86
  -3 -15   2    0.35    1.54
  -3  15  -2   -3.16    1.38
  -4  15   2   -0.73    1.48
  -4 -15  -2   -1.48    1.63
   4  15  -2    3.36    1.85
   4 -15   2    2.80    2.07
   4 -15  -2    4.07    2.11
  -4 -15   2    0.89    1.59
  -4  15  -2    1.47    1.56
   5  15  -2    1.36    1.88
  -5  15   2    3.79    1.60
   5 -15   2   -2.25    2.06
  -5 -15  -2   -3.35    1.59
   5 -15  -2    1.75    2.19
  -5  15  -2    2.12    1.81
   6 -15   2    0.82    2.25
  -6 -15  -2    4.66    1.88
  -6  15   2    1.67    1.65
  -6  15  -2    0.57    1.76
   6 -15  -2    0.68    2.47
   0  16  -2   38.43    3.57
   0  16   2   32.81    3.13
   0 -16  -2   39.42    3.32
   0 -16   2   35.22    3.35
   1 -16   2    0.72    1.98
  -1 -16  -2    0.79    1.79
  -1  16   2   -0.29    1.45
   1  16  -2   -1.72    1.75
  -1  16  -2    0.81    1.70
   1  16   2    0.60    1.53
   1 -16  -2    1.27    1.81
  -1 -16   2   -1.98    1.74
  -2 -16  -2   34.00    2.98
   2  16  -2   24.69    3.13
   2 -16   2   28.07    3.16
  -2  16   2   30.75    2.85
  -2 -16   2   33.58    2.99
   2 -16  -2   26.29    2.98
  -2  16  -2   30.60    3.22
   3 -16   2    3.42    2.09
  -3  16   2    0.76    1.59
   3  16  -2    0.37    1.82
  -3 -16  -2   -0.73    1.72
  -3  16  -2   -0.41    1.65
  -3 -16   2   -3.15    1.63
   3 -16  -2    0.85    2.00
  -4  16   2   14.19    2.30
   4  16  -2   12.51    2.44
  -4 -16  -2   18.51    2.36
   4 -16   2   17.16    2.77
  -4  16  -2   16.03    2.57
   4 -16  -2   18.07    2.80
  -4 -16   2   11.63    2.18
  -5  16   2    1.77    1.77
  -5  16  -2   -0.51    1.88
   0 -17  -2    0.45    1.94
   0 -17   2    0.59    2.03
   0  17  -2    1.75    2.07
   0  17   2    0.67    1.71
   1  17  -2   -2.31    1.96
  -1  17   2    1.50    1.69
   1 -17   2    3.44    2.25
  -1 -17  -2   -1.08    1.93
   1  17   2    1.80    1.70
  -1 -17   2    0.79    2.01
   1 -17  -2    0.18    2.00
  -1  17  -2    1.41    2.08
  -2  17   2    0.42    1.45
  -2 -17  -2   -0.91    1.89
   2  17  -2   -1.67    1.92
   2 -17   2   -0.06    2.16
  -2 -17   2    4.55    2.00
  -2  17  -2   -1.50    1.70
   2 -17  -2   -2.45    2.02
   3  17  -2    0.56    1.97
  -3 -17  -2    3.61    2.03
   3 -17   2    3.76    2.29
  -3  17   2    3.11    1.84
   3 -17  -2    1.38    2.24
  -3  17  -2    0.06    1.97
  -3 -17   2    3.45    1.91
   0   0   3    0.08    0.27
   0   0  -3    0.03    0.18
   0   0   3    0.48    0.18
  -1   0   3    0.14    0.57
   1   0   3    0.49    0.32
   1   0   3    0.63    0.34
  -1   0   3    0.23    0.26
   2   0   3    1.03    0.48
  -2   0  -3    0.38    0.24
   2   0  -3    2.78    0.70
  -2   0   3    0.65    0.42
   2   0   3   -0.59    0.42
   3   0  -3    1.38    0.65
  -3   0   3   -0.52    0.42
  -3   0  -3    0.31    0.29
   3   0   3    0.28    0.54
   3   0   3    0.11    0.47
  -4   0   3    0.61    0.51
   4   0   3   -0.63    0.61
  -4   0  -3    0.09    0.39
   4   0  -3    0.75    0.36
   4   0  -3   -0.12    0.72
   4   0   3    0.21    0.59
  -5   0   3    0.49    0.68
   5   0   3    0.81    0.81
   5   0  -3   -0.88    0.80
  -5   0  -3    0.24    0.48
  -5   0  -3   -0.96    0.54
  -6   0   3    0.59    0.84
  -6   0  -3   -0.30    0.61
  -6   0  -3    0.55    0.72
   6   0   3    1.17    1.07
   6   0  -3    1.58    1.06
  -6   0   3    0.81    0.45
   7   0   3    0.95    1.25
  -7   0  -3    0.85    0.82
  -7   0  -3   -0.42    0.85
   7   0  -3    0.79    1.27
  -7   0   3   -1.53    0.81
  -8   0   3    0.36    1.06
   8   0   3    0.88    1.45
  -8   0  -3   -0.46    0.99
  -8   0  -3   -0.11    0.96
   8   0  -3   -1.02    1.36
   9   0   3   -1.14    1.52
  -9   0   3    1.27    1.15
   9   0  -3   -0.57    1.50
  -9   0  -3    1.05    1.12
  10   0   3   -0.66    1.77
  10   0  -3    1.07    1.79
 -10   0   3    0.07    1.40
  11   0  -3   -0.42    1.96
 -11   0   3   -1.24    1.57
  11   0   3   -1.76    1.91
   0  -1   3    0.21    0.26
   0   1   3   -0.04    0.18
   0  -1   3    0.34    0.33
   0  -1   3    0.85    0.28
   0   1   3    0.06    0.29
   0  -1  -3    0.19    0.21
  -1  -1  -3  791.57   38.12
  -1   1   3  796.72   40.84
   1  -1   3  780.46   38.15
   1   1  -3  746.00   40.78
   1  -1   3  740.09   40.67
  -1   1   3  782.71   38.82
   1   1   3  816.35   40.72
  -1  -1   3  777.65   38.84
  -1   1  -3  774.93   38.79
   1  -1  -3  751.71   38.07
  -2  -1  -3  353.20   17.70
   2  -1   3  348.17   18.91
  -2   1   3  348.19   18.06
   2   1  -3  375.78   19.04
   2  -1   3  353.90   17.75
   2  -1  -3  386.94   19.05
  -2   1  -3  374.08   17.99
  -2  -1   3  351.25   18.06
   2  -1  -3  364.92   17.64
   2   1   3  328.01   18.93
   3  -1   3  176.46    9.07
   3  -1   3  181.22    9.69
  -3  -1  -3  179.64    9.01
   3   1  -3  183.26    9.78
  -3   1   3  181.03    9.24
  -3   1  -3  177.94    9.12
   3  -1  -3  177.40    9.74
  -3  -1   3  177.24    9.22
   3   1   3  175.52    9.72
   3  -1  -3  187.16    8.95
  -4   1   3   15.64    1.35
   4  -1   3   18.89    1.42
  -4  -1  -3   14.55    1.16
  -4  -1  -3   16.25    1.31
   4   1  -3   17.01    1.54
   4  -1   3   16.81    1.45
   4  -1  -3   15.26    1.45
   4   1   3   15.75    1.50
  -4  -1   3   17.22    0.96
  -4  -1   3   16.49    1.40
   4  -1  -3   16.10    1.10
  -4   1  -3   17.85    1.20
  -5  -1  -3  115.80    6.50
  -5   1   3  132.71    6.70
   5  -1   3  124.17    6.55
   5   1  -3  127.40    7.17
  -5  -1  -3  133.18    6.49
   5  -1   3  126.42    7.08
   5  -1  -3  126.97    7.14
  -5  -1   3  120.38    6.64
   5  -1  -3  126.53    6.35
   5   1   3  123.97    7.13
  -5   1  -3  124.02    6.54
  -5  -1   3  124.67    6.26
   6   1  -3   37.85    3.13
  -6  -1  -3   41.89    2.52
  -6   1   3   39.82    2.75
   6  -1   3   40.73    3.00
   6  -1   3   36.81    2.59
  -6  -1  -3   40.66    2.58
   6  -1  -3   43.64    2.40
   6  -1  -3   34.45    3.04
   6   1   3   36.73    3.04
  -6  -1   3   40.25    2.71
  -6  -1   3   38.44    2.19
  -6   1  -3   42.32    2.52
  -7  -1  -3   97.63    5.20
   7  -1   3   94.08    5.29
  -7   1   3   93.37    5.46
   7   1  -3   91.17    6.01
  -7  -1  -3   99.13    5.32
   7  -1   3   92.74    5.90
  -7   1  -3   94.53    5.33
   7  -1  -3   93.40    5.91
  -7  -1   3  100.90    5.47
   7   1   3   98.22    5.99
   8   1  -3   10.47    1.94
  -8   1   3   10.46    1.50
   8  -1   3   11.41    1.96
  -8  -1  -3   12.83    1.37
   8   1   3   10.03    1.90
   8  -1  -3   10.98    1.90
  -8   1  -3    8.63    1.38
  -8   1  -3   11.14    1.37
  -8  -1   3   11.16    1.56
  -9  -1  -3   77.36    4.56
  -9   1   3   80.23    4.92
   9  -1   3   87.35    5.45
   9   1  -3   72.17    5.31
  -9   1  -3   76.76    4.61
   9  -1  -3   78.22    5.31
   9   1   3   77.78    5.41
  -9  -1   3   74.10    4.86
 -10   1   3    1.06    1.47
  10   1  -3    3.37    1.92
  10  -1   3   -0.90    1.77
  10  -1  -3    1.12    1.74
 -10  -1   3    2.87    1.47
  10   1   3    0.81    1.86
  11   1  -3   18.60    2.89
  11  -1   3   20.26    2.95
 -11   1   3   19.28    2.40
  11   1   3   17.76    2.91
  11  -1  -3   17.50    2.76
 -11  -1   3   17.45    2.41
   0  -2   3   40.94    2.27
   0   2   3   36.47    2.10
   0  -2   3   37.77    2.35
   0   2   3   42.77    2.32
   0  -2  -3   36.44    2.11
   0  -2   3   37.92    2.41
  -1   2   3   16.24    1.34
   1  -2   3   15.30    1.20
  -1  -2  -3   13.34    0.95
   1  -2   3   11.08    0.95
  -1   2   3   12.86    0.97
   1   2  -3   15.78    1.40
  -1  -2   3   12.83    1.08
  -1  -2   3   12.17    1.04
   1  -2  -3   12.41    0.94
   1   2   3   16.89    1.14
  -1   2  -3   12.64    0.99
  -2   2   3  354.38   18.72
   2  -2   3  358.21   19.56
  -2  -2  -3  365.74   18.34
   2   2  -3  410.73   19.74
   2  -2   3  371.01   18.45
  -2  -2   3  369.26   18.73
  -2  -2   3  353.86   18.25
   2  -2  -3  400.57   19.73
  -2   2  -3  372.72   18.67
   2  -2  -3  356.96   18.31
   2   2   3  374.61   19.64
  -3  -2  -3    0.38    0.24
   3   2  -3    1.23    0.66
   3  -2   3    0.31    0.48
   3  -2   3    0.44    0.57
  -3  -2  -3   -0.22    0.40
  -3   2   3    0.05    0.47
   3  -2  -3    0.28    0.52
  -3   2  -3    0.10    0.34
   3   2   3   -0.31    0.51
  -3  -2   3   -0.16    0.37
   3  -2  -3    0.28    0.54
   4  -2   3   15.85    1.30
  -4   2   3   13.53    1.20
   4   2  -3   16.54    1.55
   4  -2   3   15.08    1.31
  -4  -2  -3   12.48    1.03
  -4  -2  -3   16.93    1.25
  -4   2  -3   15.60    1.23
  -4  -2   3   15.45    1.23
   4   2   3   13.60    1.36
   4  -2  -3   14.72    1.38
   4  -2  -3   15.41    1.24
  -4  -2   3   12.49    0.91
   5  -2   3    5.85    0.95
  -5   2   3    4.09    0.86
   5   2  -3    6.90    1.18
   5  -2   3    3.53    0.93
  -5  -2  -3    4.95    0.76
  -5  -2  -3    4.58    0.65
   5  -2  -3    5.17    0.72
  -5  -2   3    5.88    0.53
   5  -2  -3    4.84    1.05
  -5  -2   3    4.43    0.84
   5   2   3    4.64    1.05
  -5   2  -3    5.14    0.75
  -6   2   3   49.47    3.22
   6  -2   3   47.97    3.11
  -6  -2  -3   52.43    2.99
  -6  -2  -3   51.58    2.99
   6  -2   3   55.31    3.54
   6   2  -3   53.43    3.75
  -6   2  -3   50.84    3.05
  -6  -2   3   48.88    3.19
   6  -2  -3   52.03    3.55
   6   2   3   49.43    3.60
   6  -2  -3   45.94    2.87
   7   2  -3    2.91    1.39
  -7  -2  -3    0.23    0.73
  -7  -2  -3    0.49    0.83
   7  -2   3    1.86    1.03
  -7   2   3    0.14    0.89
   7  -2   3    1.43    1.26
   7   2   3    0.21    1.26
   7  -2  -3    1.42    1.27
  -7   2  -3    1.02    0.89
  -7  -2   3    0.11    0.94
   8  -2   3   -1.25    1.31
  -8  -2  -3   -0.58    0.96
  -8   2   3   -0.63    1.00
   8  -2   3    0.07    1.12
   8   2  -3   -0.09    1.43
   8  -2  -3    0.18    1.36
   8   2   3   -1.26    1.40
  -8  -2   3   -1.04    0.99
  -8   2  -3    0.30    0.96
  -9   2   3    3.27    1.37
  -9  -2  -3    0.97    1.08
   9   2  -3    1.53    1.65
   9  -2   3    3.82    1.73
  -9   2  -3    2.44    1.18
   9  -2  -3    1.17    1.52
  -9   2  -3    0.73    1.19
  -9  -2   3    2.96    1.36
   9   2   3    0.11    1.62
  10  -2   3    1.29    1.80
 -10   2   3    2.47    1.56
  10   2  -3    3.60    1.95
 -10  -2   3    0.93    1.44
  10   2   3   -1.46    1.83
  10  -2  -3   -1.98    1.59
  11  -2   3   -0.24    1.87
 -11   2   3    2.10    1.70
  11   2  -3    1.19    1.99
  11  -2  -3   -1.67    1.86
  11   2   3   -2.54    1.99
 -11  -2   3   -0.21    1.57
   0  -3   3    1.33    0.60
   0  -3  -3   -0.02    0.40
   0   3   3    0.22    0.40
   0   3   3    0.11    0.32
   0  -3   3    1.03    0.49
   0   3  -3    1.37    0.55
  -1  -3  -3  350.01   16.57
   1  -3   3  309.79   17.61
  -1   3   3  315.73   16.86
   1   3  -3  378.77   17.77
  -1   3   3  350.88   17.76
   1  -3   3  301.49   16.69
  -1  -3   3  320.83   16.96
   1  -3  -3  306.98   16.54
  -1   3  -3  327.43   16.90
  -1  -3   3  328.49   16.55
   1   3   3  352.42   17.71
   1   3   3  371.62   16.79
   2  -3   3   29.48    2.04
  -2  -3  -3   31.29    1.63
  -2   3   3   26.05    1.83
  -2  -3  -3   30.70    1.80
   2   3  -3   34.92    2.13
   2  -3   3   29.66    1.80
   2   3   3   32.95    1.97
  -2  -3   3   29.78    1.68
   2  -3  -3   31.54    2.11
  -2  -3   3   31.05    1.87
   2  -3  -3   28.84    1.77
  -2   3  -3   30.30    1.78
  -3  -3  -3   41.15    2.18
   3  -3   3   38.19    2.38
  -3   3   3   39.45    2.33
   3   3  -3   41.95    2.69
   3  -3   3   40.30    2.52
  -3  -3  -3   37.25    2.24
   3  -3  -3   41.26    2.36
  -3   3  -3   41.39    2.31
   3   3   3   45.48    2.60
   3  -3  -3   37.02    2.53
  -3  -3   3   38.26    2.39
  -3  -3   3   36.75    2.10
  -4   3   3   86.18    4.63
   4  -3   3   88.88    4.69
  -4  -3  -3   88.81    4.47
   4   3  -3   87.20    5.09
  -4  -3  -3   77.30    4.42
   4  -3   3   82.15    4.80
   4  -3  -3   88.01    4.92
  -4   3  -3   87.77    4.58
   4  -3  -3   87.65    4.61
  -4  -3   3   78.78    4.29
  -4  -3   3   84.15    4.65
   4   3   3   87.14    4.95
   5  -3   3   78.00    4.35
  -5   3   3   77.70    4.33
   5   3  -3   79.89    4.81
   5  -3   3   84.02    4.62
  -5  -3  -3   66.41    4.11
  -5  -3  -3   80.75    4.15
  -5  -3   3   76.84    4.35
  -5   3  -3   82.28    4.27
   5   3   3   77.59    4.71
   5  -3  -3   82.26    4.23
   5  -3  -3   76.03    4.61
  -5  -3   3   70.50    3.95
   6  -3   3    0.57    0.94
  -6   3   3   -1.14    0.74
   6   3  -3    0.64    1.17
  -6  -3  -3    0.84    0.56
   6  -3   3    0.62    0.98
  -6  -3  -3    0.28    0.72
   6  -3  -3   -0.01    1.01
  -6  -3   3    0.86    0.78
   6   3   3   -0.03    1.07
   6  -3  -3    0.98    0.75
  -6   3  -3    0.25    0.72
   7  -3   3   27.59    2.39
   7   3  -3   22.24    2.52
   7  -3   3   24.41    2.11
  -7  -3  -3   22.93    2.04
  -7   3   3   24.81    2.15
  -7   3  -3   29.87    2.19
   7   3   3   21.74    2.40
  -7  -3   3   25.84    2.10
   7  -3  -3   27.44    2.44
  -8  -3  -3    0.57    0.94
  -8   3   3   -0.60    1.12
   8  -3   3   -0.26    1.18
   8  -3   3    2.12    1.38
   8   3  -3   -0.80    1.42
   8   3   3    3.10    1.54
  -8  -3   3   -0.09    1.01
  -8   3  -3    1.70    1.06
   8  -3  -3    0.78    1.42
   9   3  -3   25.00    2.98
   9  -3   3   25.90    2.39
   9  -3   3   30.17    2.90
  -9   3   3   29.43    2.59
  -9  -3   3   34.42    2.68
  -9   3  -3   27.65    2.43
   9   3   3   30.45    3.16
   9  -3  -3   31.77    2.95
  10   3  -3   -0.09    1.86
  10  -3   3    3.12    1.85
 -10   3   3    0.05    1.48
  10  -3  -3    1.54    1.76
 -10  -3   3    2.50    1.47
  10   3   3   -0.98    1.80
 -11   3   3   10.38    2.03
  11   3  -3   10.01    2.54
  11  -3  -3    4.93    2.12
 -11  -3   3   11.52    2.11
  11   3   3   12.23    2.63
   0   4   3   27.54    1.62
   0  -4   3   24.50    1.82
   0   4   3   28.76    1.75
   0   4  -3   29.19    1.80
   0  -4  -3   28.03    1.70
   0  -4   3   25.93    1.84
  -1  -4  -3  171.82    8.66
   1  -4   3  170.20    8.84
  -1   4   3  167.36    8.82
  -1   4   3  186.82    9.30
   1   4  -3  185.18    9.30
   1  -4  -3  165.96    8.65
   1   4   3  183.52    9.26
  -1   4  -3  165.45    8.87
  -1  -4   3  160.99    8.98
   1   4   3  176.20    8.74
  -1  -4   3  158.89    8.63
   2  -4   3   37.99    2.27
  -2   4   3   39.85    2.38
   2  -4   3   41.13    2.63
   2   4  -3   44.67    2.65
  -2  -4  -3   38.25    2.29
   2  -4  -3   40.09    2.32
  -2  -4   3   39.14    2.43
  -2   4  -3   38.00    2.35
   2   4   3   42.98    2.19
  -2  -4   3   39.01    2.23
   2   4   3   46.20    2.54
   3  -4   3    0.19    0.86
  -3  -4  -3    0.71    0.40
  -3   4   3   -0.01    0.53
  -3  -4  -3    0.60    0.51
   3   4  -3    0.20    0.75
   3  -4   3    0.51    0.44
  -3  -4   3    0.56    0.52
   3  -4  -3    0.70    0.62
  -3   4  -3    0.69    0.51
  -3  -4   3    0.41    0.40
   3   4   3    0.42    0.64
   3  -4  -3    0.08    0.58
   4   4  -3    0.27    0.87
  -4  -4  -3    0.25    0.43
   4  -4   3    0.35    0.58
  -4   4   3   -0.10    0.59
  -4  -4  -3    0.01    0.55
   4  -4   3    0.58    0.95
   4  -4  -3   -1.61    0.77
  -4  -4   3    1.22    0.56
   4   4   3    0.53    0.78
  -4   4  -3    1.97    0.64
  -4  -4   3    0.86    0.43
   4  -4  -3    0.97    0.72
  -5   4   3   10.18    1.20
  -5  -4  -3   10.27    1.03
   5  -4   3    9.00    1.43
   5   4  -3   12.42    1.59
   5  -4   3   10.90    1.23
  -5  -4  -3   10.51    0.95
  -5  -4   3   11.41    0.85
  -5  -4   3   12.44    1.24
   5  -4  -3   11.55    1.34
   5  -4  -3    9.90    1.27
   5   4   3    8.83    1.39
  -5   4  -3   11.00    1.19
  -6  -4  -3    2.78    0.82
   6   4  -3    4.29    1.44
   6  -4   3    3.39    1.11
  -6  -4  -3    3.46    0.69
  -6   4   3    3.24    1.00
   6  -4   3    4.48    1.25
   6  -4  -3    4.14    1.06
  -6   4  -3    4.03    0.97
   6   4   3    2.75    1.24
   6  -4  -3    4.03    1.19
  -6  -4   3    4.95    0.92
  -7   4   3    3.73    1.24
   7   4  -3    3.57    1.54
   7  -4   3    5.65    1.39
   7  -4   3    5.47    1.35
  -7  -4  -3    4.61    0.99
  -7   4  -3    3.58    1.09
   7  -4  -3    5.46    1.44
  -7  -4   3    3.97    1.11
   7   4   3    4.72    1.55
  -8   4   3    1.65    1.14
   8  -4   3    3.53    1.37
  -8  -4  -3    2.10    1.01
   8   4  -3    0.35    1.45
   8  -4   3    0.78    1.35
   8  -4  -3   -0.37    1.34
  -8  -4   3    3.34    1.16
  -8   4  -3    1.14    1.10
   8   4   3   -0.11    1.42
   9  -4   3    0.40    1.39
   9   4  -3    0.49    1.64
   9  -4   3    0.48    1.49
  -9   4   3   -0.48    1.17
   9   4   3   -0.14    1.60
   9  -4  -3    0.02    1.53
  -9   4  -3    1.37    1.22
  -9  -4   3   -1.91    1.16
  10   4  -3    3.02    2.02
 -10   4   3    2.67    1.49
  10   4   3    4.49    2.09
 -10  -4   3    1.83    1.46
  10  -4  -3    0.72    1.79
  11   4  -3   -0.68    2.07
 -11   4   3    0.31    1.69
  11   4   3   -0.03    2.04
   0   5   3    0.62    0.41
   0   5   3   -0.28    0.43
   0  -5   3   -0.42    0.55
   0   5  -3    0.62    0.46
   0  -5  -3    0.62    0.51
   0  -5   3   -0.45    0.41
  -1  -5  -3  118.41    5.96
  -1   5   3  120.37    6.05
   1  -5   3  116.07    6.12
   1   5  -3  121.17    6.37
  -1   5   3  119.96    6.35
   1  -5  -3  112.44    5.95
   1   5   3  101.87    6.29
   1   5   3  111.63    5.94
  -1   5  -3  112.40    6.17
  -1  -5   3  125.22    6.24
  -1   5  -3  115.75    6.11
  -1  -5   3  115.54    5.93
  -2   5   3  202.09   10.85
   2  -5   3  192.51   10.53
  -2  -5  -3  204.12   10.06
   2  -5   3  194.20   10.27
   2   5  -3  206.13   10.82
  -2   5   3  194.63   10.26
   2  -5  -3  199.39   10.06
  -2  -5   3  201.56   10.00
   2   5   3  214.55   10.78
  -2  -5   3  191.49   10.39
   2   5   3  198.03   10.12
  -2   5  -3  196.16   10.27
   3  -5   3  292.62   15.30
   3   5  -3  286.12   15.61
   3  -5   3  272.74   14.74
  -3  -5  -3  291.08   14.47
  -3  -5  -3  303.82   14.66
  -3   5   3  287.04   14.81
   3  -5  -3  279.62   15.44
  -3  -5   3  292.05   14.86
   3  -5  -3  286.90   14.53
  -3   5  -3  286.16   14.77
  -3  -5   3  280.91   14.39
   3   5   3  315.93   15.57
   4  -5   3   96.66    5.30
  -4  -5  -3   96.51    5.14
  -4  -5  -3   97.52    5.06
   4   5  -3   92.01    5.70
   4  -5   3   90.19    5.44
  -4   5   3   94.92    5.24
  -4   5  -3   95.21    5.17
  -4  -5   3   97.79    5.28
   4  -5  -3   95.20    5.32
   4   5   3  109.96    5.64
  -4  -5   3   91.44    4.93
   4  -5  -3   90.43    5.42
  -5   5   3  132.43    7.12
   5  -5   3  134.89    7.29
   5   5  -3  135.77    7.74
   5  -5   3  127.67    7.19
  -5  -5  -3  128.86    6.82
  -5  -5  -3  137.55    6.92
  -5   5  -3  132.43    7.03
  -5  -5   3  122.39    6.67
  -5  -5   3  136.59    7.11
   5  -5  -3  123.86    7.09
   5  -5  -3  128.80    7.38
   5   5   3  138.43    7.59
   6   5  -3   29.24    2.69
   6  -5   3   23.39    2.26
   6  -5   3   28.43    2.45
  -6  -5  -3   24.55    2.04
  -6   5   3   26.35    2.29
  -6   5  -3   30.82    2.22
   6  -5  -3   29.83    2.42
   6  -5  -3   26.64    2.27
  -6  -5   3   24.23    2.11
   6   5   3   27.28    2.49
   7   5  -3  126.40    7.75
   7  -5   3  130.27    7.08
  -7  -5  -3  122.87    6.68
   7  -5   3  123.40    7.31
  -7   5   3  125.58    7.05
   7   5   3  120.52    7.57
   7  -5  -3  126.19    6.87
  -7   5  -3  134.96    6.99
   7  -5  -3  119.30    7.40
  -7  -5   3  133.79    7.03
   8  -5   3   29.57    2.64
   8   5  -3   27.53    2.95
  -8  -5  -3   27.79    2.35
  -8   5   3   30.56    2.61
   8   5   3   24.50    2.75
  -8  -5   3   30.51    2.46
  -8   5  -3   29.39    2.50
   8  -5  -3   30.11    2.73
   9  -5   3   11.41    1.97
   9   5  -3   14.88    2.54
  -9   5   3   13.63    1.98
   9   5   3   13.58    2.36
  -9  -5   3   14.45    1.90
  -9   5  -3   16.19    1.93
   9  -5  -3   15.27    2.21
  10   5  -3   -0.36    1.90
 -10   5   3   -0.23    1.43
 -10  -5   3    1.01    1.44
  10   5   3   -1.82    1.73
 -10   5  -3    1.47    1.51
  11   5  -3    6.52    2.47
 -11   5   3   13.23    2.26
  11   5   3   11.53    2.65
   0   6  -3   28.52    2.20
   0  -6  -3   31.29    1.98
   0   6  -3   29.52    1.88
   0   6   3   29.32    1.85
   0  -6   3   30.93    2.02
   0   6   3   28.80    1.95
   1  -6   3    2.16    0.82
  -1   6   3    3.90    0.64
  -1  -6  -3    3.11    0.71
  -1   6   3    3.73    0.74
   1   6  -3    3.44    0.74
  -1  -6   3    4.36    0.81
  -1   6  -3    3.34    0.73
  -1  -6   3    2.35    0.66
   1  -6  -3    3.22    0.71
   1   6   3    3.45    0.69
   1   6   3    3.26    0.57
   2   6  -3    8.85    1.14
  -2   6   3    8.78    1.02
  -2  -6  -3    7.16    0.94
   2  -6   3    7.42    1.21
  -2   6   3    9.33    1.24
  -2   6  -3   10.86    1.07
   2   6   3   11.07    0.93
  -2  -6   3    9.89    0.94
  -2  -6   3    9.06    1.16
   2  -6  -3    8.89    0.98
   2   6   3    7.76    1.00
  -3   6   3    3.13    0.80
   3  -6   3    3.62    0.44
  -3  -6  -3    3.72    0.77
   3   6  -3    2.56    1.01
  -3  -6  -3    4.18    0.56
   3  -6   3    3.07    1.18
   3   6   3    2.78    0.88
   3  -6  -3    4.24    0.79
  -3  -6   3    3.14    0.67
  -3   6  -3    4.65    0.81
   3  -6  -3    2.10    0.84
  -3  -6   3    3.29    0.82
  -4  -6  -3    2.83    0.62
  -4   6   3    3.27    0.94
   4  -6   3    2.59    0.59
   4   6  -3    2.08    1.17
  -4  -6  -3    1.55    0.77
   4  -6   3    0.46    1.21
  -4   6  -3    1.17    0.78
   4  -6  -3    4.35    1.13
   4  -6  -3    1.27    0.76
  -4  -6   3    3.21    0.84
  -4  -6   3    2.09    0.66
   4   6   3    2.05    1.00
  -5  -6  -3    2.82    0.85
   5  -6   3    3.21    1.46
   5  -6   3    2.59    0.80
  -5  -6  -3    4.55    0.83
  -5   6   3    2.13    1.07
   5   6  -3    2.82    1.37
  -5  -6   3    3.49    0.76
   5  -6  -3    1.52    0.92
   5   6   3    4.36    1.23
  -5   6  -3    2.72    0.97
  -5  -6   3    3.97    0.96
   5  -6  -3    4.88    1.36
   6  -6   3    0.74    1.48
  -6   6   3    2.16    1.15
   6   6  -3    0.58    1.42
  -6  -6  -3    2.15    0.89
  -6   6  -3    0.81    1.01
  -6  -6   3    1.42    0.94
   6  -6  -3    2.05    1.13
   6   6   3   -0.23    1.25
   6  -6  -3    1.68    1.37
   7   6  -3    0.00    1.49
  -7   6   3    0.60    1.20
  -7  -6  -3   -1.10    0.91
   7  -6   3    0.62    1.52
   7  -6  -3    2.13    1.38
  -7   6  -3    0.05    1.05
   7   6   3    0.12    1.40
   7  -6  -3    0.49    1.23
  -7  -6   3    0.53    0.99
  -8  -6  -3    1.63    1.08
   8   6  -3   -0.59    1.62
  -8   6   3   -1.66    1.24
   8  -6   3    0.05    1.56
  -8  -6   3   -0.96    1.02
   8   6   3   -1.12    1.52
  -8   6  -3    1.57    1.25
   9   6  -3    3.15    1.94
  -9   6   3    1.72    1.40
   9  -6   3    3.12    1.78
   9   6   3   -0.30    1.68
  -9  -6   3    1.39    1.36
  -9   6  -3   -0.50    1.25
 -10   6   3   -0.44    1.66
  10   6  -3    1.48    2.05
  10   6   3   -2.81    1.74
 -10   6  -3    1.41    1.51
 -11   6   3    1.39    1.72
  11   6  -3    0.04    2.30
  11   6   3    1.20    2.14
   0   7  -3    0.52    0.53
   0   7   3   -0.70    0.55
   0   7   3    0.21    0.52
   0   7  -3   -0.84    0.77
   0  -7   3   -0.96    0.68
   0  -7  -3   -0.23    0.68
   1  -7   3  220.86   11.57
   1   7  -3  218.79   12.13
  -1   7   3  230.19   11.64
  -1  -7  -3  239.58   11.47
  -1  -7   3  224.79   11.44
  -1   7  -3  243.60   11.78
  -1  -7   3  231.28   11.80
   1   7   3  214.98   11.53
   1  -7  -3  230.82   11.46
   1   7   3  209.80   12.12
  -2  -7  -3   51.57    2.93
  -2   7   3   47.57    2.89
   2   7  -3   44.85    3.16
   2  -7   3   48.02    3.23
  -2   7   3   51.75    3.18
   2   7   3   52.56    3.04
  -2   7  -3   45.69    2.90
   2  -7  -3   43.09    2.86
   2   7   3   42.28    2.67
  -2  -7   3   47.68    2.80
  -2  -7   3   50.11    3.05
  -3  -7  -3  124.35    6.41
   3  -7   3  119.86    6.72
   3   7  -3  121.60    7.03
  -3   7   3  133.83    6.66
   3  -7  -3  116.66    6.70
  -3  -7   3  114.37    6.69
  -3   7  -3  118.77    6.53
  -3  -7   3  115.62    6.31
   3   7   3  124.30    6.41
   3   7   3  132.13    6.92
   3  -7  -3  119.31    6.49
  -4  -7  -3   44.36    2.73
   4   7  -3   44.76    3.46
  -4  -7  -3   46.82    2.90
   4  -7   3   45.25    3.46
  -4   7   3   45.31    3.08
   4   7   3   51.43    3.27
  -4  -7   3   42.29    3.16
  -4  -7   3   46.23    2.75
   4  -7  -3   48.91    3.22
   4  -7  -3   44.51    2.93
  -4   7  -3   45.10    2.95
   5  -7   3   67.29    4.53
   5   7  -3   68.86    4.67
  -5   7   3   65.49    4.09
  -5  -7  -3   69.66    3.91
   5  -7  -3   65.76    4.12
  -5  -7   3   68.06    4.20
  -5  -7   3   65.07    3.74
   5   7   3   70.69    4.46
  -5   7  -3   65.44    4.06
   5  -7  -3   70.56    4.39
   6  -7   3    6.53    1.87
   6   7  -3    5.94    1.79
  -6  -7  -3    6.97    1.19
  -6   7   3    7.87    1.48
   6   7   3    7.14    1.61
  -6  -7   3    8.09    1.32
   6  -7  -3    6.38    1.74
  -6   7  -3   10.21    1.46
   7   7  -3   74.65    5.16
  -7   7   3   67.38    4.43
  -7  -7  -3   72.83    4.21
   7  -7   3   68.41    4.80
   7  -7  -3   77.83    4.68
   7   7   3   64.50    4.81
  -7   7  -3   69.97    4.39
  -7  -7   3   73.16    4.45
  -8   7   3   -0.84    1.22
   8  -7   3    0.12    1.79
  -8  -7  -3   -0.70    1.08
   8   7  -3    0.90    1.78
  -8   7  -3    0.21    1.24
  -8  -7   3   -0.59    1.12
   8   7   3   -1.13    1.50
   9  -7   3   12.41    2.39
  -9   7   3   14.47    2.00
   9   7  -3   12.74    2.56
  -9  -7   3   15.29    2.02
  -9   7  -3   15.28    2.02
   9   7   3   11.92    2.35
  10   7  -3   -1.06    2.07
 -10   7   3    1.64    1.78
  10  -7   3   -0.65    1.98
  10   7   3    0.21    1.92
 -10   7  -3    0.80    1.51
   0   8   3    0.90    0.71
   0   8  -3   -0.11    0.85
   0  -8  -3    0.33    0.83
   0   8  -3    0.18    0.53
   0  -8   3    0.39    0.85
   0   8   3    0.33    0.59
  -1   8   3    0.93    0.69
   1  -8   3    1.30    0.95
  -1  -8  -3    1.33    0.86
  -1   8   3    0.82    0.79
   1   8  -3    2.01    0.79
   1   8   3    0.59    0.71
   1   8   3    1.99    0.67
  -1  -8   3    2.57    0.81
   1  -8  -3    1.91    0.86
  -1  -8   3    2.74    0.86
  -1   8  -3    1.45    0.90
   2  -8   3    9.93    1.46
  -2  -8  -3    9.98    1.24
  -2   8   3   10.24    1.21
   2   8  -3   11.00    1.36
  -2   8   3   11.27    1.43
   2   8   3    9.69    1.04
   2  -8  -3   10.68    1.27
  -2   8  -3   10.90    1.32
  -2  -8   3   12.21    1.19
   2   8   3   12.09    1.27
  -2  -8   3   10.91    1.30
   3   8  -3    1.15    1.16
   3  -8   3    4.04    1.35
  -3   8   3    2.33    0.89
  -3  -8  -3    3.21    0.97
   3  -8  -3    2.98    1.07
  -3  -8   3    2.78    0.86
   3  -8  -3    1.83    0.73
  -3   8  -3    2.36    0.95
  -3  -8   3    2.20    0.96
   3   8   3    2.80    1.04
   3   8   3    1.98    0.79
  -4  -8  -3    6.98    1.19
   4   8  -3    7.53    1.59
  -4   8   3    7.55    1.29
  -4  -8  -3    7.42    0.92
   4  -8   3    9.54    1.76
   4  -8  -3    8.09    1.48
  -4   8  -3    6.92    1.23
   4   8   3    9.67    1.46
  -4  -8   3    8.49    1.36
  -4  -8   3    5.24    1.01
  -5  -8  -3    3.83    1.10
   5  -8   3   -1.54    1.50
  -5   8   3    1.72    1.10
   5   8  -3    1.64    1.57
  -5  -8   3    3.88    0.91
  -5   8  -3    0.45    1.01
   5   8   3    1.10    1.30
   5  -8  -3    1.97    1.53
  -5  -8   3    1.48    1.12
   6  -8   3   14.09    2.26
   6   8  -3   12.02    2.25
  -6  -8  -3   17.65    1.65
  -6   8   3   15.75    2.00
  -6  -8   3   18.60    1.92
   6   8   3   13.31    2.06
   6  -8  -3   14.78    2.20
  -6   8  -3   16.56    1.78
  -7  -8  -3    2.66    1.20
   7   8  -3    1.57    1.77
  -7   8   3    3.92    1.51
   7  -8   3   -0.58    1.81
  -7   8  -3    1.59    1.27
   7  -8  -3    3.40    1.78
  -7  -8   3    4.33    1.37
   7   8   3    4.07    1.57
  -8  -8  -3   -2.66    1.12
   8   8  -3    0.41    1.89
  -8   8   3   -1.87    1.40
   8  -8   3   -1.74    1.91
   8   8   3   -1.84    1.54
  -8  -8   3    1.09    1.28
  -8   8  -3   -1.39    1.26
   9   8  -3    1.09    2.04
   9  -8   3    4.43    2.12
  -9   8   3    2.36    1.66
  -9   8  -3   -0.20    1.38
  -9  -8   3   -0.64    1.33
   9   8   3    1.30    1.86
  10   8  -3    0.71    2.30
 -10   8   3    3.72    1.96
  10  -8   3    3.33    2.26
 -10   8  -3    1.75    1.62
  10   8   3    1.63    2.01
   0  -9  -3    0.10    0.94
   0  -9   3    1.91    1.01
   0   9  -3   -0.57    0.95
   0   9   3    0.32    0.82
   0   9   3   -0.20    0.68
   1   9  -3  158.70    9.23
  -1  -9  -3  172.15    8.91
   1   9  -3  164.98    9.30
  -1   9   3  171.01    8.97
   1  -9   3  172.40    9.02
   1   9   3  162.45    9.33
  -1  -9   3  174.87    8.88
  -1   9  -3  181.65    9.16
   1  -9  -3  180.28    8.90
   1   9   3  169.26    8.91
   2  -9   3   -0.58    1.12
   2   9  -3   -0.06    1.04
  -2  -9  -3    0.81    1.02
  -2   9   3   -1.56    0.80
  -2  -9   3   -0.03    0.89
   2   9   3    0.56    0.68
   2   9   3   -0.66    0.87
  -2  -9   3    0.00    0.88
  -2   9  -3    0.27    0.89
   2  -9  -3    0.70    0.99
   3   9  -3   88.61    5.60
   3  -9   3   95.21    5.49
  -3   9   3   89.49    5.15
  -3  -9  -3   90.75    5.06
   3   9   3   86.90    5.38
   3   9   3   88.40    4.99
   3  -9  -3   92.39    5.20
  -3  -9   3   89.98    5.01
  -3   9  -3   88.98    5.21
  -3  -9   3   94.90    5.34
  -4  -9  -3   14.82    1.60
   4  -9   3   16.87    2.11
  -4   9   3   13.64    1.74
   4   9  -3   14.34    2.07
  -4  -9   3   15.44    1.46
   4   9   3   15.66    1.84
  -4  -9   3   13.51    1.69
  -4   9  -3   14.75    1.70
   4  -9  -3   16.12    1.89
   4   9   3   14.58    1.55
   5  -9   3   52.09    4.08
  -5   9   3   60.57    3.76
  -5  -9  -3   55.76    3.51
   5   9  -3   52.61    4.21
  -5  -9   3   56.44    3.34
   5   9   3   54.62    3.94
   5  -9  -3   53.40    3.96
  -5  -9   3   49.07    3.80
  -5   9  -3   47.16    3.40
   6   9  -3    0.85    1.71
  -6  -9  -3    1.34    1.16
   6  -9   3   -1.77    1.71
  -6   9   3   -2.11    1.22
   6   9   3    0.97    1.49
  -6  -9   3   -1.06    1.14
   6  -9  -3    1.18    1.75
  -6   9  -3    0.67    1.17
   7   9  -3   59.04    4.83
   7  -9   3   55.09    4.62
  -7  -9  -3   66.61    3.98
  -7   9   3   68.18    4.38
   7  -9  -3   59.14    4.51
  -7  -9   3   63.17    4.37
  -7   9  -3   61.13    4.11
  -8  -9  -3   -0.16    1.28
   8  -9   3   -2.95    2.07
   8   9  -3   -1.29    1.94
  -8   9   3   -0.75    1.36
   8   9   3    1.69    1.77
  -8   9  -3    0.54    1.37
  -8  -9   3    1.11    1.41
   9   9  -3   33.04    3.64
   9  -9   3   26.89    3.32
  -9   9   3   25.22    2.75
   9   9   3   20.77    2.95
  -9   9  -3   29.69    2.79
  10   9  -3    1.32    2.51
  10  -9   3   -1.36    2.31
 -10   9   3    1.65    1.73
  10   9   3   -0.14    2.06
 -10   9  -3    2.24    1.70
   0 -10  -3    0.96    1.10
   0  10  -3   -0.23    1.20
   0  10   3   -0.67    0.80
   0 -10   3   -2.05    1.01
  -1 -10  -3    0.78    1.09
   1 -10   3    3.20    1.27
   1  10  -3    0.14    1.12
  -1  10   3    0.64    0.83
  -1  10  -3    0.46    1.03
   1  10   3    0.81    0.81
   1 -10  -3   -0.52    1.08
  -1 -10   3    0.34    1.05
   1  10   3    1.51    0.97
  -2 -10  -3   -1.13    1.12
  -2  10   3    0.58    0.90
   2  10  -3    1.59    1.16
   2 -10   3   -1.50    1.23
  -2  10  -3    1.82    1.05
  -2 -10   3    0.22    1.04
  -2 -10   3    1.16    1.07
   2  10   3   -0.72    1.04
   2  10   3    1.66    0.84
   2 -10  -3   -2.14    1.10
  -3  10   3   -0.16    0.93
  -3 -10  -3    0.51    1.19
   3 -10   3    1.34    1.40
   3  10  -3    0.15    1.37
   3 -10  -3    1.23    1.28
   3  10   3   -1.29    1.08
  -3 -10   3   -0.14    0.97
  -3  10  -3   -0.71    0.97
  -3 -10   3   -1.51    0.97
   3  10   3    1.64    0.98
   4 -10   3    3.58    1.59
  -4  10   3    0.79    1.09
   4  10  -3    1.58    1.57
  -4 -10  -3    2.17    1.21
  -4 -10   3    1.60    1.07
  -4  10  -3   -1.66    0.99
   4  10   3    0.24    1.32
   4 -10  -3   -1.27    1.39
  -4 -10   3   -0.14    1.03
   5 -10   3    0.71    1.63
   5  10  -3    1.91    1.70
  -5 -10  -3    3.68    1.27
  -5  10   3    1.50    1.31
  -5 -10   3   -0.16    0.98
   5  10   3   -0.38    1.36
  -5 -10   3    1.28    1.14
   5 -10  -3    3.53    1.66
  -5  10  -3    1.14    1.15
   6  10  -3    2.35    1.83
  -6  10   3    0.31    1.38
   6 -10   3    2.27    1.93
  -6 -10  -3    1.81    1.30
  -6 -10   3    2.68    1.40
  -6  10  -3    3.72    1.37
   6  10   3    2.37    1.66
   6 -10  -3    0.71    1.84
   7 -10   3   -0.50    2.06
   7  10  -3   -1.84    1.87
  -7  10   3   -1.24    1.45
  -7 -10  -3   -2.17    1.26
   7  10   3    1.28    1.70
  -7  10  -3    2.48    1.30
   7 -10  -3    0.95    2.02
  -7 -10   3   -1.23    1.33
   8  10  -3   -1.33    2.09
  -8  10   3    1.18    1.68
   8 -10   3    3.52    2.32
   8  10   3   -2.92    1.74
  -8 -10   3    3.70    1.69
  -8  10  -3    2.66    1.50
  -9  10   3    0.91    1.62
   9 -10   3   -6.08    2.29
   9  10  -3    2.88    2.39
   9  10   3    0.46    2.03
  -9  10  -3    1.91    1.60
   0 -11  -3   -0.35    1.16
   0  11  -3   -2.77    1.23
   0  11   3    0.07    0.86
   0 -11   3   -1.52    1.18
  -1 -11  -3   84.16    4.98
   1  11  -3   72.94    5.17
   1 -11   3   82.44    5.11
  -1  11   3   81.32    4.77
   1  11   3   83.27    4.76
  -1 -11   3   87.21    4.98
  -1  11  -3   90.70    5.21
   1 -11  -3   86.72    4.94
   2  11  -3   36.06    3.01
  -2  11   3   32.25    2.57
   2 -11   3   34.20    2.84
  -2 -11  -3   31.54    2.56
   2  11   3   30.25    2.79
   2 -11  -3   32.99    2.86
  -2  11  -3   34.42    2.72
  -2 -11   3   36.01    2.76
   2  11   3   33.56    2.43
   3 -11   3    9.24    1.81
  -3 -11  -3   10.87    1.64
  -3  11   3    8.31    1.47
  -3 -11   3    9.14    1.41
   3  11   3    9.33    1.63
  -3 -11   3    8.97    1.53
  -3  11  -3    5.81    1.41
   3  11   3    9.37    1.40
   3 -11  -3    7.47    1.60
  -4  11   3   56.96    4.01
  -4 -11  -3   64.47    4.03
   4 -11   3   61.21    4.31
   4  11  -3   56.57    4.50
  -4  11  -3   60.67    4.07
   4 -11  -3   59.43    4.19
  -4 -11   3   64.34    4.16
   4  11   3   64.97    4.36
  -4 -11   3   66.03    3.91
  -5  11   3   13.71    1.86
   5  11  -3   10.55    2.15
  -5 -11  -3   10.67    1.66
   5 -11   3    9.66    2.11
   5  11   3    9.99    1.98
  -5 -11   3    9.08    1.63
  -5 -11   3   10.28    1.48
   5 -11  -3    9.05    2.05
  -5  11  -3    9.52    1.61
   6 -11   3    7.80    2.23
   6  11  -3    6.80    2.19
  -6 -11  -3    7.99    1.62
  -6  11   3    7.94    1.78
   6  11   3    4.77    1.90
  -6 -11   3   11.57    1.77
  -6  11  -3    7.42    1.66
   6 -11  -3    7.93    2.25
   7 -11   3   15.58    2.80
  -7 -11  -3   19.92    2.14
  -7  11   3   22.04    2.42
   7  11  -3   16.20    2.87
   7  11   3   17.91    2.63
  -7  11  -3   15.79    2.16
  -7 -11   3   20.78    2.35
   7 -11  -3   20.62    2.87
  -8  11   3    4.11    1.76
   8  11  -3    3.61    2.44
   8 -11   3    1.12    2.41
  -8  11  -3    3.87    1.63
   8  11   3    5.37    2.23
   9 -11   3    6.03    2.86
   9  11  -3    9.20    2.90
  -9  11   3    9.95    2.22
  -9  11  -3   11.19    1.98
   9  11   3   12.05    2.73
   0 -12   3    2.94    1.44
   0 -12  -3   -0.10    1.30
   0  12  -3   -0.55    1.42
   0  12   3    1.89    1.03
  -1 -12  -3    2.74    1.39
   1 -12   3    1.58    1.47
  -1  12   3    3.32    1.14
   1  12  -3    2.73    1.55
  -1 -12   3    2.46    1.39
   1 -12  -3    2.40    1.36
   1  12   3    2.00    1.02
  -1  12  -3    1.30    1.42
  -2  12   3    9.12    1.48
   2 -12   3   12.95    1.96
  -2 -12  -3    9.12    1.66
   2  12  -3   10.30    1.91
  -2 -12   3    8.25    1.56
   2 -12  -3    8.29    1.65
   2  12   3    9.28    1.38
  -2  12  -3   10.01    1.66
   3  12  -3    0.05    1.42
   3 -12   3    1.82    1.53
  -3  12   3    0.38    1.07
  -3 -12  -3    1.07    1.31
  -3  12  -3    0.51    1.33
   3  12   3   -0.54    0.95
   3 -12  -3    1.00    1.43
  -3 -12   3    1.04    1.23
  -4  12   3   -0.09    1.10
   4 -12   3   -0.90    1.63
  -4 -12  -3   -0.44    1.42
   4 -12  -3    2.60    1.59
  -4  12  -3   -0.19    1.13
  -4 -12   3    0.40    1.23
   4  12   3   -0.82    1.48
  -4 -12   3    0.40    1.21
  -5  12   3    1.16    1.28
  -5 -12  -3    0.10    1.47
   5 -12   3    2.30    1.81
  -5  12  -3   -0.41    1.19
   5 -12  -3    0.80    1.84
   5  12   3   -1.57    1.61
  -5 -12   3    0.21    1.24
   6 -12   3    1.70    2.06
  -6 -12  -3    0.45    1.50
   6  12  -3    3.02    2.12
  -6  12   3    1.72    1.54
  -6 -12   3   -0.97    1.29
  -6  12  -3    1.41    1.46
   6  12   3   -0.44    1.86
   6 -12  -3    1.47    1.99
  -7 -12  -3   -0.34    1.56
   7  12  -3   -0.98    2.21
   7 -12   3   -2.62    2.06
  -7  12   3   -1.66    1.37
  -7 -12   3   -0.62    1.48
  -7  12  -3    0.35    1.34
   7  12   3    2.49    2.02
   7 -12  -3    1.35    2.27
  -8  12   3   -0.05    1.67
   8  12  -3   -1.26    2.37
   8 -12   3    0.89    2.52
  -8  12  -3    0.43    1.69
   8  12   3    0.78    2.19
   0  13  -3   -0.92    1.47
   0 -13   3   -1.59    1.46
   0 -13  -3   -2.74    1.30
   0  13   3    0.18    1.03
   1 -13   3  102.00    6.07
   1  13  -3   91.60    6.05
  -1 -13  -3  100.79    5.85
  -1  13   3   96.88    5.74
   1 -13  -3   99.75    5.89
  -1  13  -3  108.18    6.15
   1  13   3   93.51    5.69
  -1 -13   3  111.50    5.98
  -2  13   3    6.87    1.47
  -2 -13  -3    7.03    1.65
   2 -13   3    9.16    1.93
   2  13  -3    8.07    1.91
   2 -13  -3    8.27    1.76
   2  13   3    9.82    1.59
  -2  13  -3   10.51    1.92
  -2 -13   3    9.12    1.68
   3 -13   3   51.40    3.95
  -3 -13  -3   51.40    3.61
  -3  13   3   41.86    3.45
   3  13  -3   54.67    3.84
  -3  13  -3   50.10    3.64
  -3 -13   3   49.09    3.51
   3 -13  -3   46.67    3.65
  -4  13   3    1.29    1.37
   4 -13   3    2.81    1.85
   4  13  -3    3.75    1.64
  -4 -13  -3    3.09    1.54
   4 -13  -3    1.64    1.79
  -4 -13   3    6.70    1.45
  -4  13  -3    4.63    1.63
  -5 -13  -3   42.58    3.25
  -5  13   3   30.06    2.95
   5 -13   3   36.87    3.39
  -5 -13   3   38.22    3.31
   5 -13  -3   38.16    3.40
  -5  13  -3   29.91    2.94
  -6 -13  -3    1.09    1.63
   6 -13   3    1.72    2.10
  -6  13   3   -0.80    1.48
   6 -13  -3    0.31    2.04
   6  13   3   -1.39    1.90
  -6  13  -3    0.39    1.58
  -6 -13   3   -1.94    1.30
  -7 -13  -3   20.52    2.38
  -7  13   3   16.11    2.36
   7 -13   3   15.70    2.85
   7  13   3   17.11    2.92
   7 -13  -3   17.05    2.92
  -7  13  -3   13.35    2.25
   0  14   3    1.81    1.20
   0 -14  -3   -0.49    1.46
   0  14  -3    0.59    1.46
   0 -14   3    3.10    1.73
   1  14  -3    1.88    1.74
   1 -14   3    0.07    1.70
  -1 -14  -3    0.02    1.57
  -1  14   3    1.03    1.12
  -1  14  -3    2.85    1.76
   1  14   3    1.54    1.27
   1 -14  -3    1.81    1.65
  -1 -14   3    3.41    1.64
  -2  14   3   -1.18    1.12
  -2 -14  -3   -0.52    1.50
   2  14  -3   -0.28    1.46
   2 -14   3    1.30    1.75
  -2 -14   3    1.34    1.48
   2 -14  -3   -1.24    1.57
   2  14   3    0.30    1.16
  -2  14  -3   -0.74    1.41
  -3  14   3    1.43    1.25
   3 -14   3    0.62    1.86
   3  14  -3    0.28    1.54
  -3 -14  -3    1.72    1.59
   3 -14  -3   -1.93    1.59
  -3  14  -3   -0.61    1.42
  -3 -14   3    2.18    1.50
   4  14  -3    1.45    1.65
  -4  14   3    1.45    1.41
   4 -14   3    2.72    1.97
  -4 -14  -3   -1.10    1.58
   4 -14  -3    1.98    1.91
  -4 -14   3    3.25    1.52
  -4  14  -3    2.41    1.59
   5  14  -3    0.70    1.58
  -5 -14  -3   -3.08    1.53
   5 -14   3   -1.66    1.90
  -5  14   3   -0.74    1.47
   5 -14  -3   -0.18    2.03
  -5  14  -3    2.08    1.52
  -6  14   3    2.07    1.69
  -6 -14  -3    1.62    1.70
   6 -14   3    2.94    2.25
  -6  14  -3    4.03    1.84
   6 -14  -3    3.62    2.38
  -6 -14   3   -0.21    1.53
   7 -14   3    1.19    2.36
  -7 -14  -3   -0.79    1.78
  -7  14   3    0.79    1.73
  -7  14  -3   -2.15    1.58
   7 -14  -3    1.31    2.52
   0  15   3   -0.91    1.25
   0 -15  -3   -0.04    1.66
   0  15  -3    0.22    1.59
   0 -15   3   -0.58    1.75
   1 -15   3   24.96    2.80
  -1 -15  -3   24.02    2.53
  -1  15   3   19.79    2.28
   1  15  -3   18.14    2.64
  -1  15  -3   18.98    2.73
   1 -15  -3   20.84    2.51
   1  15   3   22.74    2.38
  -1 -15   3   26.15    2.62
  -2  15   3    0.37    1.32
   2 -15   3    1.00    1.92
   2  15  -3    0.98    1.79
  -2 -15  -3    0.43    1.64
  -2 -15   3    3.60    1.74
   2 -15  -3    0.65    1.79
  -2  15  -3    0.45    1.61
  -3 -15  -3   19.69    2.43
   3 -15   3   23.09    2.76
  -3  15   3   20.35    2.40
   3  15  -3   18.22    2.48
   3 -15  -3   19.39    2.61
  -3 -15   3   22.14    2.38
  -3  15  -3   21.36    2.66
  -4 -15  -3    2.00    1.75
   4  15  -3    1.25    1.73
  -4  15   3    1.01    1.54
   4 -15   3   -0.36    2.00
  -4  15  -3    1.05    1.79
  -4 -15   3   -0.24    1.56
   4 -15  -3    1.33    2.07
   5 -15   3   25.71    3.12
  -5  15   3   22.09    2.69
  -5 -15  -3   27.75    2.74
   5  15  -3   28.19    2.96
   5 -15  -3   28.44    3.20
  -5  15  -3   22.80    2.87
  -6 -15  -3   -1.33    1.82
  -6  15   3    0.77    1.70
   6 -15   3   -3.54    2.13
   6 -15  -3    2.43    2.48
  -6  15  -3   -1.65    1.64
   0 -16   3    2.46    2.00
   0 -16  -3   -0.45    1.80
   0  16  -3   -0.75    1.69
   0  16   3    0.31    1.41
  -1  16   3    0.31    1.42
   1 -16   3    0.15    1.99
  -1 -16  -3    2.62    1.82
   1  16  -3   -3.31    1.58
   1 -16  -3    0.42    1.87
  -1 -16   3    3.71    1.91
   1  16   3    2.43    1.50
  -1  16  -3   -0.95    1.84
  -2  16   3    1.45    1.46
   2 -16   3    3.45    2.11
  -2 -16  -3    4.93    1.97
   2  16  -3   -1.59    1.76
   2 -16  -3    2.74    2.00
  -2 -16   3    0.08    1.81
  -2  16  -3    0.83    1.99
   3 -16   3   -0.67    2.07
  -3  16   3   -1.93    1.46
  -3 -16  -3    1.87    1.82
   3  16  -3   -0.91    1.83
  -3  16  -3   -1.74    1.87
   3 -16  -3    3.68    2.16
  -3 -16   3    3.64    1.82
  -4  16   3    1.43    1.60
   4  16  -3    1.77    1.81
   4 -16   3    2.07    2.28
  -4 -16  -3    1.03    1.87
  -4  16  -3    0.08    1.91
  -4 -16   3    2.53    1.77
   4 -16  -3    0.54    2.25
   0 -17   3    3.98    2.18
   0 -17  -3   -0.75    1.88
   0  17  -3   -2.68    1.96
   0  17   3    0.75    1.68
   1  17  -3   12.62    2.68
  -1 -17  -3   19.15    2.57
   1 -17   3   14.01    2.78
  -1  17   3   16.90    2.28
  -1  17  -3    9.42    2.61
  -1 -17   3   18.29    2.66
   1 -17  -3   15.74    2.60
   2  17  -3    3.82    2.18
  -2 -17  -3    2.25    1.94
   2 -17   3    1.93    2.25
  -2  17   3    1.00    1.64
  -2 -17   3   -0.09    1.91
  -2  17  -3   -1.34    2.09
   2 -17  -3    0.64    2.06
   0   0   4   14.24    1.16
   0   0   4   13.51    0.91
   0   0  -4   11.55    0.89
   1   0   4  763.38   40.96
  -1   0   4  794.89   41.01
   1   0  -4  832.08   40.19
  -1   0  -4  860.09   40.27
   1   0   4  808.21   43.00
  -1   0   4  856.35   43.19
   2   0   4   59.89    3.46
  -2   0   4   57.03    3.26
   2   0   4   60.70    3.24
   2   0  -4   63.02    3.68
  -2   0  -4   62.17    3.11
   3   0  -4    7.50    0.99
  -3   0   4    6.86    0.76
   3   0   4    7.26    0.88
  -3   0  -4    7.25    0.56
   3   0   4    6.17    0.79
   4   0  -4  159.53    9.09
  -4   0   4  166.76    8.58
   4   0   4  165.62    9.00
  -4   0  -4  163.38    8.36
  -5   0  -4   41.89    2.53
   5   0  -4   41.55    3.09
   5   0   4   44.06    2.97
  -5   0   4   43.90    2.68
  -5   0  -4   43.09    2.45
  -5   0   4   40.21    2.20
  -6   0   4   33.19    2.54
   6   0   4   35.65    2.82
   6   0  -4   35.90    2.91
  -6   0  -4   33.69    2.33
  -6   0  -4   31.35    2.19
  -7   0  -4    0.99    0.93
   7   0  -4    1.21    1.30
   7   0   4    0.85    1.26
  -7   0  -4    1.64    0.82
  -7   0   4    0.20    1.00
  -8   0   4   18.56    1.97
   8   0  -4   16.64    2.29
  -8   0  -4   21.42    1.82
   8   0   4   17.77    2.28
   9   0   4   36.31    3.51
   9   0  -4   39.83    3.64
  -9   0   4   42.65    3.28
  -9   0  -4   43.32    3.03
 -10   0   4   34.30    2.99
  10   0   4   30.79    3.39
  10   0  -4   32.77    3.32
  11   0   4    4.33    2.19
  11   0  -4   -0.90    1.93
 -11   0   4    0.53    1.65
   0  -1   4    1.17    0.37
   0  -1   4    1.71    0.55
   0   1   4   -0.43    0.28
   0   1   4    1.27    0.49
   0  -1   4    0.00    0.37
   0  -1  -4    0.18    0.31
   1  -1   4   58.45    3.09
   1  -1   4   56.47    3.09
  -1  -1  -4   60.63    3.04
  -1   1   4   54.20    3.08
   1  -1   4   56.23    3.26
  -1   1   4   64.70    3.53
   1   1   4   60.88    3.31
  -1  -1   4   59.47    3.55
   1  -1  -4   58.04    2.97
  -1  -1   4   56.89    3.13
  -1  -1   4   55.28    2.95
   2   1  -4  366.66   18.16
  -2  -1  -4  343.06   16.81
   2  -1   4  335.17   16.87
   2  -1   4  338.15   17.97
  -2   1   4  338.84   17.16
   2   1   4  318.21   17.99
  -2  -1   4  330.43   17.16
   2  -1  -4  333.63   16.71
   2  -1  -4  335.93   18.14
  -2   1  -4  357.14   17.06
   3  -1   4   57.65    3.26
   3   1  -4   62.42    3.62
  -3   1   4   60.75    3.29
  -3  -1  -4   52.88    3.04
   3  -1   4   61.24    3.47
  -3  -1  -4   56.72    3.17
   3  -1  -4   60.05    3.09
   3  -1  -4   63.69    3.66
  -3   1  -4   61.87    3.15
  -3  -1   4   59.34    3.31
   3   1   4   56.99    3.50
   4  -1   4   77.40    4.24
  -4  -1  -4   79.97    4.07
   4  -1   4   74.48    4.53
  -4  -1  -4   81.34    4.16
   4   1  -4   76.40    4.66
  -4   1   4   76.79    4.29
   4  -1  -4   75.13    3.96
  -4  -1   4   80.17    4.31
   4   1   4   76.58    4.56
  -4   1  -4   76.83    4.11
   4  -1  -4   81.44    4.67
   5   1  -4    2.89    1.00
  -5   1   4    1.61    0.76
   5  -1   4    1.43    0.74
   5  -1   4    1.19    0.82
  -5  -1  -4    1.05    0.50
  -5  -1  -4    0.49    0.64
  -5   1  -4    1.21    0.54
   5  -1  -4    1.61    0.47
   5   1   4    1.22    0.90
  -5  -1   4    1.04    0.69
   5  -1  -4    1.43    0.93
  -6   1   4    5.61    1.04
   6   1  -4    5.81    1.35
   6  -1   4    4.00    1.03
  -6  -1  -4    5.49    0.94
   6  -1   4    5.79    1.23
  -6  -1  -4    6.26    0.82
   6   1   4    6.15    1.33
  -6  -1   4    5.88    0.98
   6  -1  -4    4.33    1.26
  -6   1  -4    4.89    0.84
   7   1  -4    6.20    1.56
  -7   1   4    7.87    1.25
  -7  -1  -4    5.22    1.08
   7  -1   4    6.49    1.55
  -7  -1   4    6.27    1.23
   7   1   4    6.25    1.59
   7  -1  -4    5.86    1.54
  -7   1  -4    8.13    1.09
  -8   1   4   17.88    1.96
   8   1  -4   15.99    2.26
   8  -1   4   16.52    2.17
  -8  -1  -4   16.47    1.65
   8   1   4   16.93    2.29
   8  -1  -4   15.21    2.13
  -8  -1   4   15.59    1.87
  -8   1  -4   19.44    1.75
  -9  -1  -4   12.44    1.55
   9  -1   4   13.49    2.19
  -9   1   4   10.54    1.68
   9   1  -4    8.46    2.07
  -9   1  -4   14.14    1.65
   9   1   4   10.36    2.14
   9  -1  -4   10.21    2.02
  -9  -1   4   11.03    1.77
 -10   1   4    0.38    1.39
  10  -1   4   -0.94    1.70
  10   1  -4   -1.67    1.69
 -10  -1   4    1.42    1.48
  10  -1  -4   -4.46    1.49
  10   1   4    0.76    1.85
 -11   1   4   -1.49    1.50
  11  -1   4   -2.49    1.92
  11   1  -4   -1.69    1.93
 -11  -1   4   -1.69    1.51
  11  -1  -4   -2.20    1.90
  11   1   4    1.22    2.10
   0  -2   4  324.45   15.52
   0   2   4  343.22   16.56
   0  -2   4  293.46   16.58
   0   2   4  300.90   15.69
   0  -2   4  308.02   15.85
   0  -2  -4  304.32   15.44
  -1   2   4   75.35    4.12
   1  -2   4   74.11    4.31
  -1   2   4   88.11    4.53
   1   2  -4   72.27    4.49
   1  -2   4   74.48    4.14
   1  -2   4   83.50    4.18
  -1  -2   4   81.85    4.06
  -1  -2   4   77.01    4.19
   1   2   4   86.29    4.40
   1  -2  -4   75.48    4.01
  -2   2   4  350.97   17.94
   2  -2   4  355.85   17.69
   2  -2   4  338.46   18.74
  -2  -2  -4  356.67   17.58
   2   2  -4  375.47   18.97
   2   2   4  376.36   18.84
   2  -2  -4  343.87   17.52
  -2   2  -4  354.89   17.87
  -2  -2   4  349.83   17.50
   2  -2  -4  349.36   18.95
  -2  -2   4  354.33   17.96
  -3   2   4    1.84    0.52
  -3  -2  -4    1.51    0.49
   3   2  -4    1.64    0.78
  -3  -2  -4    1.33    0.24
   3  -2   4    1.08    0.63
   3  -2   4    1.86    0.56
  -3  -2   4    1.99    0.54
   3  -2  -4    2.14    0.52
   3   2   4    0.42    0.58
   3  -2  -4    1.72    0.74
  -3   2  -4    1.73    0.45
  -4  -2  -4  390.81   19.70
  -4   2   4  398.63   19.94
   4  -2   4  373.62   19.59
  -4  -2  -4  389.14   19.49
   4   2  -4  401.37   21.05
   4  -2   4  400.31   20.87
  -4  -2   4  392.77   19.92
   4  -2  -4  410.56   19.45
  -4   2  -4  403.32   19.82
   4   2   4  375.35   20.93
   4  -2  -4  379.71   20.94
   5   2  -4    1.14    0.98
   5  -2   4    0.37    0.81
   5  -2   4    0.67    0.82
  -5   2   4    1.58    0.78
  -5  -2  -4    0.81    0.45
  -5  -2  -4    1.53    0.67
  -5   2  -4    0.21    0.53
   5  -2  -4    1.96    0.57
   5  -2  -4    0.99    0.89
  -5  -2   4    0.88    0.63
   5   2   4    0.81    0.92
   6  -2   4   71.23    4.50
  -6  -2  -4   64.27    3.93
   6  -2   4   71.00    4.16
  -6   2   4   71.50    4.27
   6   2  -4   73.59    4.76
  -6  -2  -4   72.92    4.04
  -6   2  -4   76.78    4.07
   6   2   4   71.68    4.65
   6  -2  -4   71.66    4.62
  -6  -2   4   75.87    4.27
   7  -2   4   -0.80    1.02
  -7  -2  -4   -0.86    0.86
   7  -2   4    0.03    1.18
   7   2  -4   -1.33    1.28
  -7   2   4   -0.86    1.00
  -7  -2   4    0.73    0.96
   7  -2  -4   -1.21    1.23
  -7   2  -4   -0.31    0.79
   7   2   4    0.36    1.31
   8  -2   4   32.89    2.89
   8   2  -4   48.53    3.77
   8  -2   4   47.08    3.52
  -8  -2  -4   41.96    2.89
  -8   2   4   45.54    3.19
  -8   2  -4   42.84    3.02
   8   2   4   37.75    3.58
  -8  -2   4   44.18    3.18
   8  -2  -4   38.45    3.39
  -9  -2  -4   -0.50    1.14
   9   2  -4    0.49    1.62
  -9   2   4    2.72    1.29
   9  -2   4    0.99    1.59
  -9   2  -4    1.59    1.20
   9   2   4    1.11    1.69
  -9  -2   4    2.08    1.31
   9  -2  -4    0.76    1.60
 -10   2   4   48.72    3.74
  10   2  -4   47.03    4.18
  10  -2   4   47.24    4.10
 -10  -2   4   50.39    3.78
 -10   2  -4   50.43    3.52
  10   2   4   40.66    4.04
  10  -2  -4   39.98    3.88
 -11   2   4   -2.25    1.54
  11  -2   4    2.51    2.07
  11   2  -4    0.54    2.04
  11   2   4    2.06    2.15
 -11  -2   4    2.56    1.66
  11  -2  -4    0.83    1.90
   0  -3   4    0.20    0.55
   0   3   4   -0.11    0.28
   0  -3   4   -0.48    0.42
   0  -3  -4   -0.22    0.39
   0   3   4   -0.37    0.40
   0  -3   4   -0.45    0.51
   1   3  -4   37.43    2.53
   1  -3   4   41.33    2.43
   1  -3   4   39.97    2.31
  -1   3   4   43.23    2.51
  -1   3   4   35.30    2.21
  -1  -3   4   42.89    2.31
   1  -3  -4   38.86    2.20
  -1   3  -4   39.29    2.32
   1   3   4   40.68    2.09
  -1  -3   4   36.29    2.33
   1   3   4   41.80    2.40
  -2  -3  -4  357.83   17.89
  -2   3   4  353.83   18.25
   2   3  -4  377.52   19.26
   2  -3   4  366.44   18.07
  -2   3   4  354.11   19.32
   2  -3   4  346.56   19.04
  -2  -3   4  361.52   18.30
   2   3   4  403.86   19.18
   2  -3  -4  344.79   17.85
  -2  -3   4  352.43   17.82
  -2   3  -4  354.47   18.21
  -3   3   4   45.35    2.67
  -3  -3  -4   47.32    2.62
   3  -3   4   43.93    2.75
   3  -3   4   46.01    2.86
  -3  -3  -4   42.72    2.45
   3   3  -4   49.18    3.11
  -3   3  -4   45.54    2.61
   3   3   4   54.52    2.96
  -3  -3   4   44.17    2.41
  -3  -3   4   45.69    2.70
   3  -3  -4   45.87    2.97
   3  -3  -4   47.59    2.61
   4   3  -4    8.06    1.22
   4  -3   4    7.44    0.95
  -4   3   4    5.59    0.85
  -4  -3  -4    4.53    0.53
   4  -3   4    6.25    1.03
  -4  -3  -4    4.45    0.74
  -4  -3   4    6.24    0.85
  -4  -3   4    7.61    0.55
   4   3   4    2.79    0.90
   4  -3  -4    6.99    1.04
  -4   3  -4    5.91    0.78
   4  -3  -4    5.87    0.92
   5  -3   4    3.07    0.88
   5  -3   4    1.24    0.93
  -5  -3  -4    0.39    0.67
  -5  -3  -4    1.84    0.49
   5   3  -4    2.95    1.14
  -5   3   4    2.91    0.82
   5   3   4    1.53    0.98
   5  -3  -4    2.55    0.78
  -5   3  -4    1.11    0.66
  -5  -3   4    2.76    0.41
   5  -3  -4    1.08    0.93
  -5  -3   4    2.13    0.70
  -6  -3  -4   26.76    2.01
   6   3  -4   29.90    2.61
  -6   3   4   25.66    2.25
   6  -3   4   25.27    2.15
   6  -3   4   25.71    2.31
   6  -3  -4   29.90    2.54
  -6  -3   4   27.06    2.08
   6   3   4   22.86    2.29
  -6   3  -4   24.71    2.00
   6  -3  -4   24.72    1.91
  -7   3   4    1.80    1.12
   7  -3   4    2.13    1.20
  -7  -3  -4    1.46    0.94
   7  -3   4    1.73    1.29
   7   3  -4    1.17    1.43
  -7   3  -4    1.73    0.99
  -7  -3   4    1.86    0.93
   7  -3  -4    0.68    1.26
   7   3   4    1.50    1.34
   8  -3   4   25.90    2.41
   8   3  -4   39.91    3.41
  -8  -3  -4   33.65    2.47
  -8   3   4   27.50    2.55
   8  -3   4   32.89    2.98
  -8   3  -4   27.42    2.36
   8  -3  -4   35.06    2.97
   8   3   4   26.39    2.86
  -8  -3   4   29.85    2.66
  -9  -3  -4    2.15    1.19
   9   3  -4    0.47    1.71
   9  -3   4    0.83    1.36
  -9   3   4    2.41    1.40
   9  -3   4   -0.85    1.45
  -9  -3   4    1.67    1.32
   9   3   4    1.39    1.73
   9  -3  -4    0.28    1.53
 -10   3   4    0.57    1.50
  10  -3   4   -1.92    1.68
  10   3  -4   -0.25    1.85
 -10   3  -4    2.60    1.40
  10   3   4    1.68    1.91
 -10  -3   4    3.77    1.58
  10  -3  -4    2.08    1.77
  11   3  -4    1.70    2.25
 -11   3   4   -0.46    1.76
 -11  -3   4    2.07    1.68
  11  -3  -4    1.44    1.96
  11   3   4    0.03    2.01
   0   4   4  141.06    7.36
   0  -4  -4  134.19    7.28
   0   4   4  154.72    7.81
   0   4  -4  157.38    7.82
   0  -4   4  141.37    7.41
   0  -4   4  135.05    7.53
   1  -4   4   32.56    2.09
  -1  -4  -4   33.49    2.03
  -1   4   4   37.40    2.29
  -1   4   4   30.35    2.00
   1  -4   4   32.90    2.32
   1   4  -4   37.69    2.34
   1   4   4   39.21    1.92
  -1  -4   4   34.27    2.08
   1  -4  -4   33.14    2.01
   1   4   4   36.96    2.18
  -1   4  -4   32.76    2.11
  -1  -4   4   30.85    2.29
  -2   4   4  184.46   10.69
   2  -4   4  178.06   10.02
  -2  -4  -4  201.13    9.82
  -2   4   4  189.72   10.02
   2   4  -4  207.47   10.65
   2  -4   4  183.65   10.36
  -2  -4   4  195.73   10.09
   2  -4  -4  187.91    9.79
  -2   4  -4  193.36   10.01
  -2  -4   4  193.17    9.75
   2   4   4  217.29   10.54
   2   4   4  208.33    9.84
   3  -4   4    9.36    0.88
   3   4  -4   10.38    1.32
  -3  -4  -4    9.64    0.76
   3  -4   4    9.39    1.26
  -3   4   4    8.24    1.00
  -3  -4  -4    8.49    0.88
  -3  -4   4   10.80    1.02
   3   4   4    9.31    1.09
   3  -4  -4   10.17    0.97
   3  -4  -4   10.01    1.18
  -3   4  -4    9.92    0.92
  -3  -4   4   10.11    0.77
  -4   4   4  180.02    9.78
   4   4  -4  191.22   10.50
  -4  -4  -4  185.96    9.53
  -4  -4  -4  191.55    9.61
   4  -4   4  189.11    9.82
   4  -4   4  192.43   10.16
   4  -4  -4  180.91   10.28
   4  -4  -4  174.92    9.64
  -4  -4   4  191.92    9.83
   4   4   4  197.48   10.35
  -4  -4   4  188.51    9.38
  -4   4  -4  193.86    9.74
   5  -4   4    3.75    1.22
  -5   4   4    7.84    1.14
  -5  -4  -4    3.98    0.85
   5  -4   4    6.36    1.02
   5   4  -4    5.10    1.33
  -5  -4  -4    5.13    0.65
   5  -4  -4    6.11    1.11
  -5  -4   4    7.02    0.66
  -5  -4   4    4.84    0.88
   5   4   4    5.98    1.23
  -5   4  -4    6.10    0.93
   5  -4  -4    5.63    1.12
   6   4  -4  104.58    6.10
  -6  -4  -4   91.98    5.09
   6  -4   4   94.05    5.58
   6  -4   4   91.89    5.41
  -6   4   4   90.04    5.34
   6  -4  -4   92.27    5.65
  -6  -4   4   94.58    5.36
  -6   4  -4   96.53    5.24
   6  -4  -4   96.09    5.16
   6   4   4   91.55    5.75
  -7   4   4    1.42    1.17
   7  -4   4    0.39    1.25
  -7  -4  -4    1.54    0.95
   7  -4   4    1.37    1.19
   7   4  -4   -0.67    1.50
  -7   4  -4   -0.89    0.98
  -7  -4   4    0.32    1.01
   7  -4  -4   -0.68    1.21
   7   4   4   -0.27    1.34
  -8  -4  -4   22.29    1.87
   8  -4   4   23.15    2.29
   8   4  -4   22.75    2.70
  -8   4   4   20.19    2.12
   8  -4   4   23.85    2.28
  -8   4  -4   21.77    2.04
   8  -4  -4   21.06    2.37
  -8  -4   4   27.14    2.28
   8   4   4   20.92    2.49
  -9  -4  -4   -0.16    1.11
   9   4  -4   -0.14    1.64
  -9   4   4   -1.06    1.34
   9  -4   4    0.15    1.44
   9   4   4   -1.15    1.56
  -9   4  -4    0.92    1.29
  -9  -4   4    1.77    1.31
   9  -4  -4    1.80    1.64
  10   4  -4    7.78    2.33
  10  -4   4    9.22    1.92
 -10   4   4    8.93    1.83
  10  -4  -4   11.76    2.21
  10   4   4    9.65    2.35
 -10  -4   4   14.39    2.06
  11   4  -4    1.35    2.28
 -11   4   4    0.82    1.79
 -11  -4   4    2.81    1.76
  11   4   4   -1.46    2.04
   0   5  -4   -0.68    0.54
   0  -5   4    0.26    0.61
   0  -5  -4    0.23    0.55
   0   5   4    0.15    0.44
   0   5   4    0.20    0.53
   0  -5   4   -0.05    0.54
  -1  -5  -4   32.43    2.07
  -1   5   4   34.65    2.20
   1   5  -4   33.88    2.29
  -1   5   4   30.81    1.98
   1  -5   4   32.25    2.28
  -1   5  -4   32.68    2.13
   1   5   4   34.65    2.11
  -1  -5   4   30.76    2.21
   1  -5  -4   30.13    2.01
   1   5   4   31.97    1.86
  -1  -5   4   30.67    2.05
  -2   5   4   35.92    2.29
   2  -5   4   36.38    2.15
   2   5  -4   38.23    2.60
  -2   5   4   35.12    2.68
  -2  -5  -4   36.88    2.24
   2  -5   4   35.22    2.61
   2   5   4   41.62    2.43
  -2  -5   4   35.76    2.18
   2   5   4   37.49    2.03
  -2  -5   4   35.82    2.52
  -2   5  -4   38.76    2.32
   2  -5  -4   34.11    2.23
  -3  -5  -4   -0.23    0.58
   3   5  -4   -0.35    0.90
  -3   5   4   -0.95    0.62
   3  -5   4    0.10    0.41
   3  -5   4    0.09    1.02
   3  -5  -4   -1.09    0.68
  -3  -5   4    0.18    0.61
   3   5   4    0.18    0.39
  -3  -5   4    0.03    0.48
   3  -5  -4    0.76    0.69
  -3   5  -4   -0.77    0.53
   3   5   4   -0.02    0.71
   4   5  -4    2.39    1.11
   4  -5   4    0.19    0.58
  -4  -5  -4    1.26    0.68
  -4   5   4    0.78    0.79
  -4  -5  -4   -0.38    0.42
   4  -5   4    0.15    1.12
   4  -5  -4    0.44    0.75
  -4  -5   4    1.16    0.71
  -4  -5   4    0.04    0.50
   4   5   4    0.48    0.85
  -4   5  -4    0.82    0.65
   4  -5  -4   -1.86    0.79
  -5  -5  -4   -0.15    0.71
   5  -5   4    1.37    0.79
  -5   5   4    0.30    0.81
   5  -5   4    1.25    1.27
   5   5  -4    1.23    1.25
   5  -5  -4    0.43    1.07
  -5  -5   4   -0.13    0.66
   5   5   4   -0.57    1.01
  -5  -5   4    0.93    0.57
   5  -5  -4    0.39    0.89
  -5   5  -4   -0.36    0.77
  -6  -5  -4    7.80    1.13
   6  -5   4    9.14    1.68
   6   5  -4   10.21    1.84
   6  -5   4   10.40    1.30
  -6   5   4    6.88    1.27
   6   5   4    9.80    1.62
  -6  -5   4    6.83    1.22
   6  -5  -4   10.77    1.47
  -6   5  -4    7.64    1.24
   6  -5  -4    6.17    1.38
   7  -5   4    7.09    1.66
  -7  -5  -4    5.59    1.13
   7  -5   4    5.90    1.39
  -7   5   4    4.57    1.35
   7   5  -4    5.66    1.83
   7  -5  -4    4.38    1.48
  -7   5  -4    6.15    1.25
   7   5   4    3.91    1.59
  -7  -5   4    6.09    1.27
  -8  -5  -4   10.06    1.38
   8  -5   4    7.56    1.78
   8   5  -4    6.00    1.93
  -8   5   4    8.86    1.65
  -8   5  -4    9.61    1.48
   8  -5  -4    8.68    1.75
   8   5   4    8.47    1.87
  -8  -5   4   10.05    1.58
  -9  -5  -4    0.51    1.17
  -9   5   4    0.89    1.45
   9   5  -4    1.49    1.85
   9  -5   4    0.29    1.60
   9   5   4    2.41    1.77
  -9  -5   4    1.41    1.32
   9  -5  -4   -0.28    1.51
  -9   5  -4   -0.31    1.21
  10   5  -4    0.42    1.97
  10  -5   4    0.60    1.71
 -10   5   4    0.50    1.57
 -10  -5   4   -0.06    1.49
  10   5   4   -1.12    1.81
 -11   5   4   -0.73    1.75
  11   5  -4    4.42    2.39
  11   5   4   -1.70    2.08
   0  -6   4  107.03    5.80
   0   6   4  111.63    5.72
   0   6  -4  104.09    5.98
   0   6   4  112.51    6.04
   0  -6  -4  110.29    5.71
   0  -6   4  105.20    5.91
   1   6  -4   49.94    2.97
  -1   6   4   47.65    2.72
  -1   6   4   47.51    2.95
  -1  -6  -4   50.50    2.78
   1  -6   4   47.89    2.99
   1   6   4   43.27    2.60
  -1   6  -4   47.46    2.87
  -1  -6   4   48.32    3.01
  -1  -6   4   42.51    2.76
  -1   6  -4   42.45    2.70
   1  -6  -4   44.68    2.71
   1   6   4   48.18    2.87
  -2   6   4  289.96   16.93
  -2   6   4  322.90   16.05
   2   6  -4  312.50   16.88
  -2  -6  -4  327.66   15.73
   2  -6   4  322.07   15.96
   2   6   4  333.44   16.81
  -2   6  -4  310.07   16.06
  -2  -6   4  303.88   15.67
  -2  -6   4  313.37   16.23
   2  -6  -4  306.49   15.72
   2   6   4  314.89   15.86
   3   6  -4    6.34    1.25
  -3  -6  -4    5.98    0.91
  -3   6   4    6.04    1.01
   3  -6   4    6.79    1.37
   3  -6   4    5.21    0.61
   3   6   4    6.49    0.68
  -3  -6   4    7.14    1.07
   3  -6  -4    5.84    1.02
  -3  -6   4    5.90    0.79
  -3   6  -4    6.17    0.91
   3  -6  -4    5.57    0.98
   3   6   4    6.49    1.05
  -4   6   4  139.98    7.29
   4  -6   4  122.06    7.42
   4  -6   4  129.01    7.30
  -4  -6  -4  135.29    7.00
  -4  -6  -4  137.14    7.05
   4   6  -4  134.64    7.86
  -4   6  -4  135.50    7.22
  -4  -6   4  138.88    7.35
   4   6   4  149.58    7.71
   4  -6  -4  130.29    7.52
  -4  -6   4  135.95    6.92
   4  -6  -4  136.40    7.21
   5  -6   4   -1.73    1.33
   5   6  -4   -1.10    1.29
  -5   6   4   -1.04    0.85
  -5  -6  -4    0.82    0.82
   5  -6  -4   -1.23    0.87
   5  -6  -4   -0.64    1.21
   5   6   4   -0.74    1.08
  -5   6  -4    1.94    0.88
  -5  -6   4    0.29    0.81
  -5  -6   4   -0.12    0.63
  -6   6   4  133.06    7.22
   6  -6   4  126.68    7.36
   6   6  -4  127.81    7.89
  -6  -6  -4  127.72    6.86
   6  -6  -4  129.92    7.47
   6   6   4  123.53    7.64
   6  -6  -4  121.65    7.14
  -6   6  -4  136.43    7.12
  -6  -6   4  139.48    7.22
  -7  -6  -4   -0.60    0.98
  -7   6   4    0.55    1.15
   7  -6   4   -0.70    1.54
   7   6  -4    0.32    1.56
   7   6   4   -0.26    1.36
  -7   6  -4    0.25    1.06
  -7  -6   4   -0.51    0.98
   7  -6  -4    0.33    1.26
  -8   6   4   45.73    3.43
  -8  -6  -4   44.24    3.07
   8  -6   4   43.28    3.55
   8   6  -4   43.24    3.93
  -8  -6   4   41.88    3.32
  -8   6  -4   45.55    3.17
   8   6   4   38.61    3.59
  -9   6   4   -0.36    1.45
   9  -6   4    1.39    1.75
   9   6  -4   -1.30    1.87
   9   6   4    1.09    1.75
  -9  -6   4   -1.13    1.29
  -9   6  -4   -0.62    1.29
  10   6  -4   12.03    2.65
 -10   6   4    9.28    1.96
  10  -6   4    9.18    2.21
  10   6   4    7.87    2.29
 -10  -6   4   11.08    1.93
  11   6  -4    2.24    2.38
  11   6   4   -3.68    1.97
   0   7  -4    0.17    0.84
   0  -7   4    1.08    0.82
   0   7  -4    0.04    0.65
   0   7   4   -0.11    0.54
   0  -7  -4   -1.51    0.70
   0   7   4   -0.39    0.64
  -1   7   4    0.98    0.66
   1  -7   4    1.42    0.94
  -1  -7  -4    0.36    0.77
  -1   7   4    1.25    0.79
   1   7  -4    1.32    0.84
   1  -7  -4    0.79    0.79
   1   7   4    1.10    0.51
   1   7   4   -0.16    0.69
  -1  -7   4    1.07    0.77
  -1  -7   4    0.76    0.74
  -1   7  -4    0.44    0.76
   2   7  -4   83.95    5.12
  -2   7   4   83.70    4.78
  -2   7   4   88.38    5.23
  -2  -7  -4   85.42    4.68
   2  -7   4   85.36    4.95
  -2   7  -4   85.08    4.79
  -2  -7   4   85.60    4.63
  -2  -7   4   90.89    4.96
   2   7   4   91.08    4.98
   2   7   4   84.44    4.55
   2  -7  -4   81.47    4.66
   3   7  -4    3.83    1.25
  -3  -7  -4    2.42    0.88
   3  -7   4    3.83    1.32
  -3   7   4    3.02    0.90
  -3   7  -4    2.76    0.80
   3   7   4    4.80    1.03
   3   7   4    3.71    0.65
   3  -7  -4    3.36    0.96
   3  -7  -4    2.84    0.90
  -3  -7   4    2.77    0.99
  -3  -7   4    3.90    0.80
  -4   7   4   10.16    1.36
   4   7  -4    9.59    1.68
   4  -7   4    7.33    1.65
  -4  -7  -4   11.43    1.24
  -4  -7   4   11.19    1.37
  -4   7  -4    8.25    1.19
   4   7   4   12.30    1.10
  -4  -7   4   12.89    1.14
   4   7   4   10.11    1.41
   4  -7  -4    9.31    1.42
   4  -7  -4    9.19    1.22
  -5   7   4    1.86    1.04
   5   7  -4    0.74    1.49
   5  -7   4    1.46    1.57
  -5  -7  -4    0.68    0.95
  -5   7  -4    0.72    0.95
   5  -7  -4   -1.19    1.34
  -5  -7   4    0.43    0.97
   5   7   4    1.55    1.24
   5  -7  -4    0.10    0.92
   6   7  -4    3.91    1.78
  -6   7   4    0.50    1.22
  -6  -7  -4    2.84    1.06
   6  -7   4   -2.07    1.60
   6  -7  -4    2.23    1.60
  -6  -7   4    2.33    1.12
  -6   7  -4    1.86    1.09
   6   7   4    0.80    1.35
  -7   7   4    9.13    1.67
   7  -7   4    5.07    1.93
  -7  -7  -4    7.64    1.30
   7   7  -4    3.48    1.86
  -7   7  -4    8.06    1.48
  -7  -7   4    8.02    1.44
   7   7   4    6.96    1.79
  -8  -7  -4    8.51    1.40
   8   7  -4    6.53    2.14
  -8   7   4   11.33    1.88
   8  -7   4    6.65    2.10
  -8   7  -4    8.02    1.54
  -8  -7   4    9.19    1.63
   8   7   4    4.74    1.80
  -9   7   4    0.33    1.48
   9  -7   4    1.76    2.00
   9   7  -4    0.69    2.07
  -9   7  -4    1.10    1.43
   9   7   4   -0.04    1.74
  -9  -7   4   -0.39    1.36
  10   7  -4    1.37    2.23
 -10   7   4    1.13    1.74
  10  -7   4    2.76    2.14
 -10   7  -4   -2.41    1.40
 -10  -7   4   -0.62    1.57
  10   7   4    0.88    1.97
   0   8   4   47.16    2.81
   0   8  -4   45.56    2.88
   0  -8   4   47.76    3.05
   0  -8  -4   47.71    2.96
   0   8  -4   42.71    3.22
   0   8   4   49.13    3.05
  -1  -8  -4    5.21    1.03
   1   8  -4    5.40    1.04
  -1   8   4    2.94    0.85
  -1   8   4    3.53    1.01
   1  -8   4    6.01    1.18
  -1  -8   4    3.13    0.91
   1   8   4    3.19    0.90
   1   8   4    2.73    0.73
  -1  -8   4    4.47    0.98
  -1   8  -4    4.24    1.10
   1  -8  -4    5.44    1.01
  -2   8   4   80.51    4.53
   2  -8   4   80.62    4.71
  -2   8   4   81.30    4.92
   2   8  -4   77.09    4.84
  -2  -8  -4   80.19    4.44
   2   8   4   75.71    4.27
  -2  -8   4   75.74    4.61
  -2  -8   4   77.72    4.42
   2  -8  -4   78.40    4.43
  -2   8  -4   81.95    4.62
   2   8   4   78.89    4.68
   3  -8   4    2.79    1.33
  -3  -8  -4    0.38    0.94
  -3   8   4    1.79    0.93
   3   8  -4    2.33    1.28
   3  -8  -4    1.85    1.03
   3   8   4    1.50    0.97
  -3   8  -4    1.31    0.86
  -3  -8   4    1.59    0.95
   3  -8  -4    0.00    0.83
   3   8   4    0.49    0.66
  -3  -8   4    1.09    0.84
   4   8  -4   61.36    4.53
  -4   8   4   64.00    3.95
  -4  -8  -4   62.10    3.85
   4  -8   4   70.26    4.44
   4   8   4   70.25    4.22
  -4   8  -4   59.97    3.91
  -4  -8   4   67.07    3.71
   4  -8  -4   66.06    4.06
  -4  -8   4   58.84    4.20
   5   8  -4    3.08    1.72
   5  -8   4    2.31    1.67
  -5  -8  -4    2.83    1.06
  -5   8   4    4.56    1.33
  -5   8  -4    1.28    0.96
   5  -8  -4    2.23    1.56
  -5  -8   4    4.46    1.27
   5   8   4    3.23    1.34
  -6   8   4   51.37    3.39
   6  -8   4   48.37    3.85
   6   8  -4   46.00    4.02
  -6  -8  -4   50.17    3.17
  -6   8  -4   42.43    3.21
  -6  -8   4   46.49    3.37
   6  -8  -4   46.09    3.79
   6   8   4   46.02    3.64
   7   8  -4    1.00    1.79
   7  -8   4   -0.91    1.86
  -7   8   4    1.51    1.34
  -7  -8  -4    0.84    1.17
   7  -8  -4    3.39    1.77
   7   8   4    1.34    1.49
  -7  -8   4    3.08    1.32
  -7   8  -4    2.48    1.28
  -8   8   4   35.74    2.90
   8   8  -4   24.59    3.28
   8  -8   4   27.70    3.19
  -8  -8  -4   30.11    2.42
   8   8   4   31.26    3.15
  -8   8  -4   27.48    2.61
  -8  -8   4   31.14    2.78
   9  -8   4    2.42    2.20
   9   8  -4    1.89    2.22
  -9   8   4    0.74    1.66
   9   8   4    1.13    1.90
  -9   8  -4    2.54    1.51
  -9  -8   4    4.71    1.65
  10  -8   4   11.01    2.63
 -10   8   4    9.38    2.08
  10   8  -4   10.78    2.86
  10   8   4    8.17    2.40
 -10   8  -4    6.43    1.85
   0  -9   4   -0.81    0.98
   0  -9  -4   -0.87    0.99
   0   9  -4   -1.66    0.99
   0   9   4    0.59    0.74
   0   9   4   -0.56    0.90
  -1   9   4   28.88    2.19
  -1   9   4   24.04    2.39
   1  -9   4   29.61    2.56
   1   9  -4   29.89    2.40
  -1  -9  -4   33.01    2.52
  -1  -9   4   34.63    2.46
   1   9   4   28.33    2.35
   1   9   4   28.74    2.02
   1  -9  -4   32.57    2.46
  -1  -9   4   30.84    2.49
  -1   9  -4   30.83    2.46
   2   9  -4   65.46    4.22
  -2   9   4   64.50    3.81
  -2  -9  -4   65.08    3.91
   2  -9   4   67.57    4.12
   2   9   4   58.52    3.98
  -2   9  -4   66.92    4.05
   2   9   4   56.83    3.59
   2  -9  -4   64.35    3.85
  -2  -9   4   67.36    3.99
  -2  -9   4   64.56    3.82
  -3  -9  -4   35.38    2.61
   3   9  -4   34.31    2.86
   3  -9   4   35.83    2.95
  -3   9   4   32.25    2.64
   3   9   4   31.07    2.70
  -3  -9   4   35.03    2.82
   3   9   4   35.19    2.26
  -3  -9   4   36.42    2.60
  -3   9  -4   33.32    2.65
   3  -9  -4   33.28    2.71
  -4  -9  -4    2.58    1.18
  -4   9   4    2.39    1.20
   4   9  -4    4.96    1.64
   4  -9   4    2.04    1.55
   4  -9  -4    1.79    1.34
  -4   9  -4    4.67    1.14
  -4  -9   4    2.03    1.04
   4   9   4    0.99    1.20
  -4  -9   4    3.38    1.05
  -5  -9  -4    3.11    1.23
  -5   9   4    5.52    1.45
   5   9  -4    3.93    1.77
   5  -9   4    5.16    1.79
   5  -9  -4    0.91    1.57
   5   9   4    1.36    1.38
  -5  -9   4    6.01    1.43
  -5   9  -4    2.86    1.22
  -6  -9  -4   20.01    1.90
   6  -9   4   19.15    2.60
  -6   9   4   20.56    2.19
   6   9  -4   19.27    2.65
   6  -9  -4   21.88    2.53
  -6   9  -4   20.00    2.10
  -6  -9   4   16.92    2.17
   6   9   4   20.00    2.34
   7   9  -4   23.82    3.04
  -7   9   4   25.22    2.50
  -7  -9  -4   24.30    2.12
   7  -9   4   24.46    2.91
  -7   9  -4   18.26    2.17
   7  -9  -4   20.11    2.70
   7   9   4   19.32    2.55
  -7  -9   4   26.09    2.53
   8  -9   4   10.01    2.57
  -8  -9  -4   14.10    1.84
   8   9  -4   12.31    2.59
  -8   9   4   16.39    2.18
   8   9   4   11.12    2.27
  -8  -9   4   16.38    2.19
  -8   9  -4   16.60    2.08
   9   9  -4    2.08    2.31
   9  -9   4    3.87    2.45
  -9   9   4    1.69    1.74
  -9   9  -4    1.52    1.57
  -9  -9   4   -0.38    1.55
   9   9   4   -2.08    1.82
  10   9  -4   -0.58    2.41
 -10   9   4   -0.02    1.98
  10  -9   4   -0.58    2.41
  10   9   4   -0.48    2.06
 -10   9  -4   -0.31    1.56
   0  10   4  149.48    8.84
   0 -10   4  170.24    8.55
   0 -10  -4  165.06    8.43
   0  10   4  157.18    8.38
   0  10  -4  151.88    8.72
   1  10  -4    0.92    1.34
  -1  10   4    0.00    0.87
   1 -10   4    1.15    1.28
  -1 -10  -4   -1.72    1.08
   1  10   4   -0.65    0.76
  -1  10  -4   -1.53    1.14
   1  10   4    0.09    1.05
   1 -10  -4   -0.03    1.07
  -1 -10   4    0.84    1.14
  -2 -10  -4  148.99    7.46
  -2  10   4  134.14    7.44
   2 -10   4  142.22    7.67
  -2  10  -4  143.18    7.68
  -2 -10   4  147.21    7.73
   2  10   4  126.78    7.28
   2  10   4  130.02    7.80
   2 -10  -4  134.28    7.40
  -2 -10   4  137.77    7.39
  -3 -10  -4   -0.45    1.15
  -3  10   4    0.77    1.00
   3 -10   4    1.83    1.42
   3  10  -4   -0.03    1.49
   3  10   4    1.30    0.83
  -3 -10   4    0.68    0.97
  -3 -10   4    0.67    1.09
   3  10   4    1.05    1.16
  -3  10  -4    1.05    1.16
   3 -10  -4    0.40    1.23
  -4 -10  -4   78.27    4.36
   4 -10   4   72.27    4.77
   4  10  -4   66.55    5.07
  -4  10   4   71.62    4.51
  -4 -10   4   72.83    4.47
   4  10   4   75.96    4.72
   4 -10  -4   72.84    4.56
  -4 -10   4   68.26    4.22
  -4  10  -4   64.54    4.42
  -5 -10  -4   -0.54    1.16
   5  10  -4    1.17    1.78
  -5  10   4   -0.59    1.21
   5 -10   4    2.95    1.78
   5  10   4    1.20    1.40
   5 -10  -4    3.75    1.70
  -5 -10   4    0.61    1.22
  -5  10  -4   -0.25    1.11
  -6  10   4   35.61    2.91
  -6 -10  -4   34.34    2.85
   6 -10   4   31.78    3.22
   6  10  -4   36.40    3.50
  -6 -10   4   33.08    2.95
  -6  10  -4   34.01    2.85
   6 -10  -4   36.35    3.19
   6  10   4   30.28    3.07
   7  10  -4    2.70    2.08
  -7 -10  -4   -1.08    1.31
  -7  10   4    0.69    1.41
   7 -10   4    3.08    2.15
  -7  10  -4    0.67    1.34
   7  10   4   -0.49    1.62
   7 -10  -4    1.45    2.11
  -7 -10   4    0.87    1.46
   8  10  -4   17.42    2.99
   8 -10   4   18.80    3.00
  -8  10   4   18.33    2.35
  -8 -10  -4   15.76    2.01
  -8 -10   4   18.45    2.41
   8  10   4   13.55    2.53
  -8  10  -4   14.42    2.08
   9  10  -4   -1.47    2.37
   9 -10   4   -7.02    2.21
  -9  10   4   -1.28    1.69
  -9  10  -4   -0.07    1.56
   9  10   4    0.81    2.06
   0 -11   4    0.54    1.34
   0  11   4   -0.95    0.86
   0  11  -4    1.58    1.32
   0 -11  -4    0.92    1.25
  -1 -11  -4   11.64    1.69
  -1  11   4   12.55    1.52
   1  11  -4   13.69    2.01
   1 -11   4   13.43    1.89
  -1  11  -4   12.93    1.87
   1  11   4   12.26    1.40
   1 -11  -4   10.76    1.66
  -1 -11   4   11.96    1.72
  -2  11   4    2.11    1.09
   2  11  -4    2.38    1.45
  -2 -11  -4    0.71    1.31
   2 -11   4    0.03    1.44
   2  11   4    0.21    0.85
  -2  11  -4   -1.11    1.27
   2  11   4    0.98    1.21
  -2 -11   4    2.86    1.27
   2 -11  -4   -0.32    1.26
  -3  11   4    1.22    1.12
   3 -11   4    2.81    1.53
  -3 -11  -4   -2.78    1.24
   3 -11  -4   -0.05    1.34
   3  11   4    0.19    1.32
  -3  11  -4   -1.38    1.11
  -3 -11   4    1.19    1.16
  -3 -11   4    1.34    1.19
   4  11  -4   -1.42    1.61
   4 -11   4   -0.52    1.52
  -4  11   4    0.68    1.25
  -4 -11  -4    2.96    1.41
  -4 -11   4    2.04    1.13
   4  11   4    0.98    1.41
  -4  11  -4    3.62    1.30
   4 -11  -4    2.13    1.51
  -4 -11   4    1.49    1.20
  -5 -11  -4    2.40    1.38
   5  11  -4    1.88    1.90
  -5  11   4    1.57    1.27
   5 -11   4    1.51    1.75
   5  11   4    2.45    1.56
   5 -11  -4   -1.56    1.68
  -5 -11   4    0.91    1.28
  -5  11  -4   -0.26    1.15
  -6  11   4    0.55    1.47
   6  11  -4    1.82    2.02
  -6 -11  -4    1.18    1.40
   6 -11   4    0.27    1.91
   6  11   4    1.79    1.69
  -6  11  -4    1.44    1.39
   6 -11  -4   -0.20    1.95
  -6 -11   4   -1.36    1.31
  -7  11   4   -0.56    1.61
   7  11  -4    0.67    2.14
   7 -11   4    2.06    2.20
  -7 -11  -4   -2.09    1.39
  -7  11  -4    0.08    1.28
  -7 -11   4    0.38    1.47
   7  11   4   -0.06    1.86
   7 -11  -4    0.33    2.15
  -8 -11  -4   -0.65    1.45
  -8  11   4    0.61    1.78
   8 -11   4   -0.68    2.38
   8  11  -4    1.55    2.35
  -8 -11   4    2.56    1.70
  -8  11  -4   -0.42    1.44
   8  11   4    2.44    2.03
   9 -11   4   -0.92    2.60
   9  11  -4    0.26    2.61
  -9  11   4    0.32    1.78
   9  11   4    0.51    2.22
  -9  11  -4   -0.15    1.71
   0  12   4   88.42    5.07
   0  12  -4   80.53    5.57
   0 -12   4   94.02    5.44
   0 -12  -4   89.52    5.28
  -1  12   4   -1.08    0.94
   1  12  -4   -1.63    1.41
  -1 -12  -4    0.57    1.35
   1 -12   4   -0.62    1.43
  -1  12  -4   -0.98    1.41
  -1 -12   4    1.18    1.38
   1  12   4   -0.13    0.92
   1 -12  -4    0.78    1.34
  -2 -12  -4   58.13    3.82
   2  12  -4   55.28    4.05
  -2  12   4   48.33    3.58
   2 -12   4   58.65    4.08
  -2 -12   4   58.76    3.81
  -2  12  -4   59.50    3.95
   2  12   4   52.93    3.49
   2 -12  -4   54.18    3.77
  -3  12   4    1.46    1.10
   3 -12   4    2.58    1.58
  -3 -12  -4   -0.07    1.41
  -3 -12   4    2.95    1.34
  -3 -12   4    0.52    1.26
  -3  12  -4    1.85    1.48
   3 -12  -4    0.63    1.43
  -4 -12  -4   42.22    3.34
  -4  12   4   40.11    3.21
   4 -12   4   41.30    3.60
   4 -12  -4   39.01    3.43
  -4  12  -4   42.52    3.27
  -4 -12   4   36.19    3.33
   4  12   4   46.48    3.56
  -4 -12   4   46.10    3.16
  -5  12   4   -1.11    1.33
  -5 -12  -4    1.47    1.49
   5 -12   4    2.08    1.89
  -5 -12   4   -0.67    1.28
   5  12   4    0.24    1.63
   5 -12  -4   -1.42    1.77
  -5  12  -4   -0.50    1.36
   6  12  -4   14.90    2.69
  -6 -12  -4   13.98    1.95
   6 -12   4    5.20    2.23
  -6  12   4    8.12    1.89
   6 -12  -4   12.30    2.50
   6  12   4   10.10    2.25
  -6 -12   4   11.40    1.87
  -6  12  -4    9.09    1.83
   7  12  -4    0.08    2.26
  -7  12   4   -0.85    1.65
  -7 -12  -4   -0.64    1.54
   7 -12   4    0.83    2.22
  -7 -12   4    0.95    1.55
   7  12   4    2.29    2.04
   7 -12  -4    1.08    2.31
  -7  12  -4   -1.18    1.30
   8 -12   4    9.05    2.80
  -8  12   4    8.94    2.03
   8  12  -4    3.69    2.69
  -8  12  -4   11.02    2.01
   8  12   4    3.87    2.31
   0 -13  -4    0.68    1.45
   0  13  -4    1.08    1.44
   0 -13   4   -4.95    1.47
   0  13   4   -0.40    0.99
  -1  13   4    1.95    1.13
   1  13  -4    1.62    1.55
   1 -13   4    1.29    1.64
  -1 -13  -4    2.56    1.50
   1  13   4    1.39    1.11
  -1  13  -4    2.69    1.55
   1 -13  -4    4.35    1.59
  -1 -13   4    1.90    1.55
  -2  13   4   -0.29    1.14
   2  13  -4   -1.30    1.47
   2 -13   4    0.58    1.68
  -2 -13  -4   -0.26    1.46
   2  13   4    0.00    1.04
  -2 -13   4    0.65    1.43
   2 -13  -4    1.07    1.54
  -2  13  -4    0.21    1.51
   3 -13   4    0.72    1.76
   3  13  -4    0.54    1.57
  -3 -13  -4    1.51    1.55
  -3  13   4    2.19    1.32
  -3  13  -4    4.74    1.74
   3 -13  -4    3.54    1.68
  -3 -13   4    5.60    1.52
  -4 -13  -4    0.21    1.53
   4 -13   4    1.51    1.83
  -4  13   4   -0.32    1.19
  -4 -13   4    1.33    1.39
   4 -13  -4    1.56    1.72
  -4 -13   4    1.30    1.29
  -4  13  -4   -0.06    1.39
   5 -13   4    0.16    1.93
  -5  13   4    2.51    1.46
  -5 -13  -4    0.03    1.60
   5 -13  -4    0.51    1.98
  -5 -13   4    0.50    1.40
  -5  13  -4    1.86    1.57
  -6  13   4    3.18    1.59
   6 -13   4    1.22    2.15
  -6 -13  -4    4.03    1.73
   6 -13  -4    2.92    2.22
  -6 -13   4    1.50    1.57
  -6  13  -4    0.85    1.60
   6  13   4    1.62    2.02
  -7 -13  -4    2.84    1.84
  -7  13   4    3.51    1.93
   7 -13   4   -0.91    2.27
  -7  13  -4    4.20    1.80
   7  13   4    2.55    2.20
   7 -13  -4    0.79    2.42
  -7 -13   4    1.92    1.65
   0 -14   4   23.24    2.66
   0  14   4   22.45    2.24
   0 -14  -4   23.99    2.52
   0  14  -4   26.13    2.79
   1 -14   4    1.39    1.83
   1  14  -4    3.45    1.71
  -1  14   4    5.47    1.44
  -1 -14  -4    7.33    1.76
  -1 -14   4    3.55    1.78
   1  14   4    3.06    1.25
   1 -14  -4    2.93    1.66
  -1  14  -4    2.85    1.89
  -2  14   4   20.88    2.23
   2  14  -4   23.01    2.68
   2 -14   4   20.89    2.61
  -2 -14  -4   21.62    2.37
  -2 -14   4   18.40    2.31
   2 -14  -4   18.47    2.33
  -2  14  -4   20.85    2.69
  -3 -14  -4    2.32    1.67
  -3  14   4    0.30    1.33
   3 -14   4    2.03    1.81
   3  14  -4    3.80    1.76
  -3  14  -4    3.43    1.80
   3 -14  -4    2.23    1.76
  -3 -14   4    0.72    1.54
  -4  14   4   32.70    3.09
   4  14  -4   42.08    3.44
  -4 -14  -4   36.26    3.11
   4 -14   4   36.74    3.49
  -4  14  -4   36.29    3.48
  -4 -14   4   42.55    3.24
   4 -14  -4   33.80    3.31
  -5  14   4    0.72    1.54
   5 -14   4   -0.58    1.95
  -5 -14  -4    1.86    1.72
   5 -14  -4    0.51    2.06
  -5 -14   4    3.25    1.66
  -5  14  -4   -1.62    1.63
   6 -14   4   20.20    2.99
  -6  14   4   21.25    2.47
  -6 -14  -4   19.40    2.48
  -6 -14   4   21.33    2.48
  -6  14  -4   17.22    2.50
   6 -14  -4   20.68    3.03
   0  15   4   -0.70    1.20
   0 -15   4    2.06    1.90
   0 -15  -4    1.59    1.76
   0  15  -4    0.11    1.83
  -1  15   4    0.57    1.27
   1 -15   4    2.30    1.88
  -1 -15  -4    1.13    1.72
   1  15  -4   -0.79    1.70
  -1  15  -4   -1.38    1.79
   1 -15  -4   -1.16    1.72
  -1 -15   4   -3.58    1.63
   1  15   4    0.02    1.22
  -2  15   4    0.72    1.38
  -2 -15  -4    3.04    1.82
   2 -15   4    3.28    2.06
   2  15  -4    6.01    1.89
  -2  15  -4    0.93    1.89
   2 -15  -4    5.05    1.91
  -2 -15   4    3.31    1.79
  -3  15   4   -1.30    1.20
  -3 -15  -4   -0.63    1.67
   3  15  -4    0.63    1.69
   3 -15   4    1.83    2.02
   3 -15  -4    0.75    1.89
  -3  15  -4    0.86    1.78
  -3 -15   4    1.82    1.70
   4 -15   4    1.60    2.06
  -4  15   4   -0.02    1.53
   4  15  -4    1.69    1.55
  -4 -15  -4   -1.13    1.74
   4 -15  -4   -0.65    1.98
  -4  15  -4    1.19    1.87
  -5 -15  -4    2.50    1.91
   5  15  -4    3.91    1.77
  -5  15   4    1.36    1.50
   5 -15   4    1.29    2.15
   5 -15  -4    0.56    2.23
  -5  15  -4    0.30    1.79
   0  16   4   12.97    1.94
   0 -16  -4   13.69    2.24
   0 -16   4   17.07    2.56
   0  16  -4    4.07    2.30
   1 -16   4    0.60    2.00
  -1  16   4   -1.82    1.33
   1  16  -4    2.54    2.01
  -1 -16  -4   -0.22    1.80
  -1  16  -4   -1.09    1.92
  -1 -16   4    2.90    2.03
   1 -16  -4    1.21    1.92
   2  16  -4   17.37    2.66
  -2  16   4   13.69    2.17
   2 -16   4   19.79    2.79
  -2 -16  -4   19.51    2.51
  -2  16  -4   17.21    2.89
   2 -16  -4   21.02    2.65
  -2 -16   4   21.68    2.62
  -3  16   4   -2.14    1.42
  -3 -16  -4   -0.81    1.81
   3 -16   4    2.33    2.18
   3  16  -4    0.83    1.86
  -3  16  -4    1.33    1.85
  -3 -16   4    1.34    1.81
   3 -16  -4    3.00    2.09
   4 -16   4   22.60    2.92
   4  16  -4   14.76    2.47
  -4 -16  -4   15.53    2.43
  -4  16  -4   13.58    2.56
   4 -16  -4   13.49    2.66
   0 -17  -4   -0.13    2.01
   0 -17   4    2.60    2.21
   0  17  -4    2.16    2.21
  -1 -17  -4   -1.87    1.91
   1 -17   4    4.29    2.32
   1  17  -4    1.06    2.03
  -1  17   4    0.66    1.56
   1 -17  -4    2.08    2.11
  -1 -17   4   -0.65    2.01
  -1  17  -4    2.74    2.25
   2  17  -4   -0.58    1.94
  -2 -17  -4    2.73    2.06
   2 -17   4    5.57    2.36
  -2  17   4    5.82    1.79
   2 -17  -4    1.78    2.15
  -2  17  -4   -0.77    2.22
  -2 -17   4    3.21    2.08
   0   0   5    0.16    0.46
   0   0   5    0.16    0.27
   0   0  -5   -0.11    0.31
  -1   0   5    0.52    0.70
  -1   0   5    0.19    0.33
   1   0   5    0.55    0.44
  -1   0  -5    0.05    0.36
   1   0   5    0.15    0.32
   1   0  -5    0.03    0.27
  -2   0  -5    0.17    0.40
  -2   0  -5   -0.15    0.21
   2   0  -5    0.48    0.67
  -2   0   5   -0.03    0.36
   2   0   5   -0.03    0.45
  -3   0  -5    0.23    0.46
   3   0   5   -0.54    0.52
   3   0  -5    1.78    0.78
  -3   0   5   -0.03    0.45
  -3   0  -5   -0.40    0.24
   4   0  -5    0.26    0.80
  -4   0  -5   -0.12    0.57
   4   0   5    0.31    0.74
  -4   0  -5    0.00    0.34
  -4   0   5    0.33    0.61
   5   0   5    0.24    0.85
  -5   0  -5    0.09    0.49
  -5   0   5   -0.59    0.74
   5   0  -5   -0.15    0.90
  -5   0  -5    0.04    0.69
   6   0  -5    0.79    1.12
  -6   0  -5    0.99    0.85
  -6   0   5    0.52    0.91
   6   0   5   -0.37    1.01
  -6   0  -5    0.62    0.62
  -7   0   5    0.31    1.02
  -7   0  -5    0.22    0.94
   7   0  -5    0.33    1.34
   7   0   5   -1.84    1.24
   8   0   5   -0.45    1.43
  -8   0  -5    0.38    1.11
  -8   0   5   -0.18    1.11
   8   0  -5    1.06    1.47
   9   0   5   -1.81    1.60
  -9   0   5   -1.20    1.11
   9   0  -5   -1.21    1.56
  -9   0  -5   -1.59    1.17
 -10   0  -5   -3.55    1.28
 -10   0   5    1.45    1.48
  10   0   5    0.29    1.82
  10   0  -5    0.88    1.76
 -11   0   5   -0.74    1.59
  11   0   5    1.01    2.04
  11   0  -5   -1.31    1.90
   0  -1   5   -0.09    0.30
   0   1   5    0.28    0.46
   0  -1   5    0.44    0.50
   0  -1   5    0.42    0.36
   0  -1  -5    0.06    0.32
   0   1   5    0.06    0.27
   1  -1   5  101.67    5.88
  -1   1   5  121.54    6.12
  -1   1   5  101.80    5.58
   1  -1   5  110.50    5.53
   1  -1   5  105.31    5.60
  -1  -1  -5  108.48    5.48
  -1  -1   5  112.95    6.16
  -1  -1   5  102.92    5.40
   1  -1  -5  112.89    5.42
  -1  -1   5  117.54    5.64
   1   1   5  116.40    5.93
   1   1   5   90.38    5.46
   2  -1   5  405.53   20.13
  -2   1   5  412.85   20.47
  -2  -1  -5  434.01   20.08
   2  -1   5  409.94   21.45
   2   1  -5  379.28   21.61
  -2   1  -5  421.73   20.36
  -2  -1   5  405.84   20.48
   2  -1  -5  375.40   21.63
   2  -1  -5  406.64   19.95
   2   1   5  397.31   21.48
   3  -1   5  202.26   10.64
   3  -1   5  210.31   11.34
  -3  -1  -5  217.70   10.59
   3   1  -5  214.74   11.54
  -3   1   5  210.59   10.82
  -3  -1  -5  213.57   10.57
   3  -1  -5  207.52   10.43
   3  -1  -5  217.34   11.55
  -3   1  -5  217.51   10.67
   3   1   5  198.05   11.35
  -3  -1   5  205.43   10.82
   4  -1   5   13.22    1.31
  -4   1   5   13.09    1.21
  -4  -1  -5   11.37    1.08
   4  -1   5   11.00    1.18
   4   1  -5   14.63    1.56
  -4  -1  -5   11.89    0.97
   4   1   5   14.54    1.40
  -4   1  -5   13.35    1.07
   4  -1  -5   16.53    1.59
  -4  -1   5   13.42    1.24
  -5   1   5  272.11   13.76
  -5  -1  -5  268.17   13.43
  -5  -1  -5  282.72   13.51
   5  -1   5  271.23   14.45
   5   1  -5  261.94   14.59
   5  -1   5  249.54   13.47
  -5  -1   5  276.42   13.77
   5   1   5  264.06   14.49
  -5   1  -5  267.94   13.55
   5  -1  -5  263.64   13.19
   5  -1  -5  251.98   14.51
   6  -1   5   19.05    2.05
  -6   1   5   21.26    1.90
   6   1  -5   21.56    2.19
  -6  -1  -5   21.75    1.70
   6  -1   5   19.89    1.78
   6  -1  -5   21.59    2.18
  -6   1  -5   23.50    1.71
  -6  -1   5   19.94    1.78
   6   1   5   19.52    2.09
  -7  -1  -5   45.49    3.03
   7   1  -5   45.07    3.74
   7  -1   5   49.40    3.57
  -7   1   5   44.29    3.12
  -7  -1   5   42.94    3.07
  -7   1  -5   45.00    3.02
   7  -1  -5   41.64    3.58
   7   1   5   48.96    3.62
  -7   1  -5   45.68    2.93
  -8  -1  -5   24.70    2.03
   8   1  -5   23.09    2.62
   8  -1   5   25.03    2.56
  -8   1   5   25.18    2.32
  -8   1  -5   23.79    2.04
   8  -1  -5   23.15    2.55
  -8  -1   5   22.10    2.15
   8   1   5   23.42    2.59
  -9  -1  -5   24.05    2.11
  -9   1   5   24.08    2.36
   9   1  -5   24.09    2.78
   9  -1   5   25.54    2.79
   9  -1  -5   23.17    2.70
   9   1   5   23.91    2.86
  -9   1  -5   20.38    2.11
  -9  -1   5   24.20    2.39
  10  -1   5    2.63    1.95
 -10  -1  -5    1.81    1.39
  10   1  -5    3.47    1.88
 -10   1   5    5.01    1.59
  10  -1  -5    5.94    1.96
  10   1   5    4.08    2.02
 -10   1  -5    0.74    1.38
 -10  -1   5    3.71    1.62
  11  -1   5    8.79    2.37
  11   1  -5    3.78    2.18
 -11   1   5    6.26    1.79
  11  -1  -5    6.23    2.24
 -11  -1   5    4.43    1.90
  11   1   5   11.74    2.55
   0   2   5   30.07    1.78
   0  -2   5   28.66    2.09
   0  -2  -5   30.47    1.80
   0   2   5   36.81    2.09
   0  -2   5   31.64    1.89
   0  -2   5   32.45    2.00
  -1   2   5   15.22    1.33
   1  -2   5   12.06    1.00
   1  -2   5   11.76    1.09
  -1  -2  -5   13.51    1.07
   1  -2   5   15.11    1.21
   1   2  -5   15.90    1.36
  -1   2   5   13.26    1.03
  -1  -2   5   12.36    1.06
   1  -2  -5   12.82    1.00
   1   2   5   13.25    1.15
  -1  -2   5   13.32    1.02
  -2   2   5  200.65   10.25
  -2   2   5  171.16   10.96
  -2  -2  -5  210.21   10.04
   2  -2   5  200.90   10.72
   2  -2   5  199.34   10.14
   2   2  -5  198.05   10.94
  -2  -2   5  204.34   10.29
  -2  -2   5  199.55    9.91
   2   2   5  214.22   10.81
  -2   2  -5  202.88   10.18
   2  -2  -5  197.38    9.95
  -3   2   5   24.45    1.65
   3  -2   5   23.06    1.75
   3   2  -5   26.12    2.16
   3  -2   5   23.95    1.75
  -3  -2  -5   23.05    1.59
   3  -2  -5   24.76    2.07
   3  -2  -5   21.96    1.47
   3   2   5   22.60    1.76
  -3  -2   5   23.33    1.64
  -3   2  -5   23.83    1.51
  -4  -2  -5    0.50    0.29
   4  -2   5    0.40    0.68
   4   2  -5    0.22    0.88
  -4  -2  -5    0.27    0.59
  -4   2   5    0.28    0.66
   4  -2   5    1.15    0.77
  -4   2  -5    0.31    0.47
  -4  -2   5    1.19    0.64
   4  -2  -5    0.11    0.85
   4   2   5    0.88    0.78
   4  -2  -5    1.28    0.59
   5  -2   5   37.48    2.66
  -5  -2  -5   33.41    2.34
  -5  -2  -5   34.19    2.09
   5   2  -5   38.26    3.05
   5  -2   5   32.38    2.45
  -5   2   5   37.70    2.48
   5  -2  -5   36.50    2.12
  -5   2  -5   39.83    2.27
  -5  -2   5   37.16    2.55
   5  -2  -5   38.81    2.90
   5   2   5   37.05    2.71
   6  -2   5   11.97    1.51
  -6   2   5    9.10    1.31
  -6  -2  -5   11.19    1.26
   6  -2   5   10.11    1.39
   6   2  -5   11.29    1.76
  -6  -2   5   11.49    1.32
   6  -2  -5   13.13    1.72
  -6   2  -5   12.15    1.21
   6   2   5   11.80    1.67
  -7   2   5    5.35    1.29
   7  -2   5    5.61    1.28
   7  -2   5    5.50    1.46
   7   2  -5    4.69    1.59
  -7  -2  -5    5.56    1.16
  -7   2  -5    6.12    1.10
  -7  -2   5    4.57    1.20
   7  -2  -5    5.33    1.54
   7   2   5    4.85    1.55
   8  -2   5    4.18    1.34
  -8  -2  -5    5.62    1.25
  -8   2   5    4.75    1.28
   8  -2   5    2.40    1.50
   8   2  -5    4.91    1.72
   8  -2  -5    6.15    1.63
   8   2   5    1.34    1.57
  -8  -2   5    5.15    1.36
  -9  -2  -5    0.32    1.21
   9  -2   5    3.56    1.74
  -9   2   5    0.29    1.25
   9   2  -5    3.80    1.82
   9   2   5    0.78    1.71
   9  -2  -5    1.27    1.61
  -9   2  -5    0.82    1.23
  -9  -2   5    3.04    1.43
  10  -2   5    6.52    2.08
  10   2  -5    4.54    2.07
 -10   2   5    4.84    1.59
 -10  -2   5    8.15    1.80
  10  -2  -5    2.20    1.82
  10   2   5    6.51    2.14
 -10   2  -5    4.31    1.53
  11  -2   5    0.49    1.98
 -11   2   5    2.55    1.76
  11   2  -5    3.53    2.27
  11  -2  -5    3.07    1.93
 -11  -2   5    2.63    1.78
  11   2   5    4.09    2.27
   0   3   5    0.23    0.34
   0  -3  -5    0.79    0.43
   0   3   5   -0.12    0.50
   0  -3   5   -1.33    0.46
   0  -3   5   -0.12    0.60
   0  -3   5   -0.18    0.62
  -1  -3  -5  371.28   17.85
   1   3  -5  359.93   19.20
  -1   3   5  351.54   18.17
   1  -3   5  340.77   18.23
  -1   3   5  373.30   19.19
   1  -3   5  343.30   19.04
   1  -3   5  367.89   18.00
  -1  -3   5  352.73   18.27
  -1  -3   5  347.02   17.88
   1   3   5  402.75   19.14
   1  -3  -5  351.82   17.82
  -2  -3  -5    6.38    0.73
  -2   3   5    7.24    1.24
   2  -3   5    7.10    1.02
   2   3  -5    7.58    1.11
  -2   3   5    6.64    0.80
   2  -3   5    7.24    0.76
  -2  -3   5    6.84    0.79
   2  -3  -5    6.97    0.72
  -2  -3   5    7.61    0.72
  -2   3  -5    8.16    0.78
   2   3   5    9.76    0.97
   3  -3   5  331.28   16.87
  -3   3   5  327.77   17.06
   3   3  -5  331.46   18.07
  -3  -3  -5  333.36   16.69
   3  -3   5  330.59   17.79
   3  -3  -5  325.22   18.02
   3  -3  -5  347.44   16.64
   3   3   5  358.42   17.94
  -3  -3   5  332.74   17.08
  -3   3  -5  334.01   16.96
   4  -3   5   25.38    2.07
  -4   3   5   21.04    1.94
  -4  -3  -5   28.10    1.80
   4   3  -5   25.28    2.21
   4  -3   5   25.80    1.92
  -4  -3  -5   23.95    1.46
  -4  -3   5   25.80    1.85
   4  -3  -5   23.39    1.90
   4   3   5   24.74    2.12
   4  -3  -5   28.38    2.33
  -4   3  -5   25.63    1.74
   5  -3   5   91.81    5.16
  -5   3   5   93.86    5.19
  -5  -3  -5   93.29    4.97
   5  -3   5   88.54    5.36
   5   3  -5   99.05    5.78
   5   3   5   90.52    5.51
   5  -3  -5   93.57    4.93
  -5   3  -5   93.71    5.01
  -5  -3   5   87.78    5.11
   5  -3  -5   90.02    5.52
   6  -3   5    1.86    1.22
  -6   3   5    3.98    1.11
  -6  -3  -5    2.99    0.93
   6   3  -5    3.05    1.41
   6  -3   5    3.43    1.15
   6   3   5    3.94    1.28
  -6  -3   5    5.00    1.07
   6  -3  -5    5.20    1.36
  -6   3  -5    4.39    0.91
  -7   3   5   68.73    4.34
   7  -3   5   72.81    4.36
   7  -3   5   72.64    4.68
   7   3  -5   77.51    5.08
  -7  -3  -5   73.58    4.20
  -7   3  -5   72.71    4.18
   7  -3  -5   69.18    4.77
  -7  -3   5   71.08    4.41
   7   3   5   69.01    4.81
   8  -3   5    0.33    1.26
   8   3  -5    0.44    1.55
   8  -3   5   -0.98    1.29
  -8   3   5    2.31    1.27
  -8  -3  -5   -1.01    1.06
  -8  -3   5   -0.36    1.11
   8   3   5   -1.22    1.40
   8  -3  -5   -0.44    1.37
  -8   3  -5   -0.40    0.95
  -9   3   5   25.16    2.43
  -9  -3  -5   22.32    2.07
   9   3  -5   22.28    2.91
   9  -3   5   22.12    2.32
   9  -3   5   27.62    2.67
   9   3   5   21.22    2.73
   9  -3  -5   22.92    2.63
  -9  -3   5   26.71    2.47
 -10   3   5    1.90    1.60
  10   3  -5    3.62    2.04
  10  -3   5   -0.40    1.73
  10  -3  -5    1.27    1.79
  10   3   5    1.44    1.94
 -10  -3   5    2.71    1.57
 -10   3  -5    1.66    1.42
  11   3  -5   12.36    2.76
 -11   3   5   18.27    2.38
  11  -3  -5   16.37    2.60
  11   3   5   11.92    2.70
 -11  -3   5   16.73    2.44
   0   4   5   19.57    1.35
   0   4  -5   23.14    1.71
   0  -4  -5   21.68    1.52
   0   4   5   22.91    1.62
   0  -4   5   23.13    1.74
   0  -4   5   20.51    1.73
  -1  -4  -5   10.21    0.93
  -1   4   5   15.44    1.29
   1  -4   5   10.39    1.01
   1  -4   5    9.67    1.18
  -1   4   5   11.64    1.03
   1   4  -5   13.22    1.26
   1  -4   5   12.83    1.08
  -1  -4   5   12.57    1.06
   1   4   5   11.08    0.82
  -1  -4   5   10.66    1.10
   1  -4  -5   10.09    0.93
   1   4   5   12.92    1.12
  -2   4   5   13.57    1.59
   2  -4   5   11.71    1.35
  -2   4   5   11.38    1.10
   2   4  -5   13.30    1.42
  -2  -4  -5   11.04    1.01
   2  -4   5   12.50    1.10
   2  -4  -5   13.00    1.03
  -2  -4   5   14.29    1.05
   2   4   5   12.74    1.21
  -2   4  -5   12.42    1.10
  -2  -4   5   13.44    1.22
   2   4   5   14.88    0.85
  -3  -4  -5   51.70    3.04
   3  -4   5   55.47    3.16
   3   4  -5   51.72    3.60
   3  -4   5   59.38    3.41
  -3   4   5   53.13    3.11
  -3  -4   5   51.12    3.16
   3   4   5   59.28    3.38
  -3   4  -5   51.67    3.04
  -3  -4   5   51.96    2.87
   3  -4  -5   52.98    3.04
   3  -4  -5   56.18    3.56
   4  -4   5    0.38    0.67
  -4   4   5    1.88    0.79
  -4  -4  -5    1.09    0.67
   4  -4   5    2.48    1.10
   4   4  -5   -0.90    1.03
  -4  -4  -5    1.55    0.34
   4   4   5    0.86    0.87
   4  -4  -5    0.96    0.81
   4  -4  -5    2.29    0.93
  -4  -4   5    1.70    0.67
  -4   4  -5    2.47    0.66
  -4  -4   5    2.15    0.44
   5  -4   5    2.80    0.87
  -5   4   5    3.04    0.87
   5   4  -5    3.71    1.35
   5  -4   5    3.68    1.23
  -5  -4  -5    3.48    0.84
  -5  -4   5    2.06    0.87
   5  -4  -5    3.01    1.10
   5  -4  -5    1.85    1.03
  -5   4  -5    3.22    0.82
   5   4   5    2.63    1.07
   6  -4   5    2.82    1.31
   6   4  -5    2.10    1.45
  -6  -4  -5    4.11    1.00
   6  -4   5    3.35    1.10
  -6   4   5    4.12    1.06
   6  -4  -5    4.33    1.26
   6   4   5    0.91    1.22
  -6  -4   5    1.32    0.95
  -6   4  -5    3.99    0.96
   7   4  -5    6.60    1.89
   7  -4   5    8.17    1.62
   7  -4   5    8.06    1.53
  -7  -4  -5    7.92    1.25
  -7   4   5    8.26    1.42
  -7  -4   5    8.20    1.39
   7   4   5   12.25    1.90
   7  -4  -5   10.51    1.73
  -7   4  -5    8.60    1.33
   8  -4   5   -2.70    1.19
  -8  -4  -5    1.16    1.10
  -8   4   5   -1.33    1.08
   8  -4   5   -4.11    1.26
   8   4  -5    0.18    1.68
  -8   4  -5    0.61    1.06
   8   4   5    0.64    1.54
  -8  -4   5   -0.26    1.14
   8  -4  -5   -0.84    1.34
   9  -4   5    5.38    1.71
   9   4  -5    2.94    1.93
  -9  -4  -5    2.20    1.26
  -9   4   5    2.17    1.35
   9   4   5    3.13    1.78
  -9  -4   5    3.40    1.35
   9  -4  -5    3.96    1.71
  10  -4   5   -0.40    1.65
 -10   4   5    5.17    1.62
  10   4  -5    2.67    2.09
 -10  -4   5    5.60    1.74
  10  -4  -5    3.27    1.89
  10   4   5    4.03    2.01
  11   4  -5    0.46    2.27
 -11   4   5   -2.93    1.65
 -11  -4   5    0.29    1.72
  11   4   5   -0.97    2.08
   0  -5   5    0.76    0.72
   0   5  -5   -0.02    0.61
   0  -5  -5   -0.98    0.55
   0  -5   5    0.19    0.55
   0   5   5   -0.31    0.59
   0   5   5   -0.13    0.42
  -1   5   5  311.43   16.16
   1  -5   5  290.77   16.06
  -1  -5  -5  314.54   15.07
  -1   5   5  301.12   15.32
   1  -5   5  291.89   15.24
   1   5  -5  276.93   16.13
   1  -5  -5  293.23   15.05
   1   5   5  332.55   16.13
   1   5   5  324.14   15.23
  -1  -5   5  295.03   15.52
  -1  -5   5  289.45   15.09
  -1   5  -5  295.05   15.46
  -2   5   5  119.17    6.42
  -2  -5  -5  126.34    6.31
   2  -5   5  116.35    6.61
  -2   5   5  108.47    7.01
   2   5  -5  110.19    6.92
   2  -5   5  119.06    6.60
  -2  -5   5  116.50    6.27
   2   5   5  134.84    6.82
  -2   5  -5  118.12    6.48
   2  -5  -5  119.71    6.30
  -2  -5   5  121.25    6.59
   2   5   5  142.77    6.25
  -3  -5  -5  116.17    6.02
   3  -5   5  109.46    6.27
  -3   5   5  119.11    6.22
   3   5  -5  112.49    6.77
   3  -5   5  101.44    6.32
   3   5   5  128.74    6.56
  -3  -5   5  114.72    6.25
  -3  -5   5  113.27    5.90
   3   5   5  119.69    5.88
  -3   5  -5  115.38    6.15
   3  -5  -5  116.22    6.66
   3  -5  -5  116.78    6.03
  -4   5   5   16.65    1.56
  -4  -5  -5   15.64    1.34
   4  -5   5   18.12    1.90
   4   5  -5   19.23    1.99
   4  -5   5   15.17    1.42
   4  -5  -5   15.23    1.59
  -4  -5   5   15.29    1.44
   4  -5  -5   16.40    1.49
  -4   5  -5   17.79    1.52
  -4  -5   5   15.35    1.26
   4   5   5   14.00    1.56
  -5   5   5   39.98    2.86
   5   5  -5   42.67    3.47
  -5  -5  -5   40.52    2.67
   5  -5   5   40.96    2.79
   5  -5   5   49.74    3.28
   5   5   5   44.14    3.09
  -5   5  -5   45.20    2.74
  -5  -5   5   40.27    2.80
   5  -5  -5   43.20    3.07
   5  -5  -5   38.03    3.05
   6  -5   5    3.21    1.46
   6   5  -5    1.52    1.53
   6  -5   5    1.05    0.97
  -6   5   5    1.33    1.12
  -6  -5  -5    1.34    0.95
   6  -5  -5    1.74    1.17
   6  -5  -5    1.47    1.19
  -6  -5   5    3.62    0.99
   6   5   5    1.45    1.28
  -6   5  -5    1.41    0.94
  -7  -5  -5   45.63    3.07
   7   5  -5   46.28    4.15
   7  -5   5   49.19    3.57
  -7   5   5   47.82    3.24
   7  -5  -5   41.25    3.55
   7   5   5   49.66    3.75
  -7   5  -5   46.26    3.09
  -7  -5   5   45.29    3.19
   8   5  -5   10.23    2.26
  -8  -5  -5   14.20    1.56
  -8   5   5    9.09    1.75
   8  -5   5   13.48    2.04
   8  -5  -5   10.78    1.89
  -8  -5   5   16.03    1.86
  -8   5  -5   11.42    1.64
   8   5   5    7.62    1.89
   9  -5   5   32.35    2.99
   9   5  -5   33.69    3.58
  -9  -5  -5   31.28    2.72
  -9   5   5   32.43    2.88
  -9  -5   5   36.29    3.12
   9  -5  -5   36.02    3.17
   9   5   5   28.06    3.17
 -10   5   5   -0.47    1.59
  10   5  -5   -0.04    1.99
  10  -5   5    1.65    1.80
  10   5   5   -0.36    1.87
 -10  -5   5   -2.33    1.37
  11   5  -5   15.23    2.97
 -11   5   5   14.12    2.51
  11   5   5   13.11    2.78
 -11  -5   5   16.27    2.47
   0  -6   5    1.38    0.84
   0  -6  -5    2.68    0.76
   0   6  -5    1.71    0.72
   0   6   5    2.97    0.81
   0  -6   5    2.27    0.74
   0   6   5    1.26    0.56
   1   6  -5   19.34    1.83
  -1   6   5   24.60    1.73
  -1  -6  -5   26.12    1.88
  -1   6   5   24.92    1.99
   1  -6   5   25.38    2.06
  -1  -6   5   22.94    1.89
  -1  -6   5   22.69    1.90
   1  -6  -5   22.94    1.81
   1   6   5   27.20    1.89
   1   6   5   24.35    1.61
  -1   6  -5   22.67    1.95
  -1   6  -5   26.50    1.74
  -2   6   5    1.43    1.15
  -2   6   5    3.12    0.76
   2   6  -5    3.02    1.04
   2  -6   5    3.94    1.14
   2  -6   5    2.57    0.61
  -2  -6  -5    3.10    0.78
   2   6   5    2.36    0.54
  -2   6  -5    4.11    0.89
  -2  -6   5    2.79    0.73
  -2  -6   5    2.54    0.89
   2   6   5    3.67    0.88
   2  -6  -5    3.02    0.77
   3  -6   5    0.94    0.49
  -3  -6  -5    0.75    0.71
   3   6  -5    1.30    1.14
   3  -6   5    0.05    1.11
  -3   6   5   -0.31    0.74
   3  -6  -5    1.41    0.96
  -3  -6   5   -0.99    0.58
  -3  -6   5    0.57    0.77
   3  -6  -5    0.37    0.77
   3   6   5    0.94    0.42
   3   6   5   -0.57    0.79
  -3   6  -5    0.82    0.70
   4  -6   5    1.97    0.62
  -4  -6  -5    1.32    0.80
  -4   6   5    3.53    1.02
   4   6  -5    2.16    1.31
   4  -6   5    1.63    1.33
   4   6   5    1.85    1.03
  -4  -6   5    2.61    0.84
  -4  -6   5    2.36    0.69
   4  -6  -5    1.19    0.97
  -4   6  -5    1.65    0.83
   4  -6  -5    0.84    1.00
   5   6  -5    3.89    1.55
  -5  -6  -5    0.04    0.87
   5  -6   5   -0.86    1.42
  -5   6   5    0.71    1.03
  -5   6  -5    0.45    0.82
   5  -6  -5   -0.23    0.98
  -5  -6   5    1.92    0.96
   5   6   5    0.04    1.12
   5  -6  -5   -0.67    1.23
  -6  -6  -5    0.13    0.96
   6  -6   5   -1.43    1.51
   6   6  -5   -0.78    1.55
  -6   6   5    0.63    1.05
   6   6   5    0.47    1.28
  -6  -6   5   -0.91    0.85
   6  -6  -5    0.36    1.44
  -6   6  -5   -0.36    0.94
   6  -6  -5    0.72    1.17
  -7  -6  -5    5.13    1.18
   7   6  -5    5.64    1.94
   7  -6   5    5.89    1.80
  -7   6   5    3.67    1.29
  -7  -6   5    4.27    1.33
   7  -6  -5    4.43    1.45
   7   6   5    4.87    1.58
  -7   6  -5    4.93    1.26
  -8   6   5    0.90    1.32
   8   6  -5    1.86    1.86
  -8  -6  -5    0.03    1.14
   8  -6   5    0.23    1.77
   8   6   5    0.23    1.53
  -8  -6   5   -0.80    1.19
  -8   6  -5   -1.25    1.07
   9  -6   5   -0.66    1.80
   9   6  -5    0.61    1.93
  -9   6   5    2.04    1.61
  -9  -6  -5    1.40    1.28
  -9   6  -5    0.16    1.34
  -9  -6   5    1.50    1.48
   9   6   5    4.36    1.85
  10   6  -5    3.29    2.33
 -10   6   5    0.02    1.73
  10  -6   5    0.24    1.92
 -10  -6   5    4.65    1.75
  10   6   5   -2.62    1.86
   0  -7  -5   -0.68    0.79
   0  -7   5    0.04    0.83
   0   7   5    0.29    0.78
   0   7   5   -0.12    0.55
   0  -7   5    0.14    0.66
   0   7  -5    0.51    0.75
  -1  -7  -5  106.53    5.41
   1  -7   5   98.47    5.58
   1   7  -5   91.57    5.75
  -1   7   5   99.18    5.75
  -1   7   5  101.80    5.45
  -1  -7   5   96.36    5.41
  -1   7  -5   99.64    5.51
   1  -7  -5  103.28    5.38
  -1  -7   5  104.11    5.61
   1   7   5   97.46    5.68
   1   7   5   99.74    5.29
  -1   7  -5  100.47    5.62
  -2  -7  -5   13.28    1.31
  -2   7   5   13.44    1.78
   2   7  -5   14.06    1.64
  -2   7   5   14.00    1.36
   2  -7   5   11.59    1.60
   2  -7  -5   12.87    1.31
   2   7   5   14.77    1.18
  -2  -7   5   12.81    1.27
  -2   7  -5   15.01    1.50
   2   7   5   14.09    1.43
  -2  -7   5   13.12    1.49
  -3   7   5   45.20    2.73
   3   7  -5   35.99    3.23
   3  -7   5   36.24    2.99
  -3  -7  -5   40.20    2.64
  -3   7  -5   38.64    2.66
  -3  -7   5   39.88    2.53
   3   7   5   39.29    2.24
  -3  -7   5   35.87    2.79
   3   7   5   39.05    2.77
   3  -7  -5   35.63    2.64
   3  -7  -5   40.31    2.94
  -4   7   5   -0.49    1.01
   4   7  -5    2.86    1.47
  -4  -7  -5   -0.19    0.88
   4  -7   5   -0.40    1.37
   4  -7  -5   -0.54    0.95
   4  -7  -5   -0.98    1.06
  -4   7  -5    0.47    0.85
  -4  -7   5    1.30    0.88
   4   7   5   -0.40    0.97
  -4  -7   5    1.26    0.76
  -5  -7  -5   33.02    2.47
   5   7  -5   37.37    3.20
  -5   7   5   31.97    2.68
   5  -7   5   28.34    2.86
  -5  -7   5   35.22    2.78
  -5   7  -5   29.20    2.32
   5   7   5   33.21    2.81
   5  -7  -5   32.13    2.68
   5  -7  -5   38.30    2.96
  -6   7   5   -1.86    1.10
   6  -7   5    2.31    1.79
  -6  -7  -5    1.45    1.06
   6   7  -5    2.75    1.79
   6   7   5    0.93    1.35
   6  -7  -5   -1.53    1.07
   6  -7  -5   -0.92    1.50
  -6   7  -5    0.38    0.94
  -6  -7   5    0.54    1.07
  -7   7   5   55.65    3.78
  -7  -7  -5   54.76    3.38
   7   7  -5   46.35    4.48
   7  -7   5   50.64    4.10
   7   7   5   48.11    3.92
  -7  -7   5   58.19    3.73
  -7   7  -5   47.71    3.45
  -8   7   5   14.05    2.09
  -8  -7  -5   19.36    1.82
   8   7  -5   16.69    2.72
   8  -7   5   16.77    2.52
   8   7   5   10.97    2.20
  -8   7  -5   13.52    1.84
  -8  -7   5   19.01    2.01
  -9  -7  -5   36.85    2.90
   9  -7   5   36.20    3.54
   9   7  -5   32.93    3.79
  -9   7   5   36.05    3.25
  -9   7  -5   38.18    3.04
   9   7   5   30.31    3.42
  -9  -7   5   37.43    3.16
  10  -7   5   -1.71    2.03
 -10   7   5    2.62    1.90
  10   7  -5   -2.60    2.20
 -10  -7   5    2.24    1.64
  10   7   5   -2.91    1.75
   0  -8  -5   16.18    1.56
   0  -8   5   15.33    1.62
   0   8   5   18.49    1.68
   0   8   5   16.34    1.45
   0   8  -5   16.99    1.83
   0   8  -5   15.53    1.45
  -1   8   5   -1.97    0.95
   1  -8   5    0.91    1.09
  -1   8   5   -0.51    0.70
  -1  -8  -5    0.04    0.92
   1   8  -5    0.53    0.96
   1   8   5   -0.18    0.84
   1  -8  -5    0.60    0.90
   1   8   5    0.44    0.65
  -1  -8   5    0.28    0.78
  -1  -8   5    0.28    0.84
  -1   8  -5   -0.15    0.96
   2   8  -5    2.70    1.22
  -2   8   5    2.23    1.38
   2  -8   5    1.89    1.25
  -2   8   5    2.22    0.92
  -2  -8  -5    1.41    0.96
  -2   8  -5    1.86    1.04
   2   8   5    0.29    0.87
  -2  -8   5    1.24    0.92
   2  -8  -5    3.32    1.01
   2   8   5    0.53    0.59
  -2  -8   5    2.38    0.92
   3   8  -5   -0.21    1.31
  -3  -8  -5    2.79    1.03
   3  -8   5    4.40    1.41
  -3   8   5    0.18    0.96
  -3  -8   5    0.57    0.92
  -3   8  -5    1.84    0.92
   3  -8  -5   -0.59    0.98
   3   8   5    1.20    0.63
   3   8   5    1.09    1.00
  -3  -8   5    1.47    0.92
   3  -8  -5    2.66    1.06
   4  -8   5   -1.30    1.39
   4   8  -5    0.30    1.52
  -4  -8  -5   -0.12    0.95
  -4   8   5   -0.67    0.95
  -4  -8   5   -0.24    1.06
  -4  -8   5    1.97    0.90
   4  -8  -5   -0.63    0.95
   4  -8  -5   -0.91    1.15
   4   8   5   -0.31    1.07
  -4   8  -5   -0.15    0.93
  -5   8   5    2.06    1.30
   5   8  -5    3.12    1.81
  -5  -8  -5    4.05    1.15
   5  -8   5    3.00    1.76
  -5   8  -5    2.48    1.13
   5   8   5    5.50    1.46
  -5  -8   5    2.46    1.24
   5  -8  -5    0.92    1.49
  -6  -8  -5    2.52    1.17
  -6   8   5    2.34    1.37
   6  -8   5   -1.40    1.70
   6   8  -5    0.25    1.80
   6   8   5   -1.35    1.33
   6  -8  -5   -0.01    1.63
  -6   8  -5    1.57    1.04
  -6  -8   5    0.79    1.19
  -7   8   5   -0.95    1.24
   7   8  -5   -1.36    1.77
   7  -8   5    0.19    1.95
  -7  -8  -5   -0.36    1.15
  -7   8  -5    1.47    1.22
  -7  -8   5    2.20    1.34
   7   8   5   -0.82    1.41
   8  -8   5   -1.81    1.94
  -8   8   5    1.74    1.67
   8   8  -5    3.32    2.13
  -8  -8  -5    5.40    1.39
  -8  -8   5    2.67    1.45
   8   8   5    3.85    1.77
  -8   8  -5    0.84    1.33
  -9  -8  -5    2.16    1.44
   9  -8   5    0.02    2.17
   9   8  -5    0.58    2.21
  -9   8   5    2.54    1.82
  -9  -8   5    1.10    1.50
  -9   8  -5    1.90    1.46
   9   8   5   -0.57    1.76
 -10   8   5    2.98    2.01
  10  -8   5    4.56    2.52
  10   8  -5    3.41    2.59
  10   8   5   -1.42    1.95
 -10  -8   5    3.79    1.79
   0   9  -5   -1.27    1.02
   0   9   5    1.21    0.79
   0  -9   5   -0.84    1.08
   0  -9  -5   -0.72    1.04
   0   9   5    0.48    1.03
  -1  -9  -5   70.00    3.95
  -1   9   5   65.30    3.85
  -1   9   5   63.55    4.19
   1   9  -5   57.86    4.07
   1  -9   5   67.20    4.16
  -1  -9   5   64.81    3.99
  -1  -9   5   75.51    4.16
  -1   9  -5   59.72    4.21
   1   9   5   62.17    3.66
   1   9   5   62.93    4.06
   1  -9  -5   64.53    3.95
  -2   9   5    2.92    1.50
   2   9  -5    1.50    1.33
   2  -9   5    2.84    1.36
  -2   9   5    1.21    0.95
  -2  -9  -5    2.85    1.17
   2   9   5    2.26    1.04
  -2   9  -5    0.92    1.06
   2   9   5    1.76    0.76
  -2  -9   5    1.03    0.91
   2  -9  -5    1.50    1.10
  -2  -9   5    1.91    1.05
  -3   9   5   51.77    3.44
   3  -9   5   50.06    3.64
   3   9  -5   49.19    3.99
  -3  -9  -5   55.93    3.43
   3  -9  -5   48.76    3.41
  -3   9  -5   52.43    3.40
  -3  -9   5   52.94    3.34
   3   9   5   53.84    3.59
  -3  -9   5   48.05    3.46
  -4  -9  -5   10.47    1.51
  -4   9   5   11.37    1.58
   4  -9   5   11.98    2.03
   4   9  -5    7.70    1.94
  -4  -9   5    8.91    1.60
  -4   9  -5   10.78    1.55
   4  -9  -5   12.10    1.72
  -4  -9   5   10.84    1.36
   4   9   5   11.15    1.66
   5  -9   5   67.15    4.67
  -5  -9  -5   66.35    4.08
   5   9  -5   67.06    5.06
  -5   9   5   69.79    4.41
   5  -9  -5   71.99    4.54
   5   9   5   72.39    4.54
  -5   9  -5   59.63    4.13
  -5  -9   5   64.76    4.39
  -6   9   5   10.68    1.83
   6   9  -5    9.35    2.17
   6  -9   5    4.34    2.11
  -6  -9  -5    7.96    1.41
   6   9   5    7.91    1.76
   6  -9  -5    9.39    2.03
  -6  -9   5    7.51    1.67
  -6   9  -5    7.47    1.49
  -7  -9  -5   47.43    3.39
   7  -9   5   44.87    4.06
   7   9  -5   52.06    4.41
  -7   9   5   54.20    3.68
   7   9   5   43.07    3.84
  -7   9  -5   51.26    3.48
  -7  -9   5   44.15    3.84
  -8   9   5    0.17    1.64
   8   9  -5    1.13    2.21
  -8  -9  -5   -0.09    1.35
   8  -9   5   -2.13    2.17
   8   9   5   -1.25    1.64
  -8  -9   5   -0.96    1.42
  -8   9  -5   -0.53    1.34
   9  -9   5   12.22    2.91
   9   9  -5   17.13    3.16
  -9   9   5   17.58    2.47
  -9   9  -5   16.86    2.16
   9   9   5   17.96    2.69
  -9  -9   5   20.44    2.56
   0  10   5    6.33    1.43
   0  10   5    5.44    1.07
   0 -10  -5    5.71    1.37
   0  10  -5    3.52    1.43
   0 -10   5    6.38    1.44
   1 -10   5    0.88    1.32
   1  10  -5    0.06    1.35
  -1 -10  -5    0.53    1.23
  -1  10   5   -1.29    0.86
   1  10   5    1.23    0.84
  -1  10  -5    0.53    1.20
  -1 -10   5   -1.29    1.10
   1  10   5   -0.36    1.10
   1 -10  -5   -0.56    1.13
  -2 -10  -5    7.62    1.47
  -2  10   5    8.93    1.38
   2 -10   5    6.91    1.65
  -2  10  -5    8.20    1.58
   2  10   5    4.52    1.34
   2 -10  -5    8.71    1.47
   2  10   5    7.04    1.07
  -2 -10   5    7.47    1.38
  -2 -10   5    7.63    1.41
  -3  10   5   26.43    2.36
  -3 -10  -5   25.22    2.23
   3  10  -5   23.74    2.62
   3 -10   5   28.65    2.65
   3  10   5   28.62    2.56
  -3  10  -5   27.10    2.46
  -3 -10   5   27.18    2.21
   3 -10  -5   26.35    2.30
  -3 -10   5   27.18    2.35
  -4 -10  -5    9.55    1.51
  -4  10   5    7.85    1.50
   4 -10   5    9.57    1.96
   4  10  -5    6.43    1.93
  -4 -10   5    9.47    1.59
  -4  10  -5    6.77    1.50
  -4 -10   5    9.63    1.40
   4 -10  -5    8.52    1.66
   4  10   5    8.64    1.62
   5  10  -5    0.73    1.74
  -5 -10  -5   -1.90    1.20
  -5  10   5   -0.98    1.13
   5 -10   5    0.94    1.66
  -5 -10   5   -1.25    1.06
  -5  10  -5   -0.73    1.16
   5 -10  -5    1.06    1.61
   5  10   5    0.52    1.39
   6  10  -5    6.38    2.17
  -6 -10  -5    1.90    1.39
   6 -10   5    1.41    1.95
  -6  10   5    2.89    1.47
   6 -10  -5    3.90    1.91
  -6  10  -5    3.17    1.35
  -6 -10   5    1.75    1.44
   6  10   5   -0.52    1.59
   7  10  -5    2.52    2.21
  -7  10   5    1.61    1.67
   7 -10   5    2.83    2.27
  -7 -10  -5    7.12    1.55
  -7  10  -5    3.60    1.49
  -7 -10   5    3.38    1.68
   7  10   5    5.49    1.92
  -8 -10  -5    2.10    1.49
   8 -10   5   -1.63    2.28
  -8  10   5    1.07    1.58
   8  10  -5   -2.44    2.11
  -8 -10   5    2.15    1.71
  -8  10  -5   -1.37    1.23
   8  10   5    1.03    1.86
   9  10  -5   -1.35    2.47
   9 -10   5   -1.67    2.49
  -9  10   5   -2.00    1.75
  -9 -10   5    2.66    1.86
   9  10   5   -1.30    1.93
  -9  10  -5   -0.76    1.44
   0 -11   5    1.45    1.43
   0 -11  -5   -2.08    1.27
   0  11   5   -0.60    0.87
   0  11  -5   -1.92    1.26
   1 -11   5  125.33    6.98
  -1 -11  -5  126.49    6.70
   1  11  -5  116.26    7.07
  -1  11   5  112.73    6.62
   1  11   5  116.82    6.52
  -1  11  -5  117.15    6.99
   1 -11  -5  121.85    6.69
  -1 -11   5  130.89    6.85
  -2 -11  -5   39.16    3.11
  -2  11   5   38.73    2.89
   2 -11   5   42.54    3.40
  -2 -11   5   48.54    3.16
  -2  11  -5   37.31    3.32
   2  11   5   32.65    3.12
   2  11   5   36.69    2.55
   2 -11  -5   37.72    2.99
  -2 -11   5   41.35    3.07
  -3 -11  -5   92.44    5.38
   3 -11   5   86.91    5.58
  -3  11   5   86.32    5.33
   3 -11  -5   92.44    5.41
   3  11   5   95.88    5.73
  -3 -11   5   95.29    5.37
  -3 -11   5   92.61    5.56
  -4 -11  -5    5.32    1.48
   4 -11   5    7.35    1.88
  -4  11   5    5.17    1.51
   4  11   5    3.30    1.54
  -4 -11   5    6.46    1.48
   4 -11  -5    6.75    1.67
  -4  11  -5    3.43    1.45
  -4 -11   5    6.39    1.36
   5  11  -5   32.62    3.45
   5 -11   5   37.04    3.36
  -5 -11  -5   39.16    3.04
  -5  11   5   34.36    3.05
  -5  11  -5   30.89    2.88
   5 -11  -5   35.94    3.11
  -5 -11   5   36.44    3.20
   5  11   5   36.12    3.20
   6 -11   5   -0.35    1.96
   6  11  -5    0.56    2.08
  -6  11   5    1.00    1.56
  -6 -11  -5    0.76    1.43
  -6 -11   5    2.99    1.57
  -6  11  -5    2.16    1.39
   6  11   5    0.33    1.64
   6 -11  -5    2.29    2.02
   7 -11   5   25.34    3.13
   7  11  -5   14.13    2.95
  -7 -11  -5   21.17    2.15
  -7  11   5   19.84    2.43
  -7  11  -5   16.31    2.08
   7  11   5   14.44    2.49
  -7 -11   5   17.67    2.41
   8 -11   5   12.98    2.90
  -8  11   5   11.57    2.24
  -8 -11  -5   12.70    1.91
   8  11  -5    9.14    2.80
  -8  11  -5    9.95    1.96
  -8 -11   5   14.19    2.36
   8  11   5    7.07    2.32
   0  12  -5   15.04    2.10
   0 -12  -5   12.42    1.83
   0  12   5   11.52    1.48
   0 -12   5   10.21    1.91
  -1  12   5   -1.53    0.96
   1  12  -5   -0.42    1.52
   1 -12   5   -2.46    1.44
  -1 -12  -5   -1.39    1.30
   1 -12  -5    1.49    1.42
   1  12   5   -0.88    0.90
  -1  12  -5    0.82    1.42
  -1 -12   5    0.58    1.43
  -2  12   5   15.07    1.80
   2  12  -5   18.95    2.31
   2 -12   5   15.27    2.17
  -2 -12  -5   10.74    1.82
   2 -12  -5   13.80    1.91
  -2  12  -5   12.66    2.16
  -2 -12   5   15.05    1.92
   3 -12   5    9.61    1.99
  -3  12   5    9.14    1.68
  -3 -12  -5    9.64    1.75
   3 -12  -5    8.54    1.75
  -3  12  -5    8.03    1.74
  -3 -12   5    9.00    1.71
  -3 -12   5    9.84    1.67
   3  12   5    6.49    1.69
  -4 -12  -5    0.87    1.45
   4 -12   5   -1.87    1.61
  -4  12   5    2.18    1.42
   4  12   5    1.06    1.56
   4 -12  -5    1.86    1.62
  -4  12  -5   -0.67    1.37
  -4 -12   5    0.06    1.18
   5 -12   5   -0.53    1.81
  -5  12   5    0.04    1.50
  -5 -12  -5   -1.24    1.43
   5  12   5    0.61    1.73
  -5  12  -5    1.90    1.38
  -5 -12   5    4.09    1.52
   5 -12  -5    3.73    1.93
  -6  12   5    1.60    1.65
   6 -12   5   -4.58    1.84
  -6 -12  -5   -0.38    1.51
  -6 -12   5   -0.21    1.47
   6 -12  -5    2.39    2.08
  -6  12  -5    1.21    1.36
   6  12   5    0.32    1.80
  -7  12   5    0.31    1.67
  -7 -12  -5   -1.90    1.53
   7 -12   5    2.19    2.31
   7  12  -5    3.14    2.46
  -7  12  -5   -0.35    1.36
   7  12   5    1.75    1.97
  -7 -12   5    2.15    1.66
   8 -12   5    2.19    2.58
  -8  12   5    0.90    1.81
  -8 -12  -5    1.91    1.72
   8  12  -5   -0.22    2.57
  -8  12  -5    1.97    1.67
  -8 -12   5    1.83    1.84
   8  12   5    2.54    2.26
   0  13   5   -1.35    0.99
   0 -13  -5   -0.35    1.46
   0  13  -5   -3.03    1.51
   0 -13   5    2.92    1.66
   1 -13   5   28.44    2.84
   1  13  -5   34.07    3.11
  -1  13   5   28.05    2.45
  -1 -13  -5   30.00    2.58
   1 -13  -5   27.47    2.59
  -1  13  -5   23.69    2.87
  -1 -13   5   30.27    2.76
   1  13   5   24.89    2.29
  -2  13   5    4.57    1.36
   2  13  -5    3.03    1.69
   2 -13   5    2.81    1.80
  -2 -13  -5    2.06    1.62
  -2  13  -5    4.98    1.72
  -2 -13   5    2.83    1.62
   2 -13  -5    0.08    1.53
   3 -13   5   43.12    3.70
   3  13  -5   41.75    3.52
  -3  13   5   35.96    3.17
  -3 -13  -5   50.14    3.52
  -3  13  -5   41.63    3.50
   3 -13  -5   43.39    3.48
  -3 -13   5   43.23    3.48
  -4 -13  -5    0.78    1.59
   4 -13   5    1.77    1.80
  -4  13   5    1.29    1.43
   4 -13  -5    2.23    1.76
  -4 -13   5   -0.03    1.30
  -4  13  -5    2.01    1.68
   5 -13   5   33.66    3.36
  -5  13   5   28.84    2.99
  -5 -13  -5   38.77    3.26
   5  13   5   32.95    3.36
   5 -13  -5   35.70    3.33
  -5 -13   5   39.00    3.32
  -5  13  -5   36.61    3.27
  -6 -13  -5    4.21    1.69
  -6  13   5    1.41    1.65
   6 -13   5   -0.50    2.00
   6  13   5    0.60    1.99
  -6  13  -5    0.41    1.58
  -6 -13   5    0.53    1.58
   6 -13  -5   -0.08    2.18
   7 -13   5   17.46    2.98
  -7  13   5   14.58    2.32
  -7 -13  -5   18.71    2.32
  -7 -13   5   14.69    2.30
  -7  13  -5   13.88    2.25
   0  14  -5    4.03    1.93
   0  14   5    6.98    1.41
   0 -14  -5    2.93    1.68
   0 -14   5    4.66    1.92
   1 -14   5    2.44    1.86
  -1  14   5    0.72    1.19
  -1 -14  -5    1.33    1.60
   1  14  -5    2.22    1.84
  -1  14  -5   -0.42    1.77
   1 -14  -5   -0.44    1.65
  -1 -14   5    1.40    1.76
  -2  14   5    0.49    1.29
   2  14  -5    0.66    1.69
   2 -14   5    2.65    1.90
  -2 -14  -5    2.05    1.68
   2 -14  -5    1.39    1.72
  -2 -14   5    1.29    1.66
  -2  14  -5    1.23    1.65
  -3 -14  -5    7.31    1.88
   3  14  -5    8.11    1.92
  -3  14   5    5.02    1.53
   3 -14   5    2.77    1.96
  -3 -14   5    6.05    1.77
   3 -14  -5    3.24    1.84
  -3  14  -5    5.01    1.99
   4 -14   5    8.79    2.26
  -4 -14  -5    5.71    1.85
  -4  14   5    3.63    1.52
   4  14  -5    7.51    1.84
  -4  14  -5    6.76    2.08
   4 -14  -5    8.34    2.12
  -5  14   5   -0.29    1.54
   5 -14   5    0.90    2.10
  -5 -14  -5    0.20    1.79
  -5 -14   5   -0.72    1.53
  -5  14  -5    0.36    1.71
   5 -14  -5   -4.87    1.92
   6 -14   5    1.62    2.23
  -6  14   5    2.14    1.79
  -6 -14  -5   -0.40    1.80
  -6  14  -5   -2.52    1.65
  -6 -14   5    0.71    1.64
   6 -14  -5    6.21    2.47
   0  15  -5   -0.33    1.66
   0 -15   5    1.65    1.88
   0 -15  -5   -1.20    1.70
   0  15   5   -0.41    1.17
  -1  15   5   27.48    2.49
   1 -15   5   25.87    2.98
   1  15  -5   27.00    3.02
  -1 -15  -5   28.26    2.76
   1 -15  -5   22.11    2.65
  -1  15  -5   18.46    2.85
  -1 -15   5   27.35    2.93
   2  15  -5    0.28    1.72
  -2 -15  -5    2.39    1.81
  -2  15   5   -1.90    1.31
   2 -15   5   -0.56    1.94
  -2  15  -5   -3.66    1.76
  -2 -15   5    0.14    1.78
   2 -15  -5   -0.73    1.73
   3 -15   5   24.41    2.94
  -3 -15  -5   26.63    2.66
  -3  15   5   19.02    2.40
   3  15  -5   24.25    2.85
   3 -15  -5   22.60    2.73
  -3 -15   5   32.46    2.84
  -3  15  -5   18.32    2.92
  -4  15   5   -0.08    1.55
  -4 -15  -5    0.41    1.80
   4  15  -5    0.63    1.66
   4 -15   5    0.08    2.00
   4 -15  -5    1.63    2.09
  -4  15  -5    2.94    2.01
   5 -15   5   24.99    3.10
  -5  15   5   16.27    2.32
   5  15  -5   22.76    2.66
  -5 -15  -5   22.60    2.62
   5 -15  -5   23.63    3.06
  -5  15  -5   16.37    2.68
   0 -16  -5   -1.08    1.84
   0 -16   5    6.52    2.19
   0  16  -5    1.40    2.01
  -1  16   5    1.36    1.43
   1 -16   5    1.56    2.11
   1  16  -5   -2.45    1.83
  -1 -16  -5   -0.56    1.80
   1 -16  -5   -0.38    1.93
  -1 -16   5    0.31    2.04
  -1  16  -5   -2.07    1.96
   2 -16   5    2.68    2.17
  -2 -16  -5    0.46    1.83
   2  16  -5    2.53    1.84
  -2  16   5    0.73    1.46
  -2  16  -5    0.00    2.09
   2 -16  -5   -0.58    1.95
  -2 -16   5    1.65    1.97
  -3 -16  -5    3.09    1.95
   3  16  -5   -3.68    1.61
  -3  16   5   -0.13    1.44
   3 -16   5    1.00    2.12
  -3  16  -5    1.32    2.00
   3 -16  -5   -0.82    2.04
  -3 -16   5    4.00    2.02
   4 -16   5   -1.20    2.15
  -4 -16  -5   -0.92    1.89
   4  16  -5    1.35    1.80
  -4  16   5   -2.33    1.38
   4 -16  -5   -0.32    2.18
  -4  16  -5   -2.69    1.98
   0 -17   5    1.87    2.25
   0  17  -5   -0.93    2.14
   0 -17  -5    3.70    2.13
   1  17  -5   19.71    2.89
  -1  17   5   13.99    2.20
  -1 -17  -5   15.02    2.59
   1 -17   5   20.31    2.93
   1 -17  -5   18.12    2.63
  -1  17  -5    9.99    2.74
  -1 -17   5   22.74    2.90
   0   0   6    6.15    0.63
   0   0  -6    7.30    0.62
   0   0   6    7.04    0.86
  -1   0  -6    2.14    0.49
   1   0   6    3.10    0.63
   1   0   6    3.01    0.47
  -1   0   6    3.71    0.96
  -1   0   6    3.38    0.52
   1   0  -6    2.37    0.40
  -2   0   6  107.70    5.64
  -2   0  -6  104.98    5.43
   2   0  -6  107.32    6.17
   2   0  -6  106.97    5.32
  -2   0  -6  110.97    5.50
   2   0   6  101.60    5.92
  -3   0  -6  239.26   11.88
   3   0  -6  217.18   12.92
   3   0   6  240.99   12.76
  -3   0   6  233.09   12.12
  -3   0  -6  248.13   11.91
  -4   0  -6  551.27   27.14
   4   0   6  540.93   28.73
   4   0  -6  539.49   28.92
  -4   0  -6  529.07   26.84
  -4   0   6  546.02   27.40
  -5   0  -6    2.85    0.87
   5   0   6    2.96    1.03
  -5   0  -6    2.86    0.55
   5   0  -6    3.92    1.20
  -5   0   6    2.74    0.83
  -6   0  -6  306.76   15.63
  -6   0   6  315.13   16.01
   6   0  -6  304.88   16.99
   6   0   6  311.51   16.86
   7   0  -6   29.29    2.88
  -7   0  -6   29.78    2.50
  -7   0   6   30.06    2.44
   7   0   6   32.01    2.91
  -8   0   6  157.73    8.76
  -8   0  -6  160.41    8.50
   8   0  -6  155.12    9.43
   8   0   6  166.76    9.39
  -9   0   6   -2.37    1.31
  -9   0  -6   -0.16    1.26
   9   0   6   -0.70    1.57
   9   0  -6    0.52    1.62
  10   0  -6    7.20    2.16
 -10   0   6    7.54    1.84
  10   0   6   10.35    2.25
 -10   0  -6    6.27    1.60
  11   0  -6    3.25    2.10
 -11   0   6    1.32    1.70
  11   0   6    1.02    2.01
   0   1   6   -0.02    0.52
   0  -1   6   -0.34    0.36
   0   1   6   -0.52    0.27
   0  -1   6   -0.21    0.31
   0  -1  -6    0.34    0.36
   0  -1   6   -0.66    0.51
   1  -1   6   11.32    1.04
   1  -1   6   13.35    1.17
  -1   1   6   11.56    1.08
  -1   1   6   19.40    1.58
   1  -1   6   14.17    1.19
  -1  -1  -6   15.13    1.14
   1   1   6   14.86    0.95
   1  -1  -6   17.42    1.03
  -1  -1   6   15.59    1.51
   1   1   6   14.97    1.32
  -1  -1   6   12.87    1.09
  -2  -1  -6    6.08    0.72
   2   1  -6    7.40    1.15
   2   1  -6    6.98    0.49
   2  -1   6    6.71    0.82
  -2   1   6    7.17    1.27
   2  -1   6    6.69    0.83
  -2   1   6    5.00    0.75
  -2  -1   6    6.89    0.76
   2   1   6    7.27    0.86
   2  -1  -6    6.85    0.57
  -2   1  -6    7.56    0.64
  -3   1   6   12.89    1.18
   3   1  -6   12.89    1.53
   3  -1   6   16.01    1.32
  -3  -1  -6   11.49    1.06
   3  -1   6   10.16    1.15
   3  -1  -6   13.42    0.96
  -3   1  -6   13.48    1.00
   3   1   6   15.49    1.37
   3  -1  -6   15.87    1.66
  -3  -1   6   13.46    1.15
  -4  -1  -6   15.26    1.29
   4  -1   6   13.94    1.37
  -4   1   6   16.99    1.42
   4  -1   6   12.59    1.41
   4   1  -6   20.15    1.86
  -4  -1  -6   13.24    1.02
   4  -1  -6   17.43    1.81
  -4  -1   6   16.19    1.38
   4   1   6   14.97    1.53
  -4   1  -6   17.53    1.17
  -5  -1  -6    5.03    0.94
   5  -1   6    4.66    1.12
   5  -1   6    5.96    1.06
  -5   1   6    5.82    1.05
   5   1  -6    5.66    1.32
  -5  -1  -6    6.31    0.64
  -5  -1   6    7.04    1.02
   5  -1  -6    6.66    1.32
  -5   1  -6    6.10    0.74
   5   1   6    4.42    1.16
   6   1  -6    6.89    1.56
  -6  -1  -6    7.28    1.16
  -6   1   6    7.84    1.26
   6  -1   6    8.29    1.44
   6  -1   6    8.47    1.30
  -6  -1   6    7.58    1.23
   6   1   6    6.64    1.41
  -6   1  -6    6.86    0.93
   6  -1  -6    7.65    1.55
  -7  -1  -6    0.81    1.02
   7   1  -6    2.09    1.48
  -7   1   6    0.24    1.13
   7  -1   6   -0.06    1.30
   7   1   6    1.43    1.36
   7  -1  -6    1.18    1.44
  -7  -1   6   -0.58    0.93
  -7   1  -6   -0.38    1.01
  -8  -1  -6    1.54    1.19
   8   1  -6    3.12    1.64
   8  -1   6    4.76    1.56
  -8   1   6    3.53    1.29
  -8   1  -6    3.17    1.24
   8  -1  -6    2.66    1.54
   8   1   6    2.64    1.60
  -8  -1   6    0.94    1.26
  -9  -1  -6    0.66    1.26
  -9   1   6   -1.66    1.25
   9  -1   6   -0.23    1.58
   9   1  -6    0.12    1.72
   9   1   6    1.84    1.73
   9  -1  -6    1.98    1.70
  -9  -1   6   -0.01    1.33
  -9   1  -6    0.32    1.29
 -10  -1  -6    1.60    1.43
  10   1  -6    2.15    1.91
 -10   1   6    3.03    1.54
  10  -1   6   -0.80    1.74
 -10  -1   6    0.31    1.53
 -10   1  -6   -0.63    1.43
  10  -1  -6    2.55    1.92
  10   1   6    1.69    1.88
 -11   1   6   -2.03    1.64
  11  -1   6    2.75    2.12
  11   1  -6    1.01    2.09
  11  -1  -6   -0.24    1.96
  11   1   6    1.55    2.18
 -11  -1   6   -0.71    1.68
   0   2   6  102.89    5.53
   0  -2  -6   95.44    5.04
   0  -2   6  102.56    5.11
   0  -2   6   97.92    5.25
   0   2   6   95.46    5.09
   0  -2   6   97.32    5.56
   1  -2   6    0.24    0.50
  -1   2   6    0.01    0.40
  -1  -2  -6    0.70    0.44
  -1   2   6    0.05    0.69
   1  -2   6    0.56    0.57
   1  -2   6    0.14    0.43
   1  -2  -6    0.37    0.39
  -1  -2   6    0.43    0.41
  -1  -2   6   -0.16    0.78
   1   2   6   -0.32    0.51
   1   2   6    0.33    0.25
  -1  -2   6    0.81    0.43
  -2   2   6   71.99    4.67
  -2  -2  -6   78.42    3.98
   2   2  -6   73.69    4.52
   2  -2   6   72.20    4.25
  -2   2   6   77.29    4.10
   2  -2   6   71.34    4.08
  -2  -2   6   76.77    4.13
   2   2   6   77.32    4.34
  -2   2  -6   77.69    4.00
  -2  -2   6   73.13    3.81
   2  -2  -6   73.29    3.87
   3  -2   6    1.19    0.72
  -3  -2  -6    0.31    0.56
  -3   2   6   -0.56    0.52
   3  -2   6    0.53    0.61
   3   2  -6    0.77    0.88
  -3  -2   6    1.14    0.60
   3  -2  -6    1.09    0.45
   3  -2  -6    0.40    0.89
   3   2   6    1.14    0.71
  -3   2  -6    0.78    0.42
   4   2  -6   39.34    3.01
  -4  -2  -6   40.33    2.41
  -4   2   6   38.07    2.58
   4  -2   6   38.65    2.67
   4  -2   6   38.12    2.54
  -4  -2   6   37.66    2.54
   4   2   6   36.07    2.71
  -4   2  -6   38.03    2.28
   4  -2  -6   39.84    3.01
   4  -2  -6   37.93    2.29
  -5   2   6    7.39    1.09
   5  -2   6    7.50    1.20
   5  -2   6    7.43    1.19
  -5  -2  -6    5.99    0.99
   5   2  -6    7.97    1.53
   5   2   6    6.17    1.25
  -5   2  -6    6.49    0.85
  -5  -2   6    8.53    1.12
   5  -2  -6    7.75    1.37
   6  -2   6   72.63    4.54
  -6   2   6   71.48    4.24
   6   2  -6   78.41    4.97
   6  -2   6   72.20    4.23
  -6  -2  -6   66.15    4.07
  -6   2  -6   71.83    4.03
   6  -2  -6   69.93    4.76
  -6  -2   6   73.51    4.33
   6   2   6   65.87    4.61
   7  -2   6   -0.01    1.18
  -7  -2  -6    0.21    1.02
   7   2  -6    0.21    1.45
   7  -2   6   -0.10    1.24
  -7   2   6    0.01    1.01
   7  -2  -6    1.27    1.40
  -7  -2   6    1.64    1.03
   7   2   6    0.99    1.32
   8   2  -6   26.36    2.86
  -8  -2  -6   20.49    1.96
  -8   2   6   21.69    2.20
   8  -2   6   23.39    2.46
   8   2   6   18.08    2.43
  -8  -2   6   23.89    2.25
   8  -2  -6   24.82    2.57
   9   2  -6    0.89    1.83
  -9   2   6    1.31    1.42
  -9  -2  -6    0.06    1.28
   9  -2   6    2.00    1.64
  -9  -2   6   -1.76    1.33
   9   2   6   -0.14    1.65
  -9   2  -6    0.93    1.32
   9  -2  -6    0.37    1.61
 -10   2   6   10.35    1.87
  10  -2   6   12.31    2.27
 -10  -2  -6   10.32    1.74
  10   2  -6    6.50    2.32
  10  -2  -6   11.07    2.30
  10   2   6    9.09    2.34
 -10  -2   6   12.35    2.04
 -10   2  -6   11.14    1.79
  11  -2   6    2.37    2.02
 -11   2   6    3.11    1.75
  11   2  -6    1.47    2.10
  11  -2  -6    2.33    2.00
 -11  -2   6    0.55    1.72
  11   2   6    1.20    2.08
   0   3   6   -0.31    0.55
   0  -3   6    0.42    0.48
   0  -3   6    0.84    0.64
   0   3   6    0.18    0.35
   0  -3  -6    0.57    0.47
   0  -3   6    0.82    0.71
   1  -3   6   27.29    1.80
   1  -3   6   23.65    1.80
   1  -3   6   27.55    1.90
   1   3  -6   27.30    2.08
  -1   3   6   25.95    1.67
  -1   3   6   26.06    2.03
  -1  -3  -6   26.62    1.67
   1   3   6   25.26    1.47
   1  -3  -6   24.85    1.65
  -1  -3   6   25.84    1.76
  -1  -3   6   24.63    1.76
   1   3   6   28.17    1.85
  -2   3   6   62.67    4.28
   2  -3   6   72.72    3.87
   2  -3   6   62.60    3.84
  -2  -3  -6   72.17    3.65
   2   3  -6   61.52    4.16
  -2   3   6   66.45    3.73
   2  -3  -6   67.62    3.57
  -2  -3   6   65.87    3.56
   2   3   6   71.70    3.95
  -2  -3   6   68.21    3.81
  -2   3  -6   66.10    3.68
   3  -3   6   12.08    1.15
  -3   3   6   13.38    1.22
   3   3  -6   13.37    1.56
   3  -3   6   12.42    1.33
  -3  -3  -6   12.95    1.11
  -3   3  -6   13.69    1.12
   3  -3  -6   13.27    1.01
   3  -3  -6   11.72    1.58
   3   3   6   13.43    1.36
  -3  -3   6   12.99    1.19
  -4  -3  -6   21.53    1.73
   4  -3   6   25.22    1.89
  -4   3   6   24.61    1.94
   4  -3   6   21.88    1.90
   4   3  -6   27.13    2.32
   4  -3  -6   20.85    1.76
  -4  -3   6   20.39    1.76
  -4   3  -6   22.08    1.57
   4  -3  -6   22.59    2.09
   4   3   6   21.22    2.00
   5   3  -6   31.03    2.68
   5  -3   6   26.25    2.30
  -5   3   6   26.36    2.23
  -5  -3  -6   31.12    2.10
   5  -3   6   23.94    2.22
   5  -3  -6   23.98    2.30
  -5   3  -6   26.45    1.93
   5  -3  -6   31.51    2.03
  -5  -3   6   26.75    2.22
   5   3   6   22.11    2.19
  -6  -3  -6    4.77    1.05
   6   3  -6    4.60    1.57
  -6   3   6    5.04    1.14
   6  -3   6    5.06    1.32
   6  -3   6    3.07    1.18
   6   3   6    3.06    1.29
   6  -3  -6    5.45    1.41
  -6  -3   6    4.81    1.12
  -6   3  -6    5.28    0.93
  -7  -3  -6    6.00    1.20
   7  -3   6    4.13    1.36
   7   3  -6    3.69    1.70
  -7   3   6    4.14    1.31
   7  -3   6    4.33    1.43
   7   3   6    4.19    1.50
   7  -3  -6    2.66    1.54
  -7   3  -6    4.18    1.10
  -7  -3   6    4.98    1.25
  -8  -3  -6   12.90    1.56
   8   3  -6   11.03    2.19
   8  -3   6    9.68    1.71
   8  -3   6   12.49    1.88
  -8   3   6    8.38    1.63
   8   3   6   10.01    1.93
  -8  -3   6    9.22    1.60
   8  -3  -6   11.53    1.90
  -9   3   6   -0.19    1.43
   9  -3   6    1.62    1.51
   9  -3   6    2.88    1.63
   9   3  -6    1.73    1.90
  -9  -3  -6    1.95    1.30
  -9  -3   6    3.03    1.45
   9   3   6    3.11    1.79
   9  -3  -6    1.59    1.62
 -10  -3  -6   -0.52    1.40
  10   3  -6    0.33    1.94
 -10   3   6    1.09    1.66
  10  -3  -6    1.32    1.80
 -10   3  -6   -0.78    1.42
 -10  -3   6    1.47    1.59
  10   3   6   -1.81    1.76
 -11   3   6   -1.64    1.66
  11   3  -6   -0.17    2.16
  11  -3  -6    1.83    1.98
 -11  -3   6    0.87    1.79
  11   3   6    0.01    2.08
   0   4   6  795.21   39.62
   0  -4  -6  770.42   38.97
   0  -4   6  812.07   39.85
   0   4   6  838.68   41.69
   0  -4   6  788.82   41.74
   0  -4   6  738.32   39.08
   1  -4   6    0.24    0.58
   1  -4   6   -0.38    0.78
  -1  -4  -6   -0.17    0.53
  -1   4   6   -0.31    0.73
   1  -4   6   -1.25    0.49
  -1   4   6    0.23    0.47
   1   4  -6    0.93    0.77
  -1  -4   6    0.56    0.61
  -1  -4   6   -0.29    0.63
   1  -4  -6   -0.05    0.54
   1   4   6    0.04    0.60
   1   4   6    0.38    0.34
   2   4  -6  224.82   13.26
  -2   4   6  255.03   12.51
  -2   4   6  214.83   13.37
   2  -4   6  232.83   12.47
   2  -4   6  239.40   13.02
  -2  -4  -6  258.40   12.26
   2   4   6  264.92   13.16
  -2   4  -6  251.83   12.52
   2  -4  -6  245.20   12.21
  -2  -4   6  239.93   12.57
  -2  -4   6  249.33   12.22
   3  -4   6    6.40    0.83
   3   4  -6    6.94    1.28
  -3   4   6    6.06    0.90
   3  -4   6    5.88    1.21
  -3  -4  -6    6.52    0.87
  -3  -4   6    6.57    0.92
   3  -4  -6    7.38    0.86
   3  -4  -6    7.15    1.32
   3   4   6    7.42    1.09
  -3   4  -6    6.80    0.84
  -3  -4   6    9.22    0.79
  -4  -4  -6   75.47    4.17
   4   4  -6   71.76    4.89
  -4   4   6   72.82    4.35
   4  -4   6   76.54    4.50
   4  -4   6   71.61    4.37
  -4  -4   6   73.99    4.30
   4   4   6   83.31    4.64
   4  -4  -6   76.93    4.75
  -4   4  -6   76.14    4.17
   4  -4  -6   76.56    4.18
  -5   4   6    2.05    0.99
   5  -4   6    3.81    1.35
   5  -4   6    1.57    0.93
  -5  -4  -6    0.96    0.87
   5   4  -6    3.72    1.42
   5   4   6    0.20    1.05
  -5  -4   6    3.67    0.97
   5  -4  -6    2.41    1.14
   5  -4  -6    2.96    1.03
  -5   4  -6    1.73    0.76
  -6  -4  -6   28.07    2.31
   6   4  -6   35.77    3.17
  -6   4   6   36.43    2.65
   6  -4   6   27.62    2.53
   6  -4   6   29.34    2.60
  -6   4  -6   31.75    2.26
   6  -4  -6   34.99    3.02
   6   4   6   30.14    2.71
  -6  -4   6   29.96    2.56
   7  -4   6    2.18    1.46
  -7  -4  -6    2.24    1.09
   7   4  -6    2.26    1.70
   7  -4   6    3.54    1.28
  -7   4   6    1.37    1.13
  -7   4  -6    2.75    1.03
  -7  -4   6    1.74    1.14
   7  -4  -6    4.64    1.52
   7   4   6    3.88    1.47
  -8  -4  -6   39.64    2.77
   8  -4   6   37.66    3.13
   8   4  -6   34.31    3.48
   8  -4   6   37.54    3.06
  -8   4   6   35.31    2.98
   8  -4  -6   34.87    3.22
  -8  -4   6   35.22    3.00
   8   4   6   27.23    3.02
  -9   4   6   -0.74    1.38
  -9  -4  -6    0.66    1.24
   9  -4   6   -2.37    1.44
   9   4  -6    0.96    1.92
   9  -4  -6   -0.80    1.54
   9   4   6    0.05    1.62
  -9  -4   6   -1.04    1.21
 -10  -4  -6   26.60    2.36
  10  -4   6   22.84    2.64
  10   4  -6   21.70    3.15
 -10   4   6   25.99    2.74
 -10  -4   6   33.85    2.92
  10  -4  -6   26.12    2.97
  10   4   6   17.12    2.90
 -11   4   6   -0.25    1.63
  11   4  -6   -0.93    2.19
 -11   4  -6    0.64    1.65
  11   4   6    2.60    2.14
  11  -4  -6    2.66    1.98
 -11  -4   6    0.66    1.82
   0  -5   6    0.74    0.81
   0  -5   6    0.08    0.55
   0   5  -6    0.02    0.67
   0   5   6   -0.48    0.44
   0   5   6   -0.32    0.67
   0  -5  -6    0.16    0.63
  -1   5   6    0.90    0.82
   1  -5   6    0.84    0.59
   1   5  -6    1.56    0.84
  -1  -5  -6    1.04    0.65
   1  -5   6    2.63    0.80
   1  -5   6    2.50    0.98
  -1   5   6    1.44    0.62
   1  -5  -6    1.87    0.67
   1   5   6   -0.30    0.64
   1   5   6    1.85    0.45
  -1  -5   6    0.42    0.68
  -1  -5   6    0.61    0.72
  -1   5  -6    0.26    0.77
   2  -5   6   14.56    1.65
  -2   5   6   12.56    1.25
  -2  -5  -6   14.23    1.23
   2  -5   6   11.64    1.17
  -2   5   6   16.07    1.87
   2   5  -6   14.26    1.58
  -2   5  -6   16.89    1.43
   2   5   6   16.76    1.47
   2   5   6   17.65    1.03
  -2  -5   6   13.25    1.35
   2  -5  -6   14.85    1.21
  -2  -5   6   14.75    1.22
  -3  -5  -6   11.47    1.13
   3  -5   6   10.86    1.04
  -3   5   6   11.08    1.19
   3  -5   6   11.75    1.58
   3   5  -6    7.66    1.47
  -3  -5   6   13.31    1.03
  -3  -5   6   12.18    1.29
   3  -5  -6   10.97    1.54
   3  -5  -6   12.13    1.13
   3   5   6   12.20    0.81
  -3   5  -6   12.09    1.17
   3   5   6    9.61    1.29
  -4   5   6    5.84    1.03
  -4  -5  -6    4.82    0.92
   4  -5   6    5.73    1.43
   4   5  -6    4.57    1.44
   4  -5   6    4.80    0.84
  -4  -5   6    3.51    0.93
  -4   5  -6    5.43    0.89
   4  -5  -6    5.83    1.03
  -4  -5   6    7.61    0.73
   4  -5  -6    4.95    1.28
   4   5   6    4.83    1.14
  -5   5   6   14.55    1.56
   5   5  -6   15.51    2.11
   5  -5   6   16.25    1.50
  -5  -5  -6   13.23    1.39
   5  -5   6   13.16    1.89
   5  -5  -6   13.25    1.65
  -5   5  -6   13.83    1.38
  -5  -5   6   15.86    1.56
   5  -5  -6   16.35    1.80
   5   5   6   13.77    1.76
   6  -5   6    6.93    1.72
   6   5  -6    9.49    1.98
   6  -5   6    8.83    1.35
  -6  -5  -6    6.32    1.20
  -6   5   6    7.00    1.30
  -6   5  -6    7.35    1.18
   6   5   6    6.01    1.52
   6  -5  -6    6.31    1.49
  -6  -5   6    9.19    1.37
   7   5  -6   -1.16    1.62
   7  -5   6    0.71    1.54
  -7   5   6    1.40    1.16
  -7  -5  -6    0.11    1.06
  -7  -5   6    1.33    1.13
   7  -5  -6    1.45    1.39
   7   5   6    1.30    1.39
  -7   5  -6   -0.08    1.05
   8   5  -6    3.66    1.99
  -8   5   6   -0.49    1.20
   8  -5   6    6.54    1.79
  -8  -5  -6    0.66    1.18
   8   5   6    2.79    1.61
  -8  -5   6    3.07    1.38
   8  -5  -6    0.84    1.44
  -8   5  -6    3.02    1.24
   9   5  -6    0.46    2.02
  -9  -5  -6    0.62    1.31
   9  -5   6    0.48    1.70
  -9   5   6    0.13    1.32
   9   5   6    2.78    1.75
   9  -5  -6    1.39    1.60
  -9  -5   6    2.23    1.34
  10  -5   6   -0.03    1.83
 -10   5   6   -0.72    1.58
  10   5  -6   -1.89    2.09
  10   5   6   -0.90    1.82
 -10  -5   6   -0.35    1.58
   0  -6  -6  506.05   25.04
   0  -6   6  512.47   25.64
   0   6  -6  501.18   26.70
   0   6   6  527.19   26.77
   0   6   6  482.78   25.40
   0  -6   6  497.00   25.15
  -1  -6  -6   10.20    1.12
  -1   6   6   11.60    1.37
   1  -6   6   10.89    1.40
   1   6  -6    9.94    1.29
  -1   6   6   10.98    1.08
  -1   6  -6   11.01    1.43
   1   6   6   11.61    0.95
  -1  -6   6   10.17    1.17
   1   6   6   10.53    1.22
   1  -6  -6    9.78    1.13
  -1  -6   6   11.76    1.26
   2   6  -6  145.92    9.37
  -2  -6  -6  173.83    8.65
   2  -6   6  172.26    8.94
  -2   6   6  145.02    9.49
   2  -6   6  167.48    9.10
  -2   6   6  167.84    8.81
  -2   6  -6  175.58    8.91
  -2  -6   6  164.76    9.01
  -2  -6   6  155.85    8.59
   2  -6  -6  167.63    8.63
   2   6   6  190.32    8.59
   2   6   6  182.52    9.27
   3  -6   6   33.58    2.26
  -3   6   6   35.21    2.47
   3  -6   6   32.53    2.85
   3   6  -6   36.39    3.02
  -3  -6  -6   38.99    2.43
  -3  -6   6   35.21    2.57
  -3  -6   6   34.91    2.28
   3  -6  -6   31.23    2.85
  -3   6  -6   37.62    2.46
   3   6   6   39.55    2.66
   3  -6  -6   36.98    2.41
  -4   6   6   15.63    1.67
  -4  -6  -6   17.41    1.52
   4  -6   6   15.29    2.05
   4   6  -6   16.40    2.17
   4  -6   6   16.60    1.50
   4  -6  -6   18.76    1.66
   4  -6  -6   23.13    2.00
  -4   6  -6   17.64    1.58
  -4  -6   6   18.69    1.75
   4   6   6   18.61    1.84
  -5  -6  -6   -1.09    0.89
  -5   6   6   -0.79    0.89
   5   6  -6    0.90    1.54
   5  -6   6    2.25    1.54
   5  -6  -6   -0.77    1.22
   5   6   6    0.06    1.09
  -5   6  -6    0.05    0.85
   5  -6  -6   -0.69    1.06
  -5  -6   6    0.15    0.83
   6  -6   6   13.35    2.20
   6   6  -6   17.80    2.50
  -6  -6  -6   13.67    1.55
  -6   6   6   13.74    1.75
  -6   6  -6   14.24    1.59
   6  -6  -6   16.85    1.92
   6   6   6   15.46    2.01
  -6  -6   6   16.41    1.75
   7   6  -6   14.01    2.37
   7  -6   6   15.88    2.30
  -7  -6  -6   11.45    1.48
  -7   6   6    7.34    1.61
  -7  -6   6   13.27    1.73
   7   6   6    7.61    1.83
   7  -6  -6   12.40    1.88
  -7   6  -6   10.30    1.49
  -8  -6  -6   31.06    2.67
   8   6  -6   31.29    3.51
   8  -6   6   30.98    3.10
  -8   6   6   29.36    2.76
  -8   6  -6   33.23    2.68
   8   6   6   24.73    2.87
   8  -6  -6   29.00    2.79
  -8  -6   6   31.72    2.77
  -9   6   6   -2.32    1.48
   9  -6   6   -0.96    1.85
  -9  -6  -6   -0.14    1.32
   9   6  -6   -1.53    2.06
  -9  -6   6    2.35    1.53
   9   6   6    4.12    1.85
 -10   6   6   27.27    2.95
  10   6  -6   25.65    3.43
  10  -6   6   23.45    3.00
  10   6   6   25.14    3.18
 -10  -6   6   31.02    2.98
   0  -7   6   -0.13    0.89
   0   7  -6    0.92    0.81
   0  -7   6    0.25    0.74
   0  -7  -6   -0.65    0.82
   0   7   6    1.43    0.68
   0   7   6    0.23    0.83
   1   7  -6    6.39    1.18
  -1   7   6    7.84    1.04
  -1   7   6    9.10    1.34
  -1  -7  -6    9.44    1.13
   1  -7   6    6.69    1.30
   1   7   6    7.95    1.13
  -1   7  -6    5.33    1.31
  -1  -7   6    6.94    1.07
  -1   7  -6    6.65    0.90
   1   7   6    6.79    0.86
   1  -7  -6    8.08    1.12
  -1  -7   6    7.09    1.10
  -2   7   6   10.90    1.75
   2  -7   6   11.46    1.18
  -2  -7  -6   11.59    1.27
   2   7  -6   10.76    1.54
   2  -7   6    9.78    1.58
  -2   7   6    8.75    1.17
  -2  -7   6   12.13    1.24
  -2   7  -6   10.30    1.42
   2   7   6   12.01    0.99
  -2  -7   6    9.12    1.30
   2  -7  -6   11.72    1.27
   2   7   6   11.81    1.37
   3  -7   6    0.72    1.27
  -3  -7  -6   -0.89    0.86
   3   7  -6    0.05    1.26
  -3   7   6   -0.69    0.88
   3   7   6    0.01    0.92
   3  -7  -6   -0.32    1.13
  -3   7  -6    0.00    0.86
  -3  -7   6    0.21    0.73
   3  -7  -6   -0.03    0.90
  -3  -7   6   -0.16    0.93
  -4   7   6    1.82    1.00
  -4  -7  -6    5.26    1.06
   4   7  -6    4.37    1.61
   4  -7   6    3.07    1.58
   4  -7  -6    4.29    1.22
  -4  -7   6    3.30    1.09
   4  -7  -6    4.84    1.33
  -4   7  -6    3.20    0.95
   4   7   6    4.65    1.23
  -5   7   6    0.54    1.07
   5   7  -6   -1.69    1.52
  -5  -7  -6    0.91    0.98
   5  -7   6   -0.49    1.54
   5  -7  -6    2.55    1.39
   5  -7  -6   -1.84    1.04
  -5  -7   6    1.23    1.07
  -5   7  -6    0.25    0.95
   5   7   6    0.04    1.14
  -6   7   6    0.90    1.19
   6   7  -6    3.43    1.90
   6  -7   6    2.26    1.78
  -6  -7  -6    1.92    1.10
   6   7   6    1.70    1.38
   6  -7  -6    0.71    1.24
  -6  -7   6    3.84    1.17
  -6   7  -6    4.77    1.18
  -7  -7  -6   -0.87    1.08
  -7   7   6   -1.78    1.24
   7   7  -6   -0.18    1.90
   7  -7   6   -0.75    1.85
  -7  -7   6    0.78    1.22
  -7   7  -6    0.44    1.11
   7   7   6   -0.61    1.40
  -8   7   6    2.43    1.45
   8  -7   6    8.64    2.29
  -8  -7  -6    1.67    1.30
   8   7  -6    4.89    2.32
  -8   7  -6    4.42    1.35
   8   7   6    3.93    1.77
  -8  -7   6    3.54    1.51
   9  -7   6    2.92    2.16
  -9  -7  -6   -0.47    1.38
  -9   7   6    1.73    1.74
   9   7  -6    0.19    2.17
   9   7   6    1.06    1.80
  -9  -7   6   -0.13    1.44
 -10   7   6    1.74    1.76
  10  -7   6   -0.64    2.25
  10   7  -6    2.39    2.46
  10   7   6   -0.14    1.94
 -10  -7   6    2.13    1.76
   0  -8  -6  116.74    6.41
   0   8  -6  111.48    6.68
   0  -8   6  114.30    6.51
   0  -8   6  120.50    6.73
   0   8   6  122.00    6.40
   0   8   6  131.52    6.87
  -1   8   6    1.12    0.80
  -1   8   6    0.94    1.13
   1   8  -6    0.66    1.09
  -1  -8  -6    3.46    1.04
   1  -8   6    0.47    1.16
   1  -8  -6   -0.15    0.96
  -1   8  -6    0.28    1.07
   1   8   6   -0.14    0.66
  -1  -8   6    2.09    0.88
  -1  -8   6    1.60    1.02
   1   8   6    1.10    0.98
   2   8  -6  203.18   12.34
  -2   8   6  235.20   11.69
   2  -8   6  220.83   11.70
  -2  -8  -6  237.36   11.48
  -2   8   6  207.50   12.47
   2   8   6  232.52   12.24
   2   8   6  232.83   11.44
  -2  -8   6  221.83   11.47
   2  -8  -6  219.20   11.45
  -2  -8   6  223.43   11.82
  -2   8  -6  220.78   11.83
  -3  -8  -6    0.74    0.99
  -3   8   6    1.08    1.02
   3  -8   6   -0.75    1.30
   3   8  -6    1.36    1.47
  -3  -8   6   -0.15    0.89
   3  -8  -6   -0.03    1.07
   3  -8  -6    1.54    1.21
   3   8   6   -0.06    1.01
  -3   8  -6    0.25    1.05
  -3  -8   6    2.93    1.07
  -4   8   6   79.97    4.69
   4  -8   6   74.18    4.99
  -4  -8  -6   80.47    4.45
   4   8  -6   70.95    5.28
  -4   8  -6   75.28    4.56
   4  -8  -6   77.49    4.85
   4   8   6   80.19    4.86
  -4  -8   6   69.99    4.86
   4  -8  -6   77.76    4.58
  -5  -8  -6   -0.45    1.07
   5  -8   6    0.74    1.70
  -5   8   6   -2.92    0.96
   5   8  -6    1.26    1.77
  -5  -8   6    1.15    1.19
   5  -8  -6    0.16    1.44
   5   8   6    0.24    1.23
  -5   8  -6    0.46    1.01
  -6   8   6   91.63    5.14
  -6  -8  -6   83.47    4.84
   6   8  -6   83.22    5.97
   6  -8   6   81.38    5.52
  -6   8  -6   76.03    4.89
   6  -8  -6   83.83    5.31
   6   8   6   80.36    5.35
  -6  -8   6   88.09    5.26
   7  -8   6   -2.67    1.88
  -7  -8  -6    0.42    1.19
   7   8  -6    1.60    2.02
  -7   8   6   -0.52    1.30
  -7  -8   6    0.03    1.29
  -7   8  -6   -0.10    1.12
   7   8   6    0.50    1.49
  -8  -8  -6   52.07    3.55
   8  -8   6   51.84    4.44
   8   8  -6   50.09    4.63
  -8   8   6   53.87    3.95
  -8   8  -6   49.66    3.59
   8   8   6   44.43    4.05
  -8  -8   6   56.06    3.98
   9  -8   6    6.06    2.50
  -9  -8  -6    5.12    1.54
   9   8  -6    2.10    2.33
  -9   8   6    2.78    1.85
  -9  -8   6    3.62    1.72
   9   8   6    2.28    1.92
  -9   8  -6    3.14    1.48
  10   8  -6   11.47    3.12
  10  -8   6   14.32    2.89
 -10   8   6   13.80    2.40
 -10  -8   6   15.74    2.40
  10   8   6    9.85    2.51
   0   9  -6   -0.97    1.13
   0   9   6   -0.47    0.84
   0  -9   6   -0.68    1.06
   0  -9  -6    1.10    1.18
   0   9   6    1.83    1.16
  -1   9   6    5.76    1.41
  -1   9   6    3.20    0.99
  -1  -9  -6    2.15    1.21
   1  -9   6    2.46    1.32
  -1  -9   6    4.70    1.11
   1  -9  -6    4.07    1.22
   1   9   6    1.96    0.82
  -1   9  -6    2.82    1.42
   1   9   6    4.00    1.25
  -1  -9   6    4.54    1.19
  -2   9   6   36.51    2.66
   2   9  -6   33.89    2.88
   2  -9   6   36.28    3.03
  -2  -9  -6   35.98    2.71
  -2   9   6   35.14    3.21
  -2   9  -6   32.29    2.77
  -2  -9   6   32.99    2.72
   2   9   6   41.37    2.84
   2  -9  -6   37.94    2.75
  -2  -9   6   36.63    2.79
   2   9   6   35.30    2.31
  -3   9   6    4.21    1.18
   3   9  -6    1.80    1.59
  -3  -9  -6    4.43    1.23
   3  -9   6    4.79    1.57
  -3  -9   6    4.92    1.31
   3   9   6    2.68    1.24
  -3  -9   6    5.27    1.21
   3  -9  -6    2.85    1.27
  -3   9  -6    6.05    1.28
  -4  -9  -6    5.99    1.31
   4   9  -6    6.01    1.89
  -4   9   6    5.26    1.33
   4  -9   6    7.93    1.86
   4  -9  -6    8.43    1.56
  -4  -9   6    5.30    1.44
   4   9   6    5.96    1.50
  -4   9  -6    6.84    1.40
   5   9  -6    7.99    2.12
   5  -9   6   13.81    2.23
  -5  -9  -6    9.38    1.48
  -5   9   6   12.60    1.85
  -5   9  -6    8.43    1.52
   5   9   6   13.11    1.85
   5  -9  -6    9.27    1.82
  -5  -9   6   10.15    1.82
  -6   9   6   -0.45    1.24
   6   9  -6   -2.46    1.85
  -6  -9  -6    0.51    1.23
   6  -9   6    0.64    1.92
  -6  -9   6    0.14    1.24
   6   9   6   -0.19    1.42
  -6   9  -6    0.71    1.18
   6  -9  -6   -0.45    1.69
  -7  -9  -6   -2.90    1.17
   7  -9   6   -1.72    2.07
  -7   9   6   -0.56    1.32
   7   9  -6   -1.50    2.00
  -7  -9   6   -0.21    1.41
  -7   9  -6   -0.97    1.23
   7   9   6    0.23    1.56
   8   9  -6    3.59    2.35
   8  -9   6    4.50    2.39
  -8  -9  -6    6.66    1.56
  -8   9   6    5.65    1.69
  -8   9  -6    5.28    1.51
  -8  -9   6    4.13    1.77
   8   9   6    2.09    1.83
   9  -9   6    3.31    2.50
   9   9  -6    2.67    2.59
  -9   9   6   -1.13    1.82
  -9  -9  -6    1.14    1.48
  -9  -9   6    1.15    1.70
   9   9   6    1.91    1.95
  -9   9  -6    1.74    1.50
   0 -10   6   42.64    3.27
   0  10   6   41.85    2.83
   0  10  -6   41.84    3.48
   0 -10  -6   43.28    3.09
   0  10   6   46.40    3.40
  -1  10   6   13.06    1.56
  -1 -10  -6   15.37    1.77
   1 -10   6   14.03    1.90
  -1 -10   6   16.71    1.91
   1  10   6   16.50    1.50
   1  10   6   14.70    1.88
   1 -10  -6   13.62    1.73
  -1  10  -6   13.62    2.09
  -1 -10   6   12.78    1.77
  -2  10   6   29.47    2.42
   2 -10   6   26.83    2.53
  -2 -10  -6   23.79    2.24
  -2  10  -6   22.95    2.46
  -2 -10   6   27.51    2.41
   2  10   6   30.79    2.61
   2 -10  -6   27.29    2.27
  -2 -10   6   26.58    2.35
  -3 -10  -6   17.71    1.94
  -3  10   6   20.44    2.08
   3 -10   6   18.14    2.26
   3  10  -6   16.96    2.39
  -3 -10   6   20.91    1.94
  -3 -10   6   21.75    2.13
   3 -10  -6   17.76    1.94
  -3  10  -6   20.29    2.24
   3  10   6   20.41    2.13
  -4 -10  -6   61.31    3.85
   4  10  -6   49.43    4.64
   4 -10   6   59.71    4.28
  -4  10   6   61.30    3.96
   4 -10  -6   56.16    3.91
  -4  10  -6   60.05    3.86
  -4 -10   6   55.16    4.07
   4  10   6   61.23    4.09
  -5  10   6    1.32    1.25
  -5 -10  -6   -0.63    1.22
   5 -10   6    0.71    1.73
   5  10  -6    0.06    1.88
   5  10   6    0.48    1.41
   5 -10  -6    2.23    1.64
  -5  10  -6    0.60    1.20
  -5 -10   6   -0.58    1.23
   6  10  -6   28.14    3.38
  -6 -10  -6   34.04    2.91
   6 -10   6   35.63    3.50
  -6  10   6   38.24    3.22
  -6 -10   6   37.75    3.26
  -6  10  -6   29.94    2.68
   6 -10  -6   37.77    3.28
   6  10   6   36.38    3.19
   7  10  -6    6.34    2.37
  -7 -10  -6    4.57    1.52
  -7  10   6    4.75    1.82
   7 -10   6    4.82    2.32
  -7  10  -6    3.20    1.46
  -7 -10   6    5.27    1.84
   7  10   6    4.21    1.82
  -8  10   6   12.38    2.26
   8  10  -6    9.16    2.82
   8 -10   6    7.91    2.64
  -8 -10  -6   11.23    1.84
   8  10   6    5.32    2.08
  -8  10  -6    8.64    1.82
  -8 -10   6   14.93    2.35
  -9 -10  -6    1.99    1.64
   9 -10   6    0.83    2.57
  -9  10   6   -1.48    1.84
   9  10  -6   -3.39    2.45
  -9 -10   6    3.68    1.96
  -9  10  -6    0.96    1.49
   9  10   6    0.00    2.00
   0  11  -6   -0.61    1.41
   0  11   6    0.43    0.94
   0 -11   6    0.34    1.47
   0 -11  -6   -0.32    1.35
  -1 -11  -6   -1.59    1.33
   1 -11   6    0.37    1.43
   1  11  -6    1.99    1.50
  -1  11   6    0.33    1.01
  -1  11  -6   -1.04    1.45
   1  11   6    0.39    1.39
  -1 -11   6    1.19    1.40
   1  11   6    0.30    0.91
   1 -11  -6    0.05    1.36
  -2 -11  -6    4.27    1.51
  -2  11   6    8.03    1.45
   2 -11   6    7.97    1.74
   2  11   6    8.16    1.67
   2 -11  -6    5.29    1.53
  -2 -11   6    8.36    1.56
  -2 -11   6    4.33    1.52
  -2  11  -6    6.48    1.64
   3 -11   6    2.44    1.60
  -3 -11  -6    2.37    1.38
  -3  11   6    0.79    1.21
  -3 -11   6   -1.65    1.00
  -3 -11   6   -1.23    1.28
  -3  11  -6    2.55    1.49
   3  11   6    1.45    1.37
   3 -11  -6    0.27    1.35
  -4  11   6    2.17    1.24
   4 -11   6    0.64    1.64
  -4 -11  -6   -0.35    1.34
  -4 -11   6    1.95    1.22
  -4  11  -6    3.07    1.40
   4 -11  -6    2.28    1.54
   4  11   6    3.41    1.56
  -5 -11  -6    2.73    1.43
   5  11  -6    2.22    2.03
  -5  11   6    1.41    1.48
   5 -11   6    4.59    1.98
  -5  11  -6    4.39    1.53
   5 -11  -6    0.55    1.74
   5  11   6    1.40    1.61
  -5 -11   6    0.36    1.40
  -6  11   6    3.26    1.64
   6 -11   6    1.55    2.03
   6  11  -6    1.32    2.14
  -6 -11  -6    0.65    1.46
   6 -11  -6    3.28    2.03
   6  11   6   -0.19    1.62
  -6 -11   6    0.22    1.53
  -6  11  -6    2.04    1.41
   7  11  -6   -3.01    2.16
  -7  11   6   -0.04    1.68
   7 -11   6   -1.76    2.14
  -7 -11  -6    0.65    1.51
   7  11   6    1.54    1.81
  -7 -11   6   -0.10    1.67
  -7  11  -6   -1.16    1.38
  -8  11   6    1.26    1.82
  -8 -11  -6    0.34    1.59
   8  11  -6    1.80    2.47
   8 -11   6    0.35    2.52
  -8 -11   6    1.62    1.82
  -8  11  -6   -0.91    1.46
   8  11   6    0.38    1.97
   0 -12   6   74.81    4.78
   0  12  -6   71.75    4.92
   0  12   6   67.12    4.22
   0 -12  -6   72.62    4.57
  -1 -12  -6   -1.54    1.35
   1  12  -6    1.08    1.51
  -1  12   6   -0.13    1.06
   1 -12   6    1.49    1.62
   1  12   6   -0.01    0.93
  -1 -12   6   -0.11    1.46
   1 -12  -6    0.82    1.40
  -1  12  -6    1.03    1.68
  -2 -12  -6   34.17    3.00
   2 -12   6   40.20    3.35
   2  12  -6   38.96    3.34
  -2  12   6   40.39    2.97
  -2  12  -6   37.56    3.36
  -2 -12   6   42.21    3.43
   2 -12  -6   39.38    3.17
  -3 -12  -6    3.47    1.55
  -3  12   6    4.24    1.45
   3 -12   6    2.84    1.76
   3 -12  -6    4.05    1.65
  -3 -12   6    5.63    1.43
   3  12   6    1.25    1.54
  -3  12  -6    3.89    1.69
  -3 -12   6    5.71    1.56
   4 -12   6   55.39    4.10
  -4 -12  -6   48.71    3.69
  -4  12   6   54.26    3.66
   4  12   6   50.39    4.02
   4 -12  -6   50.26    3.85
  -4 -12   6   53.58    3.91
  -5  12   6    2.25    1.55
  -5 -12  -6    0.97    1.53
   5 -12   6   -0.82    1.81
  -5 -12   6    3.29    1.55
   5  12   6    3.84    1.78
  -5  12  -6    0.44    1.51
   5 -12  -6    2.60    1.83
  -6 -12  -6   29.09    2.72
   6 -12   6   29.68    3.34
  -6  12   6   28.19    2.97
   6  12   6   32.50    3.29
  -6  12  -6   32.23    2.92
   6 -12  -6   35.12    3.40
  -6 -12   6   34.34    3.09
   7  12  -6    2.11    2.43
  -7  12   6    0.51    1.74
  -7 -12  -6   -1.49    1.54
   7 -12   6    1.70    2.40
   7  12   6    5.21    2.03
  -7  12  -6    0.99    1.57
  -7 -12   6   -0.75    1.63
   8  12  -6    7.86    3.04
  -8 -12  -6   12.45    2.06
   8 -12   6    8.65    2.93
  -8  12   6    8.36    2.32
  -8  12  -6    7.74    2.00
  -8 -12   6    9.49    2.24
   8  12   6    9.47    2.44
   0  13  -6    3.82    1.84
   0 -13   6   -1.30    1.63
   0 -13  -6   -1.20    1.46
   0  13   6   -0.59    1.00
  -1  13   6    0.48    1.14
   1 -13   6   -0.80    1.69
  -1 -13  -6   -0.46    1.55
   1  13  -6    1.90    1.73
  -1 -13   6    0.27    1.63
   1 -13  -6   -1.90    1.50
  -1  13  -6   -0.29    1.65
   2 -13   6    8.68    2.03
   2  13  -6   11.48    2.02
  -2  13   6   12.26    1.74
  -2 -13  -6    9.56    1.85
   2 -13  -6    9.14    1.86
  -2 -13   6   11.79    2.02
  -2  13  -6    8.56    2.07
  -3  13   6    0.08    1.28
   3 -13   6    0.14    1.71
  -3 -13  -6    2.94    1.67
  -3 -13   6    0.38    1.45
  -3 -13   6    1.25    1.55
   3 -13  -6    1.38    1.66
  -3  13  -6   -0.85    1.50
   4 -13   6    2.63    1.91
  -4  13   6    1.98    1.51
  -4 -13  -6    3.14    1.69
  -4  13  -6    3.54    1.78
  -4 -13   6    3.80    1.59
   4 -13  -6    0.72    1.78
   5 -13   6    1.46    1.98
  -5 -13  -6    2.01    1.68
  -5  13   6    3.40    1.61
   5 -13  -6    4.06    1.99
   5  13   6    4.44    1.97
  -5  13  -6    2.14    1.69
  -5 -13   6    0.85    1.55
  -6 -13  -6   -1.40    1.62
   6 -13   6    0.22    2.16
  -6  13   6    1.76    1.71
   6 -13  -6   -0.09    2.20
  -6  13  -6    0.57    1.66
  -6 -13   6   -2.28    1.49
   6  13   6    0.03    1.94
  -7 -13  -6    0.79    1.72
  -7  13   6   -1.67    1.75
   7 -13   6    1.78    2.40
  -7 -13   6   -0.23    1.66
   7  13   6   -1.28    2.12
  -7  13  -6   -0.48    1.65
   0  14   6   15.51    1.82
   0  14  -6   15.07    2.36
   0 -14  -6   13.29    2.09
   0 -14   6   11.12    2.28
   1  14  -6   -0.53    1.54
  -1 -14  -6   -0.65    1.63
   1 -14   6   -2.16    1.76
  -1  14   6    0.90    1.24
  -1  14  -6    1.01    1.80
   1 -14  -6    1.45    1.68
  -1 -14   6    1.99    1.79
   2  14  -6   34.27    3.14
  -2 -14  -6   30.76    2.78
   2 -14   6   25.45    2.94
  -2  14   6   23.14    2.52
   2 -14  -6   27.58    2.72
  -2  14  -6   20.88    2.85
  -2 -14   6   32.16    2.93
   3  14  -6    1.53    1.51
  -3 -14  -6    1.27    1.68
   3 -14   6    5.97    2.04
  -3  14   6    1.33    1.49
   3 -14  -6    2.32    1.83
  -3 -14   6    4.29    1.80
  -3  14  -6    2.62    1.91
  -4  14   6   23.45    2.55
   4 -14   6   24.93    2.91
  -4 -14  -6   23.28    2.58
   4 -14  -6   25.78    2.80
  -4  14  -6   18.81    2.76
  -4 -14   6   20.37    2.55
  -5  14   6   -0.46    1.55
   5 -14   6   -0.80    2.07
  -5 -14  -6   -0.55    1.74
  -5  14  -6    0.98    1.83
   5 -14  -6    1.91    2.15
  -5 -14   6    0.11    1.62
  -6  14   6   26.72    2.98
  -6 -14  -6   27.28    2.81
   6 -14   6   30.65    3.43
   6 -14  -6   31.02    3.46
  -6 -14   6   25.95    2.87
  -6  14  -6   24.01    2.85
   0 -15   6    2.51    1.96
   0 -15  -6    1.18    1.75
   0  15  -6    1.25    1.93
  -1  15   6   -0.55    1.34
   1 -15   6    2.35    2.02
   1  15  -6   -2.74    1.55
  -1 -15  -6    3.93    1.86
  -1  15  -6   -0.13    1.76
   1 -15  -6    3.78    1.85
  -1 -15   6    4.73    2.02
  -2  15   6    1.11    1.40
   2  15  -6    1.84    1.71
  -2 -15  -6    1.33    1.77
   2 -15   6   -1.13    1.89
  -2  15  -6   -0.19    1.92
   2 -15  -6   -1.07    1.81
  -2 -15   6    0.52    1.92
  -3 -15  -6    1.70    1.86
  -3  15   6   -0.29    1.45
   3 -15   6   -0.19    1.98
   3  15  -6    2.32    1.62
   3 -15  -6   -0.53    1.85
  -3  15  -6    0.48    1.98
  -4 -15  -6   -0.98    1.78
  -4  15   6    1.40    1.63
   4 -15   6    1.13    2.07
   4  15  -6    3.22    1.77
   4 -15  -6    0.67    2.02
  -4  15  -6    0.59    2.03
   5 -15   6    2.22    2.27
  -5  15   6   -1.06    1.46
  -5 -15  -6    0.20    1.88
   5 -15  -6    2.33    2.34
  -5 -15   6    2.16    1.81
  -5  15  -6    1.49    2.04
   0 -16   6   36.94    3.56
   0  16  -6   31.61    3.53
   0 -16  -6   31.80    3.18
   1 -16   6    0.25    2.07
  -1 -16  -6   -2.43    1.81
   1  16  -6    2.71    2.02
  -1  16  -6   -2.96    1.80
   1 -16  -6   -2.10    1.87
  -1 -16   6    1.44    2.00
  -2 -16  -6   19.54    2.66
  -2  16   6   18.84    2.32
   2 -16   6   21.45    3.00
   2  16  -6   23.98    2.95
  -2 -16   6   23.94    2.89
   2 -16  -6   20.91    2.71
  -2  16  -6   12.83    2.90
   3  16  -6   -1.28    1.72
  -3  16   6    2.38    1.65
  -3 -16  -6    1.48    1.98
   3 -16   6    4.50    2.25
  -3  16  -6   -1.21    2.15
   3 -16  -6    2.30    2.13
   0  17  -6   -0.34    1.90
   0   0   7    0.15    0.34
   0   0   7    0.03    0.59
   0   0  -7   -0.41    0.38
   1   0   7   -0.55    0.53
   1   0  -7   -0.06    0.36
  -1   0   7    0.17    0.41
  -1   0   7   -0.34    0.79
  -1   0  -7    0.50    0.47
   1   0   7    0.27    0.38
  -2   0  -7   -0.22    0.33
  -2   0  -7    0.20    0.52
  -2   0   7   -0.19    0.48
   2   0  -7    0.03    0.32
   2   0   7   -0.51    0.60
   3   0  -7   -0.64    0.86
  -3   0  -7    0.00    0.29
   3   0   7    0.38    0.67
  -3   0   7    0.04    0.58
  -3   0  -7   -0.17    0.60
   4   0  -7   -0.13    0.96
  -4   0  -7   -0.49    0.34
  -4   0  -7   -0.10    0.68
   4   0   7    0.24    0.83
  -4   0   7   -0.25    0.66
   5   0  -7    0.06    1.11
  -5   0   7   -1.08    0.70
   5   0   7   -0.36    0.98
  -5   0  -7    0.45    0.81
  -6   0  -7   -0.75    0.94
   6   0  -7    0.51    1.31
  -6   0   7   -0.98    0.91
   6   0   7   -0.18    1.15
  -7   0   7   -0.13    1.10
  -7   0  -7   -0.69    1.08
   7   0   7   -0.53    1.28
   7   0  -7    1.47    1.45
  -8   0   7    1.21    1.25
  -8   0  -7    0.74    1.16
   8   0  -7   -0.14    1.49
   8   0   7    1.13    1.55
  -9   0   7   -2.07    1.34
  -9   0  -7    0.98    1.36
   9   0  -7   -0.62    1.67
   9   0   7   -0.51    1.66
 -10   0   7   -0.03    1.52
  10   0   7    0.36    1.84
  10   0  -7   -1.47    1.80
 -10   0  -7   -1.04    1.41
  11   0   7   -2.43    1.99
 -11   0   7   -0.66    1.69
  11   0  -7   -1.66    2.03
   0  -1   7    0.05    0.39
   0  -1   7    0.73    0.46
   0   1   7    1.01    0.65
   0   1   7    0.26    0.35
   0  -1   7    0.77    0.65
   0  -1  -7   -0.30    0.40
   1  -1   7  185.07    9.95
  -1   1   7  180.96   10.10
   1   1  -7  187.58    9.13
  -1   1   7  180.07    9.39
   1  -1   7  178.83    9.27
   1  -1   7  194.24    9.46
  -1  -1  -7  186.68    9.22
   1   1   7  182.56    9.94
  -1  -1   7  192.76    9.45
  -1  -1   7  185.71   10.20
   1  -1  -7  189.19    9.14
   1   1   7  157.49    9.27
   2   1  -7    2.34    0.37
   2  -1   7    2.79    0.71
   2  -1   7    1.51    0.66
  -2  -1  -7    2.59    0.61
  -2   1   7    3.65    1.19
   2   1  -7    0.95    0.89
  -2   1   7    2.21    0.59
  -2  -1   7    2.45    0.57
  -2   1  -7    2.62    0.49
   2  -1  -7    2.70    0.44
   2   1   7    2.21    0.70
  -3   1   7  110.65    5.70
  -3  -1  -7  105.42    5.50
   3  -1   7  105.67    5.59
   3   1  -7   94.45    6.20
   3  -1   7  106.27    5.97
   3   1   7  102.81    5.97
   3  -1  -7  110.10    5.29
   3  -1  -7   91.25    6.20
  -3   1  -7  107.92    5.43
  -3  -1   7  106.80    5.66
   4  -1   7   35.13    2.53
   4  -1   7   38.63    2.72
   4   1  -7   34.97    3.12
  -4   1   7   40.44    2.54
  -4  -1  -7   37.57    2.45
  -4  -1   7   37.70    2.56
   4  -1  -7   37.42    3.11
  -4   1  -7   40.37    2.20
   4   1   7   36.57    2.74
   5   1  -7   78.30    5.16
   5  -1   7   80.15    4.79
   5  -1   7   73.30    4.41
  -5  -1  -7   76.82    4.34
  -5   1   7   75.70    4.48
   5   1   7   72.85    4.78
   5  -1  -7   76.81    5.08
  -5   1  -7   78.94    4.17
  -5  -1   7   82.82    4.56
   6  -1   7   -0.30    1.08
  -6  -1  -7    0.79    0.94
   6   1  -7    0.27    1.32
  -6   1   7   -0.19    1.00
  -6  -1   7    0.88    0.98
   6  -1  -7   -0.23    1.27
  -6   1  -7    1.24    0.98
   6   1   7    0.11    1.16
   7  -1   7   25.90    2.59
   7   1  -7   31.49    3.04
  -7  -1  -7   30.32    2.46
  -7   1   7   27.77    2.45
  -7   1  -7   27.35    2.25
   7   1   7   26.58    2.68
   7  -1  -7   30.68    2.90
  -7  -1   7   29.40    2.45
   8  -1   7   -1.86    1.31
  -8   1   7    0.21    1.22
   8   1  -7    1.72    1.66
  -8  -1  -7   -0.42    1.14
  -8   1  -7    0.64    1.18
   8  -1  -7    0.54    1.59
   8   1   7    0.34    1.52
  -8  -1   7    0.74    1.22
  -9   1   7   36.84    3.15
   9  -1   7   30.27    3.30
  -9  -1  -7   41.29    3.07
   9   1  -7   41.52    3.75
  -9   1  -7   37.29    3.09
  -9  -1   7   37.62    3.21
   9   1   7   35.26    3.48
   9  -1  -7   38.72    3.54
  10   1  -7    1.04    1.96
  10  -1   7    0.60    1.85
 -10   1   7   -0.28    1.57
 -10  -1  -7    2.86    1.52
 -10  -1   7    1.59    1.49
 -10   1  -7    0.75    1.51
  10   1   7   -0.32    1.84
  10  -1  -7   -2.00    1.70
  11   1  -7   13.72    2.83
 -11   1   7   17.86    2.53
  11  -1   7   17.87    2.88
 -11   1  -7   17.08    2.20
 -11  -1   7   17.76    2.51
  11  -1  -7   19.69    2.94
  11   1   7   15.86    2.87
   0  -2   7    2.59    0.80
   0  -2   7    1.07    0.53
   0  -2  -7    0.98    0.48
   0   2   7    1.70    0.43
   0   2   7    2.56    0.74
   0  -2   7    1.30    0.56
  -1   2   7    2.46    0.89
  -1   2   7    2.11    0.54
  -1  -2  -7    1.64    0.53
   1  -2   7    2.23    0.67
   1  -2   7    2.32    0.68
   1  -2   7    2.69    0.57
   1   2   7    1.97    0.70
  -1  -2   7    1.96    0.50
  -1  -2   7    0.87    0.50
  -1  -2   7    1.57    0.96
   1   2   7    1.42    0.34
   1  -2  -7    1.81    0.48
  -2   2   7    1.79    1.12
  -2  -2  -7    0.84    0.58
   2   2  -7    1.88    0.93
  -2   2   7    1.07    0.60
   2  -2   7    2.01    0.66
   2  -2   7    1.77    0.73
   2  -2  -7    1.59    0.49
   2   2   7    2.70    0.76
  -2  -2   7    1.55    0.55
  -2   2  -7    1.91    0.55
  -2  -2   7    2.48    0.42
  -3  -2  -7  111.71    5.64
   3  -2   7  106.72    6.05
   3  -2   7  106.13    5.75
   3   2  -7   97.67    6.31
  -3   2   7  114.86    5.84
   3  -2  -7   87.55    6.34
   3  -2  -7  111.60    5.47
   3   2   7  113.33    6.14
  -3   2  -7  109.25    5.60
  -3  -2   7  106.87    5.79
  -4  -2  -7   92.45    4.90
   4  -2   7   94.62    5.29
  -4   2   7   98.30    5.08
   4   2  -7   82.93    5.57
   4  -2   7   91.93    5.05
  -4   2  -7   95.29    4.82
   4   2   7   85.08    5.32
   4  -2  -7   85.81    4.71
  -4  -2   7   90.15    5.05
   4  -2  -7   87.25    5.63
   5  -2   7    6.91    1.28
   5   2  -7    7.58    1.55
  -5  -2  -7    4.86    1.02
  -5   2   7    5.54    1.16
   5  -2   7    4.75    1.19
  -5   2  -7    5.87    0.82
   5   2   7    5.72    1.28
  -5  -2   7    6.93    1.05
   5  -2  -7    5.00    1.40
  -6  -2  -7   24.94    1.96
   6   2  -7   29.44    2.78
   6  -2   7   23.50    2.27
  -6   2   7   26.03    2.20
   6  -2   7   24.49    2.16
   6  -2  -7   25.44    2.55
  -6  -2   7   23.70    2.12
   6   2   7   21.75    2.31
   7   2  -7   14.35    2.23
   7  -2   7   13.29    1.90
  -7  -2  -7   16.51    1.67
   7  -2   7   11.83    1.72
  -7   2   7   13.16    1.75
  -7  -2   7   15.76    1.82
   7  -2  -7   14.68    2.16
   7   2   7   15.86    2.04
  -8  -2  -7    3.73    1.31
  -8   2   7    4.71    1.50
   8  -2   7    1.68    1.51
   8   2  -7    6.68    1.91
  -8   2  -7    3.99    1.34
   8   2   7    5.83    1.74
  -8  -2   7    3.51    1.33
   8  -2  -7    2.12    1.64
  -9   2   7    2.17    1.51
   9  -2   7    2.08    1.65
   9   2  -7    0.63    1.76
  -9  -2  -7    0.06    1.33
   9  -2  -7    0.95    1.70
  -9   2  -7    0.06    1.35
   9   2   7    1.16    1.76
  -9  -2   7   -0.72    1.39
  10   2  -7    4.26    2.17
 -10  -2  -7    0.59    1.49
  10  -2   7    1.97    1.84
 -10   2   7    4.29    1.68
  10  -2  -7    0.92    1.80
 -10  -2   7    3.42    1.70
  10   2   7    3.84    2.01
 -10   2  -7    0.76    1.51
  11   2  -7    1.20    2.24
 -11   2   7   -3.29    1.61
 -11   2  -7   -1.10    1.61
 -11  -2   7    1.04    1.77
  11  -2  -7   -0.68    2.00
  11   2   7    0.50    2.11
   0   3   7   -0.28    0.64
   0  -3  -7   -0.57    0.49
   0   3   7   -0.52    0.42
   0  -3   7   -0.28    0.78
   0  -3   7    0.09    0.65
   0  -3   7    0.42    0.60
  -1  -3  -7  349.55   17.80
   1   3  -7  372.72   19.22
   1  -3   7  353.77   19.07
   1  -3   7  373.69   17.96
  -1   3   7  364.48   19.21
   1  -3   7  359.77   18.23
  -1   3   7  376.41   18.14
   1  -3  -7  359.27   17.76
  -1  -3   7  354.82   18.23
   1   3   7  382.61   19.13
  -1  -3   7  358.68   17.82
   1   3   7  300.30   17.97
  -2   3   7   27.91    2.64
  -2   3   7   31.52    2.11
   2   3  -7   30.16    2.57
   2  -3   7   29.87    2.26
   2  -3   7   31.03    2.16
  -2  -3  -7   33.21    2.05
   2  -3  -7   30.75    1.96
   2   3   7   34.94    2.31
  -2  -3   7   32.14    2.22
  -2   3  -7   33.22    2.06
  -2  -3   7   30.95    1.93
  -3  -3  -7  352.13   16.80
   3  -3   7  340.76   16.99
  -3   3   7  356.68   17.19
   3   3  -7  301.49   18.18
   3  -3   7  335.99   17.92
   3   3   7  341.69   18.02
  -3   3  -7  345.40   17.03
  -3  -3   7  341.09   17.18
   3  -3  -7  349.67   16.69
   3  -3  -7  287.41   18.18
  -4  -3  -7    4.38    0.88
  -4   3   7    3.35    0.93
   4  -3   7    4.51    0.96
   4   3  -7    3.35    1.28
   4  -3   7    3.86    1.13
  -4   3  -7    3.95    0.71
  -4  -3   7    2.84    0.81
   4   3   7    3.02    1.03
   4  -3  -7    4.46    0.81
   4  -3  -7    3.73    1.29
   5   3  -7   39.45    3.56
  -5  -3  -7   40.70    2.68
  -5   3   7   43.92    2.92
   5  -3   7   41.97    2.96
   5  -3   7   42.03    2.97
   5  -3  -7   39.72    3.37
  -5  -3   7   40.06    2.75
   5   3   7   34.86    2.94
  -5   3  -7   43.03    2.57
   6  -3   7    1.70    1.17
  -6   3   7   -0.84    0.95
  -6  -3  -7    1.87    1.03
   6  -3   7   -0.66    1.18
   6   3  -7    2.38    1.51
  -6  -3   7    0.71    0.98
   6   3   7    1.72    1.26
  -6   3  -7    0.97    0.81
   6  -3  -7    2.71    1.46
  -7   3   7   41.39    3.01
   7   3  -7   43.96    3.83
  -7  -3  -7   42.57    3.00
   7  -3   7   41.29    3.17
   7  -3   7   41.16    3.29
   7   3   7   40.60    3.50
  -7  -3   7   41.92    3.16
   7  -3  -7   42.15    3.76
   8  -3   7    0.30    1.41
   8   3  -7    3.23    1.77
  -8   3   7    1.09    1.33
  -8  -3  -7    2.44    1.27
   8  -3   7    0.93    1.44
   8  -3  -7    0.82    1.53
  -8  -3   7    2.47    1.26
   8   3   7    1.52    1.61
   9   3  -7   18.82    2.91
  -9  -3  -7   20.72    2.11
   9  -3   7   23.90    2.57
  -9   3   7   21.64    2.45
   9   3   7   17.42    2.61
   9  -3  -7   20.23    2.61
  -9  -3   7   20.88    2.35
 -10   3   7    1.09    1.65
 -10  -3  -7   -0.09    1.48
  10   3  -7    0.01    2.10
  10   3   7    0.26    1.90
  10  -3  -7    1.06    1.82
 -10   3  -7   -2.02    1.49
 -10  -3   7   -0.48    1.62
 -11   3   7   18.21    2.51
  11   3  -7   16.88    3.10
 -11  -3   7   19.43    2.61
  11   3   7   17.26    3.00
 -11   3  -7   15.47    2.26
  11  -3  -7   15.01    2.70
   0  -4  -7   45.22    2.61
   0  -4   7   42.85    3.07
   0  -4   7   43.40    2.83
   0   4   7   42.70    2.50
   0  -4   7   44.10    2.88
   0   4   7   48.42    2.91
  -1  -4  -7    9.21    0.97
   1  -4   7   11.78    1.36
  -1   4   7   11.41    1.01
   1   4  -7   13.67    1.43
   1  -4   7   10.19    1.09
   1  -4   7   11.38    1.19
  -1   4   7    9.92    1.34
   1   4   7   11.47    1.24
   1  -4  -7   11.52    1.01
  -1  -4   7    8.26    1.10
   1   4   7   10.72    0.92
  -1  -4   7   11.26    1.21
   2   4  -7   53.84    3.85
  -2   4   7   54.01    4.02
   2  -4   7   59.17    3.68
  -2  -4  -7   62.90    3.38
  -2   4   7   59.52    3.41
   2  -4   7   57.91    3.51
   2   4   7   63.69    3.68
  -2  -4   7   54.84    3.31
  -2  -4   7   60.33    3.54
   2  -4  -7   59.45    3.29
  -2   4  -7   61.37    3.46
   3  -4   7   30.64    2.20
  -3  -4  -7   35.18    2.14
   3   4  -7   30.62    2.67
   3  -4   7   38.60    2.65
  -3   4   7   33.74    2.19
  -3  -4   7   26.64    1.99
   3   4   7   37.94    2.49
  -3   4  -7   28.52    2.06
   3  -4  -7   28.05    2.63
   3  -4  -7   34.41    2.11
  -3  -4   7   33.29    2.37
   4  -4   7   69.13    4.24
  -4   4   7   73.47    4.25
   4  -4   7   77.20    4.43
  -4  -4  -7   72.40    4.02
   4   4  -7   66.23    4.82
  -4  -4   7   72.36    4.19
   4  -4  -7   75.87    4.04
  -4   4  -7   70.52    3.99
   4  -4  -7   65.37    4.68
   4   4   7   74.95    4.47
  -5   4   7    0.31    0.97
   5  -4   7    0.20    0.88
   5  -4   7    1.02    1.29
  -5  -4  -7    0.37    0.87
   5   4  -7   -0.12    1.36
  -5   4  -7   -0.02    0.68
   5   4   7    1.27    1.09
   5  -4  -7    0.03    1.21
  -5  -4   7   -0.40    0.77
   6  -4   7    2.67    1.44
   6   4  -7   -0.78    1.46
   6  -4   7    0.84    1.08
  -6  -4  -7    1.89    1.03
  -6   4   7    0.41    1.00
  -6  -4   7    2.18    0.98
   6  -4  -7   -0.99    1.30
  -6   4  -7    2.00    0.93
   6   4   7    0.80    1.23
   7   4  -7    6.10    1.90
   7  -4   7    7.01    1.64
   7  -4   7    5.21    1.43
  -7   4   7    3.71    1.37
  -7  -4  -7    4.79    1.26
   7  -4  -7    7.42    1.72
   7   4   7    5.71    1.63
  -7  -4   7    4.48    1.25
  -8   4   7    3.85    1.45
   8  -4   7    0.20    1.35
  -8  -4  -7    0.06    1.21
   8  -4   7    2.95    1.60
   8   4  -7   -0.39    1.83
   8  -4  -7    4.05    1.69
   8   4   7    1.92    1.59
  -8  -4   7    2.11    1.21
  -9   4   7    2.25    1.56
   9   4  -7    0.68    2.00
  -9  -4  -7    1.50    1.36
   9  -4   7    2.50    1.75
   9  -4  -7    3.03    1.75
   9   4   7    2.21    1.82
  -9  -4   7    5.82    1.64
  10   4  -7    2.03    2.31
 -10   4   7    7.50    1.95
 -10  -4  -7    7.50    1.66
  10  -4  -7    2.37    1.95
  10   4   7    5.98    2.19
 -10  -4   7    6.98    1.87
   0   5   7    0.04    0.52
   0   5  -7    0.04    0.75
   0   5   7   -0.44    0.78
   0  -5   7    0.03    0.66
   0  -5   7   -1.96    0.79
   0  -5  -7    1.17    0.69
  -1   5   7   30.88    2.48
   1  -5   7   29.63    2.41
   1  -5   7   29.33    2.31
  -1  -5  -7   30.68    2.12
  -1   5   7   31.14    1.99
   1  -5   7   31.91    2.39
   1   5  -7   31.67    2.45
   1   5   7   29.59    1.80
  -1  -5   7   31.37    2.27
  -1  -5   7   32.51    2.46
   1  -5  -7   30.35    2.09
   1   5   7   33.72    2.33
  -2   5   7    8.56    1.02
  -2   5   7    9.05    1.70
   2  -5   7    9.69    1.07
   2   5  -7    8.47    1.38
  -2  -5  -7    8.10    1.01
   2  -5   7    6.55    1.41
  -2  -5   7   10.09    1.21
   2   5   7   13.20    1.33
  -2   5  -7    9.34    1.20
  -2  -5   7   10.71    1.10
   2   5   7   10.33    0.79
   2  -5  -7    9.28    1.04
   3   5  -7  109.05    7.17
  -3  -5  -7  125.51    6.43
   3  -5   7  117.85    6.75
  -3   5   7  124.03    6.60
   3  -5   7  115.80    6.81
  -3  -5   7  126.31    6.31
   3  -5  -7  124.26    6.40
   3   5   7  136.41    7.01
   3  -5  -7  104.76    7.16
  -3   5  -7  128.22    6.56
  -3  -5   7  126.91    6.72
   4  -5   7   10.67    1.21
  -4  -5  -7   13.34    1.29
   4   5  -7   12.10    1.87
   4  -5   7   11.45    1.78
  -4   5   7   12.84    1.47
  -4   5  -7   12.63    1.24
   4  -5  -7   13.02    1.77
   4  -5  -7   13.70    1.35
   4   5   7   10.44    1.49
  -4  -5   7   11.45    1.39
   5   5  -7  152.46    8.93
   5  -5   7  156.97    8.32
  -5   5   7  147.89    8.10
   5  -5   7  149.80    8.27
  -5  -5  -7  150.60    7.82
  -5   5  -7  149.87    7.92
   5   5   7  143.15    8.49
  -5  -5   7  143.99    8.05
   5  -5  -7  143.16    7.90
   5  -5  -7  156.23    8.72
   6   5  -7    3.69    1.80
  -6   5   7    6.92    1.36
   6  -5   7    4.66    1.73
   6  -5   7    5.43    1.26
  -6  -5  -7    5.83    1.21
   6  -5  -7    8.35    1.67
  -6  -5   7    5.38    1.25
   6   5   7    3.26    1.38
  -6   5  -7    6.39    1.12
   7   5  -7   48.26    4.32
  -7   5   7   51.36    3.43
  -7  -5  -7   52.20    3.31
   7  -5   7   46.22    3.80
   7  -5  -7   51.33    3.87
   7   5   7   45.92    3.69
  -7  -5   7   49.02    3.51
  -7   5  -7   47.15    3.19
  -8  -5  -7   -3.28    1.14
  -8   5   7    0.54    1.39
   8   5  -7    2.44    1.98
   8  -5   7    2.71    1.79
   8   5   7   -0.50    1.45
  -8  -5   7    0.24    1.30
   8  -5  -7    0.28    1.56
   9   5  -7    9.10    2.65
   9  -5   7   12.20    2.24
  -9  -5  -7    9.51    1.68
  -9   5   7    9.79    1.92
   9   5   7    7.54    2.11
   9  -5  -7    9.04    2.02
  -9  -5   7    7.11    1.81
 -10  -5  -7    1.13    1.52
  10   5  -7   -0.53    2.30
  10  -5   7    2.06    1.93
 -10   5   7    3.48    1.71
 -10  -5   7    2.36    1.75
  10   5   7    1.79    2.07
   0   6   7    1.18    0.89
   0   6  -7    1.46    0.81
   0   6   7   -0.02    0.56
   0  -6   7   -0.49    0.76
   0  -6  -7    0.33    0.79
   0  -6   7   -1.76    0.83
   1  -6   7    5.34    1.11
   1  -6   7    6.22    1.29
   1   6  -7    8.36    1.27
  -1  -6  -7    7.08    1.03
  -1   6   7    7.63    0.96
  -1   6   7    6.64    1.29
   1   6   7    8.36    1.22
   1   6   7    7.75    0.78
  -1  -6   7    6.07    1.07
  -1  -6   7    7.28    1.09
   1  -6  -7    6.91    1.03
  -1   6  -7    8.29    1.37
  -2   6   7    0.24    1.33
   2  -6   7    1.84    0.78
   2   6  -7    1.20    1.05
  -2   6   7    1.39    0.76
  -2  -6  -7    0.77    0.79
   2  -6   7    1.61    1.22
   2   6   7    0.50    0.46
  -2  -6   7    2.25    0.78
   2   6   7    0.90    0.86
   2  -6  -7   -0.11    0.79
  -2  -6   7    1.17    0.82
  -2   6  -7    2.27    0.96
   3  -6   7   26.20    2.48
  -3  -6  -7   28.90    2.13
  -3   6   7   25.69    2.03
   3   6  -7   25.76    2.49
   3  -6   7   28.11    2.03
  -3   6   7   29.64    2.89
  -3  -6   7   27.39    2.28
  -3  -6   7   25.85    1.96
   3  -6  -7   27.34    2.16
   3   6   7   30.16    2.35
  -3   6  -7   28.52    2.16
   4  -6   7    4.39    0.86
   4   6  -7    5.13    1.63
  -4  -6  -7    3.80    1.00
  -4   6   7    4.55    1.06
   4  -6   7    1.94    1.53
   4  -6  -7    4.90    1.15
  -4   6  -7    1.85    0.88
  -4  -6   7    5.41    1.10
   4  -6  -7    4.88    1.43
   4   6   7    5.13    1.25
  -5   6   7   -0.79    1.05
   5   6  -7    2.08    1.64
  -5  -6  -7    0.31    0.98
   5  -6   7    0.14    1.52
  -5  -6   7   -0.45    0.95
   5  -6  -7   -0.45    1.29
  -5   6  -7   -0.62    0.83
   5  -6  -7   -1.13    1.23
   5   6   7   -0.89    1.08
   6   6  -7   -0.69    1.68
   6  -6   7   -0.26    1.65
  -6   6   7    1.85    1.23
  -6  -6  -7    0.23    1.06
  -6  -6   7    0.05    1.05
   6  -6  -7    2.06    1.40
   6   6   7   -0.56    1.22
  -6   6  -7    1.02    0.99
  -7  -6  -7    0.38    1.15
   7   6  -7    0.86    1.85
  -7   6   7   -0.20    1.16
   7  -6   7    0.93    1.78
  -7  -6   7   -0.69    1.09
  -7   6  -7    1.40    1.12
   7   6   7    1.11    1.43
   7  -6  -7    2.32    1.47
  -8  -6  -7   -0.81    1.23
  -8   6   7    0.54    1.46
   8  -6   7   -0.87    1.88
   8   6  -7    3.05    2.11
  -8  -6   7   -0.06    1.36
   8   6   7    1.16    1.67
   8  -6  -7   -0.98    1.56
   9  -6   7   -0.45    1.97
  -9  -6  -7    0.02    1.38
  -9   6   7    3.06    1.71
   9   6  -7   -0.53    2.25
   9   6   7    1.43    1.73
  -9  -6   7   -1.01    1.50
 -10  -6  -7   -1.03    1.52
 -10   6   7   -0.85    1.70
  10  -6   7    2.97    2.15
  10   6  -7    1.68    2.41
  10   6   7    0.86    1.99
 -10  -6   7    1.03    1.72
   0  -7  -7   -0.73    0.87
   0   7  -7    0.24    0.84
   0   7   7   -0.03    0.94
   0  -7   7   -0.30    0.97
   0  -7   7    0.33    0.76
   0   7   7   -0.39    0.61
  -1   7   7   32.60    2.76
  -1   7   7   36.54    2.41
  -1  -7  -7   38.49    2.51
   1  -7   7   34.57    2.77
   1   7  -7   37.44    2.80
  -1  -7   7   36.65    2.53
  -1   7  -7   36.22    2.44
  -1   7  -7   29.90    2.79
   1   7   7   33.13    2.16
   1  -7  -7   33.37    2.52
  -1  -7   7   33.95    2.72
   1   7   7   42.41    2.70
   2   7  -7    0.31    1.14
  -2   7   7    2.54    1.51
   2  -7   7   -0.35    1.22
  -2  -7  -7    0.29    0.88
  -2   7   7    0.03    0.82
  -2  -7   7    0.82    0.84
  -2   7  -7   -1.13    0.99
   2   7   7    1.51    0.93
   2  -7  -7    0.32    0.92
  -2  -7   7    0.31    0.94
  -3   7   7  104.10    6.28
  -3   7   7   95.31    5.39
   3  -7   7   91.34    5.67
   3   7  -7   88.64    6.00
  -3  -7  -7   95.74    5.23
  -3   7  -7  100.07    5.45
  -3  -7   7   87.72    5.13
   3  -7  -7   94.38    5.27
  -3  -7   7   96.27    5.59
   3   7   7  101.93    5.68
   4   7  -7    0.96    1.58
  -4   7   7    1.47    1.07
   4  -7   7   -1.28    1.45
  -4  -7  -7    0.86    0.95
  -4   7  -7   -0.85    0.86
  -4  -7   7    0.70    1.05
   4  -7  -7   -2.02    1.25
   4  -7  -7   -0.79    1.10
   4   7   7    1.40    1.11
   5   7  -7  111.89    7.40
  -5  -7  -7  119.21    6.32
  -5   7   7  120.68    6.64
   5  -7   7  105.36    6.90
   5  -7  -7  117.33    6.55
   5  -7  -7  123.39    7.05
  -5  -7   7  116.79    6.62
   5   7   7  125.62    6.98
  -5   7  -7  107.57    6.41
   6  -7   7    3.45    1.94
   6   7  -7    6.43    2.01
  -6   7   7    2.79    1.45
  -6  -7  -7    2.12    1.15
   6  -7  -7    4.33    1.51
  -6  -7   7    3.85    1.22
  -6   7  -7    2.58    1.10
   6   7   7    4.06    1.45
  -7  -7  -7   26.51    2.25
   7  -7   7   27.32    3.03
   7   7  -7   23.86    3.21
  -7   7   7   28.24    2.66
  -7  -7   7   27.59    2.57
  -7   7  -7   27.15    2.38
   7   7   7   26.50    2.74
   8  -7   7    6.23    2.25
   8   7  -7    3.96    2.37
  -8  -7  -7    1.96    1.36
  -8   7   7    3.58    1.66
  -8  -7   7    3.43    1.41
  -8   7  -7    2.21    1.32
   8   7   7    2.52    1.69
   9  -7   7   26.07    3.14
  -9   7   7   21.46    2.58
   9   7  -7   17.85    3.31
  -9  -7  -7   23.88    2.22
  -9  -7   7   23.67    2.61
   9   7   7   14.03    2.58
  10  -7   7    6.66    2.57
 -10   7   7    5.37    2.09
  10   7  -7    2.16    2.57
 -10  -7  -7    5.99    1.72
  10   7   7    2.27    2.14
 -10  -7   7    4.93    1.99
   0   8   7    6.00    1.39
   0  -8  -7    6.56    1.25
   0  -8   7    6.96    1.29
   0   8   7    5.68    1.03
   0  -8   7    9.12    1.26
   0   8  -7    5.32    1.11
   1   8  -7    6.63    1.35
   1  -8   7    8.13    1.47
  -1  -8  -7    7.52    1.28
  -1   8   7   10.40    1.21
  -1   8   7    7.30    1.53
  -1   8  -7    8.32    1.63
   1   8   7    6.82    1.02
   1  -8  -7    8.58    1.34
  -1  -8   7   10.11    1.32
   1   8   7    8.97    1.42
  -1  -8   7    7.60    1.28
  -2   8   7   13.44    1.49
  -2  -8  -7   13.74    1.49
   2  -8   7   13.99    1.85
  -2   8   7   10.68    2.05
   2   8  -7   11.74    1.77
  -2   8  -7    9.87    1.68
   2  -8  -7    9.67    1.40
  -2  -8   7   12.91    1.45
   2   8   7   10.57    1.53
  -2  -8   7   12.15    1.51
   3  -8   7   18.80    2.27
  -3   8   7   23.96    2.78
  -3   8   7   21.49    2.03
   3   8  -7   19.85    2.38
  -3  -8  -7   20.38    1.85
  -3   8  -7   22.43    2.13
   3  -8  -7   20.27    1.88
  -3  -8   7   22.43    1.80
  -3  -8   7   21.69    2.16
   3   8   7   25.58    2.25
   4   8  -7    6.34    1.99
  -4  -8  -7   11.14    1.46
   4  -8   7   12.11    2.10
  -4   8   7   12.03    1.70
   4  -8  -7   15.94    1.96
   4   8   7   12.16    1.69
  -4  -8   7   11.68    1.77
   4  -8  -7   10.52    1.59
  -4   8  -7   10.46    1.52
  -5  -8  -7    1.27    1.14
   5   8  -7   -0.96    1.69
   5  -8   7    0.54    1.73
  -5   8   7   -1.40    1.17
  -5   8  -7    0.24    1.04
   5   8   7   -1.38    1.20
   5  -8  -7    0.46    1.42
  -5  -8   7    2.12    1.30
   6  -8   7    3.72    2.03
   6   8  -7    5.51    2.10
  -6  -8  -7    6.77    1.36
  -6   8   7    4.27    1.57
  -6   8  -7    5.97    1.22
   6   8   7    5.61    1.58
  -6  -8   7    5.99    1.55
   7   8  -7   11.84    2.65
  -7  -8  -7   14.04    1.70
  -7   8   7   12.50    1.96
   7  -8   7    6.28    2.36
   7   8   7   12.84    2.10
  -7  -8   7   13.77    2.01
  -7   8  -7    8.76    1.57
   8  -8   7    4.43    2.37
  -8  -8  -7    5.81    1.48
  -8   8   7    3.41    1.64
   8   8  -7    3.38    2.47
  -8  -8   7    5.23    1.75
  -8   8  -7    2.60    1.40
   8   8   7    1.65    1.73
  -9   8   7   -2.01    1.75
   9  -8   7    4.65    2.46
   9   8  -7   -1.23    2.29
  -9  -8  -7   -0.32    1.45
   9   8   7   -1.08    1.75
  -9  -8   7   -0.01    1.63
   0  -9   7   -0.49    1.17
   0   9   7   -0.86    1.19
   0   9   7    0.09    0.83
   0   9  -7   -0.77    1.16
   0  -9  -7    1.30    1.21
  -1   9   7   22.19    2.41
  -1  -9  -7   24.23    2.06
   1  -9   7   22.65    2.22
  -1   9   7   25.23    2.05
  -1   9  -7   23.69    2.40
  -1  -9   7   22.20    2.08
   1   9   7   22.90    2.24
   1  -9  -7   23.99    2.03
  -1  -9   7   23.86    2.17
   1   9   7   22.32    1.96
  -2   9   7   20.65    2.70
  -2   9   7   25.04    2.10
   2  -9   7   22.34    2.29
   2   9  -7   20.02    2.27
  -2  -9  -7   20.87    1.99
  -2   9  -7   20.85    2.34
   2   9   7   26.66    2.30
   2  -9  -7   24.26    2.04
  -2  -9   7   20.73    2.03
  -2  -9   7   23.08    2.02
  -3   9   7   44.70    3.20
   3  -9   7   46.68    3.67
  -3  -9  -7   48.63    3.28
   3   9  -7   48.50    4.05
   3   9   7   49.67    3.46
  -3   9  -7   51.76    3.54
  -3  -9   7   51.93    3.25
   3  -9  -7   46.21    3.31
  -3  -9   7   43.82    3.38
   4   9  -7    5.57    1.89
  -4   9   7    2.07    1.23
  -4  -9  -7    4.61    1.30
   4  -9   7    2.88    1.68
   4  -9  -7    3.29    1.40
  -4  -9   7    2.39    1.39
   4   9   7    3.33    1.36
  -4   9  -7    4.98    1.27
   5   9  -7   69.91    5.87
  -5  -9  -7   86.36    4.99
  -5   9   7   91.88    5.29
   5  -9   7   86.68    5.57
   5   9   7   87.82    5.45
  -5   9  -7   82.29    5.08
   5  -9  -7   93.78    5.31
  -5  -9   7   78.56    5.42
   6  -9   7    2.05    2.04
   6   9  -7   -1.42    1.97
  -6  -9  -7   -1.68    1.18
  -6   9   7   -1.94    1.33
  -6   9  -7   -0.76    1.09
  -6  -9   7   -1.05    1.24
   6   9   7    0.02    1.43
   7   9  -7   14.07    2.90
  -7  -9  -7   23.36    2.08
   7  -9   7   12.44    2.74
  -7   9   7   17.66    2.32
  -7   9  -7   17.02    2.05
   7   9   7   14.14    2.25
  -7  -9   7   23.96    2.46
   8  -9   7   -2.37    2.23
  -8   9   7   -0.95    1.72
   8   9  -7    1.54    2.29
  -8  -9  -7    2.34    1.50
  -8   9  -7    0.04    1.35
  -8  -9   7    1.03    1.65
   8   9   7    0.38    1.77
  -9   9   7    9.63    2.18
   9   9  -7    6.01    2.70
  -9  -9  -7   10.54    1.86
   9  -9   7   11.52    2.92
  -9  -9   7    5.42    2.15
   9   9   7    3.85    2.09
   0  10   7   31.72    2.89
   0 -10  -7   33.66    2.81
   0 -10   7   29.03    2.62
   0  10  -7   33.74    3.03
   0  10   7   32.23    2.39
  -1 -10  -7   11.12    1.71
  -1  10   7   13.79    1.63
   1 -10   7   18.28    2.01
  -1  10   7   10.84    2.05
  -1 -10   7   13.30    1.71
  -1 -10   7   14.18    1.77
   1  10   7   16.12    2.01
   1  10   7   11.95    1.42
   1 -10  -7   11.54    1.69
  -1  10  -7   12.94    2.11
  -2 -10  -7   12.34    1.68
   2 -10   7   10.46    1.84
  -2  10   7    6.72    1.46
  -2 -10   7   11.32    1.65
   2 -10  -7   10.34    1.59
  -2  10  -7    8.03    1.85
  -2 -10   7   10.12    1.53
   2  10   7   10.28    1.70
   3  10  -7    1.30    1.61
  -3 -10  -7    1.53    1.24
   3 -10   7   -0.10    1.50
  -3  10   7    0.51    1.17
   3 -10  -7   -0.49    1.26
   3  10   7    0.56    1.23
  -3 -10   7   -0.92    1.20
  -3 -10   7    1.72    1.18
  -3  10  -7   -1.16    1.18
  -4 -10  -7    5.97    1.46
   4  10  -7    8.30    2.09
  -4  10   7    6.98    1.62
   4 -10   7    4.99    1.80
   4  10   7    7.71    1.63
  -4 -10   7    5.56    1.55
  -4  10  -7    6.22    1.55
   4 -10  -7    8.86    1.64
  -5 -10  -7    0.70    1.30
  -5  10   7   -0.84    1.21
   5  10  -7    0.27    1.97
   5 -10   7   -0.81    1.77
   5 -10  -7    0.08    1.57
  -5  10  -7    0.32    1.24
   5  10   7   -0.07    1.42
  -5 -10   7    1.06    1.33
  -6 -10  -7    2.05    1.39
  -6  10   7    2.68    1.54
   6  10  -7   -1.37    2.10
   6 -10   7    5.39    2.19
  -6  10  -7    2.81    1.35
   6  10   7    1.16    1.57
  -6 -10   7    3.58    1.69
  -7 -10  -7    0.35    1.43
   7 -10   7   -1.80    2.23
  -7  10   7    1.71    1.74
   7  10  -7   -3.57    2.05
   7  10   7    1.09    1.68
  -7 -10   7   -0.16    1.66
  -7  10  -7    0.63    1.37
  -8 -10  -7   -0.79    1.44
   8  10  -7    0.02    2.34
  -8  10   7   -0.18    1.65
   8 -10   7    0.92    2.50
  -8 -10   7   -0.06    1.80
   8  10   7   -1.74    1.73
  -8  10  -7   -0.58    1.46
   9  10  -7   -3.46    2.54
  -9  10   7    0.96    1.99
   9 -10   7   -3.62    2.55
  -9 -10  -7   -2.36    1.51
   9  10   7    2.31    2.04
  -9  10  -7    0.17    1.49
  -9 -10   7   -1.85    1.83
   0 -11   7    0.55    1.37
   0  11  -7   -1.42    1.34
   0 -11  -7    1.22    1.34
   0  11   7    0.28    0.96
  -1 -11  -7   99.43    6.00
  -1  11   7   99.59    5.96
   1 -11   7  104.42    6.17
   1  11  -7  111.10    6.28
  -1 -11   7  105.36    6.14
   1  11   7  116.33    6.54
  -1  11  -7   97.90    6.44
   1 -11  -7  103.86    6.00
   2 -11   7    0.79    1.53
  -2 -11  -7   -0.55    1.33
  -2  11   7    0.21    1.12
  -2 -11   7   -2.87    1.26
  -2  11  -7   -1.69    1.29
  -2 -11   7    0.38    1.15
   2  11   7    0.45    1.36
   2 -11  -7    0.25    1.34
  -3  11   7  125.11    6.90
   3 -11   7  120.06    7.08
  -3 -11  -7  122.28    6.81
   3  11   7  127.53    7.28
  -3 -11   7  113.26    6.91
   3 -11  -7  116.34    6.76
  -3  11  -7  116.71    7.13
  -3 -11   7  126.18    6.85
   4 -11   7   -1.59    1.58
  -4  11   7   -0.64    1.35
  -4 -11  -7    0.01    1.36
   4  11   7    0.83    1.45
   4 -11  -7    0.47    1.52
  -4 -11   7   -0.68    1.28
  -4  11  -7   -0.34    1.26
   5 -11   7   15.56    2.52
  -5  11   7   18.75    2.29
   5  11  -7   15.67    2.68
  -5 -11  -7   15.71    1.96
   5  11   7   14.22    2.17
  -5 -11   7   16.02    2.16
  -5  11  -7   13.42    2.11
   5 -11  -7   19.33    2.36
  -6 -11  -7    1.30    1.50
   6  11  -7   -1.07    2.14
   6 -11   7    1.24    2.07
  -6  11   7    1.82    1.53
   6  11   7    1.86    1.75
  -6 -11   7    2.22    1.65
  -6  11  -7    0.90    1.40
  -7  11   7   23.54    2.74
  -7 -11  -7   16.04    2.15
   7  11  -7   16.89    3.07
   7 -11   7   23.50    3.18
   7  11   7   16.79    2.60
  -7  11  -7   16.49    2.26
  -7 -11   7   19.00    2.65
  -8 -11  -7    3.28    1.69
   8 -11   7   -4.88    2.43
   8  11  -7    1.38    2.62
  -8  11   7    1.61    1.80
  -8 -11   7    1.38    1.91
  -8  11  -7    2.52    1.59
   8  11   7    1.22    1.93
   0  12   7   40.25    2.91
   0  12  -7   37.74    3.32
   0 -12   7   40.14    3.28
   0 -12  -7   35.90    3.15
   1  12  -7    0.17    1.46
  -1 -12  -7   -1.24    1.42
  -1  12   7    0.47    1.09
   1 -12   7    2.40    1.65
  -1 -12   7    0.79    1.45
  -1  12  -7   -2.46    1.57
   1 -12  -7   -1.57    1.41
   2 -12   7    4.27    1.74
  -2 -12  -7    3.90    1.56
  -2  12   7    1.26    1.25
   2 -12  -7    4.18    1.59
  -2  12  -7    2.97    1.59
  -2 -12   7    1.81    1.44
  -2 -12   7    3.43    1.60
  -3 -12  -7    4.39    1.61
   3 -12   7    4.93    1.84
  -3  12   7    4.80    1.52
  -3 -12   7    4.07    1.44
  -3  12  -7    4.89    1.82
   3 -12  -7    2.21    1.56
   3  12   7    6.74    1.81
  -4  12   7    1.57    1.44
  -4 -12  -7    0.95    1.50
   4 -12   7    3.27    1.88
   4  12   7   -3.52    1.41
  -4 -12   7   -0.48    1.44
  -4  12  -7   -2.05    1.50
   4 -12  -7    0.12    1.65
   5 -12   7    0.05    1.92
  -5  12   7    0.52    1.45
  -5 -12  -7    3.10    1.63
  -5 -12   7    0.66    1.53
   5  12   7    1.86    1.79
   5 -12  -7    4.55    1.95
  -5  12  -7    0.76    1.48
  -6  12   7    1.34    1.73
   6 -12   7    0.77    2.11
  -6 -12  -7    2.00    1.58
  -6  12  -7   -0.32    1.53
   6  12   7    1.84    1.84
  -6 -12   7    2.25    1.68
   6 -12  -7    0.83    2.15
   7  12  -7   -1.69    2.42
  -7  12   7    0.13    1.82
   7 -12   7   -2.60    2.35
  -7 -12  -7   -1.01    1.59
  -7  12  -7   -0.25    1.45
  -7 -12   7   -0.38    1.71
   7  12   7   -0.06    1.89
   0 -13  -7    0.39    1.54
   0  13  -7   -1.06    1.59
   0 -13   7    2.90    1.75
   1  13  -7   44.99    3.59
   1 -13   7   43.06    3.69
  -1  13   7   43.79    3.15
  -1 -13  -7   44.75    3.59
   1 -13  -7   39.91    3.36
  -1 -13   7   49.54    3.84
  -1  13  -7   37.79    3.75
   2 -13   7    1.10    1.77
   2  13  -7    1.73    1.60
  -2  13   7    0.21    1.26
  -2 -13  -7   -1.14    1.55
  -2  13  -7   -0.91    1.60
   2 -13  -7   -1.31    1.56
  -2 -13   7    0.44    1.64
  -3  13   7   20.81    2.33
  -3 -13  -7   21.74    2.47
   3 -13   7   24.30    2.80
  -3  13  -7   21.13    2.73
   3 -13  -7   26.71    2.58
  -3 -13   7   23.86    2.53
  -4 -13  -7   -2.75    1.52
  -4  13   7    2.21    1.55
   4 -13   7   -3.72    1.77
  -4  13  -7   -0.10    1.58
   4 -13  -7   -0.50    1.71
  -4 -13   7   -0.65    1.46
   5 -13   7    9.80    2.36
  -5  13   7   10.31    2.03
  -5 -13  -7   10.66    1.99
  -5  13  -7   11.52    2.11
  -5 -13   7   11.17    2.12
   5 -13  -7   12.72    2.41
   5  13   7    9.53    2.29
  -6  13   7   -0.33    1.72
  -6 -13  -7   -2.25    1.64
   6 -13   7    0.19    2.16
   6  13   7    1.81    2.10
  -6 -13   7    0.44    1.69
   6 -13  -7    2.74    2.30
  -6  13  -7   -1.38    1.44
  -7 -13  -7    7.25    1.94
   7 -13   7    4.21    2.52
  -7  13   7    4.27    2.13
  -7 -13   7    3.65    1.90
   7  13   7    2.39    2.20
  -7  13  -7    6.08    1.98
   0  14  -7    0.99    1.83
   0 -14  -7    0.54    1.67
   0 -14   7    0.33    1.85
   1  14  -7   -3.07    1.62
   1 -14   7    0.58    1.87
  -1 -14  -7   -0.14    1.66
  -1  14   7    3.54    1.45
  -1 -14   7    0.00    1.81
  -1  14  -7    3.33    1.99
   1 -14  -7   -1.92    1.63
   2  14  -7    2.02    1.70
  -2  14   7    3.60    1.51
  -2 -14  -7    1.34    1.76
   2 -14   7    2.39    1.94
   2 -14  -7    2.84    1.76
  -2  14  -7    3.28    2.06
  -2 -14   7    3.89    1.89
   3  14  -7    1.61    1.64
  -3  14   7    3.26    1.54
  -3 -14  -7    2.90    1.76
   3 -14   7    1.21    1.92
  -3  14  -7    1.50    1.96
   3 -14  -7    2.16    1.83
   4 -14   7    5.74    2.14
  -4  14   7    0.94    1.63
  -4 -14  -7    4.73    1.83
   4 -14  -7    1.06    1.96
  -4 -14   7    2.50    1.73
  -4  14  -7    4.87    1.94
  -5  14   7    0.52    1.51
   5 -14   7   -0.84    2.07
  -5 -14  -7    1.97    1.80
  -5  14  -7   -0.37    1.90
   5 -14  -7   -3.67    2.00
  -5 -14   7    1.20    1.67
   6 -14   7    4.59    2.43
  -6 -14  -7    2.96    1.89
  -6  14   7    0.98    1.85
  -6  14  -7    1.51    1.91
   6 -14  -7    1.66    2.39
  -6 -14   7    3.64    1.87
   0  15  -7    3.10    1.98
   0 -15   7    6.95    2.16
   0 -15  -7    0.04    1.76
  -1 -15  -7   21.78    2.64
   1  15  -7   22.75    2.91
   1 -15   7   23.15    2.91
   1 -15  -7   22.08    2.63
  -1 -15   7   23.04    2.84
  -1  15  -7   18.83    2.92
  -2 -15  -7   -0.41    1.77
   2 -15   7    2.40    2.07
  -2  15   7   -0.37    1.42
   2  15  -7    1.41    1.79
   2 -15  -7    2.72    1.95
  -2  15  -7    0.07    2.06
  -2 -15   7    1.78    1.94
  -3 -15  -7   26.68    2.75
   3  15  -7   23.69    2.72
  -3  15   7   23.34    2.53
   3 -15   7   26.58    3.07
  -3  15  -7   15.96    2.90
   3 -15  -7   21.37    2.74
   4  15  -7    2.76    1.79
  -4  15   7    1.14    1.60
  -4 -15  -7    1.95    1.84
   4 -15   7    1.89    2.18
   4 -15  -7    3.22    2.12
  -4  15  -7    2.20    1.98
  -5  15   7   17.83    2.54
  -5  15  -7   19.02    2.92
   0 -16  -7    1.94    1.95
   0 -16   7    3.48    2.22
   0  16  -7   -0.23    2.02
  -1 -16  -7   -0.68    1.91
   1 -16   7   -3.63    2.00
   1  16  -7   -2.93    1.72
  -1 -16   7   -1.24    2.05
  -1  16  -7   -0.89    2.03
   1 -16  -7    0.22    1.93
   2  16  -7    0.54    1.85
  -2 -16  -7    0.31    1.93
   2 -16   7   -2.34    2.09
  -2  16   7   -2.27    1.37
   2 -16  -7    1.62    2.06
  -2  16  -7   -2.51    1.89
  -2 -16   7    0.83    2.05
  -3  16   7   -0.54    1.52
   3  16  -7    1.07    1.81
   3 -16   7    0.76    2.20
  -3 -16  -7    0.71    1.98
  -3  16  -7   -1.42    1.97
   3 -16  -7   -2.54    2.06
   0   0  -8  219.78   10.72
   0   0   8  204.96   10.93
   0   0   8  218.60   11.68
  -1   0   8   45.97    3.15
   1   0  -8   44.50    2.41
  -1   0  -8   43.57    2.52
   1   0   8   38.81    2.82
   1   0   8   43.02    2.52
  -1   0   8   45.13    2.58
  -2   0   8  299.32   16.21
   2   0  -8  301.24   14.62
  -2   0  -8  305.99   14.81
  -2   0   8  300.53   15.10
   2   0   8  285.88   14.91
   2   0   8  281.84   15.87
  -3   0   8    6.85    0.95
  -3   0  -8    7.07    0.59
   3   0  -8    6.50    1.35
   3   0   8    5.75    1.07
  -3   0  -8    7.45    0.93
  -4   0  -8    2.94    0.85
   4   0   8    3.08    1.03
  -4   0   8    4.73    0.96
   4   0  -8    5.28    1.37
   5   0   8   15.40    1.88
  -5   0   8   21.26    1.79
  -5   0  -8   17.24    1.63
   5   0  -8   18.14    2.19
  -6   0  -8    7.28    1.26
   6   0  -8    7.39    1.78
   6   0   8    5.65    1.49
  -6   0   8    7.05    1.26
  -7   0   8   12.66    1.73
   7   0   8   16.97    2.12
  -7   0  -8   15.32    1.71
   7   0  -8   20.87    2.53
  -8   0  -8  101.86    5.77
   8   0   8   87.34    6.27
  -8   0   8  105.81    6.00
   8   0  -8  108.30    6.89
   9   0   8   -0.47    1.65
  -9   0   8   -0.57    1.21
  -9   0  -8   -1.55    1.32
   9   0  -8   -1.70    1.70
 -10   0   8   18.28    2.39
  10   0   8   24.36    3.01
  10   0  -8   22.50    3.05
 -10   0  -8   26.50    2.44
 -11   0  -8    5.77    1.83
  11   0   8    3.61    2.21
  11   0  -8    5.70    2.47
 -11   0   8    4.53    1.98
   0   1   8   -0.43    0.40
   0  -1   8    1.23    0.74
   0  -1  -8   -0.13    0.48
   0  -1   8   -0.53    0.40
   0   1  -8   -0.12    0.47
   0   1   8   -0.68    0.66
  -1  -1  -8    5.08    0.71
  -1   1   8    5.16    0.69
   1  -1   8    4.45    0.88
   1  -1   8    4.32    0.73
   1   1  -8    4.80    0.59
   1  -1   8    4.14    0.76
  -1   1   8    5.47    1.19
   1   1   8    5.39    0.92
   1  -1  -8    5.69    0.63
   1   1   8    4.00    0.54
  -1  -1   8    7.45    1.31
  -1  -1   8    5.25    0.73
   2  -1   8    2.58    0.81
   2  -1   8    1.94    0.76
   2   1  -8    3.20    1.05
   2   1  -8    3.16    0.46
  -2   1   8    1.70    0.63
  -2  -1  -8    1.46    0.65
  -2   1   8    2.42    1.29
   2   1   8    1.87    0.81
  -2  -1   8    3.75    0.69
   2  -1  -8    3.67    0.51
   2   1   8    2.39    0.35
  -3  -1  -8   30.94    2.01
   3   1  -8   30.08    2.57
   3  -1   8   29.08    2.20
   3  -1   8   26.06    2.04
  -3   1   8   28.60    1.99
   3  -1  -8   28.06    2.58
   3  -1  -8   28.25    1.68
  -3   1  -8   27.54    1.71
   3   1   8   27.68    2.25
  -3  -1   8   26.55    1.96
   4  -1   8    0.62    0.88
  -4  -1  -8   -0.28    0.72
  -4   1   8    0.33    0.81
   4   1  -8    1.09    1.11
   4  -1   8    1.08    0.88
   4  -1  -8    2.00    1.20
   4   1   8    0.68    0.93
  -4  -1   8   -0.37    0.72
  -4   1  -8    0.09    0.45
  -5   1   8   53.88    3.29
  -5  -1  -8   50.82    3.16
   5   1  -8   47.81    3.88
   5  -1   8   51.15    3.55
  -5  -1   8   52.95    3.37
   5   1   8   50.69    3.53
  -5   1  -8   50.03    3.19
   5  -1  -8   47.89    3.97
  -6  -1  -8    3.77    1.11
   6   1  -8    3.96    1.58
   6  -1   8    2.54    1.35
  -6   1   8    1.69    1.00
  -6  -1   8    5.30    1.14
   6   1   8    3.87    1.39
   6  -1  -8    4.52    1.64
  -6   1  -8    2.43    1.09
   7   1  -8   29.17    3.04
  -7  -1  -8   30.79    2.54
   7  -1   8   24.12    2.57
  -7   1   8   32.50    2.66
  -7  -1   8   29.35    2.47
   7   1   8   23.22    2.59
   7  -1  -8   27.87    2.94
  -7   1  -8   28.31    2.31
   8  -1   8   -0.74    1.45
  -8  -1  -8    0.15    1.28
  -8   1   8    1.19    1.23
   8   1  -8    2.53    1.80
   8   1   8   -0.41    1.54
  -8  -1   8    1.02    1.22
   8  -1  -8   -0.55    1.64
  -8   1  -8   -0.69    1.25
   9  -1   8   -0.87    1.54
   9   1  -8    1.54    1.86
  -9   1   8    0.02    1.29
  -9  -1  -8    0.66    1.39
   9   1   8   -1.23    1.67
  -9  -1   8   -0.59    1.41
   9  -1  -8   -1.34    1.70
  -9   1  -8    1.45    1.39
 -10  -1  -8   -0.66    1.51
  10  -1   8    0.14    1.77
 -10   1   8    2.90    1.70
  10   1  -8   -0.05    1.99
 -10   1  -8   -1.14    1.51
  10  -1  -8   -1.00    1.82
 -10  -1   8    3.13    1.72
  10   1   8    2.95    1.99
 -11   1   8    2.18    1.77
  11   1  -8   -0.78    2.19
 -11  -1  -8    1.27    1.71
  11  -1   8   -0.29    2.08
 -11  -1   8    1.31    1.87
  11  -1  -8   -1.54    2.13
 -11   1  -8   -0.90    1.68
  11   1   8   -2.59    2.05
   0  -2   8  563.82   28.06
   0  -2   8  568.30   30.13
   0  -2   8  569.84   28.62
   0  -2  -8  562.94   28.00
   0   2   8  547.79   28.48
   0   2   8  591.28   30.10
   1  -2   8   41.65    2.58
  -1   2   8   36.63    2.47
   1  -2   8   44.55    2.81
  -1  -2  -8   45.14    2.52
   1  -2   8   47.64    2.68
  -1   2   8   46.01    3.01
  -1  -2   8   41.31    2.42
   1   2   8   46.06    2.83
   1   2   8   36.30    2.31
   1  -2  -8   43.89    2.43
  -1  -2   8   46.80    2.65
  -1  -2   8   42.33    3.14
  -2   2   8  126.52    7.56
  -2   2   8  127.28    6.82
   2  -2   8  120.37    7.14
   2   2  -8  139.62    7.46
   2  -2   8  128.15    6.78
  -2  -2  -8  126.60    6.65
  -2  -2   8  128.41    6.86
  -2   2  -8  129.53    6.75
   2   2   8  133.55    7.24
   2  -2  -8  128.34    6.53
  -3  -2  -8    1.59    0.74
   3  -2   8    1.53    0.87
   3   2  -8    1.20    1.06
   3  -2   8    0.28    0.72
  -3   2   8    1.68    0.74
   3  -2  -8    2.16    0.58
   3  -2  -8    0.85    1.10
  -3   2  -8    1.75    0.53
   3   2   8    0.79    0.84
  -3  -2   8    2.13    0.69
  -4  -2  -8   29.78    2.21
   4  -2   8   25.71    2.34
   4   2  -8   28.51    2.73
   4  -2   8   29.56    2.43
  -4   2   8   33.77    2.45
   4   2   8   28.93    2.48
   4  -2  -8   33.69    3.00
  -4   2  -8   30.94    1.94
  -4  -2   8   31.78    2.34
   5  -2   8    2.40    1.13
   5  -2   8    2.33    1.12
  -5  -2  -8    1.33    0.94
  -5   2   8    1.01    0.98
   5   2  -8    2.87    1.41
   5   2   8    1.64    1.17
  -5  -2   8    2.97    0.91
   5  -2  -8    1.83    1.35
  -5   2  -8    1.47    0.67
   6  -2   8   39.32    3.05
  -6   2   8   43.35    3.00
  -6  -2  -8   40.15    2.84
   6   2  -8   43.55    3.89
   6  -2   8   37.96    3.23
   6   2   8   40.33    3.30
   6  -2  -8   41.77    3.76
  -6  -2   8   42.76    2.90
   7  -2   8   20.11    2.29
  -7  -2  -8   19.33    1.93
   7  -2   8   22.69    2.15
   7   2  -8   24.71    2.80
  -7   2   8   23.93    2.25
  -7  -2   8   21.07    2.04
   7  -2  -8   21.75    2.58
   7   2   8   18.61    2.33
   8   2  -8   45.66    4.07
  -8  -2  -8   42.25    3.13
   8  -2   8   41.94    3.52
  -8   2   8   41.07    3.32
   8   2   8   41.85    3.65
  -8   2  -8   45.03    3.16
   8  -2  -8   40.12    3.76
  -8  -2   8   43.55    3.31
  -9   2   8    0.27    1.33
  -9  -2  -8   -0.43    1.36
   9   2  -8    0.86    1.98
   9  -2   8    1.48    1.62
   9   2   8    0.53    1.74
  -9   2  -8    1.31    1.47
  -9  -2   8    0.48    1.48
   9  -2  -8    3.82    1.87
 -10   2   8   27.05    2.73
  10   2  -8   25.30    3.38
 -10  -2  -8   26.21    2.52
  10  -2   8   23.82    2.88
  10  -2  -8   27.16    3.15
  10   2   8   21.71    3.06
 -10   2  -8   24.99    2.53
 -10  -2   8   29.72    2.89
   0   3   8    0.15    0.51
   0  -3   8    0.70    0.72
   0  -3   8    0.50    0.61
   0  -3  -8   -0.82    0.56
   0   3   8    0.24    0.77
   0  -3   8   -0.14    0.94
  -1   3   8   24.93    2.17
   1  -3   8   26.62    1.95
  -1   3   8   20.03    1.62
  -1  -3  -8   22.10    1.70
   1  -3   8   23.18    1.91
   1  -3   8   27.18    1.94
   1   3   8   19.53    1.43
   1  -3  -8   22.38    1.62
  -1  -3   8   24.77    1.88
  -1  -3   8   26.50    2.34
  -1  -3   8   24.17    1.70
   1   3   8   30.02    2.05
  -2  -3  -8    3.53    0.77
  -2   3   8    4.17    0.80
   2  -3   8    4.75    0.89
   2   3  -8    3.76    1.12
   2  -3   8    5.34    1.08
  -2   3   8    2.04    1.30
   2   3   8    3.26    0.93
  -2   3  -8    2.79    0.82
   2  -3  -8    4.90    0.71
  -2  -3   8    2.36    0.76
  -2  -3   8    3.16    0.64
   3  -3   8    6.94    1.23
   3  -3   8    6.56    1.02
  -3   3   8    6.99    1.05
  -3  -3  -8    5.51    0.91
   3   3  -8    6.63    1.40
   3   3   8    5.06    1.07
   3  -3  -8    2.60    1.29
   3  -3  -8    7.79    0.83
  -3   3  -8    6.99    0.83
  -3  -3   8    4.99    0.98
   4   3  -8   17.72    2.06
  -4   3   8   18.10    1.65
   4  -3   8   15.05    1.70
   4  -3   8   15.41    1.57
  -4  -3  -8   14.36    1.42
  -4  -3   8   14.12    1.47
   4   3   8   13.85    1.65
   4  -3  -8   13.72    1.95
  -4   3  -8   15.70    1.27
   4  -3  -8   19.42    1.31
   5  -3   8    3.42    1.08
  -5   3   8    3.37    1.14
   5   3  -8    0.86    1.39
   5  -3   8    2.58    1.23
  -5  -3  -8    2.74    0.99
   5  -3  -8    3.90    1.50
   5   3   8    2.78    1.15
  -5  -3   8    2.61    0.93
  -5   3  -8    2.06    0.73
  -6   3   8   -0.05    1.11
   6   3  -8    0.79    1.53
  -6  -3  -8   -0.57    1.01
   6  -3   8    0.22    1.28
   6  -3   8    1.21    1.19
  -6  -3   8    0.10    0.94
   6   3   8   -1.22    1.21
   6  -3  -8    2.88    1.50
  -7  -3  -8   -1.50    1.10
   7  -3   8    0.61    1.28
   7  -3   8   -0.90    1.33
   7   3  -8    0.17    1.63
  -7   3   8   -0.57    1.18
   7  -3  -8    1.45    1.53
  -7  -3   8    1.75    1.21
   7   3   8   -1.27    1.36
  -8   3   8    2.70    1.49
   8  -3   8    4.38    1.63
   8  -3   8    4.73    1.61
   8   3  -8    7.97    2.13
  -8  -3  -8    4.11    1.40
  -8  -3   8    5.84    1.47
   8   3   8    5.93    1.81
   8  -3  -8    6.19    1.93
   9   3  -8    5.62    2.27
  -9  -3  -8    5.48    1.59
  -9   3   8    7.42    1.81
   9  -3   8    8.42    1.90
   9   3   8    7.24    2.06
  -9  -3   8    8.15    1.81
   9  -3  -8   10.61    2.17
  -9   3  -8    9.39    1.69
 -10  -3  -8   -0.02    1.55
  10   3  -8    2.09    2.28
 -10   3   8    1.96    1.63
  10  -3  -8    0.20    1.86
 -10  -3   8   -1.21    1.46
 -10   3  -8    2.61    1.66
  10   3   8   -0.18    1.89
   0  -4  -8  112.87    5.99
   0  -4   8  121.77    6.74
   0   4   8  122.85    6.62
   0  -4   8  116.48    6.34
   0  -4   8  118.94    6.22
   0   4   8  104.64    6.00
   1   4  -8   -0.11    0.85
  -1  -4  -8    0.54    0.67
  -1   4   8   -0.62    0.56
   1  -4   8   -0.76    0.77
  -1   4   8    1.51    0.98
   1  -4   8   -0.34    0.61
   1  -4   8   -0.45    0.90
  -1  -4   8   -0.26    0.76
   1   4   8    0.42    0.81
   1  -4  -8   -0.58    0.63
   1   4   8    0.51    0.43
  -1  -4   8    0.30    0.67
  -2   4   8  119.07    6.27
  -2  -4  -8  117.37    6.14
   2   4  -8  124.14    6.88
  -2   4   8  104.31    6.99
   2  -4   8  119.99    6.58
   2  -4   8  120.88    6.46
  -2   4  -8  115.76    6.32
   2   4   8  128.25    6.70
  -2  -4   8  110.63    6.10
  -2  -4   8  111.40    6.33
   2  -4  -8  115.78    6.08
  -3   4   8    1.18    0.82
   3  -4   8    1.16    0.78
  -3  -4  -8    1.32    0.78
   3  -4   8   -0.53    1.08
   3   4  -8    1.36    1.16
  -3  -4   8    1.04    0.79
  -3  -4   8    0.42    0.59
  -3   4  -8    2.26    0.70
   3  -4  -8    1.90    0.73
   3   4   8    0.35    0.84
  -4  -4  -8  211.23   10.42
   4   4  -8  184.74   11.48
  -4   4   8  210.21   10.73
   4  -4   8  211.69   10.78
   4  -4   8  198.92   11.08
   4  -4  -8  216.74   10.34
  -4   4  -8  202.41   10.51
   4  -4  -8  194.10   11.51
  -4  -4   8  204.09   10.73
   4   4   8  195.30   11.22
   5  -4   8   -0.04    0.95
  -5   4   8    1.93    1.03
  -5  -4  -8    0.80    0.96
   5  -4   8   -2.18    1.29
   5   4  -8    0.87    1.46
   5  -4  -8   -3.05    1.22
  -5   4  -8    0.13    0.74
   5   4   8    0.09    1.10
  -5  -4   8    0.46    0.92
  -6  -4  -8  104.77    5.68
   6  -4   8  107.19    6.03
   6  -4   8   98.28    6.07
  -6   4   8  111.12    5.96
   6   4  -8   91.81    6.62
   6  -4  -8  104.98    6.46
   6   4   8   93.94    6.21
  -6   4  -8  104.36    5.61
  -6  -4   8   96.36    5.78
  -7  -4  -8    4.26    1.27
   7  -4   8    5.11    1.46
   7  -4   8    3.63    1.67
  -7   4   8    5.19    1.45
   7   4  -8    5.58    1.94
  -7  -4   8    4.07    1.34
   7  -4  -8    7.26    1.77
   7   4   8    3.68    1.55
   8  -4   8   23.43    2.53
  -8   4   8   19.00    2.30
  -8  -4  -8   21.75    2.16
   8   4  -8   25.04    3.10
   8  -4  -8   25.16    2.75
  -8  -4   8   27.77    2.51
   8   4   8   18.40    2.53
   9  -4   8   -1.77    1.63
  -9   4   8   -0.51    1.46
  -9  -4  -8    0.38    1.40
   9   4  -8   -0.79    2.02
   9   4   8    0.43    1.73
   9  -4  -8   -0.69    1.65
  -9  -4   8   -0.52    1.47
 -10   4   8    9.59    1.99
 -10  -4  -8    7.49    1.75
  10   4  -8    9.95    2.72
  10   4   8    6.86    2.29
 -10   4  -8    9.25    1.90
  10  -4  -8    4.36    2.07
 -10  -4   8   10.96    2.11
   0   5   8   -0.18    0.52
   0   5   8   -0.25    0.88
   0  -5   8   -1.23    0.68
   0  -5   8   -0.55    0.99
   0  -5   8   -1.40    0.89
   0  -5  -8    0.64    0.72
   1  -5   8    1.16    0.80
  -1  -5  -8    1.63    0.77
  -1   5   8    3.46    1.19
   1  -5   8    3.09    1.17
  -1   5   8    3.13    0.77
   1   5  -8    1.70    0.96
   1  -5   8    3.22    1.02
   1   5   8    2.75    0.53
   1   5   8    2.24    0.98
  -1  -5   8    2.78    0.84
  -1  -5   8    0.81    0.92
   1  -5  -8    1.93    0.81
   2   5  -8   11.58    1.55
   2  -5   8   10.90    1.56
  -2  -5  -8    7.88    1.08
  -2   5   8   10.78    1.82
  -2   5   8    8.81    1.10
   2  -5   8    9.28    1.19
  -2   5  -8    9.09    1.27
   2   5   8   11.42    1.36
   2  -5  -8    9.45    1.09
  -2  -5   8   11.16    1.17
  -2  -5   8    8.67    1.20
   3  -5   8   11.59    1.78
  -3  -5  -8   11.67    1.27
   3  -5   8    9.83    1.23
   3   5  -8   12.29    1.76
  -3   5   8   10.23    2.07
  -3   5   8   11.65    1.31
  -3   5  -8   13.43    1.32
   3   5   8   11.74    1.47
  -3  -5   8   11.34    1.36
   3  -5  -8   10.89    1.20
  -3  -5   8   12.54    1.16
   4  -5   8    0.57    0.82
   4  -5   8   -0.05    1.35
  -4   5   8    0.08    0.89
   4   5  -8   -0.57    1.33
  -4  -5  -8   -0.39    0.89
  -4  -5   8    0.31    0.80
  -4   5  -8    0.78    0.74
   4  -5  -8    0.75    0.94
   4  -5  -8    2.13    1.43
   4   5   8    0.19    1.02
  -5  -5  -8    5.46    1.16
   5   5  -8    1.98    1.61
  -5   5   8    5.20    1.19
   5  -5   8    3.65    1.07
   5  -5   8    4.04    1.63
  -5  -5   8    4.99    1.11
  -5   5  -8    3.89    0.98
   5  -5  -8    4.48    1.63
   5   5   8    3.86    1.33
   6  -5   8   -0.06    1.54
  -6   5   8   -0.42    1.15
  -6  -5  -8   -0.42    1.04
   6   5  -8   -1.56    1.62
   6  -5  -8    0.93    1.43
  -6   5  -8   -0.09    0.88
   6   5   8   -0.06    1.24
  -6  -5   8   -0.27    1.08
  -7   5   8    2.39    1.29
   7   5  -8    1.21    1.82
   7  -5   8    2.13    1.72
  -7  -5  -8   -0.07    1.13
  -7  -5   8    0.57    1.10
   7  -5  -8    1.24    1.45
   7   5   8    3.09    1.51
  -8  -5  -8   -0.32    1.24
  -8   5   8   -0.15    1.38
   8  -5   8    1.30    1.77
   8   5  -8    0.14    2.01
  -8  -5   8   -0.68    1.31
   8  -5  -8   -1.57    1.57
   8   5   8    0.16    1.55
   9  -5   8    1.97    1.94
  -9  -5  -8    4.53    1.56
  -9   5   8    5.43    1.78
   9   5  -8    2.96    2.33
   9  -5  -8    3.97    1.86
   9   5   8    1.84    1.85
  -9  -5   8    2.48    1.51
 -10  -5  -8    0.61    1.61
 -10   5   8    0.98    1.80
  10  -5   8    1.08    2.02
  10   5  -8    1.28    2.52
  10   5   8   -0.40    1.89
  10  -5  -8   -0.89    1.85
 -10  -5   8    1.54    1.76
   0  -6   8    4.95    0.98
   0  -6  -8    5.85    1.04
   0   6   8    5.56    0.83
   0   6   8    7.28    1.28
   0  -6   8    6.95    1.28
   0   6  -8    5.16    1.09
   1   6  -8   35.21    2.65
  -1   6   8   31.31    2.63
  -1   6   8   32.39    2.09
  -1  -6  -8   30.83    2.28
   1  -6   8   32.03    2.66
   1  -6   8   31.29    2.55
   1  -6   8   29.38    2.34
  -1  -6   8   30.24    2.56
   1   6   8   28.59    1.91
   1  -6  -8   26.88    2.25
  -1  -6   8   36.18    2.43
   1   6   8   32.09    2.49
  -2  -6  -8   32.30    2.37
   2  -6   8   28.73    2.62
   2   6  -8   32.42    2.88
   2  -6   8   34.36    2.48
  -2   6   8   33.73    2.31
  -2   6   8   30.36    2.99
  -2  -6   8   31.84    2.34
   2  -6  -8   33.50    2.37
  -2  -6   8   33.01    2.57
   2   6   8   39.21    2.63
  -2   6  -8   31.42    2.59
  -3  -6  -8    0.39    0.89
   3  -6   8   -0.47    1.41
   3  -6   8    1.33    0.83
  -3   6   8   -0.55    0.88
   3   6  -8   -0.63    1.27
  -3   6   8   -0.99    1.60
  -3  -6   8    0.66    0.78
  -3  -6   8    1.57    0.89
   3  -6  -8    0.89    0.92
  -3   6  -8    1.07    0.92
   3   6   8    0.61    0.96
  -4  -6  -8  161.02    8.20
  -4   6   8  162.31    8.46
   4   6  -8  143.00    9.18
   4  -6   8  150.25    8.66
  -4  -6   8  150.85    8.52
  -4   6  -8  157.38    8.33
   4   6   8  164.56    8.89
   4  -6  -8  152.99    9.16
   4  -6  -8  160.52    8.22
  -5  -6  -8    0.20    1.04
  -5   6   8    1.34    1.11
   5  -6   8    0.12    1.65
   5   6  -8    1.61    1.72
   5   6   8    0.17    1.19
   5  -6  -8   -0.16    1.41
  -5  -6   8   -0.79    0.87
  -5   6  -8    0.17    0.89
   6   6  -8  111.16    7.68
  -6  -6  -8  123.41    6.56
  -6   6   8  122.32    6.81
   6  -6   8  131.78    7.23
  -6   6  -8  114.78    6.57
   6   6   8  115.63    7.21
   6  -6  -8  123.52    7.37
  -6  -6   8  121.52    6.80
   7  -6   8    2.98    1.99
   7   6  -8    4.48    2.12
  -7  -6  -8    5.69    1.41
  -7   6   8    6.27    1.53
   7  -6  -8    5.77    1.72
   7   6   8    4.26    1.68
  -7  -6   8    7.22    1.48
  -7   6  -8    6.06    1.31
   8  -6   8    9.03    2.37
  -8  -6  -8   11.41    1.71
   8   6  -8   11.73    2.72
  -8   6   8   10.93    1.86
  -8  -6   8   13.33    1.92
   8  -6  -8   11.84    2.19
   8   6   8   12.97    2.15
   9  -6   8    0.51    2.13
   9   6  -8    0.98    2.37
  -9  -6  -8    0.75    1.47
  -9   6   8    1.40    1.67
  -9  -6   8    3.46    1.68
   9   6   8    1.42    1.79
  10   6  -8    4.02    2.70
  10  -6   8    5.51    2.37
 -10  -6  -8    4.28    1.72
 -10   6   8    4.60    1.94
 -10  -6   8    5.15    1.93
  10   6   8    5.20    2.14
   0  -7   8    0.96    1.06
   0   7   8   -0.60    0.63
   0   7   8    0.34    1.08
   0   7  -8   -0.96    0.84
   0  -7  -8    0.51    0.94
   0  -7   8   -0.43    0.85
  -1   7   8    1.01    0.83
  -1   7   8    1.67    1.23
   1   7  -8    0.87    1.06
   1  -7   8    2.49    1.22
  -1  -7  -8   -0.62    0.93
   1  -7  -8   -0.35    0.97
   1   7   8   -1.19    0.97
  -1   7  -8    0.20    0.79
   1   7   8   -0.28    0.59
  -1   7  -8   -1.38    1.15
  -1  -7   8    0.88    0.91
  -1  -7   8    0.12    0.95
  -2   7   8    9.61    1.25
  -2  -7  -8    7.96    1.25
   2  -7   8   11.30    1.71
  -2   7   8    6.51    1.87
   2   7  -8   11.43    1.60
   2   7   8    9.61    1.45
  -2  -7   8    8.14    1.34
  -2  -7   8   10.18    1.24
   2  -7  -8    8.54    1.27
  -2   7  -8    7.01    1.48
  -3   7   8    5.94    1.22
   3   7  -8    5.81    1.61
  -3  -7  -8    5.25    1.12
  -3   7   8    5.30    2.03
   3  -7   8    6.65    1.73
   3  -7  -8    6.37    1.21
   3   7   8    6.99    1.32
  -3   7  -8    7.22    1.31
  -3  -7   8    8.74    1.43
  -3  -7   8    5.37    1.03
   4  -7   8   -1.35    1.57
  -4  -7  -8    1.65    1.06
   4   7  -8    0.93    1.57
  -4   7   8   -1.13    1.04
   4  -7  -8   -0.80    1.39
  -4   7  -8    0.56    0.98
   4   7   8    1.32    1.16
   4  -7  -8   -0.38    1.13
  -4  -7   8    1.36    1.06
  -5  -7  -8    3.32    1.17
  -5   7   8    0.43    1.12
   5  -7   8   -1.50    1.63
   5   7  -8    3.03    1.90
   5   7   8    1.52    1.28
  -5  -7   8    2.92    1.25
  -5   7  -8    1.85    1.03
   5  -7  -8    3.39    1.58
  -6  -7  -8    1.36    1.19
   6  -7   8    1.27    1.83
   6   7  -8    1.39    1.84
  -6   7   8    2.93    1.38
  -6  -7   8   -0.08    1.20
   6   7   8    1.43    1.39
   6  -7  -8    1.06    1.44
  -6   7  -8    1.64    1.03
   7  -7   8    5.05    2.18
  -7   7   8    3.28    1.52
   7   7  -8    1.80    2.09
  -7  -7  -8    4.71    1.39
   7   7   8    5.82    1.72
  -7  -7   8    7.41    1.65
   7  -7  -8    8.67    1.85
  -7   7  -8    5.95    1.33
   8   7  -8    2.79    2.30
   8  -7   8    1.28    2.16
  -8  -7  -8    2.04    1.46
  -8   7   8    4.32    1.57
   8   7   8    1.97    1.68
  -8  -7   8    3.06    1.62
   9  -7   8    2.60    2.30
  -9  -7  -8    1.24    1.53
   9   7  -8   -0.27    2.40
  -9   7   8    0.16    1.70
   9   7   8    1.49    1.85
  -9  -7   8   -1.18    1.61
  10  -7   8   -3.71    2.31
  10   7  -8   -0.24    2.66
 -10  -7  -8   -0.02    1.61
 -10   7   8    0.70    1.93
 -10  -7   8   -1.30    1.74
  10   7   8    2.29    2.09
   0   8  -8   46.59    3.36
   0   8   8   52.53    3.04
   0   8   8   49.52    3.58
   0  -8   8   46.92    3.36
   0  -8   8   53.98    3.55
   0  -8  -8   48.91    3.25
   1   8  -8    4.03    1.26
  -1  -8  -8    4.88    1.23
  -1   8   8    7.36    1.60
   1  -8   8    4.16    1.40
  -1   8   8    5.67    1.09
   1   8   8    3.72    1.29
  -1   8  -8    6.11    1.57
  -1  -8   8    5.25    1.15
   1   8   8    6.20    0.93
  -1  -8   8    4.53    1.20
   1  -8  -8    5.47    1.23
   2  -8   8   74.01    4.39
  -2  -8  -8   68.02    3.96
  -2   8   8   60.17    4.80
   2   8  -8   64.59    4.47
  -2   8   8   64.17    3.97
  -2  -8   8   63.71    4.27
   2   8   8   76.10    4.33
  -2  -8   8   65.23    3.93
   2  -8  -8   63.35    4.00
  -2   8  -8   59.47    4.18
  -3   8   8    1.92    1.13
  -3  -8  -8    3.55    1.15
   3  -8   8   -0.03    1.50
  -3   8   8    2.63    2.00
   3   8  -8    3.93    1.65
  -3   8  -8    2.54    1.22
   3  -8  -8    2.87    1.21
   3   8   8    1.79    1.19
  -3  -8   8    3.88    1.28
  -4   8   8   69.63    4.18
  -4  -8  -8   65.40    4.11
   4  -8   8   68.19    4.68
   4   8  -8   57.46    5.02
   4  -8  -8   74.90    4.86
  -4   8  -8   64.85    4.18
   4   8   8   66.47    4.40
  -4  -8   8   60.02    4.35
   4  -8  -8   74.76    4.18
   5   8  -8   -0.93    1.71
  -5   8   8    2.33    1.35
   5  -8   8   -0.98    1.81
  -5  -8  -8    0.53    1.13
  -5  -8   8    2.51    1.35
   5   8   8    0.09    1.27
  -5   8  -8    1.39    1.10
   5  -8  -8    1.92    1.48
   5  -8  -8    1.63    1.45
   6   8  -8   25.17    3.23
  -6   8   8   27.85    2.68
  -6  -8  -8   31.43    2.60
   6  -8   8   31.65    3.30
  -6   8  -8   28.89    2.54
   6   8   8   26.95    2.75
  -6  -8   8   34.18    2.84
   7  -8   8   -1.25    2.06
  -7   8   8    0.99    1.39
  -7  -8  -8    0.57    1.29
   7   8  -8   -1.10    2.13
   7   8   8    0.30    1.53
  -7   8  -8    0.83    1.19
  -7  -8   8    2.50    1.57
  -8   8   8   26.88    2.74
  -8  -8  -8   23.95    2.27
   8  -8   8   20.67    3.14
   8   8  -8   18.41    3.27
   8   8   8   19.55    2.67
  -8  -8   8   22.35    2.63
  -9  -8  -8    4.92    1.66
   9  -8   8    2.34    2.59
  -9   8   8    1.20    1.90
   9   8  -8    3.51    2.74
  -9  -8   8    4.26    1.88
   9   8   8    2.33    1.92
   0  -9  -8   -0.39    1.22
   0  -9   8    0.36    1.10
   0   9   8    2.27    1.40
   0   9   8   -0.54    0.85
   0  -9   8   -1.74    1.12
  -1   9   8    6.98    1.82
   1  -9   8   10.00    1.64
  -1  -9  -8    7.38    1.46
  -1   9   8    9.56    1.32
  -1   9  -8    9.92    1.74
   1  -9  -8    8.73    1.52
  -1  -9   8    9.03    1.39
  -1  -9   8    7.72    1.40
   1   9   8    5.68    1.58
  -2  -9  -8   14.70    1.70
   2  -9   8   12.59    1.96
   2   9  -8   12.42    1.91
  -2   9   8   14.24    1.68
  -2   9   8   10.95    2.35
   2   9   8   14.60    1.83
  -2   9  -8   10.69    1.91
  -2  -9   8   16.21    1.69
   2  -9  -8   13.36    1.65
  -2  -9   8   11.29    1.55
  -3  -9  -8   -0.79    1.18
   3   9  -8   -1.12    1.57
  -3   9   8    1.60    1.17
  -3   9   8    5.31    2.15
   3  -9   8   -2.40    1.47
  -3   9  -8   -0.18    1.15
   3   9   8    1.81    1.27
  -3  -9   8    2.78    1.27
   3  -9  -8    0.75    1.22
   4  -9   8    4.52    1.74
   4   9  -8    0.84    1.73
  -4   9   8    2.91    1.21
  -4  -9  -8    1.64    1.19
   4  -9  -8    3.30    1.39
   4   9   8    3.06    1.36
  -4   9  -8    2.63    1.30
  -4  -9   8    3.23    1.46
  -5  -9  -8   -0.17    1.18
   5   9  -8   -0.64    1.85
  -5   9   8    1.24    1.25
   5  -9   8   -1.19    1.79
  -5   9  -8    0.02    1.20
   5   9   8    1.85    1.42
   5  -9  -8   -2.84    1.48
  -5  -9   8    3.35    1.39
  -6   9   8    0.95    1.33
  -6  -9  -8    2.00    1.35
   6   9  -8    1.64    2.11
   6  -9   8    1.86    2.09
   6   9   8    3.22    1.60
  -6   9  -8    0.59    1.23
  -6  -9   8    1.90    1.56
   7   9  -8   -1.85    2.21
  -7  -9  -8   -0.41    1.37
  -7   9   8   -1.89    1.36
   7  -9   8   -0.48    2.16
   7   9   8   -0.37    1.59
  -7   9  -8    0.81    1.29
  -7  -9   8    0.03    1.54
  -8  -9  -8    1.11    1.52
   8  -9   8   -1.58    2.35
   8   9  -8    0.86    2.43
  -8   9   8    0.75    1.60
  -8   9  -8   -0.22    1.34
  -8  -9   8    2.79    1.64
   8   9   8   -1.19    1.69
   9   9  -8    3.32    2.68
  -9  -9  -8    4.07    1.73
   9  -9   8    4.75    2.78
  -9   9   8    5.52    2.12
   9   9   8   -0.85    1.90
  -9  -9   8    7.01    2.15
   0  10  -8  157.94    8.84
   0 -10   8  154.63    8.48
   0 -10  -8  149.47    8.44
   0  10   8  166.36    9.17
   0  10   8  155.65    8.38
  -1 -10  -8    6.35    1.54
  -1  10   8    7.09    1.35
   1 -10   8    4.33    1.59
  -1  10   8    2.65    1.77
  -1 -10   8    7.14    1.54
  -1 -10   8    8.14    1.49
  -1  10  -8    4.17    1.74
   1  10   8    6.05    1.73
   1 -10  -8    6.16    1.47
   2 -10   8   91.00    5.49
  -2  10   8   93.16    5.30
  -2 -10  -8   95.61    5.31
   2 -10  -8   85.97    5.26
  -2  10  -8   82.50    5.63
   2  10   8   94.33    5.70
  -2 -10   8   90.38    5.30
  -2 -10   8   89.35    5.50
   3 -10   8    6.34    1.82
  -3  10   8    5.56    1.37
  -3 -10  -8    7.95    1.49
  -3  10  -8    7.03    1.74
  -3 -10   8    6.45    1.41
   3  10   8    5.90    1.61
   3 -10  -8    4.69    1.49
   4  10  -8   21.27    2.70
  -4  10   8   23.91    2.38
   4 -10   8   24.03    2.64
  -4 -10  -8   22.91    2.15
   4 -10  -8   21.94    2.27
   4  10   8   22.71    2.36
  -4 -10   8   18.15    2.33
  -4  10  -8   23.03    2.36
  -5 -10  -8   -0.21    1.29
   5 -10   8    1.55    1.84
   5  10  -8   -0.44    2.01
  -5  10   8    2.56    1.54
   5  10   8    3.14    1.57
  -5 -10   8    1.44    1.41
   5 -10  -8    4.74    1.71
  -5  10  -8    2.78    1.41
  -6  10   8   17.37    2.37
   6 -10   8   18.60    2.89
  -6 -10  -8   18.48    2.04
   6  10  -8   17.24    3.04
  -6 -10   8   19.18    2.51
   6  10   8   17.43    2.35
  -6  10  -8   19.20    2.19
  -7  10   8    4.56    1.89
   7 -10   8    2.83    2.47
  -7 -10  -8    3.52    1.55
   7  10  -8    1.61    2.42
  -7  10  -8    3.08    1.53
  -7 -10   8    4.75    1.97
   7  10   8    2.32    1.77
   8  10  -8   18.53    3.28
   8 -10   8   15.24    3.12
  -8  10   8   18.74    2.73
  -8 -10  -8   26.87    2.39
  -8 -10   8   29.21    2.97
   8  10   8   15.85    2.62
  -8  10  -8   16.43    2.24
   0 -11   8   -0.52    1.35
   0  11  -8   -0.48    1.51
   0 -11  -8   -1.49    1.35
  -1  11   8    5.53    1.40
   1 -11   8    8.25    1.78
  -1 -11  -8    9.15    1.70
   1  11  -8   10.58    1.77
   1  11   8    6.61    1.84
  -1 -11   8    7.84    1.52
   1 -11  -8    7.64    1.67
  -1  11  -8    7.99    1.90
  -1 -11   8   13.60    1.81
   2 -11   8    3.04    1.65
  -2  11   8   -1.81    1.11
  -2 -11  -8    2.69    1.43
  -2 -11   8    1.35    1.17
  -2 -11   8    2.04    1.42
   2  11   8    0.17    1.46
   2 -11  -8    0.18    1.37
  -2  11  -8    0.72    1.52
  -3  11   8    1.84    1.38
   3 -11   8    0.78    1.66
  -3 -11  -8    0.88    1.37
  -3 -11   8    1.14    1.33
   3 -11  -8    4.25    1.53
   3  11   8    2.13    1.53
  -3  11  -8    2.65    1.67
  -4  11   8    3.49    1.44
   4 -11   8   -0.92    1.73
  -4 -11  -8   -0.70    1.34
   4 -11  -8    1.82    1.59
  -4 -11   8    0.99    1.31
   4  11   8    1.47    1.50
  -4  11  -8   -0.39    1.36
   5 -11   8    0.52    1.88
  -5 -11  -8   -0.47    1.41
  -5  11   8   -1.23    1.47
   5 -11  -8    2.71    1.82
  -5  11  -8    0.26    1.49
   5  11   8   -0.71    1.58
  -5 -11   8    2.55    1.60
   6 -11   8   -4.10    1.94
  -6  11   8    2.07    1.71
   6  11  -8   -2.08    2.19
  -6 -11  -8    0.17    1.48
  -6 -11   8    0.49    1.71
   6  11   8   -0.08    1.69
  -6  11  -8   -0.88    1.38
  -7  11   8    1.61    1.84
   7 -11   8   -1.08    2.33
  -7 -11  -8   -2.90    1.47
   7  11  -8    0.40    2.33
  -7 -11   8    0.27    1.82
  -7  11  -8    0.71    1.52
   7  11   8   -0.20    1.80
  -8  11   8   -2.33    1.81
   8  11  -8    2.74    2.68
   8 -11   8   -6.53    2.41
  -8 -11  -8    0.48    1.65
  -8 -11   8    0.78    2.01
   8  11   8    0.63    2.00
  -8  11  -8   -2.18    1.46
   0 -12   8  123.75    7.06
   0 -12  -8  119.84    6.95
   0  12  -8  124.37    7.39
   1  12  -8   14.21    2.11
   1 -12   8   11.05    2.01
  -1 -12  -8   13.58    1.97
  -1  12   8    9.75    1.70
   1 -12  -8   12.13    1.87
  -1 -12   8   11.44    1.99
  -1  12  -8   13.58    2.21
  -2 -12  -8   44.58    3.55
  -2  12   8   51.93    3.47
   2 -12   8   56.23    3.92
  -2 -12   8   49.41    3.73
  -2  12  -8   42.44    3.92
   2 -12  -8   42.60    3.44
  -2 -12   8   48.91    3.73
  -3 -12  -8    6.12    1.71
  -3  12   8    4.03    1.51
   3 -12   8    6.86    1.99
   3  12   8    2.86    1.74
   3 -12  -8    4.75    1.66
  -3 -12   8    6.93    1.66
  -3  12  -8    2.98    1.73
  -4 -12  -8   12.93    1.98
  -4  12   8   12.43    2.08
   4 -12   8   13.06    2.34
  -4 -12   8   17.50    2.18
   4 -12  -8   16.57    2.15
  -4  12  -8   13.14    2.23
   4  12   8   10.04    2.13
  -5  12   8   -1.63    1.55
   5 -12   8   -3.03    1.85
  -5 -12  -8    0.02    1.48
  -5  12  -8    0.69    1.61
   5 -12  -8   -0.08    1.88
   5  12   8    1.57    1.75
  -5 -12   8    1.88    1.46
  -6  12   8   10.28    2.05
  -6 -12  -8   12.65    1.96
   6 -12   8    9.02    2.59
  -6 -12   8    8.32    2.06
   6  12   8    7.55    2.11
  -6  12  -8    5.79    1.84
  -7 -12  -8    3.88    1.79
   7 -12   8    3.56    2.57
  -7  12   8    5.41    1.90
   7  12   8    5.06    2.16
  -7 -12   8    6.99    2.10
  -7  12  -8    4.25    1.79
   0 -13   8    1.95    1.72
   0  13  -8    1.59    1.74
   0 -13  -8   -0.32    1.60
  -1 -13  -8    1.94    1.63
   1 -13   8    4.13    1.85
  -1  13   8    0.09    1.27
   1  13  -8   -0.37    1.46
  -1 -13   8    3.66    1.74
  -1  13  -8    1.49    1.90
   1 -13  -8   -0.89    1.62
   2  13  -8    3.46    1.67
  -2  13   8   -1.70    1.30
  -2 -13  -8   -3.02    1.57
   2 -13   8   -2.20    1.66
  -2  13  -8    0.41    1.79
   2 -13  -8    1.82    1.64
  -2 -13   8    0.78    1.74
   3 -13   8    2.55    1.90
  -3  13   8   -0.12    1.38
  -3 -13  -8   -1.74    1.57
  -3 -13   8    0.89    1.42
   3 -13  -8   -0.52    1.65
  -3  13  -8   -2.85    1.67
  -4 -13  -8    1.93    1.71
   4 -13   8   -1.00    1.85
  -4  13   8    4.66    1.70
  -4  13  -8    0.30    1.80
  -4 -13   8    1.98    1.46
   4 -13  -8   -0.05    1.76
  -5  13   8    0.51    1.64
   5 -13   8   -0.59    2.04
  -5 -13  -8   -0.26    1.62
  -5  13  -8   -0.69    1.81
   5  13   8    1.20    1.91
   5 -13  -8    2.42    2.05
  -5 -13   8   -0.52    1.60
  -6 -13  -8    1.50    1.69
   6 -13   8    4.86    2.43
  -6  13   8    4.30    1.84
  -6  13  -8    1.99    1.83
  -6 -13   8    3.97    1.89
   6  13   8   -0.52    1.95
   0 -14   8   10.15    2.21
   0  14  -8   11.33    2.24
   0 -14  -8    9.56    2.05
   1  14  -8    1.01    1.71
   1 -14   8   -0.61    1.86
  -1 -14  -8    1.00    1.74
  -1 -14   8    1.12    1.88
   1 -14  -8    2.07    1.77
  -1  14  -8    3.89    2.00
   2 -14   8   23.84    2.87
  -2 -14  -8   21.22    2.50
   2  14  -8   22.44    2.71
  -2  14   8   23.11    2.44
  -2  14  -8   18.19    2.82
   2 -14  -8   24.75    2.63
  -2 -14   8   26.87    2.83
  -3 -14  -8    0.79    1.80
  -3  14   8    3.81    1.63
   3  14  -8    3.01    1.54
   3 -14   8    3.21    2.07
  -3  14  -8   -1.13    1.92
   3 -14  -8    2.04    1.87
  -4 -14  -8   16.12    2.32
  -4  14   8   13.88    2.20
   4 -14   8   14.04    2.58
  -4 -14   8   18.52    2.40
   4 -14  -8   15.27    2.47
  -4  14  -8    8.33    2.46
   5 -14   8    0.44    2.17
  -5  14   8    1.19    1.80
  -5 -14  -8   -0.27    1.79
  -5  14  -8    4.61    2.04
  -5 -14   8    1.67    1.64
   5 -14  -8    2.03    2.16
   0 -15  -8    1.24    1.86
   0 -15   8   -0.55    1.99
   0  15  -8    0.27    1.90
   1  15  -8    0.99    1.88
   1 -15   8    1.43    2.04
  -1 -15  -8    1.36    1.87
   1 -15  -8    3.58    1.90
  -1  15  -8    2.43    2.10
  -1 -15   8    3.46    2.10
   2  15  -8   -0.95    1.67
  -2 -15  -8   -1.02    1.83
   2 -15   8   -1.20    1.97
  -2  15  -8    0.15    2.13
   2 -15  -8    0.37    1.84
  -3  15   8    1.80    1.60
   3 -15   8    4.58    2.25
   3  15  -8    2.27    1.65
  -3 -15  -8   -2.20    1.75
   3 -15  -8    0.64    1.99
  -3  15  -8    1.56    2.04
  -4 -15  -8    2.29    1.97
   4 -15   8    3.82    2.24
   4  15  -8    1.30    1.65
  -4  15   8   -1.79    1.57
  -4  15  -8   -1.55    2.05
   4 -15  -8    1.75    2.14
   0 -16  -8    5.29    2.16
   0  16  -8    4.31    2.09
   0 -16   8    6.47    2.30
   1 -16   8    8.47    2.46
  -1 -16  -8   -1.64    1.98
   1  16  -8    1.50    2.00
  -1  16  -8    1.05    2.11
   1 -16  -8    5.49    2.17
  -1 -16   8    1.28    2.22
  -2 -16  -8   15.44    2.42
   2 -16   8   10.20    2.68
   2  16  -8   11.58    2.38
   2 -16  -8   11.73    2.47
  -2  16  -8   11.64    2.56
   0   0   9    0.24    0.46
   0   0   9    0.34    0.82
   0   0  -9   -0.21    0.51
  -1   0   9    0.02    0.53
  -1   0  -9   -0.05    0.60
   1   0   9    0.13    0.49
   1   0   9    0.08    0.76
  -1   0   9   -0.25    1.04
   1   0  -9   -1.39    0.48
  -2   0   9   -0.15    0.51
  -2   0  -9    0.42    0.66
   2   0  -9    0.17    0.45
   2   0   9    0.78    0.83
  -2   0   9    0.81    1.22
   2   0   9   -0.29    0.40
   3   0  -9    1.37    1.05
   3   0  -9   -0.68    0.40
  -3   0  -9   -0.14    0.35
  -3   0  -9   -0.24    0.77
   3   0   9   -0.19    0.84
  -3   0   9    0.12    0.71
  -4   0   9    0.17    0.75
   4   0  -9    0.53    1.19
   4   0   9    0.23    0.97
  -4   0  -9   -0.19    0.82
   5   0   9   -0.50    1.10
  -5   0   9    0.50    0.89
  -5   0  -9    0.04    0.95
   5   0  -9   -0.38    1.32
   6   0   9    1.01    1.31
  -6   0   9    1.74    1.05
   6   0  -9    1.48    1.52
  -6   0  -9   -2.03    1.01
  -7   0   9    2.00    1.25
   7   0  -9   -1.72    1.51
  -7   0  -9   -1.55    1.16
   7   0   9    1.03    1.48
  -8   0  -9   -1.08    1.24
   8   0  -9   -0.45    1.74
   8   0   9    0.83    1.57
  -8   0   9    0.48    1.25
   9   0  -9    0.50    1.91
  -9   0   9   -1.19    1.31
   9   0   9   -1.91    1.56
  -9   0  -9   -0.71    1.35
  10   0  -9   -0.39    2.10
  10   0   9   -3.43    1.78
 -10   0   9    0.34    1.60
 -10   0  -9    0.92    1.62
   0  -1   9   -0.12    0.81
   0   1  -9    0.34    0.55
   0  -1   9    0.01    0.48
   0   1   9    0.71    0.84
   0  -1  -9    0.88    0.55
   0   1   9   -0.60    0.42
   1   1  -9  101.54    5.34
  -1   1   9  111.42    5.56
   1  -1   9  101.18    5.97
  -1   1   9  104.84    6.21
  -1  -1  -9  105.04    5.43
   1  -1   9  109.59    5.62
   1  -1  -9  104.97    5.36
   1   1   9   99.03    5.98
  -1   1  -9  103.16    5.44
  -1  -1   9  109.50    5.61
  -1  -1   9  100.46    6.26
   1   1   9   96.80    5.41
   2  -1   9    3.99    0.95
  -2   1   9    2.44    0.71
   2  -1   9    1.55    0.52
   2   1  -9    2.43    1.07
   2   1  -9    3.22    0.53
  -2   1   9    2.12    1.33
  -2  -1  -9    2.33    0.74
  -2   1  -9    2.70    0.75
  -2  -1   9    1.97    0.67
   2   1   9    0.60    0.38
   2  -1  -9    2.57    0.54
   2   1   9    0.30    0.82
  -3   1   9  152.47    7.99
   3  -1   9  145.97    8.42
  -3  -1  -9  156.10    7.82
   3   1  -9  157.24    8.76
  -3   1  -9  148.99    7.73
  -3   1  -9  144.52    7.81
   3  -1  -9  155.35    8.80
  -3  -1   9  152.09    7.99
   3   1   9  140.81    8.44
   3  -1  -9  155.17    7.57
  -4   1   9   -0.70    0.74
  -4  -1  -9    1.53    0.86
   4   1  -9   -0.37    1.18
   4  -1   9   -1.41    0.91
   4   1   9    0.87    1.04
  -4   1  -9    1.16    0.89
  -4  -1   9    1.56    0.86
   4  -1  -9   -0.07    1.21
  -5  -1  -9  128.91    6.72
  -5   1   9  132.58    6.91
   5   1  -9  115.92    7.66
   5  -1   9  124.68    7.28
  -5  -1   9  128.31    6.90
  -5   1  -9  125.98    6.73
   5  -1  -9  115.26    7.70
   5   1   9  125.12    7.34
   6   1  -9   10.59    2.06
  -6   1   9    8.61    1.42
   6  -1   9   10.50    1.70
  -6  -1  -9    8.62    1.40
  -6   1  -9   10.92    1.48
   6   1   9    9.01    1.71
  -6  -1   9   13.51    1.63
   6  -1  -9    7.92    1.89
   7   1  -9   70.49    5.39
  -7   1   9   76.12    4.70
  -7  -1  -9   74.86    4.49
   7  -1   9   78.88    5.05
   7   1   9   68.49    5.04
  -7  -1   9   73.80    4.61
  -7   1  -9   74.57    4.60
   7  -1  -9   83.32    5.64
   8  -1   9    4.22    1.77
  -8  -1  -9    6.08    1.53
   8   1  -9    4.68    1.98
  -8   1   9    8.72    1.70
  -8   1  -9    6.80    1.57
  -8  -1   9    6.35    1.53
   8   1   9    4.49    1.80
   8  -1  -9    8.91    2.18
  -9   1   9    7.61    1.70
   9  -1   9    5.25    1.93
  -9  -1  -9    6.29    1.65
   9   1  -9    9.20    2.42
   9   1   9    5.78    2.03
  -9   1  -9    7.65    1.71
  -9  -1   9    5.71    1.76
   9  -1  -9    6.63    2.20
  10  -1   9    2.58    1.95
 -10  -1  -9   -1.24    1.53
  10   1  -9    3.17    2.18
 -10   1   9    2.46    1.59
  10  -1  -9    4.57    2.16
 -10  -1   9    2.16    1.71
 -10   1  -9   -0.58    1.56
  10   1   9    0.46    1.95
   0   2   9  201.13   11.83
   0  -2   9  232.85   12.00
   0  -2  -9  238.17   11.68
   0   2   9  249.61   12.74
   0  -2   9  238.85   11.74
   0  -2   9  240.22   12.78
   1  -2   9   83.79    4.53
   1  -2   9   87.51    4.87
   1  -2   9   82.47    4.48
  -1  -2  -9   81.20    4.38
  -1   2   9   77.13    4.41
  -1   2   9   81.86    5.01
   1   2   9   85.37    4.86
  -1  -2   9   85.30    4.54
   1   2   9   71.38    4.26
  -1  -2   9   83.01    4.31
  -1  -2   9   80.88    5.12
   1  -2  -9   82.04    4.32
   2   2  -9   40.46    2.90
  -2   2   9   32.89    2.25
   2  -2   9   36.54    2.40
   2  -2   9   32.02    2.22
  -2  -2  -9   34.96    2.21
  -2   2   9   37.43    3.03
   2   2  -9   33.23    1.95
   2  -2   9   33.83    2.45
  -2  -2   9   34.99    2.26
   2  -2  -9   35.29    2.05
   2   2   9   32.67    2.46
   2   2   9   28.57    1.87
   3  -2   9   13.42    1.45
   3  -2   9   12.26    1.43
  -3   2   9   12.41    1.35
   3   2  -9   15.80    1.86
  -3  -2  -9   11.76    1.25
  -3  -2   9   11.90    1.26
   3  -2  -9   14.01    1.04
   3   2   9   10.63    1.46
   3  -2  -9   11.95    1.78
  -3   2  -9   12.43    1.06
   4  -2   9   21.41    1.91
  -4  -2  -9   18.67    1.60
  -4   2   9   17.48    1.76
   4  -2   9   15.51    1.78
   4   2  -9   19.11    2.25
  -4   2  -9   19.50    1.40
   4  -2  -9   17.95    2.20
   4   2   9   17.39    1.88
  -4  -2   9   19.52    1.73
   5   2  -9    2.81    1.44
  -5  -2  -9    0.40    0.93
   5  -2   9    0.14    1.13
   5  -2   9    2.32    1.13
  -5   2   9   -0.88    1.01
   5  -2  -9    1.64    1.45
  -5  -2   9    0.05    0.90
   5   2   9   -1.11    1.08
  -6   2   9   37.88    3.02
  -6  -2  -9   34.89    2.74
   6  -2   9   39.06    3.14
   6  -2   9   40.67    2.97
   6   2  -9   32.31    3.29
   6   2   9   33.54    3.20
  -6  -2   9   37.93    2.76
   6  -2  -9   40.24    3.46
  -7  -2  -9   -1.19    1.18
   7  -2   9   -0.85    1.32
   7   2  -9    0.90    1.70
  -7   2   9    2.07    1.33
  -7   2  -9   -1.12    1.18
   7   2   9    2.68    1.54
   7  -2  -9    1.86    1.68
  -7  -2   9    4.32    1.27
   8   2  -9    0.03    1.82
  -8   2   9    0.76    1.25
   8  -2   9    1.43    1.55
  -8  -2  -9   -0.41    1.31
   8   2   9    0.29    1.60
   8  -2  -9    2.65    1.86
  -8  -2   9   -0.49    1.19
  -8   2  -9    1.74    1.36
   9  -2   9    0.92    1.74
   9   2  -9    2.64    2.07
  -9  -2  -9    2.46    1.51
  -9   2   9    0.86    1.49
  -9  -2   9    1.44    1.40
  -9   2  -9    4.00    1.60
   9   2   9    0.38    1.77
   9  -2  -9   -0.09    1.86
 -10   2   9    3.04    1.58
  10  -2   9    1.79    1.91
  10   2  -9    3.96    2.34
 -10  -2  -9    0.46    1.55
  10  -2  -9   -2.30    1.95
 -10   2  -9    5.03    1.75
  10   2   9    4.48    2.20
 -10  -2   9    1.11    1.69
   0  -3   9   -0.37    0.64
   0  -3  -9   -0.64    0.61
   0   3   9    0.40    0.50
   0   3   9    0.08    0.87
   0  -3   9   -0.32    0.73
   0  -3   9   -0.01    0.99
  -1  -3  -9   47.98    2.84
   1  -3   9   50.55    3.23
  -1   3   9   45.61    3.30
   1  -3   9   50.55    3.07
  -1   3   9   49.48    2.87
   1  -3   9   49.94    2.97
   1  -3  -9   47.84    2.74
  -1  -3   9   50.07    2.83
   1   3   9   38.36    2.60
  -1  -3   9   54.69    3.60
  -1  -3   9   51.14    3.03
   1   3   9   46.95    3.20
   2  -3   9    5.84    1.19
  -2   3   9    5.77    0.97
   2  -3   9    7.71    1.14
   2   3  -9    9.34    1.43
  -2   3   9    7.98    1.70
  -2  -3  -9    5.80    0.95
  -2   3  -9    4.79    1.01
   2   3   9    6.79    1.19
  -2  -3   9    7.76    0.82
   2  -3  -9    8.92    0.89
  -2  -3   9    9.13    1.10
  -3  -3  -9   60.69    3.36
   3  -3   9   55.34    3.63
  -3   3   9   61.42    3.54
   3   3  -9   57.41    4.09
   3  -3   9   57.94    3.63
   3  -3  -9   41.00    4.05
   3  -3  -9   57.67    3.22
  -3   3  -9   60.77    3.30
  -3  -3   9   56.46    3.46
   3   3   9   56.13    3.73
   4  -3   9    3.79    1.12
  -4   3   9    6.10    1.13
   4   3  -9    4.67    1.50
   4  -3   9    3.60    1.32
  -4  -3  -9    2.98    0.99
  -4  -3   9    4.65    1.06
  -4   3  -9    5.08    0.82
   4   3   9    2.55    1.09
   4  -3  -9    4.22    1.56
   5  -3   9   39.51    2.98
  -5   3   9   38.74    2.84
   5   3  -9   31.78    3.16
  -5  -3  -9   35.21    2.56
   5  -3   9   32.92    2.79
  -5  -3   9   37.57    2.75
   5   3   9   32.40    2.87
   5  -3  -9   31.15    3.14
  -6   3   9   -0.04    1.20
   6   3  -9    0.14    1.62
   6  -3   9   -0.67    1.30
   6  -3   9    1.68    1.23
  -6  -3  -9   -0.59    1.06
  -6  -3   9   -0.98    1.04
   6   3   9    1.07    1.36
   6  -3  -9    0.59    1.54
   7  -3   9   36.82    3.18
  -7  -3  -9   36.11    2.84
  -7   3   9   36.54    2.93
   7   3  -9   40.46    3.79
   7  -3   9   40.10    3.13
   7   3   9   28.93    3.11
  -7  -3   9   38.41    3.03
   7  -3  -9   42.69    3.64
  -8  -3  -9    0.62    1.32
   8   3  -9    0.91    1.92
  -8   3   9   -0.80    1.39
   8  -3   9    0.59    1.52
   8  -3   9    0.67    1.50
   8   3   9    0.15    1.53
  -8  -3   9   -0.39    1.26
   8  -3  -9    0.93    1.79
   9   3  -9   25.09    3.30
   9  -3   9   21.23    2.61
  -9  -3  -9   22.76    2.29
  -9   3   9   17.74    2.30
  -9   3  -9   21.18    2.31
  -9  -3   9   24.48    2.54
   9  -3  -9   25.00    2.99
   9   3   9   15.88    2.61
 -10  -3  -9    2.16    1.66
  10   3  -9   -1.09    2.18
 -10   3   9    2.18    1.55
  10  -3  -9    1.13    2.02
 -10   3  -9   -0.35    1.62
 -10  -3   9    1.47    1.63
  10   3   9   -0.23    1.99
   0  -4  -9   33.27    2.13
   0  -4   9   35.73    2.49
   0   4   9   29.07    2.05
   0  -4   9   34.57    2.38
   0   4   9   33.38    2.60
   0  -4   9   31.58    2.72
   1  -4   9    8.51    1.09
  -1  -4  -9    7.41    0.99
  -1   4   9    5.95    0.91
   1   4  -9   10.05    1.36
  -1   4   9    8.19    1.44
   1  -4   9    7.69    1.26
   1  -4   9    8.94    1.32
  -1  -4   9    7.47    1.07
  -1  -4   9    6.96    1.12
   1  -4  -9    5.94    0.91
   1   4   9    5.48    1.17
   1   4   9    6.29    0.70
   2  -4   9    0.47    0.84
  -2   4   9    3.07    1.56
  -2  -4  -9    1.02    0.81
  -2   4   9    0.52    0.75
   2   4  -9    0.40    1.02
   2  -4   9    1.53    1.13
   2  -4  -9    1.49    0.74
  -2  -4   9    1.48    0.81
  -2  -4   9    1.94    0.76
  -2   4  -9    0.26    0.84
   2   4   9    0.85    0.92
   3  -4   9   25.66    2.27
   3  -4   9   20.47    1.87
  -3  -4  -9   21.49    1.74
   3   4  -9   24.14    2.35
  -3   4   9   24.73    2.08
  -3   4   9   26.98    2.83
   3  -4  -9   22.36    1.87
  -3   4  -9   20.01    1.73
   3   4   9   24.17    2.14
  -3  -4   9   24.41    1.97
   4  -4   9    3.42    1.01
   4   4  -9    1.53    1.40
   4  -4   9    0.86    1.35
  -4   4   9   -0.08    1.02
  -4  -4  -9    2.09    0.96
  -4   4  -9    1.46    0.74
  -4  -4   9    2.34    0.89
   4   4   9    3.71    1.18
   4  -4  -9    0.60    1.45
  -5  -4  -9    2.22    1.07
   5  -4   9    0.92    1.39
   5   4  -9    0.08    1.46
   5  -4   9    0.61    1.10
  -5   4   9   -0.28    1.02
  -5  -4   9   -0.27    0.96
   5  -4  -9    1.98    1.56
  -5   4  -9    0.07    0.76
   5   4   9    0.65    1.17
   6  -4   9    2.77    1.27
  -6   4   9    4.51    1.31
  -6  -4  -9    4.56    1.26
   6   4  -9    4.13    1.84
   6  -4   9    3.67    1.63
   6  -4  -9    5.34    1.75
  -6  -4   9    5.89    1.31
   6   4   9    1.23    1.36
  -7   4   9    6.98    1.48
   7  -4   9    4.89    1.49
   7   4  -9    3.57    2.00
  -7  -4  -9    7.34    1.46
   7  -4   9    5.77    1.77
  -7  -4   9    6.94    1.57
   7  -4  -9    8.37    1.99
   7   4   9    5.39    1.72
   8  -4   9   -0.63    1.61
  -8   4   9    1.13    1.34
  -8  -4  -9    0.83    1.37
   8   4  -9    3.70    2.10
  -8  -4   9    1.56    1.42
   8   4   9   -1.79    1.46
   8  -4  -9    1.21    1.82
   9  -4   9    0.68    1.87
   9   4  -9   -2.46    2.04
  -9  -4  -9    1.37    1.53
  -9   4   9    2.61    1.55
  -9  -4   9    1.94    1.65
   9   4   9    4.36    1.98
   9  -4  -9   -0.52    1.81
 -10  -4  -9   -0.98    1.55
  10   4  -9    4.09    2.57
 -10   4   9    3.38    1.85
  10  -4  -9    2.36    2.05
  10   4   9    0.81    2.05
 -10   4  -9    1.46    1.74
 -10  -4   9    2.09    1.82
   0   5   9   -0.21    0.99
   0  -5  -9    0.65    0.77
   0   5   9    0.13    0.58
   0  -5   9   -1.31    1.08
   0  -5   9   -1.06    1.02
   0  -5   9   -0.49    0.73
   1   5  -9  289.53   15.65
   1  -5   9  275.81   14.76
  -1   5   9  282.88   15.74
  -1   5   9  294.14   14.74
  -1  -5  -9  290.92   14.51
   1  -5   9  306.31   14.93
   1  -5   9  302.18   15.72
  -1  -5   9  264.46   14.59
  -1  -5   9  292.53   15.03
   1  -5  -9  294.18   14.49
   1   5   9  308.37   15.66
   1   5   9  262.01   14.56
  -2   5   9   10.83    1.22
  -2   5   9    8.97    1.95
   2  -5   9    9.06    1.63
  -2  -5  -9    8.01    1.16
   2  -5   9   11.52    1.37
   2   5  -9    8.97    1.52
  -2  -5   9   12.95    1.33
   2  -5  -9   12.55    1.20
   2   5   9   11.17    1.50
  -2   5  -9    9.31    1.38
  -2  -5   9   10.29    1.32
  -3   5   9   41.71    3.81
   3   5  -9   46.12    3.57
  -3   5   9   46.57    2.96
  -3  -5  -9   40.53    2.78
   3  -5   9   36.41    3.32
   3  -5   9   42.00    2.94
   3   5   9   45.66    3.15
   3  -5  -9   41.95    2.73
  -3  -5   9   41.99    3.04
  -3   5  -9   43.09    2.83
   4  -5   9   -0.63    0.86
  -4   5   9    1.03    1.04
  -4  -5  -9   -0.37    0.94
   4  -5   9   -3.77    1.37
   4   5  -9    1.28    1.45
   4   5   9   -0.01    1.02
   4  -5  -9    1.79    1.50
  -4   5  -9    0.44    0.77
   4  -5  -9    0.79    0.97
  -4  -5   9    1.08    0.87
  -5   5   9   15.89    1.79
   5  -5   9   17.39    2.27
   5   5  -9   11.90    2.15
   5  -5   9   12.52    1.55
  -5  -5  -9   12.02    1.52
   5  -5  -9   15.98    2.21
   5   5   9   10.76    1.78
  -5  -5   9   14.82    1.65
  -5   5  -9   12.26    1.39
   6  -5   9   -3.90    1.52
   6   5  -9    1.81    1.75
  -6   5   9    1.18    1.17
  -6  -5  -9    0.53    1.08
  -6  -5   9    0.54    1.05
   6  -5  -9    2.02    1.59
   6   5   9    0.96    1.31
   7   5  -9   21.87    3.02
  -7   5   9   22.77    2.32
  -7  -5  -9   22.35    2.09
   7  -5   9   23.32    2.72
   7   5   9   19.22    2.49
   7  -5  -9   26.01    2.85
  -7  -5   9   27.09    2.45
   8  -5   9    1.44    1.89
  -8  -5  -9   -2.32    1.25
  -8   5   9   -0.72    1.28
   8   5  -9   -1.52    2.05
   8   5   9    1.48    1.67
   8  -5  -9   -1.29    1.66
  -8  -5   9   -1.81    1.34
   9   5  -9   24.79    3.64
  -9  -5  -9   31.05    2.69
  -9   5   9   33.21    3.08
   9  -5   9   28.76    3.16
  -9  -5   9   33.22    3.04
   9  -5  -9   31.59    3.29
   9   5   9   26.61    3.24
 -10  -5  -9   -1.49    1.59
  10  -5   9    3.62    2.19
  10   5  -9    3.19    2.61
 -10   5   9   -3.19    1.71
  10   5   9   -1.34    2.00
  10  -5  -9    2.55    1.97
 -10  -5   9    1.05    1.79
   0  -6   9    1.71    0.90
   0   6   9    1.95    0.69
   0   6  -9    1.35    0.94
   0   6   9    0.49    1.11
   0  -6  -9   -0.99    0.88
   0  -6   9    2.02    1.16
   1  -6   9    1.30    1.22
   1  -6   9    3.04    1.34
   1   6  -9    2.70    1.11
  -1   6   9    4.15    0.85
  -1  -6  -9    3.49    1.00
   1  -6   9    4.68    1.07
  -1   6   9    2.86    1.37
  -1  -6   9    3.88    1.14
   1  -6  -9    4.42    1.02
  -1  -6   9    2.17    1.02
   1   6   9    2.60    1.12
  -2   6   9    2.12    0.91
   2  -6   9    1.49    1.02
  -2  -6  -9    1.14    0.95
  -2   6   9    2.00    1.69
   2  -6   9    0.28    1.39
   2   6  -9    2.27    1.21
  -2  -6   9    0.37    1.02
  -2   6  -9    0.70    1.11
   2   6   9    1.94    1.05
  -2  -6   9    3.90    1.01
   2  -6  -9    1.42    0.98
  -3   6   9    1.17    1.00
   3  -6   9   -0.47    0.94
   3   6  -9   -0.69    1.25
   3  -6   9   -0.69    1.49
  -3  -6  -9    0.67    0.97
  -3   6   9    4.73    2.02
   3  -6  -9   -0.36    0.96
  -3  -6   9    0.16    0.88
  -3   6  -9    0.40    0.96
   3   6   9   -0.02    1.04
   4   6  -9    2.15    1.57
   4  -6   9   -0.27    1.59
  -4   6   9    4.76    1.22
  -4  -6  -9    3.11    1.12
   4  -6  -9    3.34    1.18
  -4   6  -9    2.72    1.01
   4   6   9    4.63    1.29
   4  -6  -9    2.96    1.67
  -4  -6   9    4.06    1.11
   5  -6   9   -0.83    1.61
  -5  -6  -9   -0.19    1.12
  -5   6   9   -0.32    1.15
   5   6  -9   -1.70    1.59
  -5   6  -9    0.02    0.95
  -5  -6   9    0.13    1.07
   5   6   9    1.82    1.30
   5  -6  -9    0.18    1.48
  -6  -6  -9    1.63    1.21
   6   6  -9   -1.64    1.71
  -6   6   9    0.15    1.28
   6  -6   9    3.75    1.96
   6  -6  -9    0.06    1.55
  -6   6  -9    1.04    0.98
   6   6   9    1.17    1.39
  -6  -6   9    2.20    1.18
  -7   6   9   -0.36    1.25
  -7  -6  -9   -0.55    1.25
   7  -6   9    2.80    1.97
   7   6  -9   -1.27    1.89
   7   6   9    1.27    1.54
  -7  -6   9    0.52    1.23
   7  -6  -9    0.46    1.65
   8   6  -9    2.80    2.30
   8  -6   9    0.39    2.03
  -8   6   9   -2.03    1.39
  -8  -6  -9   -1.14    1.38
  -8  -6   9   -1.17    1.31
   8   6   9   -0.16    1.65
   8  -6  -9    1.02    1.81
  -9  -6  -9   -0.49    1.51
  -9   6   9    0.11    1.61
   9   6  -9   -1.87    2.27
   9  -6   9   -2.19    2.12
   9   6   9    1.36    1.83
  -9  -6   9    0.14    1.65
 -10   6   9    1.15    1.87
  10   6  -9   -0.42    2.62
 -10  -6  -9   -1.38    1.67
  10  -6   9    2.35    2.38
  10   6   9    0.18    1.88
 -10  -6   9    0.05    1.83
   0  -7  -9   -0.18    1.01
   0   7  -9   -0.19    0.90
   0  -7   9   -0.52    0.90
   0  -7   9   -2.16    1.09
   0   7   9    0.81    0.71
   0   7   9   -0.32    1.20
  -1   7   9  121.84    7.03
  -1   7   9  130.83    7.79
  -1  -7  -9  140.52    7.09
   1   7  -9  125.46    7.61
   1  -7   9  133.53    7.33
  -1   7  -9  128.36    7.44
  -1  -7   9  136.54    7.13
  -1   7  -9  140.41    7.41
  -1  -7   9  125.28    7.36
   1  -7  -9  131.43    7.06
   1   7   9  144.89    7.70
  -2   7   9    6.01    1.95
   2   7  -9    8.45    1.51
  -2   7   9    5.92    1.17
  -2  -7  -9    7.41    1.23
   2  -7   9    5.48    1.68
  -2   7  -9    4.38    1.37
   2   7   9    7.91    1.42
  -2  -7   9    6.41    1.38
   2  -7  -9    7.09    1.28
  -2  -7   9    8.49    1.23
  -3   7   9   57.07    4.91
  -3   7   9   65.34    3.94
  -3  -7  -9   66.47    3.88
   3   7  -9   58.07    4.49
   3  -7   9   62.60    4.40
  -3   7  -9   61.14    4.03
   3  -7  -9   67.42    3.85
  -3  -7   9   64.73    4.15
   3   7   9   63.18    4.20
   4  -7   9    2.51    1.87
   4   7  -9    9.14    1.90
  -4   7   9    9.17    1.50
  -4  -7  -9    6.53    1.29
   4  -7  -9    7.69    1.91
   4  -7  -9    7.76    1.43
  -4  -7   9    8.21    1.49
  -4   7  -9    9.30    1.40
   4   7   9    7.42    1.50
   5   7  -9   40.96    3.85
  -5   7   9   47.58    3.34
  -5  -7  -9   46.08    3.10
   5  -7   9   36.11    3.53
   5  -7  -9   46.77    3.91
  -5  -7   9   40.83    3.32
  -5   7  -9   39.15    2.91
   5   7   9   42.69    3.33
  -6   7   9    4.52    1.42
  -6  -7  -9    5.57    1.37
   6   7  -9   -1.15    1.85
   6  -7   9    4.85    2.15
   6   7   9    2.06    1.48
   6  -7  -9    3.00    1.70
  -6   7  -9    3.13    1.13
  -6  -7   9    3.73    1.42
  -7   7   9   19.68    2.44
  -7  -7  -9   23.86    2.17
   7  -7   9   20.62    2.99
   7   7  -9   12.53    2.84
   7   7   9   16.10    2.39
   7  -7  -9   26.87    2.76
  -7  -7   9   23.05    2.41
   8   7  -9   -3.04    2.13
  -8  -7  -9   -3.46    1.33
   8  -7   9    2.36    2.28
  -8   7   9   -1.77    1.51
   8   7   9    0.16    1.65
  -8  -7   9   -0.57    1.46
  -9   7   9   32.38    3.09
   9  -7   9   34.59    3.69
   9   7  -9   26.71    3.90
  -9  -7  -9   28.40    2.67
  -9  -7   9   35.25    3.12
   9   7   9   23.14    3.12
   0  -8   9   87.30    5.27
   0  -8   9   96.67    5.47
   0   8   9   89.61    5.02
   0   8   9   98.58    5.76
   0  -8  -9   86.89    5.19
   1   8  -9   15.29    1.81
  -1   8   9   15.61    1.60
  -1  -8  -9   15.51    1.72
   1  -8   9   17.93    2.00
  -1   8   9   14.82    2.23
  -1  -8   9   19.32    1.81
   1   8   9   20.99    2.19
   1  -8  -9   18.46    1.77
  -1   8  -9   18.46    2.06
  -1  -8   9   17.04    1.82
  -2   8   9    2.65    1.06
  -2  -8  -9    2.13    1.16
   2  -8   9    3.14    1.55
  -2   8   9    4.39    1.98
   2   8  -9    4.55    1.49
  -2  -8   9    2.16    1.19
   2   8   9    2.48    1.27
  -2  -8   9    3.44    1.12
  -2   8  -9    2.11    1.44
   2  -8  -9    0.59    1.15
  -3   8   9    3.48    2.22
   3  -8   9    4.96    1.82
   3   8  -9    4.06    1.68
  -3   8   9    6.85    1.36
  -3  -8  -9    5.41    1.31
  -3   8  -9    3.82    1.41
  -3  -8   9    7.72    1.55
   3   8   9    7.51    1.53
   3  -8  -9    8.69    1.43
   4  -8   9    6.90    2.00
   4   8  -9    8.51    1.98
  -4   8   9    9.53    1.53
  -4  -8  -9    9.24    1.44
  -4   8  -9    7.05    1.47
   4   8   9   10.41    1.70
  -4  -8   9   10.49    1.77
   4  -8  -9    7.76    1.52
   4  -8  -9    6.18    1.89
  -5  -8  -9   -0.28    1.15
   5   8  -9   -1.17    1.70
   5  -8   9   -0.78    1.71
  -5   8   9   -2.20    1.04
  -5   8  -9    1.64    1.14
  -5  -8   9   -0.39    1.28
   5  -8  -9   -1.01    1.53
   5   8   9   -0.43    1.32
  -6  -8  -9   10.62    1.60
   6   8  -9   10.59    2.40
   6  -8   9    7.03    2.28
  -6   8   9   10.06    1.75
  -6   8  -9    9.00    1.53
   6   8   9    7.09    1.76
  -6  -8   9    7.57    1.78
   7   8  -9    1.44    2.19
   7  -8   9    0.18    2.20
  -7  -8  -9    2.15    1.42
  -7   8   9    5.09    1.59
  -7  -8   9    2.31    1.58
   7   8   9    0.78    1.60
  -7   8  -9    0.86    1.32
   8   8  -9   -2.82    2.29
  -8   8   9    1.86    1.74
   8  -8   9    0.54    2.35
  -8  -8  -9    2.30    1.51
  -8  -8   9    0.54    1.62
   8   8   9    0.16    1.73
  -9  -8  -9    1.40    1.65
   9  -8   9    3.24    2.73
  -9   8   9    2.42    1.97
   9   8  -9    1.85    2.77
   9   8   9    1.83    1.94
  -9  -8   9    0.12    1.71
   0  -9   9   -1.82    1.19
   0   9   9    1.71    1.50
   0   9   9   -0.80    0.84
   0  -9   9   -1.73    1.06
   0  -9  -9   -1.46    1.22
  -1   9   9   94.04    6.40
   1  -9   9  105.26    5.90
  -1  -9  -9   98.46    5.71
  -1   9   9  100.97    5.63
   1   9   9  103.60    6.25
   1  -9  -9  105.22    5.76
  -1   9  -9   96.14    5.98
  -1  -9   9  104.85    5.94
  -1  -9   9   95.40    5.69
   2  -9   9    1.17    1.49
   2   9  -9    0.72    1.40
  -2   9   9    1.03    1.08
  -2   9   9    1.89    1.94
  -2  -9  -9    1.52    1.25
   2   9   9    1.41    1.31
  -2  -9   9    1.50    1.14
   2  -9  -9    1.36    1.30
  -2   9  -9   -0.29    1.32
  -2  -9   9    2.65    1.10
   3  -9   9   44.70    3.61
   3   9  -9   44.47    3.86
  -3   9   9   44.98    4.34
  -3  -9  -9   45.14    3.27
  -3   9   9   48.08    3.27
  -3   9  -9   45.34    3.48
   3  -9  -9   46.37    3.24
  -3  -9   9   45.21    3.57
   3   9   9   45.39    3.47
  -4  -9  -9    2.55    1.25
  -4   9   9    1.69    1.31
   4   9  -9    1.93    1.76
   4  -9   9   -1.89    1.70
   4   9   9    0.05    1.28
  -4  -9   9    1.67    1.34
  -4   9  -9    2.10    1.33
   4  -9  -9    1.88    1.35
   5  -9   9   57.19    4.59
   5   9  -9   56.41    4.91
  -5   9   9   59.88    4.12
  -5  -9  -9   63.22    3.87
  -5  -9   9   65.16    4.43
   5   9   9   57.15    4.17
  -5   9  -9   57.36    3.94
   6  -9   9   -2.68    1.98
  -6  -9  -9    0.59    1.38
  -6   9   9    1.60    1.55
   6   9  -9   -1.34    1.97
  -6  -9   9    0.70    1.61
   6   9   9    1.30    1.56
  -6   9  -9    2.51    1.29
   7  -9   9    9.89    2.71
  -7  -9  -9   10.52    1.83
  -7   9   9   13.96    2.15
   7   9  -9    6.00    2.66
  -7  -9   9   13.76    2.22
   7   9   9    9.98    2.09
  -7   9  -9   13.91    1.85
  -8  -9  -9    1.66    1.56
   8  -9   9   -0.72    2.52
  -8   9   9   -0.89    1.73
   8   9  -9   -3.21    2.35
  -8  -9   9   -0.29    1.59
   8   9   9    0.23    1.76
   0  10   9    9.69    2.07
   0 -10   9    8.49    1.63
   0 -10  -9    5.80    1.55
   0  10  -9    6.46    1.75
  -1  10   9    1.23    1.08
   1 -10   9    1.08    1.49
  -1 -10  -9   -0.25    1.32
  -1  10   9   -2.21    1.67
  -1 -10   9    0.13    1.22
   1  10   9   -0.10    1.47
  -1  10  -9   -0.05    1.51
  -1 -10   9    1.81    1.16
   1 -10  -9    0.17    1.32
  -2 -10  -9    4.56    1.45
  -2  10   9    8.85    1.50
   2 -10   9    8.34    1.78
   2  10   9    8.43    1.81
  -2  10  -9    6.97    1.84
  -2 -10   9    5.96    1.39
  -2 -10   9    5.08    1.43
   2 -10  -9    4.79    1.49
  -3  10   9    0.50    1.24
   3 -10   9    0.98    1.62
  -3 -10  -9    1.78    1.35
  -3 -10   9    1.60    1.23
   3  10   9    0.55    1.39
   3 -10  -9   -0.21    1.31
  -3  10  -9   -0.62    1.42
   4  10  -9   -0.88    1.71
   4 -10   9    1.99    1.84
  -4  10   9   -0.01    1.28
  -4 -10  -9    3.30    1.38
   4  10   9   -2.27    1.37
  -4 -10   9   -0.03    1.41
   4 -10  -9    1.70    1.47
  -4  10  -9   -0.75    1.39
  -5  10   9    0.81    1.53
  -5 -10  -9    0.66    1.36
   5  10  -9   -0.64    1.94
   5 -10   9    3.10    2.05
  -5  10  -9   -0.51    1.34
   5  10   9    0.45    1.51
  -5 -10   9   -2.12    1.55
   6  10  -9   -0.37    2.18
   6 -10   9    0.69    2.13
  -6 -10  -9    1.10    1.41
  -6  10   9    0.76    1.50
   6  10   9   -0.09    1.58
  -6 -10   9   -0.95    1.65
  -6  10  -9    1.52    1.39
  -7  10   9    2.39    1.92
   7 -10   9    4.93    2.54
   7  10  -9    7.89    2.69
  -7 -10  -9    5.82    1.68
  -7 -10   9    5.50    2.08
  -7  10  -9    6.63    1.65
   7  10   9    2.64    1.82
   8  10  -9   -3.09    2.50
   8 -10   9   -1.56    2.54
  -8  10   9    0.98    1.73
  -8 -10  -9   -1.48    1.58
   8  10   9    1.13    1.93
  -8 -10   9    0.97    1.92
   0  11   9   -0.84    1.76
   0 -11  -9    2.14    1.51
   0 -11   9    2.34    1.48
   0  11  -9    1.60    1.58
  -1  11   9    2.52    1.20
   1 -11   9    6.19    1.63
  -1 -11  -9    3.02    1.50
  -1 -11   9    3.61    1.46
  -1 -11   9    1.04    1.29
  -1  11  -9    0.40    1.49
   1  11   9    1.96    1.66
   1 -11  -9    2.48    1.50
  -2 -11  -9    3.67    1.52
   2 -11   9    5.50    1.79
  -2  11   9    1.07    1.31
   2  11   9    3.93    1.72
  -2  11  -9    4.96    1.79
  -2 -11   9    2.53    1.41
   2 -11  -9    3.39    1.50
  -2 -11   9    4.83    1.45
  -3  11   9   52.44    3.75
  -3 -11  -9   48.76    3.64
   3 -11   9   54.46    4.04
  -3 -11   9   53.81    3.91
   3 -11  -9   52.31    3.76
  -3  11  -9   47.78    3.94
   3  11   9   63.10    4.09
   4 -11   9    6.28    2.12
  -4  11   9    9.61    1.84
  -4 -11  -9    8.68    1.73
  -4  11  -9    6.74    1.85
  -4 -11   9    6.54    1.66
   4  11   9    8.93    1.93
   4 -11  -9    8.93    1.86
   5 -11   9   24.67    2.93
  -5 -11  -9   22.32    2.31
  -5  11   9   21.08    2.54
  -5  11  -9   22.42    2.55
  -5 -11   9   23.38    2.63
   5  11   9   21.63    2.60
   6 -11   9   -1.11    2.17
  -6 -11  -9    0.12    1.51
   6  11  -9    0.75    2.31
  -6  11   9    0.42    1.49
  -6 -11   9   -0.11    1.53
   6  11   9   -1.85    1.62
  -6  11  -9    3.90    1.60
   7  11  -9   21.36    3.40
  -7 -11  -9   22.43    2.36
   7 -11   9   19.62    3.22
  -7  11   9   21.62    2.80
   7  11   9   20.15    2.77
  -7  11  -9   15.83    2.32
  -7 -11   9   22.67    2.91
   0 -12   9    0.16    1.59
   0 -12  -9    2.02    1.55
   0  12  -9   -0.31    1.60
  -1 -12  -9    0.89    1.59
   1 -12   9    5.02    1.80
   1  12  -9    2.52    1.51
   1 -12  -9    1.60    1.56
  -1 -12   9    1.73    1.53
  -1  12  -9    1.01    1.67
   2 -12   9    0.89    1.72
  -2 -12  -9    3.10    1.59
  -2  12   9    4.07    1.43
  -2  12  -9    2.50    1.78
   2 -12  -9    3.46    1.57
   2  12   9    0.82    1.77
  -2 -12   9    1.16    1.38
  -3  12   9    1.88    1.50
  -3 -12  -9    0.88    1.55
   3 -12   9    0.98    1.82
  -3 -12   9    1.38    1.37
   3  12   9    0.03    1.66
  -3  12  -9   -2.09    1.66
   3 -12  -9    2.12    1.65
  -4  12   9    4.19    1.66
  -4 -12  -9   -0.38    1.54
   4 -12   9   -1.77    1.85
  -4 -12   9    2.87    1.50
  -4  12  -9   -0.60    1.70
   4 -12  -9    0.54    1.69
   4  12   9   -1.08    1.66
  -5 -12  -9    2.82    1.59
   5 -12   9    2.59    2.09
  -5  12   9    0.80    1.70
  -5  12  -9   -2.13    1.57
   5 -12  -9    1.45    1.92
   5  12   9    0.04    1.80
  -5 -12   9    0.11    1.61
  -6 -12  -9    0.54    1.66
  -6  12   9    3.17    1.86
   6 -12   9    3.72    2.38
  -6  12  -9   -0.39    1.62
   6  12   9    0.17    1.87
  -6 -12   9    0.35    1.80
  -7  12   9    0.94    1.79
   7 -12   9    3.16    2.51
  -7 -12  -9   -0.95    1.72
  -7  12  -9    1.52    1.72
  -7 -12   9    4.46    2.15
   7  12   9    1.63    2.03
   0  13  -9    0.30    1.72
   0 -13   9    0.51    1.69
   0 -13  -9   -3.10    1.55
  -1 -13  -9   24.53    2.67
   1  13  -9   31.58    3.06
   1 -13   9   29.64    2.97
  -1 -13   9   33.91    3.03
  -1  13  -9   31.44    3.31
   1 -13  -9   29.21    2.76
   2 -13   9    1.00    1.84
   2  13  -9    1.70    1.48
  -2  13   9   -2.01    1.28
  -2 -13  -9    1.86    1.70
   2 -13  -9    0.39    1.64
  -2  13  -9    0.71    1.85
   3 -13   9   35.54    3.21
  -3  13   9   28.54    2.83
  -3 -13  -9   27.04    2.76
   3 -13  -9   32.05    2.84
  -3  13  -9   21.87    3.04
  -3 -13   9   32.24    2.98
  -4  13   9    0.24    1.59
  -4 -13  -9    4.96    1.84
   4 -13   9   -1.52    1.94
   4  13   9   -0.14    1.87
  -4 -13   9    2.47    1.68
   4 -13  -9   -0.06    1.81
  -4  13  -9    0.92    1.86
  -5 -13  -9   41.29    3.50
  -5  13   9   39.74    3.46
   5 -13   9   40.38    3.75
  -5 -13   9   38.63    3.38
  -5  13  -9   36.06    3.60
   5  13   9   35.16    3.59
   5 -13  -9   32.02    3.40
  -6  13   9    0.55    1.89
  -6 -13  -9    1.93    1.83
   6 -13   9    1.26    2.34
  -6 -13   9    0.99    1.85
  -6  13  -9   -1.04    1.82
   6  13   9    0.52    2.07
   0 -14   9    4.27    2.00
   0 -14  -9   -0.02    1.77
   0  14  -9    1.99    1.77
   1  14  -9    1.76    1.77
  -1 -14  -9    1.21    1.82
   1 -14   9   -2.91    1.76
  -1 -14   9    1.59    1.91
   1 -14  -9    1.36    1.82
  -1  14  -9    1.61    1.95
   2  14  -9   -1.08    1.58
  -2 -14  -9   -0.65    1.74
   2 -14   9   -0.90    1.94
   2 -14  -9   -1.25    1.75
  -2  14  -9   -1.58    1.69
  -3 -14  -9   -1.40    1.74
   3 -14   9    3.24    2.12
  -3  14   9    0.81    1.57
  -3  14  -9    0.84    2.01
   3 -14  -9    1.06    1.90
  -3 -14   9   -2.08    1.62
   4 -14   9    1.70    2.09
  -4  14   9   -0.33    1.64
  -4 -14  -9   -0.69    1.74
   4 -14  -9   -0.39    1.93
  -4  14  -9   -3.05    1.92
  -4 -14   9   -1.62    1.69
  -5 -14  -9   -0.22    1.83
   5 -14   9   -1.59    2.21
  -5  14   9    0.57    1.76
   5 -14  -9    2.07    2.21
  -5 -14   9   -2.28    1.67
  -5  14  -9   -0.65    1.88
   0 -15  -9   -0.33    1.88
   0 -15   9    2.12    2.10
   0  15  -9   -0.56    1.88
   1 -15   9   25.88    3.13
   1  15  -9   28.19    3.11
  -1 -15  -9   23.24    2.76
  -1  15  -9   22.71    3.13
  -1 -15   9   27.19    3.04
   1 -15  -9   23.01    2.78
   2 -15   9    1.30    2.17
  -2 -15  -9    1.02    1.91
   2  15  -9    0.08    1.74
  -2  15  -9    0.81    2.11
   2 -15  -9   -1.17    1.91
   3 -15   9   11.48    2.61
  -3  15   9    8.16    2.00
  -3 -15  -9   11.41    2.28
   3  15  -9   12.70    2.28
   3 -15  -9   16.06    2.49
  -3  15  -9   10.46    2.50
   0 -16  -9   -1.05    1.98
   0  16  -9    2.49    2.05
   0 -16   9   -1.49    2.17
   1  16  -9   -1.64    1.81
  -1  16  -9   -2.05    1.99
   0   0 -10   14.69    1.19
   0   0  10   14.40    1.65
   0   0  10   15.03    1.32
   1   0  10   25.02    1.88
  -1   0  10   24.04    2.42
  -1   0  10   28.65    1.93
  -1   0 -10   26.12    1.88
   1   0 -10   26.34    1.74
   1   0  10   26.00    2.27
   2   0  10  157.63    9.26
  -2   0 -10  166.30    8.57
  -2   0  10  178.64    8.78
   2   0 -10  171.80    8.37
   2   0  10  155.78    8.56
  -2   0  10  170.53    9.72
  -3   0 -10  101.93    5.57
   3   0  10  103.72    6.09
  -3   0  10  101.92    5.73
   3   0 -10  106.32    6.42
  -4   0  10   59.72    3.51
   4   0 -10   47.27    4.00
  -4   0 -10   50.50    3.36
   4   0  10   53.12    3.69
  -5   0  10    2.93    1.06
   5   0 -10    4.15    1.60
   5   0  10    2.05    1.30
  -5   0 -10    1.92    1.08
  -6   0  10   14.47    1.70
   6   0 -10   11.87    2.15
  -6   0 -10   11.75    1.60
   6   0  10   11.97    1.86
  -7   0  10   -0.89    1.04
  -7   0 -10   -0.33    1.25
   7   0 -10   -0.88    1.64
   7   0  10   -1.36    1.41
  -8   0  10    9.91    1.80
  -8   0 -10   11.47    1.75
   8   0 -10   10.30    2.44
   8   0  10    7.55    1.96
   9   0  10    5.55    2.07
  -9   0 -10    4.19    1.60
   9   0 -10   -0.10    2.01
  -9   0  10    2.84    1.51
 -10   0 -10    2.09    1.71
 -10   0  10    3.75    1.82
  10   0 -10    1.07    2.22
  10   0  10    0.03    1.98
   0  -1 -10    0.34    0.62
   0   1  10   -0.85    0.49
   0   1 -10    0.56    0.61
   0  -1  10    0.41    0.56
   0  -1  10   -0.36    0.96
   0   1  10    0.77    0.96
  -1  -1 -10    4.43    0.80
  -1   1  10    3.99    0.75
   1  -1  10    4.79    1.12
  -1   1  10    2.16    1.24
   1   1 -10    3.53    0.67
   1  -1  10    3.41    0.78
   1   1  10    3.40    0.59
  -1  -1  10    4.46    0.81
  -1   1 -10    3.53    0.79
  -1  -1  10    2.95    1.33
   1  -1 -10    3.26    0.69
   1   1  10    3.17    1.00
  -2  -1 -10    2.65    0.83
   2   1 -10    3.12    0.62
   2  -1  10    2.63    0.60
   2  -1  10    4.73    1.10
  -2   1  10    4.04    0.83
  -2   1  10   -0.38    1.35
   2   1  10    3.17    1.11
   2   1  10    1.78    0.50
   2  -1 -10    3.61    0.65
  -2  -1  10    3.13    1.42
  -2  -1  10    3.98    0.88
  -2   1 -10    1.88    0.83
   3  -1  10    1.16    1.01
   3   1 -10    0.78    1.15
  -3  -1 -10    0.64    0.84
  -3   1  10    0.14    0.81
   3   1  10   -0.50    1.00
  -3   1 -10    0.76    0.86
   3  -1 -10    0.19    1.17
  -3   1 -10    1.22    0.52
  -3  -1  10    0.98    0.77
  -4  -1 -10    4.22    1.09
   4   1 -10    5.21    1.55
   4  -1  10    5.67    1.30
  -4   1  10    4.28    1.11
  -4   1 -10    2.88    1.07
   4   1  10    2.91    1.22
  -4  -1  10    6.61    1.13
   4  -1 -10    1.61    1.38
  -5  -1 -10   36.34    2.66
  -5   1  10   41.36    2.91
   5  -1  10   32.85    3.00
   5   1 -10   36.58    3.33
  -5   1 -10   36.76    2.70
   5  -1 -10   35.68    3.33
   5   1  10   31.32    2.97
  -5  -1  10   37.07    2.81
  -6  -1 -10   -0.33    1.12
  -6   1  10    0.33    1.20
   6  -1  10    2.07    1.36
   6   1 -10    0.42    1.52
  -6   1 -10    0.61    1.18
   6   1  10   -1.06    1.27
   6  -1 -10   -0.01    1.54
  -6  -1  10   -0.49    1.00
  -7   1  10    0.85    1.27
  -7  -1 -10    0.20    1.24
   7  -1  10   -0.67    1.38
   7   1 -10   -0.22    1.64
   7  -1 -10    0.34    1.66
   7   1  10   -1.00    1.44
  -7   1 -10   -0.05    1.23
  -7  -1  10    0.62    1.24
   8  -1  10    5.38    1.87
  -8  -1 -10    5.91    1.57
  -8   1  10    3.86    1.50
   8   1 -10    2.96    2.06
   8  -1 -10    5.87    2.20
  -8   1 -10    7.10    1.59
   8   1  10    6.06    1.93
  -8  -1  10    6.43    1.55
  -9  -1 -10    0.85    1.47
   9  -1  10    0.87    1.85
  -9   1  10   -2.62    1.40
   9   1 -10    1.53    2.08
  -9  -1  10   -0.50    1.39
   9  -1 -10   -0.73    2.06
  -9   1 -10   -0.18    1.48
   9   1  10   -1.10    1.79
 -10   1  10    1.41    1.54
  10   1 -10    0.78    2.21
 -10  -1 -10   -1.63    1.60
  10  -1  10    1.17    1.97
 -10  -1  10    1.82    1.53
  10   1  10    0.42    2.11
 -10   1 -10   -1.43    1.60
  10  -1 -10    1.28    2.20
   0  -2  10   65.96    4.30
   0   2  10   67.27    4.19
   0  -2 -10   65.40    3.64
   0   2  10   61.96    3.63
   0  -2  10   69.70    3.85
   0  -2  10   66.36    3.72
  -1   2  10   -0.75    1.08
   1  -2  10    0.77    0.64
   1  -2  10    0.44    0.90
   1  -2  10   -0.84    0.73
  -1  -2 -10   -1.04    0.68
  -1   2  10    0.51    0.59
   1   2 -10    0.11    0.58
   1   2  10    0.08    0.41
   1  -2 -10    0.05    0.62
  -1  -2  10   -0.27    1.21
   1   2  10   -0.27    0.88
  -1  -2  10    0.18    0.62
   2   2 -10  122.86    6.14
  -2   2  10  123.88    7.40
   2   2 -10  131.69    7.21
   2  -2  10  105.23    6.38
  -2   2  10  124.67    6.49
  -2  -2 -10  118.32    6.34
   2  -2  10  122.93    6.93
   2  -2  10  118.73    6.47
  -2  -2  10  123.01    6.56
   2   2  10  120.26    6.96
   2  -2 -10  119.66    6.20
   3  -2  10    5.51    1.19
   3  -2  10    4.46    1.17
  -3   2  10    3.85    1.00
   3   2 -10    6.26    1.46
  -3  -2 -10    4.96    1.03
   3  -2 -10    5.41    1.48
   3  -2 -10    3.59    0.76
  -3   2 -10    3.87    0.77
   3   2  10    3.92    1.17
  -3  -2  10    4.52    1.02
   4   2 -10  160.09    9.25
  -4   2  10  158.20    8.39
   4  -2  10  153.27    8.83
  -4  -2 -10  164.66    8.21
   4  -2  10  155.83    8.35
   4   2  10  143.94    8.84
   4  -2 -10  151.71    9.28
  -4  -2  10  160.87    8.44
   5  -2  10    0.74    1.24
  -5   2  10   -1.56    1.03
   5   2 -10    0.29    1.45
   5  -2  10    0.97    1.25
  -5  -2 -10   -1.40    0.99
   5  -2 -10    0.10    1.42
   5   2  10   -1.12    1.11
  -5  -2  10   -0.30    1.00
  -6  -2 -10  125.99    6.69
  -6   2  10  132.07    6.99
   6  -2  10  120.41    7.27
   6   2 -10  112.64    7.72
  -6  -2  10  125.67    6.87
   6  -2 -10  119.73    7.80
  -6   2 -10  118.73    6.71
   6   2  10  118.11    7.35
  -7   2  10    1.86    1.32
   7   2 -10    0.32    1.66
  -7  -2 -10    2.32    1.30
   7  -2  10    0.36    1.44
   7  -2 -10    0.55    1.78
  -7  -2  10    1.89    1.29
  -7   2 -10   -0.06    1.30
   7   2  10    0.95    1.51
   8   2 -10   28.94    3.47
   8  -2  10   28.11    2.98
  -8  -2 -10   30.20    2.62
  -8   2  10   32.38    2.77
   8  -2 -10   37.40    3.66
  -8   2 -10   29.80    2.70
  -8  -2  10   34.18    2.94
   8   2  10   32.34    3.15
  -9  -2 -10    0.53    1.49
   9  -2  10   -2.76    1.63
  -9   2  10    1.42    1.52
   9   2 -10   -3.51    1.95
   9   2  10    3.82    1.97
  -9   2 -10   -2.07    1.50
  -9  -2  10   -0.27    1.52
   9  -2 -10   -1.24    2.00
  10   2 -10    7.99    2.68
 -10  -2 -10    9.67    1.97
 -10   2  10    8.25    1.94
  10  -2  10    8.26    2.31
 -10   2 -10   11.04    2.01
  10  -2 -10   10.51    2.50
  10   2  10    7.00    2.38
 -10  -2  10    7.86    1.93
   0   3  10    1.57    1.03
   0  -3  10    1.12    0.74
   0  -3  10    0.21    0.82
   0  -3  10    1.12    1.17
   0  -3 -10   -0.40    0.68
   0   3  10    0.75    0.59
  -1   3  10   19.22    2.09
  -1  -3 -10   17.90    1.47
   1  -3  10   20.57    1.76
   1  -3  10   19.53    1.61
  -1   3  10   17.61    1.47
   1  -3  10   19.41    1.89
   1  -3 -10   16.41    1.39
  -1  -3  10   18.97    1.65
   1   3  10   20.69    1.95
  -1  -3  10   19.35    2.20
   1   3  10   17.81    1.39
  -1  -3  10   22.06    1.72
  -2  -3 -10   25.43    1.98
   2   3 -10   28.49    2.51
  -2   3  10   26.11    2.04
  -2   3  10   26.74    2.75
   2  -3  10   24.42    2.11
   2  -3  10   23.31    2.21
  -2  -3  10   24.12    2.00
   2   3  10   23.89    2.22
  -2  -3  10   26.92    1.76
   2  -3 -10   22.22    1.80
  -3   3  10   -0.85    0.86
   3   3 -10   -1.03    1.13
  -3   3  10   -0.34    1.62
   3  -3  10    1.55    0.98
   3  -3  10    2.63    1.23
  -3  -3 -10   -0.26    0.87
  -3   3 -10   -0.02    0.71
   3  -3 -10    1.72    0.76
   3   3  10    0.36    0.98
  -3  -3  10   -0.10    0.74
   4  -3  10    0.52    1.09
   4  -3  10   -1.08    1.23
  -4  -3 -10   -0.78    0.94
  -4   3  10   -0.31    1.05
   4   3 -10   -2.67    1.20
  -4  -3  10    1.30    0.88
   4   3  10   -0.18    1.07
   4  -3 -10   -1.63    1.37
  -4   3 -10   -0.16    0.62
  -5  -3 -10   29.57    2.40
   5  -3  10   28.77    2.47
   5   3 -10   25.76    2.85
   5  -3  10   28.22    2.53
  -5   3  10   28.30    2.46
  -5  -3  10   27.66    2.32
   5   3  10   22.32    2.45
   5  -3 -10   24.20    2.81
  -6   3  10    0.16    1.31
   6   3 -10   -0.26    1.58
   6  -3  10   -0.10    1.37
   6  -3  10   -0.08    1.26
  -6  -3 -10   -0.16    1.15
   6   3  10   -0.93    1.25
   6  -3 -10    0.12    1.63
  -6  -3  10    1.60    1.09
   7  -3  10    2.02    1.46
   7  -3  10    0.87    1.53
  -7   3  10   -1.34    1.28
   7   3 -10   -0.32    1.70
  -7  -3 -10   -0.87    1.24
   7   3  10   -1.13    1.47
  -7  -3  10    0.56    1.15
   7  -3 -10   -3.59    1.56
  -8  -3 -10    1.81    1.47
   8  -3  10    0.23    1.56
  -8   3  10    3.35    1.58
   8   3 -10    2.75    2.11
  -8   3 -10    4.99    1.59
  -8  -3  10    3.26    1.55
   8   3  10    3.56    1.82
   8  -3 -10    2.41    1.99
   9   3 -10    0.46    2.14
  -9  -3 -10    2.61    1.58
  -9   3  10    5.26    1.73
  -9  -3  10    5.12    1.76
   9   3  10    2.83    1.97
   9  -3 -10    3.71    2.21
  -9   3 -10    2.43    1.64
 -10   3  10    0.60    1.64
  10   3 -10   -0.12    2.29
 -10  -3 -10   -1.41    1.62
  10  -3 -10   -0.97    2.01
  10   3  10    0.19    2.08
 -10  -3  10    0.61    1.50
 -10   3 -10    1.49    1.77
   0   4  10   65.64    3.97
   0  -4 -10   71.36    4.05
   0   4  10   73.87    4.63
   0  -4  10   77.57    4.29
   0  -4  10   78.05    4.81
   0  -4  10   75.08    4.37
   1  -4  10    9.43    1.44
  -1   4  10    9.00    1.07
  -1  -4 -10    7.73    1.11
   1   4 -10    8.46    1.45
  -1   4  10   10.10    1.69
   1  -4  10    9.61    1.20
   1  -4  10   11.10    1.50
   1   4  10   11.19    1.52
   1  -4 -10   10.22    1.09
   1   4  10    7.65    0.81
  -1  -4  10    9.42    1.22
  -1  -4  10    9.82    1.24
  -2   4  10   71.69    4.18
  -2   4  10   66.00    4.96
  -2  -4 -10   72.41    4.10
   2  -4  10   70.01    4.45
   2  -4  10   70.83    4.49
   2   4 -10   75.71    4.76
  -2  -4  10   75.37    4.04
   2  -4 -10   70.35    4.02
   2   4  10   75.51    4.59
  -2   4 -10   71.90    4.34
  -2  -4  10   75.67    4.38
  -3   4  10    5.47    1.14
   3  -4  10    6.16    1.22
   3  -4  10    4.52    1.51
  -3   4  10    7.11    2.06
   3   4 -10    7.52    1.59
  -3  -4 -10    6.70    1.11
   3   4  10    4.78    1.27
   3  -4 -10    7.24    1.04
  -3  -4  10    5.94    1.16
  -3   4 -10    5.41    1.07
   4   4 -10   36.28    3.23
  -4  -4 -10   38.89    2.65
   4  -4  10   40.26    3.24
  -4   4  10   39.22    2.88
   4  -4  10   38.23    2.84
  -4  -4  10   35.85    2.69
  -4   4 -10   40.42    2.49
   4   4  10   32.56    2.96
   4  -4 -10   27.34    3.09
   5  -4  10    1.08    1.48
   5  -4  10    1.10    1.15
  -5  -4 -10    0.73    1.12
   5   4 -10    1.16    1.62
  -5   4  10   -0.22    1.08
  -5  -4  10    1.43    1.11
   5   4  10    0.47    1.20
   5  -4 -10    0.49    1.60
   6  -4  10    9.56    1.65
   6  -4  10   11.25    1.99
  -6  -4 -10    7.77    1.47
   6   4 -10    8.26    2.11
  -6   4  10   10.04    1.62
   6  -4 -10   10.43    2.18
   6   4  10    9.13    1.80
  -6  -4  10    9.74    1.58
   7  -4  10    0.81    1.40
  -7  -4 -10    2.98    1.39
  -7   4  10    0.95    1.30
   7  -4  10    0.06    1.64
   7   4 -10    0.16    1.83
  -7  -4  10    1.62    1.38
   7  -4 -10    3.91    1.93
   7   4  10    0.17    1.50
  -8   4  10   18.93    2.26
   8  -4  10   15.93    2.47
  -8  -4 -10   20.00    2.11
   8   4 -10   16.55    2.93
  -8  -4  10   15.58    2.21
   8  -4 -10   20.27    2.84
   8   4  10   15.17    2.46
   9   4 -10    2.26    2.32
  -9   4  10   -0.76    1.41
  -9  -4 -10   -1.35    1.52
   9   4  10    1.50    1.89
   9  -4 -10   -1.23    2.09
  -9  -4  10    2.05    1.68
 -10  -4 -10   22.57    2.43
 -10   4  10   19.91    2.56
  10   4 -10   15.42    3.36
  10   4  10   20.59    3.08
  10  -4 -10   18.92    2.98
 -10  -4  10   25.04    2.76
 -10   4 -10   19.15    2.55
   0  -5  10    0.17    1.06
   0  -5  10   -0.12    0.82
   0  -5 -10    0.25    0.84
   0   5  10    0.16    1.12
   0   5  10   -1.71    0.62
   0  -5  10   -0.88    1.22
  -1  -5 -10   15.44    1.50
   1  -5  10   18.57    2.01
  -1   5  10   17.11    2.09
   1  -5  10   16.67    1.89
   1  -5  10   18.43    1.68
  -1   5  10   17.36    1.47
   1   5 -10   19.92    1.95
  -1  -5  10   16.71    1.71
   1   5  10   15.00    1.81
   1  -5 -10   18.08    1.51
  -1  -5  10   16.05    1.75
   2   5 -10    0.41    1.16
  -2   5  10    1.28    1.66
  -2  -5 -10    0.85    0.95
   2  -5  10   -1.21    1.30
   2  -5  10    0.03    1.00
  -2   5  10    0.19    0.86
  -2  -5  10    0.36    0.93
  -2  -5  10    0.46    0.93
   2   5  10    0.74    1.09
   2  -5 -10    1.32    0.90
  -2   5 -10    0.85    1.10
   3  -5  10    4.74    1.18
  -3   5  10    1.02    1.94
  -3  -5 -10    2.09    1.03
   3   5 -10    2.93    1.42
  -3   5  10    3.27    1.06
   3  -5  10   -0.58    1.49
   3  -5 -10    3.27    1.02
  -3   5 -10    2.64    1.02
  -3  -5  10    2.93    1.08
   3   5  10    1.57    1.11
  -4   5  10    0.54    1.08
  -4  -5 -10    1.13    1.07
   4  -5  10   -3.41    1.48
   4   5 -10    0.40    1.41
   4  -5  10    1.33    1.01
  -4   5 -10    0.50    0.93
   4   5  10    0.09    1.15
   4  -5 -10    2.14    1.69
  -4  -5  10   -0.66    0.96
  -5   5  10   -1.14    1.15
   5  -5  10   -0.93    1.05
   5  -5  10   -3.13    1.55
  -5  -5 -10    0.88    1.14
   5   5 -10   -0.47    1.58
   5   5  10    1.07    1.23
  -5   5 -10    0.02    0.88
   5  -5 -10    3.16    1.75
  -5  -5  10    0.02    1.07
   6   5 -10   -1.12    1.62
   6  -5  10   -0.48    1.73
  -6  -5 -10    2.76    1.25
  -6   5  10    2.53    1.36
  -6  -5  10   -0.73    1.17
   6   5  10    0.65    1.37
   6  -5 -10    0.49    1.67
   7   5 -10   -1.40    1.86
  -7   5  10    1.80    1.47
  -7  -5 -10    5.07    1.44
   7  -5  10    2.77    1.89
   7   5  10   -0.22    1.50
  -7  -5  10    3.06    1.32
   7  -5 -10    2.65    1.85
   8   5 -10   -0.03    2.15
   8  -5  10    4.43    2.04
  -8  -5 -10    1.18    1.44
  -8   5  10    4.38    1.68
   8   5  10    0.29    1.66
   8  -5 -10    1.15    1.96
  -8  -5  10    0.31    1.50
   9  -5  10    1.14    2.14
   9   5 -10    0.74    2.42
  -9   5  10    2.09    1.80
  -9  -5 -10   -1.07    1.55
   9   5  10   -0.10    1.87
   9  -5 -10   -0.08    2.08
  -9  -5  10   -1.04    1.59
 -10  -5 -10   -3.27    1.69
   0   6  10  181.22    9.82
   0  -6 -10  181.60    8.96
   0  -6  10  183.68    9.30
   0   6 -10  175.71    9.64
   0   6  10  146.87    8.90
   0  -6  10  171.56    9.19
  -1  -6 -10    5.45    1.12
   1  -6  10    3.57    1.46
  -1   6  10    4.35    1.59
   1  -6  10    4.04    1.12
  -1   6  10    5.57    0.99
   1   6 -10    4.68    1.26
   1  -6  10    3.69    1.48
   1   6  10    3.48    1.28
   1  -6 -10    4.02    1.07
  -1  -6  10    3.29    1.11
  -1  -6  10    3.96    1.31
  -2   6  10   68.22    5.56
  -2   6  10   86.48    4.78
   2   6 -10   84.55    5.22
   2  -6  10   85.82    5.10
  -2  -6 -10   83.35    4.65
   2  -6  10   75.43    5.07
  -2   6 -10   80.48    4.93
  -2  -6  10   83.11    5.10
   2   6  10   83.22    5.10
   2  -6 -10   84.13    4.65
  -2  -6  10   81.39    4.71
  -3   6  10   15.24    1.64
   3   6 -10   13.20    1.97
  -3   6  10   16.60    2.66
   3  -6  10   13.63    1.64
  -3  -6 -10   13.53    1.49
   3  -6  10    9.67    2.04
   3  -6 -10   14.18    1.51
  -3  -6  10   15.87    1.79
  -3   6 -10   13.46    1.64
   3   6  10   13.00    1.77
   4   6 -10   71.73    5.02
  -4  -6 -10   76.00    4.27
   4  -6  10   61.48    4.79
  -4   6  10   76.11    4.45
   4  -6 -10   56.72    5.16
  -4  -6  10   68.69    4.49
  -4   6 -10   74.55    4.30
   5   6 -10   -0.95    1.59
   5  -6  10   -1.48    1.77
  -5  -6 -10    0.99    1.16
  -5   6  10    3.50    1.35
  -5  -6  10    1.88    1.19
   5  -6 -10    2.83    1.79
   5   6  10    0.69    1.27
  -5   6 -10    1.08    0.99
   6  -6  10   25.17    3.04
  -6  -6 -10   30.35    2.56
   6   6 -10   30.31    3.31
  -6   6  10   29.59    2.67
   6   6  10   23.11    2.62
   6  -6 -10   30.82    3.12
  -6  -6  10   26.53    2.49
  -7   6  10    6.90    1.67
   7  -6  10   10.62    2.39
  -7  -6 -10    5.83    1.53
   7   6 -10    4.96    2.34
   7   6  10    2.97    1.69
  -7  -6  10   10.31    1.74
   7  -6 -10    6.49    2.07
  -8  -6 -10   14.16    1.93
   8   6 -10    7.47    2.68
   8  -6  10   13.37    2.70
  -8   6  10    9.18    1.90
   8   6  10    9.26    2.15
  -8  -6  10   13.09    2.11
   8  -6 -10   14.81    2.54
   9  -6  10    1.83    2.30
   9   6 -10    0.27    2.52
  -9  -6 -10    0.24    1.68
  -9   6  10    1.13    1.73
  -9  -6  10   -0.29    1.71
   9   6  10    2.97    2.02
   0   7 -10    1.20    1.02
   0   7  10   -0.42    0.69
   0  -7  10    0.90    0.96
   0  -7 -10    0.89    1.10
   0  -7  10   -2.41    1.18
   0   7  10   -0.48    1.32
   1  -7  10   -0.01    1.38
   1  -7  10    3.21    1.08
   1   7 -10    3.26    1.20
  -1   7  10    2.10    1.53
  -1  -7 -10    3.33    1.14
  -1   7  10    3.44    0.98
  -1  -7  10    4.23    1.28
   1  -7 -10    2.05    1.14
   1   7  10    2.60    1.31
  -1  -7  10    3.40    1.20
   2   7 -10    5.29    1.45
  -2   7  10    4.47    2.00
   2  -7  10    3.48    1.68
  -2   7  10    7.02    1.21
  -2  -7 -10    6.25    1.25
   2   7  10    5.16    1.42
  -2   7 -10    5.88    1.55
   2  -7 -10    4.67    1.25
  -2  -7  10    4.27    1.21
  -2  -7  10    3.41    1.22
  -3   7  10    4.29    1.22
  -3   7  10    5.05    2.21
   3   7 -10    4.15    1.56
   3  -7  10    3.33    1.77
  -3  -7 -10    3.43    1.18
  -3  -7  10    4.90    1.43
   3   7  10    4.20    1.36
   3  -7 -10    2.52    1.23
  -3   7 -10    3.62    1.32
   4  -7  10    4.05    1.95
  -4  -7 -10    5.30    1.29
   4   7 -10    6.49    1.79
  -4   7  10    9.10    1.43
   4   7  10    2.17    1.35
   4  -7 -10    5.58    1.86
  -4   7 -10    5.89    1.32
   4  -7 -10    7.63    1.43
  -4  -7  10    8.53    1.57
   5   7 -10   11.73    2.27
   5  -7  10   12.80    2.37
  -5  -7 -10   13.07    1.66
  -5   7  10   15.52    1.96
  -5  -7  10   11.34    1.83
   5   7  10    9.72    1.80
   5  -7 -10   18.16    2.44
  -5   7 -10   14.94    1.64
   6  -7  10    2.25    2.09
   6   7 -10    0.47    1.88
  -6   7  10   -2.46    1.28
  -6  -7 -10   -3.03    1.18
  -6  -7  10   -0.15    1.33
   6   7  10   -0.84    1.40
   6  -7 -10   -2.98    1.61
  -6   7 -10    1.16    1.14
  -7   7  10   -0.85    1.31
  -7  -7 -10   -1.95    1.31
   7   7 -10    2.29    2.22
   7  -7  10   -0.85    2.16
   7  -7 -10    1.39    1.82
   7   7  10    1.04    1.58
  -7  -7  10    1.39    1.45
  -8  -7 -10    3.29    1.62
   8  -7  10    5.51    2.49
  -8   7  10    6.15    1.86
   8   7 -10    2.93    2.52
  -8  -7  10    5.04    1.67
   8   7  10    4.21    1.90
  -9  -7 -10    2.19    1.70
   9   7 -10    1.03    2.61
  -9   7  10    2.07    1.68
   9  -7  10    0.64    2.49
   9   7  10   -1.45    1.89
  -9  -7  10    2.68    1.68
   0  -8 -10   20.42    1.98
   0  -8  10   23.09    2.18
   0   8  10   23.05    2.55
   0  -8  10   23.96    2.16
   1  -8  10    3.18    1.51
   1   8 -10    1.36    1.22
  -1   8  10    3.69    1.01
  -1   8  10    0.35    1.63
  -1  -8 -10    3.56    1.27
  -1  -8  10    4.77    1.25
  -1   8 -10    1.22    1.42
  -1  -8  10    4.65    1.28
   1  -8 -10    2.67    1.27
   1   8  10    0.52    1.37
  -2  -8 -10   31.19    2.57
   2   8 -10   32.01    2.68
   2  -8  10   27.26    2.71
  -2   8  10   27.38    2.35
  -2   8  10   26.60    3.30
  -2  -8  10   31.33    2.63
  -2   8 -10   31.75    2.81
   2  -8 -10   29.90    2.38
   2   8  10   30.69    2.78
  -2  -8  10   29.88    2.49
  -3   8  10    4.42    2.37
   3   8 -10    7.96    1.70
  -3  -8 -10    4.69    1.34
  -3   8  10    7.22    1.39
   3  -8  10    3.65    1.84
   3  -8 -10    5.11    1.37
  -3   8 -10    3.34    1.43
   3   8  10    7.74    1.59
  -3  -8  10    3.45    1.49
   4  -8  10   59.33    4.45
   4   8 -10   52.69    4.44
  -4  -8 -10   62.09    3.80
  -4   8  10   64.24    4.07
  -4   8 -10   58.55    3.92
  -4  -8  10   52.71    4.18
   4   8  10   58.91    4.13
   4  -8 -10   61.87    3.92
   4  -8 -10   61.01    4.62
  -5   8  10    4.09    1.58
   5   8 -10    4.56    1.98
   5  -8  10    0.58    2.01
  -5  -8 -10    5.57    1.36
  -5  -8  10    5.64    1.65
   5  -8 -10    6.39    1.92
  -5   8 -10    2.22    1.28
   5   8  10    3.89    1.50
   6  -8  10   17.15    2.79
   6   8 -10   14.50    2.68
  -6  -8 -10   18.35    1.94
  -6   8  10   16.15    2.21
  -6  -8  10   18.82    2.27
  -6   8 -10   13.56    1.85
   6   8  10   13.16    2.14
   7  -8  10    2.34    2.37
  -7  -8 -10    2.19    1.45
   7   8 -10    1.45    2.25
  -7   8  10    1.58    1.69
   7   8  10    0.05    1.66
  -7  -8  10    6.46    1.79
   8  -8  10    4.79    2.65
   8   8 -10    8.28    2.75
  -8  -8 -10   10.85    1.83
  -8   8  10    6.03    1.86
   8   8  10    7.86    2.09
  -8  -8  10    7.88    2.04
   9  -8  10   -3.06    2.51
  -9   8  10    0.42    1.76
   9   8 -10   -4.10    2.60
  -9  -8 -10   -0.18    1.67
   9   8  10    0.80    1.94
  -9  -8  10   -2.03    1.80
   0  -9  10    1.66    1.13
   0  -9  10   -0.85    1.26
   0  -9 -10   -0.55    1.29
   0   9  10   -0.26    1.61
  -1   9  10   51.65    3.36
  -1   9  10   47.15    4.11
   1  -9  10   53.50    3.70
  -1  -9 -10   52.61    3.47
   1  -9 -10   51.15    3.55
  -1  -9  10   47.73    3.48
   1   9  10   50.53    3.93
  -1  -9  10   54.52    3.73
  -1   9 -10   52.36    3.72
  -2   9  10   -0.81    1.00
   2  -9  10    0.85    1.58
  -2   9  10   -0.77    2.07
   2   9 -10    1.07    1.35
  -2  -9 -10    0.84    1.26
   2  -9 -10    2.48    1.30
  -2  -9  10    1.36    1.12
  -2   9 -10    0.31    1.49
   2   9  10    1.17    1.41
  -3  -9 -10    0.79    1.24
   3   9 -10   -2.49    1.36
   3  -9  10    4.34    1.82
  -3   9  10    4.00    2.32
  -3   9  10   -0.55    1.11
   3  -9 -10   -3.17    1.19
  -3   9 -10    0.14    1.38
  -3  -9  10    0.00    1.14
   3   9  10    1.14    1.33
  -4   9  10    0.48    1.32
  -4  -9 -10    1.53    1.26
   4  -9  10   -0.03    1.79
   4   9 -10    2.49    1.73
   4   9  10    0.51    1.40
  -4  -9  10    1.59    1.48
   4  -9 -10    1.62    1.44
   4  -9 -10    2.70    1.80
  -4   9 -10    2.27    1.42
   5  -9  10    4.84    2.26
  -5   9  10    8.01    1.72
  -5  -9 -10    6.94    1.57
   5   9 -10    7.98    2.19
  -5  -9  10    6.16    1.87
  -5   9 -10    7.72    1.59
   5   9  10    3.30    1.66
   6  -9  10    0.26    2.20
  -6  -9 -10    1.39    1.44
   6   9 -10    1.58    2.12
  -6   9  10   -1.03    1.55
   6   9  10   -1.90    1.52
  -6  -9  10   -2.56    1.54
  -6   9 -10   -0.17    1.26
  -7   9  10   -2.90    1.56
  -7  -9 -10   -1.85    1.46
   7   9 -10   -1.21    2.23
   7  -9  10   -2.32    2.28
   7   9  10   -0.57    1.66
  -7  -9  10    3.18    1.76
   8  -9  10   -4.26    2.45
   8   9 -10   -1.54    2.43
  -8  -9 -10   -4.98    1.54
  -8   9  10   -0.29    1.86
   8   9  10    0.57    1.83
  -8  -9  10    0.64    1.88
   0 -10  10   33.49    2.77
   0  10 -10   34.03    3.05
   0  10  10   32.09    3.33
   0 -10 -10   36.20    2.93
  -1 -10 -10    1.73    1.38
  -1  10  10    2.44    1.83
   1 -10  10    2.06    1.49
   1  10  10    1.44    1.58
   1 -10 -10    0.46    1.42
  -1 -10  10    2.01    1.19
  -1  10 -10    0.21    1.54
  -1 -10  10    0.04    1.26
   2 -10  10   55.95    4.02
  -2  10  10   60.07    3.71
  -2  10  10   51.56    4.85
  -2 -10 -10   54.73    3.72
  -2 -10  10   57.05    3.83
   2 -10 -10   56.31    3.79
   2  10  10   59.26    4.19
  -2  10 -10   47.21    4.06
   3 -10  10    2.31    1.77
  -3 -10 -10    0.16    1.36
  -3  10  10    3.67    1.37
  -3  10 -10    0.67    1.54
   3  10  10    1.63    1.52
   3 -10 -10   -0.09    1.36
  -3 -10  10    0.41    1.36
  -4  10  10   62.16    4.14
   4  10 -10   56.35    4.78
  -4 -10 -10   62.00    4.04
   4 -10  10   56.60    4.53
  -4  10 -10   55.87    4.11
   4  10  10   67.23    4.40
   4 -10 -10   61.32    4.09
  -4 -10  10   58.49    4.22
  -5  10  10   -1.02    1.49
  -5 -10 -10    0.36    1.40
   5  10 -10   -1.97    1.91
   5 -10  10   -2.54    1.94
  -5 -10  10   -1.28    1.37
   5  10  10    2.78    1.64
  -5  10 -10    1.36    1.42
  -6  10  10   34.20    3.24
   6  10 -10   30.06    3.53
  -6 -10 -10   30.28    2.64
   6 -10  10   32.00    3.49
  -6 -10  10   29.05    3.17
   6  10  10   25.66    2.89
  -6  10 -10   26.53    2.67
  -7 -10 -10    0.88    1.55
   7 -10  10   -2.12    2.30
  -7  10  10    0.94    1.81
   7  10 -10   -2.96    2.27
   7  10  10    1.69    1.78
  -7 -10  10    1.58    1.91
  -7  10 -10    1.52    1.51
   8 -10  10    6.02    2.86
  -8  10  10   18.76    2.69
   8  10 -10    8.62    3.02
  -8 -10 -10    9.51    1.97
  -8 -10  10   12.26    2.38
   8  10  10    8.37    2.32
   0 -11 -10   -1.10    1.43
   0 -11  10    0.64    1.47
   0  11  10    0.35    1.84
   0  11 -10    1.67    1.44
  -1 -11 -10   -0.45    1.46
   1 -11  10   -1.26    1.50
  -1  11 -10    0.86    1.53
  -1 -11  10   -0.39    1.29
  -1 -11  10   -1.65    1.32
   1  11  10    0.16    1.77
   1 -11 -10   -0.82    1.39
  -2 -11 -10    1.67    1.46
  -2  11  10   -0.91    1.18
   2 -11  10    1.81    1.69
   2  11  10    0.06    1.66
  -2 -11  10    0.02    1.34
   2 -11 -10    1.80    1.48
  -2  11 -10    1.44    1.69
  -3  11  10   -2.47    1.26
   3 -11  10   -0.47    1.77
  -3 -11 -10    0.75    1.43
   3  11  10    0.08    1.60
  -3  11 -10   -3.04    1.38
   3 -11 -10    0.31    1.49
  -3 -11  10   -0.23    1.43
  -4 -11 -10    1.03    1.51
  -4  11  10    2.57    1.59
   4 -11  10    4.72    2.05
   4  11  10    3.63    1.75
  -4  11 -10    0.91    1.68
  -4 -11  10    3.54    1.63
   4 -11 -10   -0.36    1.58
  -5  11  10   -2.70    1.53
   5 -11  10   -0.24    2.05
  -5 -11 -10    0.85    1.51
  -5  11 -10    0.52    1.62
   5  11  10    1.18    1.78
  -5 -11  10   -0.96    1.66
  -6  11  10    1.57    1.83
  -6 -11 -10   -0.76    1.52
   6  11 -10    0.56    2.30
   6 -11  10    2.04    2.30
  -6  11 -10    0.22    1.55
   6  11  10    0.41    1.76
  -6 -11  10    1.23    1.85
  -7  11  10   -1.97    1.91
  -7 -11 -10   -1.01    1.67
   7 -11  10    0.69    2.53
   7  11 -10    0.67    2.54
   7  11  10    2.32    2.04
  -7 -11  10    0.84    1.87
  -7  11 -10    0.81    1.60
   0 -12 -10    8.51    1.80
   0  12 -10    4.76    1.72
   0 -12  10    7.20    1.81
  -1 -12 -10   -0.78    1.57
   1 -12  10    2.23    1.67
   1  12 -10    1.36    1.59
  -1  12 -10    0.00    1.71
  -1 -12  10   -0.58    1.52
   1 -12 -10    2.42    1.62
   2 -12  10   16.66    2.45
  -2 -12 -10   19.64    2.31
  -2  12  10   19.17    2.22
   2 -12 -10   20.76    2.31
  -2  12 -10   17.68    2.65
  -2 -12  10   20.33    2.34
   2  12  10   23.13    2.87
   3 -12  10    1.89    1.92
  -3 -12 -10    0.12    1.56
  -3  12  10    2.81    1.64
  -3 -12  10    0.72    1.42
   3  12  10    5.08    2.01
   3 -12 -10    2.54    1.66
  -3  12 -10    3.81    1.97
   4 -12  10   34.49    3.44
  -4 -12 -10   32.98    2.95
  -4  12  10   41.87    3.31
  -4  12 -10   28.41    3.35
   4  12  10   39.72    3.55
   4 -12 -10   37.12    3.17
  -4 -12  10   39.60    3.39
   5 -12  10   -0.37    2.12
  -5  12  10   -0.96    1.62
  -5 -12 -10   -0.25    1.59
  -5  12 -10   -1.44    1.72
  -5 -12  10    0.24    1.67
   5  12  10    1.80    1.92
   6 -12  10   32.56    3.62
  -6  12  10   32.69    3.25
  -6 -12 -10   27.54    2.78
  -6  12 -10   25.35    2.97
  -6 -12  10   30.25    3.23
   6  12  10   31.93    3.35
   0  13 -10   -2.05    1.47
   0 -13 -10   -0.25    1.67
   0 -13  10    1.45    1.79
   1 -13  10    8.80    2.09
  -1 -13 -10    6.20    1.95
   1  13 -10    9.99    1.97
   1 -13 -10    7.28    1.94
  -1  13 -10    7.81    2.18
  -1 -13  10   10.79    2.11
  -2 -13 -10    1.39    1.71
   2 -13  10    3.50    1.97
  -2 -13  10    1.43    1.64
  -2  13 -10    1.48    1.76
   2 -13 -10    2.15    1.77
  -3 -13 -10   -1.98    1.61
   3 -13  10    2.34    2.00
  -3  13  10   -0.43    1.47
  -3 -13  10    1.27    1.61
   3 -13 -10   -1.31    1.74
  -3  13 -10    3.94    2.04
   4 -13  10    0.65    2.13
  -4 -13 -10    0.52    1.68
  -4  13  10   -0.36    1.65
  -4 -13  10   -1.43    1.41
   4  13  10    1.83    1.99
  -4  13 -10   -2.07    1.81
   4 -13 -10    1.93    1.88
   5 -13  10    2.88    2.26
  -5 -13 -10    1.42    1.76
  -5  13  10   -0.48    1.75
  -5  13 -10    0.94    1.97
  -5 -13  10    1.65    1.81
   5  13  10   -1.31    2.06
   0 -14 -10   35.50    3.15
   0  14 -10   33.65    3.48
   0 -14  10   33.84    3.33
  -1 -14 -10    3.50    1.87
   1  14 -10    0.32    1.62
   1 -14  10    3.12    2.09
  -1 -14  10   -1.82    1.86
   1 -14 -10    0.67    1.84
  -1  14 -10   -1.08    1.86
   2  14 -10   33.50    3.27
  -2 -14 -10   35.76    3.19
   2 -14  10   35.20    3.38
   2 -14 -10   29.53    3.02
  -2  14 -10   31.32    3.49
   3 -14  10    1.68    2.16
  -3 -14 -10    3.68    1.93
   3 -14 -10    4.41    2.06
  -3 -14  10    3.25    1.78
  -3  14 -10    2.44    2.14
   4 -14  10    7.84    2.57
  -4 -14 -10   13.62    2.24
  -4  14  10   10.57    2.12
   4 -14 -10   11.33    2.37
  -4  14 -10    9.00    2.54
  -4 -14  10    8.53    2.06
   0 -15 -10   -0.58    1.93
   0 -15  10   -2.62    2.02
   0  15 -10    0.28    1.87
   1 -15  10   -1.31    2.05
  -1 -15 -10   -0.42    1.98
   1  15 -10    3.57    1.95
   1 -15 -10    1.31    1.93
  -1  15 -10    2.13    2.04
   2 -15  10    3.27    2.25
   2  15 -10    1.79    1.69
  -2 -15 -10   -0.08    1.92
   2 -15 -10    2.77    2.06
  -2  15 -10    2.54    2.05
   3  15 -10    1.29    1.76
   3 -15  10    2.88    2.24
  -3  15 -10   -2.75    2.03
   0   0  11    0.37    0.62
   0   0 -11    0.34    0.67
   0   0  11   -0.02    1.10
  -1   0  11    1.12    0.71
   1   0  11   -0.24    1.05
  -1   0 -11   -1.48    0.73
   1   0 -11   -0.73    0.66
  -1   0  11   -0.20    1.28
   1   0  11   -0.24    0.57
   2   0  11    1.05    1.05
  -2   0  11    1.51    1.48
  -2   0  11    0.36    0.68
   2   0  11    0.05    0.52
  -2   0 -11   -1.06    0.78
   2   0 -11   -0.55    0.59
  -3   0  11   -1.12    0.79
  -3   0 -11   -0.22    0.89
   3   0  11   -0.26    1.11
   3   0 -11   -0.54    1.20
   4   0 -11    0.06    1.32
   4   0  11   -0.56    1.17
  -4   0  11    0.49    0.99
  -4   0 -11    0.46    1.01
  -5   0 -11   -0.09    1.10
  -5   0  11   -1.16    1.06
   5   0  11    1.88    1.37
   5   0 -11    1.27    1.53
  -6   0 -11   -1.21    1.16
   6   0 -11   -0.12    1.49
  -6   0  11    0.91    1.15
   6   0  11   -0.26    1.34
   7   0 -11    2.32    1.92
   7   0  11   -1.04    1.45
  -7   0 -11   -0.49    1.29
  -7   0  11   -0.82    1.14
  -8   0  11   -0.21    1.45
  -8   0 -11   -1.70    1.37
   8   0 -11    1.28    2.03
   8   0  11   -0.28    1.66
   9   0 -11   -2.05    2.17
  -9   0 -11    1.55    1.58
  -9   0  11    1.18    1.47
   9   0  11    1.87    1.92
 -10   0  11   -0.38    1.63
 -10   0 -11    0.64    1.71
  10   0 -11   -1.22    2.20
  10   0  11   -0.79    1.99
   0  -1  11   -0.60    1.11
   0   1  11    0.56    0.61
   0   1 -11   -0.48    0.67
   0   1  11    0.41    1.10
   0  -1 -11    0.76    0.73
   0  -1  11    0.43    0.62
  -1   1  11  195.87   11.31
   1   1 -11  208.72   10.09
   1  -1  11  202.92   11.13
  -1   1  11  173.92   10.34
  -1  -1 -11  205.38   10.20
   1  -1  11  201.89   10.43
   1   1  11  199.64   11.13
  -1  -1  11  223.93   10.48
   1   1  11  174.30   10.23
  -1  -1  11  200.35   11.41
  -1   1 -11  206.90   10.21
   1  -1 -11  208.06   10.10
  -2   1  11   13.82    1.36
   2   1 -11   15.65    1.12
   2  -1  11    9.99    1.14
  -2   1  11   15.59    2.25
  -2  -1 -11   14.61    1.37
   2  -1  11   12.93    1.68
   2   1  11   11.51    1.65
  -2  -1  11   15.80    2.17
   2  -1 -11   17.26    1.38
  -2  -1  11   15.18    1.47
  -2   1 -11   12.60    1.36
  -3   1  11   38.15    2.63
   3   1 -11   38.77    3.31
   3  -1  11   33.54    2.82
  -3  -1 -11   34.34    2.48
  -3  -1  11   33.93    2.49
   3  -1 -11   38.56    3.28
  -3   1 -11   36.55    2.55
   3   1  11   29.06    2.75
   4  -1  11   20.98    2.13
  -4   1  11   21.96    1.99
  -4  -1 -11   21.74    1.85
   4   1 -11   21.35    2.44
   4   1  11   18.26    2.11
  -4  -1  11   20.28    1.87
  -4   1 -11   20.14    1.86
   4  -1 -11   18.97    2.41
   5   1 -11    0.63    1.48
   5  -1  11    1.63    1.33
  -5   1  11    1.58    1.21
  -5  -1 -11    0.86    1.09
   5  -1 -11   -0.76    1.46
  -5   1 -11    1.56    1.18
   5   1  11    3.18    1.38
  -5  -1  11    3.69    1.21
   6  -1  11    3.13    1.51
  -6   1  11    3.76    1.31
   6   1 -11    5.30    1.79
  -6  -1 -11    3.05    1.30
  -6  -1  11    6.49    1.43
   6   1  11    5.21    1.60
  -6   1 -11    2.77    1.29
   6  -1 -11    0.46    1.69
  -7   1  11   28.21    2.63
   7   1 -11   26.19    3.16
   7  -1  11   24.83    2.75
  -7  -1 -11   27.93    2.46
   7  -1 -11   30.46    3.38
  -7   1 -11   29.25    2.50
  -7  -1  11   32.53    2.74
   7   1  11   24.83    2.82
  -8  -1 -11    1.15    1.49
   8  -1  11    1.75    1.67
   8   1 -11   -2.21    1.83
  -8   1  11    2.28    1.48
  -8   1 -11   -1.26    1.40
   8  -1 -11    0.29    1.95
   8   1  11    0.38    1.70
  -8  -1  11   -0.46    1.26
   9  -1  11   29.53    3.23
  -9   1  11   27.45    2.90
  -9  -1 -11   29.89    2.67
   9   1 -11   31.09    3.68
   9   1  11   25.74    3.16
   9  -1 -11   31.30    3.74
  -9  -1  11   26.15    2.73
  -9   1 -11   28.77    2.75
 -10  -1 -11    2.56    1.78
  10  -1  11    1.65    2.01
  10   1 -11    1.45    2.40
 -10   1  11    0.99    1.56
 -10   1 -11    1.35    1.77
  10  -1 -11    2.60    2.42
 -10  -1  11   -0.41    1.64
  10   1  11   -1.28    2.05
   0   2 -11    8.76    1.07
   0  -2 -11   12.31    1.14
   0  -2  11    9.40    1.19
   0   2  11   11.69    1.64
   0  -2  11   10.43    1.70
   0   2  11   10.46    1.06
   1  -2  11    0.21    0.75
   1  -2  11    1.15    1.16
  -1  -2 -11    0.63    0.81
   1   2 -11   -0.11    0.65
  -1   2  11   -0.32    0.68
  -1   2  11    1.07    1.24
  -1  -2  11    0.24    1.37
   1   2  11   -0.02    0.49
  -1  -2  11   -0.54    0.72
   1   2  11   -0.87    0.96
   1  -2 -11   -0.48    0.68
   2  -2  11    3.97    1.14
   2  -2  11    4.53    1.26
   2  -2  11    4.09    0.83
  -2   2  11    2.08    0.91
   2   2 -11    3.14    1.30
  -2   2  11    4.52    1.77
  -2  -2 -11    5.07    0.99
   2   2 -11    5.70    0.75
   2  -2 -11    4.06    0.80
   2   2  11    2.87    1.20
  -2  -2  11    4.67    1.03
   3  -2  11   -0.39    1.05
  -3   2  11    0.38    0.91
   3  -2  11   -0.23    1.13
  -3  -2 -11    0.51    0.94
   3   2 -11    2.47    1.34
   3   2  11   -0.13    1.11
   3  -2 -11   -0.86    1.24
  -3  -2  11   -0.11    0.90
  -4   2  11    1.72    1.00
  -4  -2 -11    1.00    1.04
   4   2 -11    1.25    1.42
   4  -2  11    0.10    1.18
  -4  -2  11    2.55    0.98
   4  -2 -11    1.42    1.47
   4   2  11    0.25    1.13
   5   2 -11    1.90    1.58
  -5   2  11    2.31    1.25
   5  -2  11    2.46    1.35
  -5  -2 -11    3.07    1.18
   5  -2 -11    3.05    1.71
  -5  -2  11    2.16    1.14
  -5   2 -11    0.23    1.18
   5   2  11   -1.48    1.25
   6   2 -11   -1.25    1.50
  -6   2  11    0.40    1.14
   6  -2  11   -0.21    1.34
  -6  -2 -11   -0.15    1.17
   6  -2 -11   -1.35    1.59
  -6   2 -11    1.27    1.27
  -6  -2  11    1.46    1.12
   6   2  11   -0.21    1.37
  -7   2  11    7.33    1.62
  -7  -2 -11    7.46    1.58
   7  -2  11    6.66    1.72
   7   2 -11    2.00    1.90
  -7  -2  11    5.48    1.62
   7  -2 -11    4.44    2.05
  -7   2 -11    7.32    1.64
   7   2  11    6.63    1.82
  -8  -2 -11    2.95    1.55
  -8   2  11    2.09    1.40
   8  -2  11    0.04    1.63
   8   2 -11    3.17    2.07
  -8   2 -11    3.42    1.63
  -8  -2  11   -1.13    1.43
   8  -2 -11    3.05    2.16
   8   2  11   -1.95    1.63
  -9   2  11    1.67    1.62
  -9  -2 -11    0.13    1.58
   9   2 -11   -0.56    2.18
   9  -2  11    2.34    1.80
  -9  -2  11    0.90    1.48
   9   2  11    0.37    1.97
  -9   2 -11   -1.87    1.59
   9  -2 -11   -0.70    2.17
 -10   2  11    4.55    1.90
 -10  -2 -11    4.41    1.83
  10   2 -11    5.32    2.66
 -10   2 -11    4.37    1.90
  10  -2 -11    1.54    2.31
  10   2  11    7.54    2.44
 -10  -2  11    4.70    1.87
   0  -3 -11   -0.29    0.78
   0  -3  11    0.27    1.37
   0  -3  11   -0.03    0.80
   0   3  11    0.84    0.69
   0  -3  11    1.71    0.92
   0   3  11    0.30    1.13
  -1   3  11   44.64    3.07
   1  -3  11   52.07    3.32
  -1   3  11   45.87    3.79
   1  -3  11   56.73    3.69
   1  -3  11   55.87    3.38
  -1  -3 -11   53.75    3.14
  -1  -3  11   53.55    3.12
  -1  -3  11   55.12    4.01
   1  -3 -11   51.28    3.07
  -1  -3  11   53.66    3.37
   1   3  11   50.29    3.59
   2  -3  11    0.90    1.13
   2  -3  11   -0.26    0.68
  -2   3  11    1.05    0.83
   2  -3  11   -0.57    1.07
  -2   3  11   -2.42    1.51
  -2  -3 -11   -0.17    0.87
   2   3 -11   -0.43    1.12
   2  -3 -11    1.32    0.79
   2   3  11    0.23    1.05
  -2  -3  11    1.01    0.89
  -3   3  11   80.42    4.65
   3   3 -11   80.42    5.24
  -3  -3 -11   78.31    4.51
   3  -3  11   77.66    4.89
  -3   3  11   82.26    5.63
   3  -3  11   81.52    4.78
  -3   3 -11   77.38    4.48
   3   3  11   79.92    5.00
  -3  -3  11   73.12    4.67
  -4  -3 -11    6.26    1.21
   4   3 -11    5.21    1.67
  -4   3  11    3.46    1.27
   4  -3  11    5.81    1.50
   4  -3  11    5.67    1.39
   4  -3 -11    3.12    1.64
   4   3  11    3.05    1.34
  -4  -3  11    5.04    1.18
  -5   3  11   71.01    4.34
  -5  -3 -11   67.82    4.09
   5  -3  11   60.88    4.36
   5   3 -11   62.37    4.91
   5  -3  11   69.04    4.38
   5   3  11   63.46    4.51
   5  -3 -11   56.11    5.04
  -5  -3  11   72.38    4.28
   6   3 -11    6.04    1.97
   6  -3  11    4.12    1.50
  -6   3  11    4.86    1.51
  -6  -3 -11    4.61    1.38
   6  -3  11    7.30    1.78
   6  -3 -11    4.66    1.97
   6   3  11    2.49    1.51
  -6  -3  11    6.81    1.50
   7   3 -11   43.91    4.28
   7  -3  11   46.64    3.76
  -7   3  11   49.95    3.51
  -7  -3 -11   47.68    3.49
   7  -3 -11   54.30    4.67
   7   3  11   41.76    3.88
  -7  -3  11   49.33    3.60
   8   3 -11   -1.63    2.00
  -8  -3 -11    2.53    1.52
  -8   3  11    0.70    1.45
   8  -3  11    3.06    1.63
   8   3  11    3.22    1.82
   8  -3 -11   -0.67    1.98
  -8  -3  11   -0.26    1.31
  -8   3 -11   -1.12    1.50
   9   3 -11   15.07    2.94
  -9  -3 -11   16.90    2.17
  -9   3  11   12.76    2.20
   9  -3 -11   20.65    3.16
  -9   3 -11   17.13    2.30
  -9  -3  11   18.74    2.32
   9   3  11   10.60    2.52
  10   3 -11    0.71    2.44
 -10   3  11    2.81    1.83
 -10  -3 -11    4.50    1.84
 -10   3 -11    7.82    2.04
  10   3  11    0.63    2.25
  10  -3 -11   -0.26    2.27
 -10  -3  11    1.88    1.63
   0  -4  11   26.79    2.66
   0  -4  11   27.46    2.19
   0   4  11   23.66    1.93
   0  -4 -11   26.32    2.08
   0   4  11   32.72    2.68
   0  -4  11   28.28    2.41
   1  -4  11    1.27    1.23
  -1   4  11    0.06    0.78
   1   4 -11   -0.95    1.05
   1  -4  11   -0.24    1.17
   1  -4  11    0.03    0.80
  -1   4  11    2.71    1.39
  -1  -4 -11    1.03    0.90
   1   4  11    0.99    1.13
  -1  -4  11    1.39    0.96
   1  -4 -11    0.57    0.84
  -1  -4  11    1.35    0.96
   2  -4  11    1.42    1.14
   2   4 -11   -0.94    1.16
  -2   4  11   -2.49    1.60
  -2  -4 -11    0.59    0.96
  -2   4  11   -0.37    0.92
   2  -4  11   -1.14    1.23
   2  -4 -11   -0.33    0.84
  -2  -4  11    1.28    0.90
  -2   4 -11   -0.75    1.02
   2   4  11    0.45    1.12
  -3  -4 -11   27.45    2.28
   3  -4  11   28.36    2.58
  -3   4  11   27.40    3.28
  -3   4  11   30.05    2.52
   3  -4  11   29.40    2.67
   3   4 -11   32.64    2.87
  -3  -4  11   31.06    2.56
  -3   4 -11   28.92    2.34
   3  -4 -11   31.73    2.29
   3   4  11   27.25    2.60
  -4  -4 -11    1.25    1.09
   4  -4  11    0.17    1.51
  -4   4  11   -0.35    1.02
   4  -4  11    0.14    1.11
   4   4 -11   -1.10    1.36
  -4   4 -11    0.60    0.85
  -4  -4  11    0.73    0.99
   4   4  11    0.16    1.17
   4  -4 -11   -2.32    1.46
  -5   4  11   -0.27    1.28
   5   4 -11    3.02    1.72
   5  -4  11    2.95    1.31
   5  -4  11    1.50    1.65
  -5  -4 -11    2.49    1.20
   5   4  11    1.40    1.32
  -5  -4  11    3.65    1.26
   5  -4 -11    3.46    1.82
   6  -4  11    0.77    1.33
  -6   4  11    2.11    1.40
   6  -4  11    1.25    1.67
   6   4 -11   -1.31    1.64
  -6  -4 -11   -0.05    1.22
   6   4  11    1.61    1.41
   6  -4 -11   -0.20    1.75
  -6  -4  11    1.16    1.12
  -7  -4 -11    6.34    1.57
  -7   4  11    4.54    1.67
   7  -4  11    8.97    2.12
   7   4 -11    4.73    2.17
  -7  -4  11    4.25    1.56
   7  -4 -11    3.87    2.09
   7   4  11    9.33    1.96
   8  -4  11   -2.43    1.80
  -8   4  11    2.53    1.65
   8   4 -11   -0.69    2.04
  -8  -4 -11   -0.13    1.47
   8   4  11   -0.87    1.70
  -8  -4  11    0.01    1.49
   8  -4 -11   -2.11    1.91
  -9  -4 -11    0.07    1.61
  -9   4  11    3.10    1.72
   9   4 -11   -0.81    2.32
   9  -4 -11    2.04    2.33
   9   4  11   -0.55    1.91
  -9  -4  11    5.45    1.75
  -9   4 -11    1.44    1.76
   0  -5  11    1.53    1.46
   0  -5  11   -0.62    0.85
   0   5  11    1.77    1.27
   0  -5 -11    0.94    0.94
   0  -5  11   -0.93    1.23
   0   5  11   -0.95    0.68
   1  -5  11   44.12    3.32
  -1   5  11   40.47    3.42
   1   5 -11   46.61    3.32
   1  -5  11   45.14    3.03
  -1   5  11   48.27    2.85
  -1  -5 -11   37.41    2.78
   1  -5  11   52.21    3.59
   1   5  11   42.67    3.32
  -1  -5  11   39.54    3.05
   1  -5 -11   39.82    2.80
  -1  -5  11   40.46    3.24
   2   5 -11   16.78    1.96
   2  -5  11   14.75    1.86
  -2   5  11   18.92    2.61
  -2   5  11   14.43    1.56
  -2  -5 -11   14.40    1.54
   2  -5  11   15.08    2.05
   2   5  11   11.95    1.80
  -2   5 -11   17.40    1.88
  -2  -5  11   19.12    1.91
   2  -5 -11   14.23    1.47
  -3   5  11   55.05    3.59
   3  -5  11   58.93    3.76
  -3   5  11   54.22    4.66
   3  -5  11   61.19    4.09
   3   5 -11   56.04    4.11
  -3  -5 -11   55.53    3.44
   3   5  11   53.53    3.84
   3  -5 -11   50.60    3.42
  -3  -5  11   50.01    3.70
  -3   5 -11   53.60    3.50
  -4  -5 -11    1.06    1.14
   4  -5  11   -0.70    1.68
   4  -5  11    2.29    1.24
   4   5 -11    2.46    1.57
  -4   5  11   -0.64    1.00
   4   5  11    1.55    1.25
  -4   5 -11    2.14    1.00
   4  -5 -11    0.53    1.64
  -4  -5  11    2.08    1.06
   5   5 -11  138.97    8.52
  -5  -5 -11  143.96    7.57
  -5   5  11  155.81    7.89
   5  -5  11  147.89    8.10
   5  -5  11  132.38    7.99
   5   5  11  136.32    8.21
  -5  -5  11  134.04    7.80
   5  -5 -11  127.93    8.60
   6  -5  11    8.22    2.18
  -6   5  11    7.71    1.70
  -6  -5 -11    6.17    1.46
   6   5 -11    9.74    2.23
   6   5  11    4.07    1.53
   6  -5 -11    8.60    2.12
  -6  -5  11    8.51    1.61
   7  -5  11   20.44    2.83
  -7   5  11   23.63    2.56
   7   5 -11   18.78    2.96
  -7  -5 -11   21.23    2.17
  -7  -5  11   24.68    2.48
   7   5  11   18.15    2.50
   7  -5 -11   26.16    3.05
   8   5 -11    2.85    2.36
   8  -5  11    5.43    2.18
  -8  -5 -11    2.96    1.59
  -8   5  11    3.65    1.59
  -8  -5  11    3.08    1.53
   8  -5 -11    1.00    2.13
   8   5  11    1.57    1.82
   9   5 -11    1.74    2.51
   9  -5  11    8.13    2.46
  -9  -5 -11    7.67    1.88
  -9   5  11    5.32    1.92
  -9  -5  11    4.67    1.84
   9   5  11    6.02    2.14
   9  -5 -11    0.93    2.28
   0   6  11    3.07    1.46
   0  -6 -11    2.76    1.08
   0  -6  11    1.06    1.32
   0  -6  11    0.29    0.97
   0   6 -11    1.98    1.14
  -1   6  11    0.34    0.85
   1  -6  11   -0.62    1.36
   1  -6  11    0.44    0.98
  -1   6  11    0.23    1.44
   1  -6  11   -0.12    1.41
  -1  -6 -11    1.16    1.04
   1   6 -11   -0.67    1.09
  -1  -6  11   -1.01    1.17
  -1  -6  11    0.50    1.10
   1  -6 -11    0.70    1.06
   1   6  11   -0.02    1.21
   2  -6  11    4.28    1.42
   2  -6  11    0.03    1.53
  -2   6  11    2.88    1.10
  -2   6  11    5.38    2.09
  -2  -6 -11    2.40    1.11
   2   6 -11    4.42    1.43
   2  -6 -11    3.51    1.15
  -2  -6  11    3.90    1.23
  -2   6 -11    3.06    1.33
   2   6  11    4.16    1.43
  -3   6  11    0.84    2.03
   3  -6  11    0.27    1.17
  -3  -6 -11    1.53    1.13
  -3   6  11   -0.04    1.07
   3  -6  11   -0.46    1.67
   3   6 -11    2.30    1.44
  -3   6 -11   -1.05    1.11
   3  -6 -11   -1.36    1.07
   3   6  11    0.92    1.24
  -3  -6  11   -0.89    1.11
   4  -6  11    1.48    1.79
   4   6 -11    0.63    1.48
  -4  -6 -11   -1.49    1.08
  -4   6  11    1.47    1.19
  -4  -6  11    0.43    1.14
  -4   6 -11    0.25    1.02
   4  -6 -11    0.31    1.65
   4   6  11    0.96    1.27
  -5  -6 -11   -1.23    1.15
   5  -6  11   -1.20    1.87
  -5   6  11   -0.65    1.11
   5   6 -11   -1.76    1.60
   5  -6 -11    2.26    1.76
   5   6  11    0.56    1.34
  -5  -6  11    0.05    1.07
   6  -6  11    1.61    2.02
  -6  -6 -11    0.18    1.33
   6   6 -11   -0.53    1.79
  -6   6  11    0.01    1.35
   6  -6 -11    2.45    1.92
  -6  -6  11   -1.08    1.24
   6   6  11    1.41    1.45
  -7   6  11    0.28    1.39
   7   6 -11    0.82    1.99
   7  -6  11    1.46    2.13
  -7  -6 -11   -2.77    1.34
   7  -6 -11    1.23    1.94
   7   6  11    0.77    1.56
  -7  -6  11    0.54    1.42
   8   6 -11    1.14    2.38
   8  -6  11   -2.52    2.19
  -8  -6 -11   -1.62    1.52
  -8   6  11    2.12    1.70
   8   6  11    0.45    1.77
   8  -6 -11   -2.68    1.91
  -8  -6  11    1.18    1.66
   9   6 -11   -1.03    2.49
  -9  -6 -11   -2.09    1.62
   9  -6  11    0.42    2.36
  -9   6  11    2.73    1.87
  -9  -6  11    1.20    1.69
   9   6  11    5.42    2.06
   9  -6 -11    1.15    2.33
   0  -7  11    0.56    0.93
   0   7  11   -2.29    1.37
   0  -7 -11    0.02    1.10
   0  -7  11    1.50    1.39
   0   7 -11    0.35    1.10
  -1   7  11   24.98    2.83
   1  -7  11   29.68    2.70
   1  -7  11   26.60    2.33
   1  -7  11   23.77    2.49
  -1   7  11   27.59    2.23
  -1  -7 -11   25.39    2.12
   1   7 -11   25.85    2.37
  -1  -7  11   31.00    2.40
   1   7  11   24.33    2.56
  -1  -7  11   26.76    2.34
   1  -7 -11   24.54    2.13
   2   7 -11    7.71    1.60
  -2   7  11    2.62    2.10
  -2  -7 -11    6.07    1.31
   2  -7  11    8.22    1.92
  -2   7  11    7.46    1.28
   2  -7 -11    6.29    1.36
  -2  -7  11    8.20    1.50
   2   7  11    7.42    1.68
  -2   7 -11    7.14    1.61
  -3   7  11   48.52    4.81
  -3  -7 -11   62.92    3.69
   3   7 -11   58.82    4.25
  -3   7  11   62.17    3.83
   3  -7  11   58.29    4.29
   3  -7 -11   59.88    3.73
  -3  -7  11   53.72    4.09
  -3   7 -11   55.39    3.90
   4  -7  11   -0.02    1.86
  -4  -7 -11   -0.64    1.14
  -4   7  11   -1.70    1.11
   4   7 -11   -0.84    1.46
  -4   7 -11   -1.63    1.10
   4  -7 -11    0.31    1.66
  -4  -7  11   -1.25    1.06
   4   7  11   -1.34    1.23
  -5   7  11   68.15    4.20
   5   7 -11   60.40    4.78
  -5  -7 -11   67.12    4.05
   5  -7  11   57.68    4.76
  -5   7 -11   62.83    4.05
   5   7  11   58.94    4.39
   5  -7 -11   76.30    5.27
  -5  -7  11   60.07    4.21
   6   7 -11    4.27    2.01
  -6   7  11    3.43    1.60
  -6  -7 -11    2.40    1.42
   6  -7  11    2.28    2.14
   6  -7 -11    2.84    2.03
  -6  -7  11   -0.33    1.41
   6   7  11    2.37    1.58
   7   7 -11   18.68    3.03
  -7  -7 -11   16.72    2.09
  -7   7  11   18.99    2.37
   7  -7  11   16.79    3.03
  -7  -7  11   21.18    2.41
   7  -7 -11   23.02    2.89
   7   7  11   14.62    2.36
   8  -7  11   -1.04    2.34
  -8  -7 -11   -1.67    1.55
  -8   7  11    4.38    1.73
   8   7 -11    1.65    2.40
   8   7  11    1.00    1.79
  -8  -7  11    3.16    1.60
   9   7 -11   -0.77    2.58
  -9  -7 -11    2.38    1.79
  -9   7  11    0.80    1.86
   9  -7  11   -0.02    2.56
  -9  -7  11    2.64    1.66
   9   7  11   -0.07    2.03
   0   8  11    7.37    1.92
   0  -8  11    7.75    1.43
   0  -8 -11    5.61    1.39
   0  -8  11    6.39    1.59
   1  -8  11   -1.11    1.47
  -1   8  11    3.21    1.05
  -1  -8 -11    2.25    1.27
  -1   8  11    1.30    1.77
   1   8 -11    4.31    1.35
  -1  -8  11    4.43    1.40
  -1  -8  11    2.98    1.18
  -1   8 -11    4.76    1.53
   1   8  11    3.42    1.57
   1  -8 -11    4.71    1.33
  -2   8  11   -2.94    1.89
  -2  -8 -11    1.25    1.21
   2   8 -11    1.46    1.30
  -2   8  11    2.63    1.15
   2  -8  11    1.61    1.68
  -2  -8  11    1.55    1.25
   2  -8 -11    1.59    1.29
   2   8  11    3.61    1.49
  -2   8 -11    1.89    1.51
   3   8 -11    1.64    1.52
  -3   8  11    1.17    2.25
  -3  -8 -11    1.71    1.24
   3  -8  11    1.34    1.74
  -3   8  11    1.60    1.21
  -3   8 -11   -0.58    1.33
   3  -8 -11    1.35    1.26
  -3  -8  11    1.65    1.40
   3   8  11    2.78    1.41
  -4   8  11    1.39    1.31
   4   8 -11    1.39    1.63
  -4  -8 -11    2.19    1.27
   4  -8  11    2.65    1.96
   4   8  11    2.87    1.45
   4  -8 -11    1.22    1.75
  -4   8 -11    1.82    1.33
  -4  -8  11    1.74    1.34
  -5   8  11    0.30    1.40
   5  -8  11   -0.95    2.03
  -5  -8 -11   -2.51    1.20
   5   8 -11   -2.24    1.69
   5  -8 -11   -1.27    1.73
   5   8  11    3.10    1.55
  -5   8 -11    1.04    1.26
  -5  -8  11    0.42    1.37
  -6  -8 -11   -0.24    1.38
  -6   8  11    3.79    1.65
   6   8 -11    1.74    2.08
   6  -8  11    3.73    2.29
   6  -8 -11    3.02    2.05
   6   8  11    0.53    1.59
  -6  -8  11    3.62    1.65
  -7   8  11    1.34    1.69
  -7  -8 -11    1.58    1.51
   7  -8  11    0.23    2.45
   7   8 -11    3.91    2.38
  -7  -8  11    1.90    1.55
   7   8  11    1.34    1.72
  -8   8  11    2.52    1.94
  -8  -8 -11    1.38    1.63
   8   8 -11   -0.72    2.39
   8  -8  11    0.07    2.58
  -8  -8  11    3.55    1.77
   8   8  11    1.76    1.87
   0   9  11   -1.35    1.61
   0  -9  11    0.79    1.39
   0  -9 -11   -2.02    1.23
   0  -9  11    0.51    1.17
  -1   9  11  109.31    7.30
   1  -9  11  116.20    6.67
  -1  -9 -11  113.65    6.42
  -1  -9  11  121.12    6.48
   1   9  11  122.29    7.16
  -1   9 -11  120.64    6.84
   1  -9 -11  107.22    6.43
  -1  -9  11  113.67    6.70
   2  -9  11   -0.60    1.59
  -2  -9 -11    0.09    1.26
  -2   9  11   -0.48    1.05
  -2   9  11   -0.55    2.09
  -2  -9  11   -0.12    1.18
   2   9  11    1.73    1.51
   2  -9 -11   -0.54    1.28
  -2   9 -11   -1.03    1.35
   3  -9  11   24.21    2.69
   3   9 -11   22.59    2.48
  -3   9  11   21.28    2.15
  -3  -9 -11   21.07    2.09
  -3   9  11   17.44    3.36
   3  -9 -11   21.70    2.13
  -3   9 -11   21.39    2.45
   3   9  11   24.02    2.50
  -3  -9  11   21.94    2.39
   4  -9  11    5.35    2.10
  -4   9  11    1.97    1.45
   4   9 -11    6.26    1.90
  -4  -9 -11    2.31    1.35
  -4   9 -11    2.80    1.49
   4  -9 -11    4.80    2.06
   4   9  11    2.47    1.53
  -4  -9  11    2.91    1.60
   5   9 -11   16.18    2.58
  -5  -9 -11   10.46    1.77
   5  -9  11   13.45    2.61
  -5   9  11   14.89    2.08
   5   9  11    9.92    2.00
  -5  -9  11   12.60    2.16
  -5   9 -11   12.48    1.89
   6  -9  11   -2.61    2.16
  -6   9  11    0.36    1.60
   6   9 -11   -0.89    1.97
  -6  -9 -11   -0.17    1.40
  -6  -9  11    2.53    1.67
   6   9  11   -0.51    1.58
  -6   9 -11   -1.06    1.36
  -7  -9 -11   14.87    2.08
   7   9 -11   16.66    3.10
   7  -9  11   11.87    3.03
  -7   9  11   18.61    2.54
  -7  -9  11   17.04    2.53
   7   9  11   12.90    2.30
  -8  -9 -11    0.94    1.72
   8  -9  11   -1.12    2.66
   8   9 -11   -2.46    2.49
  -8   9  11   -0.88    1.74
  -8  -9  11   -1.03    1.73
   8   9  11    1.67    1.93
   0  10 -11   22.87    2.44
   0 -10 -11   19.03    2.12
   0  10  11   19.17    2.77
   0 -10  11   20.64    2.19
  -1  10  11    0.84    2.04
   1 -10  11    0.72    1.52
  -1 -10 -11    1.14    1.40
   1  10  11   -1.54    1.65
  -1 -10  11    1.53    1.26
  -1  10 -11    2.26    1.56
   1 -10 -11   -1.51    1.41
  -1 -10  11   -0.26    1.30
   2 -10  11   -1.03    1.58
  -2  10  11   -2.67    2.13
  -2 -10 -11   -2.11    1.28
  -2  10  11    0.25    1.14
  -2  10 -11   -0.15    1.61
   2  10  11    2.74    1.69
  -2 -10  11   -0.07    1.32
   2 -10 -11    2.28    1.47
  -3 -10 -11   11.08    1.75
  -3  10  11   10.26    1.75
   3 -10  11   11.32    2.21
   3 -10 -11    9.74    1.77
  -3  10 -11    9.46    2.00
   3  10  11   10.28    2.03
  -3 -10  11   10.14    1.77
  -4 -10 -11    1.16    1.44
   4 -10  11    2.01    1.97
  -4  10  11    3.58    1.48
   4  10  11    2.90    1.66
  -4  10 -11   -1.62    1.44
  -4 -10  11   -0.75    1.41
  -5 -10 -11   -0.21    1.46
   5 -10  11    2.27    2.21
   5  10 -11   -1.13    1.97
  -5  10  11   -3.37    1.39
  -5 -10  11   -0.30    1.66
  -5  10 -11   -0.55    1.44
   5  10  11    1.54    1.75
   6 -10  11   -1.24    2.24
  -6 -10 -11    0.00    1.55
   6  10 -11   -0.29    2.06
  -6  10  11    1.99    1.74
  -6  10 -11    0.06    1.52
  -6 -10  11    0.49    1.89
   6  10  11    2.13    1.84
  -7 -10 -11   -1.59    1.58
   7  10 -11   -0.51    2.35
  -7  10  11   -0.70    1.79
   7 -10  11   -0.59    2.57
  -7 -10  11    1.18    1.78
   7  10  11   -0.43    1.86
   0 -11  11    0.79    1.51
   0  11 -11    0.17    1.47
   0  11  11   -2.62    1.88
   0 -11 -11   -0.42    1.49
  -1 -11 -11   51.41    3.74
   1 -11  11   50.64    3.87
   1  11  11   62.20    4.55
  -1 -11  11   54.35    3.70
  -1  11 -11   53.98    4.11
  -1 -11  11   47.00    3.68
   1 -11 -11   50.42    3.64
   2 -11  11    4.83    1.91
  -2 -11 -11    5.01    1.64
   2  11  11    4.64    1.96
   2 -11 -11    4.70    1.65
  -2  11 -11    5.09    1.89
  -2 -11  11    5.76    1.60
  -3 -11 -11   15.10    2.03
  -3  11  11   19.33    2.19
   3 -11  11   19.37    2.58
  -3  11 -11   13.72    2.36
   3  11  11   15.72    2.45
   3 -11 -11   19.70    2.17
  -3 -11  11   14.35    2.07
  -4 -11 -11    0.13    1.55
   4 -11  11    0.75    2.05
  -4  11  11    0.27    1.53
  -4  11 -11   -1.07    1.58
   4  11  11    0.67    1.71
  -4 -11  11   -0.08    1.39
  -5  11  11    5.23    1.85
  -5 -11 -11    4.83    1.73
   5 -11  11    7.34    2.37
  -5 -11  11    7.98    2.03
  -5  11 -11    4.55    1.87
   5  11  11    7.18    2.05
  -6 -11 -11    0.21    1.59
   6 -11  11   -2.32    2.28
  -6  11  11    0.07    1.82
   6  11  11    1.11    1.93
  -6 -11  11    1.15    1.76
  -6  11 -11    2.49    1.77
   7  11 -11   23.91    3.43
  -7 -11 -11   18.58    2.40
   7 -11  11   17.33    3.29
  -7  11  11   13.25    2.63
   7  11  11   18.62    2.75
  -7 -11  11   21.17    2.84
   0 -12  11   -1.52    1.54
   0 -12 -11    1.75    1.69
   0  12 -11    1.54    1.63
   1  12 -11    4.36    1.66
  -1 -12 -11    0.44    1.66
   1 -12  11    7.66    1.94
   1 -12 -11    2.38    1.71
  -1  12 -11    4.55    1.78
  -2 -12 -11   -0.55    1.56
   2 -12  11   -1.31    1.74
   2  12  11    1.48    2.02
   2 -12 -11    3.09    1.70
  -2  12 -11    1.13    1.81
  -2 -12  11    1.83    1.44
  -3 -12 -11    3.23    1.64
   3 -12  11   -1.99    1.84
  -3  12  11    0.71    1.52
   3  12  11    1.06    1.91
  -3 -12  11    1.78    1.59
   3 -12 -11   -0.04    1.66
  -3  12 -11    0.85    1.81
   4 -12  11    4.01    2.23
  -4  12  11    4.01    1.73
  -4 -12 -11    2.83    1.69
  -4  12 -11    3.23    1.96
   4  12  11    5.38    2.06
   4 -12 -11    5.11    1.93
  -4 -12  11    3.57    1.69
  -5  12  11    1.77    1.79
   5 -12  11   -1.05    2.21
  -5 -12 -11    0.25    1.64
  -5  12 -11   -0.85    1.78
   5  12  11   -1.24    1.87
  -5 -12  11    2.21    1.66
  -6  12  11    6.69    2.25
  -6 -12 -11    0.55    1.82
   6 -12  11   -0.24    2.45
  -6  12 -11    2.09    1.86
   6  12  11    2.59    2.15
  -6 -12  11    4.99    2.02
   0 -13  11   -0.07    1.75
   0 -13 -11   -1.64    1.65
   0  13 -11    1.43    1.73
   1 -13  11   36.00    3.20
  -1 -13 -11   33.11    3.02
   1  13 -11   31.22    3.12
  -1  13 -11   31.44    3.35
   1 -13 -11   29.86    2.90
  -2 -13 -11   -0.02    1.72
   2 -13  11   -1.03    1.84
   2 -13 -11   -0.47    1.71
  -2 -13  11   -1.03    1.43
  -2  13 -11   -0.86    1.80
   3 -13  11    8.72    2.38
  -3 -13 -11   14.20    2.14
  -3  13 -11   10.32    2.26
   3 -13 -11   12.50    2.21
  -3 -13  11    7.12    1.98
   4 -13  11    0.11    2.14
  -4 -13 -11    1.21    1.73
  -4  13  11    1.15    1.68
  -4 -13  11    2.13    1.66
  -4  13 -11   -0.90    1.76
   4 -13 -11   -0.40    1.94
   4  13  11    0.14    2.05
  -5 -13 -11    6.72    1.96
  -5  13  11    1.60    1.93
   5 -13  11    2.62    2.44
  -5 -13  11    3.91    1.79
   5  13  11    1.50    2.15
  -5  13 -11    4.47    2.17
   0 -14  11   -2.62    1.82
   0 -14 -11    0.16    1.88
   0  14 -11    1.61    1.81
  -1 -14 -11   -1.55    1.73
   1  14 -11   -0.15    1.59
   1 -14  11   -0.12    1.92
   1 -14 -11    1.88    1.89
  -1  14 -11    0.98    1.88
   2  14 -11    2.29    1.73
  -2 -14 -11   -0.05    1.87
   2 -14  11    0.12    2.08
  -2  14 -11   -0.12    1.83
   2 -14 -11   -0.96    1.87
   3 -14  11    4.51    2.25
  -3 -14 -11    0.27    1.84
  -3  14 -11    1.83    1.95
   3 -14 -11    4.65    2.07
  -3 -14  11    1.21    1.61
   0 -15 -11    2.27    2.02
   0 -15  11   -2.04    2.07
   0  15 -11   -1.20    1.77
   1  15 -11    6.85    2.08
  -1 -15 -11    9.58    2.31
   1 -15  11   12.33    2.50
  -1  15 -11    7.46    2.33
   1 -15 -11    8.33    2.23
   0   0  12  133.80    7.20
   0   0 -12  136.58    7.03
   0   0  12  135.37    7.95
   1   0 -12    0.23    0.73
  -1   0 -12    2.72    0.89
  -1   0  12    1.04    0.79
  -1   0  12   -2.20    1.44
   1   0  12    0.16    1.19
   1   0  12    1.09    0.69
  -2   0 -12  186.54    9.48
  -2   0  12  172.65   10.70
  -2   0  12  182.60    9.70
   2   0  12  189.66   10.39
   3   0  12   22.67    2.29
  -3   0 -12   21.98    1.86
  -3   0  12   21.95    1.96
   3   0 -12   21.61    2.45
   4   0 -12  148.02    8.72
  -4   0 -12  138.76    7.65
  -4   0  12  144.83    7.86
   4   0  12  141.18    8.35
   5   0 -12    6.68    1.81
   5   0  12    3.01    1.51
  -5   0 -12    4.32    1.31
  -5   0  12    6.66    1.41
  -6   0 -12   30.23    2.54
   6   0 -12   32.92    3.42
  -6   0  12   32.54    2.72
   6   0  12   31.59    2.99
   7   0 -12   12.88    2.57
  -7   0  12   18.58    2.22
  -7   0 -12   19.42    2.06
   7   0  12   14.13    2.32
   8   0 -12   10.39    2.62
  -8   0 -12    8.87    1.82
   8   0  12   11.85    2.26
  -8   0  12   11.31    1.91
   9   0  12   -0.07    1.91
  -9   0 -12    1.25    1.64
   9   0 -12    4.55    2.43
  -9   0  12    0.33    1.64
   0   1  12    0.23    0.66
   0  -1  12    0.39    1.30
   0  -1 -12   -0.72    0.77
   0   1 -12   -0.65    0.76
   0  -1  12   -0.47    0.68
   0   1  12    0.91    1.29
   1  -1  12   10.75    1.29
   1   1 -12   13.41    1.19
  -1   1  12   11.63    1.30
   1  -1  12   10.95    1.75
  -1   1  12   13.06    2.05
  -1  -1 -12   13.68    1.33
  -1  -1  12   15.94    1.46
   1   1  12   13.54    1.80
   1  -1 -12   12.12    1.19
  -1   1 -12   10.91    1.27
   1   1  12   12.56    1.16
  -1  -1  12    9.82    1.95
  -2   1  12    0.62    0.83
   2  -1  12    2.30    1.26
  -2   1  12   -0.52    1.55
  -2  -1 -12   -0.06    0.91
   2  -1 -12   -0.30    0.71
  -2  -1  12   -0.13    0.85
   2   1  12    1.31    1.17
  -2  -1  12    1.76    1.67
  -2   1 -12   -1.27    0.92
  -3  -1 -12    1.78    1.05
   3  -1  12    3.48    1.35
  -3   1  12    3.91    1.12
   3   1 -12    2.58    1.40
   3  -1 -12    0.86    1.31
  -3  -1  12    2.83    0.98
   3   1  12    2.56    1.31
  -3   1 -12    2.28    1.08
   4   1 -12    1.17    1.54
  -4  -1 -12   -1.23    1.07
   4  -1  12    1.42    1.31
  -4   1  12    1.40    1.15
  -4   1 -12    2.49    1.20
   4   1  12    2.86    1.41
   4  -1 -12    2.56    1.56
  -4  -1  12    1.52    1.05
  -5   1  12    1.06    1.13
   5  -1  12    0.26    1.35
  -5  -1 -12   -0.15    1.15
   5   1 -12    1.21    1.53
   5  -1 -12    0.00    1.54
  -5  -1  12    2.04    1.10
   5   1  12    0.82    1.35
  -5   1 -12    0.32    1.21
   6  -1  12    4.91    1.67
  -6   1  12    5.54    1.45
  -6  -1 -12    6.03    1.47
   6   1 -12    9.01    2.09
   6  -1 -12    5.14    1.93
  -6   1 -12    6.11    1.50
   6   1  12    5.38    1.74
  -6  -1  12    6.92    1.46
   7  -1  12   -0.34    1.56
   7   1 -12   -2.29    1.77
  -7   1  12   -0.89    1.42
  -7  -1 -12   -1.48    1.31
  -7   1 -12    0.56    1.43
   7   1  12   -2.13    1.46
   7  -1 -12    1.51    1.91
  -7  -1  12    1.82    1.33
   8  -1  12    0.30    1.73
  -8   1  12    0.04    1.50
   8   1 -12   -0.34    2.05
  -8  -1 -12    1.61    1.52
  -8   1 -12   -0.83    1.53
   8   1  12    0.90    1.76
  -8  -1  12    1.46    1.37
   8  -1 -12    0.08    2.02
   9   1 -12    0.18    2.23
  -9  -1 -12    2.13    1.70
  -9   1  12    1.17    1.54
   9  -1  12    0.60    1.95
  -9  -1  12    4.41    1.76
   9  -1 -12    0.90    2.34
  -9   1 -12    2.26    1.68
   9   1  12    6.13    2.20
   0   2  12   16.44    2.05
   0  -2 -12   19.58    1.53
   0  -2  12   20.44    1.76
   0   2 -12   17.59    1.50
   0   2  12   16.74    1.46
   0  -2  12   17.24    2.30
  -1   2  12   -1.06    1.33
   1   2 -12    2.22    0.79
   1  -2  12    0.74    0.80
  -1  -2 -12    0.81    0.90
  -1   2  12    2.44    0.84
   1  -2  12    0.22    1.23
   1  -2 -12    0.95    0.80
   1   2  12    1.02    1.25
  -1  -2  12   -0.58    1.52
  -1  -2  12   -0.33    0.78
  -1   2 -12   -0.49    0.87
   2  -2  12   65.42    4.02
   2  -2  12   68.69    4.50
  -2   2  12   65.77    4.06
   2   2 -12   71.55    4.77
  -2  -2 -12   71.92    4.04
  -2   2  12   68.44    5.04
  -2   2 -12   67.08    4.05
   2  -2 -12   71.36    3.82
  -2  -2  12   75.35    4.25
   2   2  12   61.65    4.42
  -3  -2 -12   -0.52    0.98
   3  -2  12   -0.03    1.26
   3   2 -12    0.75    1.33
  -3   2  12   -0.16    0.99
   3   2  12    1.19    1.21
  -3  -2  12    1.58    1.04
  -3   2 -12    0.24    1.04
  -4  -2 -12   37.48    2.89
  -4   2  12   48.27    3.12
   4   2 -12   38.90    3.44
   4  -2  12   37.03    3.16
   4   2  12   32.00    3.16
  -4  -2  12   38.13    3.01
  -4   2 -12   38.80    2.97
   4  -2 -12   44.20    3.85
   5  -2  12    1.78    1.42
  -5   2  12    0.08    1.12
  -5  -2 -12   -2.15    1.12
   5   2 -12    1.65    1.58
   5   2  12    0.29    1.41
  -5   2 -12   -1.14    1.20
  -5  -2  12    0.67    1.06
   5  -2 -12   -1.39    1.51
  -6  -2 -12   24.38    2.28
   6  -2  12   27.14    2.69
  -6   2  12   32.33    2.68
   6   2 -12   27.30    3.12
  -6   2 -12   26.07    2.37
  -6  -2  12   29.33    2.51
   6   2  12   19.02    2.56
   6  -2 -12   25.83    3.05
  -7   2  12    1.16    1.51
   7  -2  12    0.40    1.60
  -7  -2 -12    1.15    1.42
   7   2 -12    0.15    1.89
   7   2  12   -1.45    1.52
   7  -2 -12   -0.09    1.89
  -7  -2  12    0.22    1.38
  -7   2 -12    0.26    1.44
   8   2 -12    3.52    2.21
  -8  -2 -12    4.10    1.63
  -8   2  12    6.93    1.83
   8  -2  12    4.57    1.96
   8   2  12    4.43    1.93
  -8  -2  12    6.07    1.67
   8  -2 -12    3.83    2.34
  -8   2 -12    4.70    1.71
  -9  -2 -12    0.30    1.63
   9   2 -12    0.78    2.30
   9  -2  12    3.14    1.94
  -9   2  12   -1.10    1.46
   9  -2 -12    3.18    2.46
  -9  -2  12   -0.44    1.60
   9   2  12   -0.68    1.91
  -9   2 -12    0.32    1.71
   0  -3 -12   -0.05    0.86
   0  -3  12   -0.51    0.96
   0   3  12    0.46    0.70
   0  -3  12   -0.85    1.39
   0   3  12   -0.20    1.25
   0  -3  12   -0.65    0.90
   1  -3  12   21.96    2.28
  -1   3  12   19.30    2.37
  -1   3  12   20.78    1.72
   1  -3  12   21.35    1.98
   1  -3  12   21.57    1.82
  -1  -3 -12   20.02    1.71
   1   3 -12   21.72    1.61
   1   3  12   19.87    2.21
   1  -3 -12   21.28    1.65
  -1  -3  12   22.21    1.94
  -1  -3  12   21.34    2.57
  -2  -3 -12   14.35    1.49
   2  -3  12   15.48    1.91
  -2   3  12   15.15    2.40
   2  -3  12   12.29    1.39
  -2   3  12   14.51    1.52
   2  -3  12   15.90    1.83
   2   3 -12   14.25    1.94
   2  -3 -12   14.31    1.34
   2   3  12   12.92    1.84
  -2  -3  12   15.27    1.61
  -3   3  12    7.18    1.28
  -3  -3 -12    7.35    1.28
  -3   3  12    7.95    2.27
   3  -3  12    6.14    1.49
   3  -3  12    6.31    1.59
   3   3 -12    6.27    1.64
   3   3  12    7.10    1.56
  -3  -3  12    7.18    1.34
  -4   3  12   27.33    2.28
   4  -3  12   25.69    2.49
  -4  -3 -12   22.99    2.02
   4   3 -12   25.49    2.72
   4  -3  12   21.33    2.32
  -4  -3  12   27.66    2.31
   4  -3 -12   22.97    2.78
   4   3  12   19.25    2.33
  -5  -3 -12   38.34    2.93
   5  -3  12   39.32    3.23
  -5   3  12   42.95    3.01
   5   3 -12   43.64    3.77
   5  -3  12   37.71    3.22
   5   3  12   32.83    3.20
   5  -3 -12   32.66    3.53
  -5  -3  12   44.98    3.14
  -6  -3 -12   11.92    1.66
   6  -3  12    8.58    1.82
   6   3 -12   10.94    2.30
  -6   3  12   11.16    1.79
   6   3  12   10.71    1.97
  -6  -3  12   10.07    1.65
   6  -3 -12    7.76    2.24
   7  -3  12    5.83    1.80
  -7  -3 -12    3.89    1.56
  -7   3  12    2.11    1.52
   7   3 -12    3.54    2.09
   7  -3 -12    6.28    2.15
  -7   3 -12    4.85    1.63
  -7  -3  12    2.93    1.40
   7   3  12    3.80    1.74
  -8  -3 -12   -1.97    1.44
  -8   3  12    2.73    1.60
   8  -3  12    1.31    1.78
   8   3 -12    1.69    2.16
   8  -3 -12    1.25    2.18
  -8  -3  12    0.93    1.49
   8   3  12    2.28    1.86
  -8   3 -12    4.53    1.79
   9   3 -12   -0.40    2.34
  -9  -3 -12    4.25    1.76
  -9   3  12    4.12    1.69
   9   3  12    4.93    2.20
  -9  -3  12    6.47    1.90
  -9   3 -12    7.09    2.02
   9  -3 -12    7.81    2.80
   0  -4  12   22.46    2.70
   0  -4 -12   24.76    2.10
   0   4  12   23.93    2.50
   0  -4  12   26.07    2.22
   0  -4  12   29.89    2.44
   1  -4  12    3.03    0.98
   1  -4  12    3.27    1.52
  -1   4  12    3.03    0.94
  -1  -4 -12    2.98    1.06
  -1   4  12    3.21    1.64
   1  -4  12    4.44    1.42
   1  -4 -12    3.64    1.02
  -1  -4  12    7.02    1.21
   1   4  12    2.20    1.33
  -1  -4  12    3.98    1.17
  -2   4  12   40.93    3.77
   2   4 -12   40.14    3.37
   2  -4  12   41.42    3.20
   2  -4  12   41.60    3.21
  -2   4  12   37.87    2.87
  -2  -4 -12   38.59    2.81
  -2   4 -12   43.84    2.94
   2   4  12   40.27    3.19
  -2  -4  12   38.38    3.06
   2  -4 -12   39.86    2.73
   3  -4  12    8.54    1.84
  -3   4  12    7.59    2.30
   3   4 -12    6.90    1.68
  -3   4  12    9.18    1.44
   3  -4  12    6.98    1.55
  -3  -4 -12    6.60    1.28
  -3  -4  12   10.19    1.47
   3   4  12    7.52    1.64
  -3   4 -12    6.82    1.33
   4   4 -12   48.13    3.73
   4  -4  12   45.31    3.37
  -4   4  12   47.59    3.33
   4  -4  12   43.63    3.65
  -4  -4 -12   44.75    3.04
  -4  -4  12   44.21    3.30
   4  -4 -12   38.21    3.75
   4   4  12   37.60    3.34
  -5   4  12    1.16    1.27
   5  -4  12   -3.18    1.56
   5   4 -12   -0.40    1.54
  -5  -4 -12   -2.19    1.11
   5  -4  12    0.65    1.24
   5   4  12    0.38    1.34
   5  -4 -12    0.96    1.71
  -5  -4  12   -1.01    1.02
   6  -4  12   37.67    3.29
   6   4 -12   40.93    3.87
  -6   4  12   44.75    3.36
   6  -4  12   41.38    3.51
  -6  -4 -12   42.89    3.06
  -6  -4  12   36.99    3.12
   6   4  12   31.95    3.26
   6  -4 -12   31.33    3.64
   7   4 -12    0.09    1.99
   7  -4  12    0.97    1.88
  -7  -4 -12   -2.02    1.39
  -7   4  12    0.07    1.45
  -7  -4  12   -1.72    1.19
   7  -4 -12   -1.09    1.88
   7   4  12    0.48    1.59
  -8  -4 -12   35.12    2.80
   8   4 -12   24.99    3.52
  -8   4  12   33.06    3.03
  -8   4 -12   28.94    2.82
  -8  -4  12   28.78    2.90
   8   4  12   20.94    3.00
   8  -4 -12   36.30    3.87
   9   4 -12   -1.95    2.27
  -9   4  12    0.83    1.72
  -9  -4 -12   -1.72    1.63
  -9  -4  12    1.24    1.66
   9  -4 -12    0.94    2.38
   9   4  12    0.50    2.03
  -9   4 -12    2.41    1.86
   0  -5  12   -1.19    0.95
   0   5  12   -1.19    1.32
   0  -5  12    0.67    1.33
   0  -5  12    1.09    1.59
   0  -5 -12    0.37    1.02
  -1   5  12    6.03    1.82
  -1  -5 -12    8.35    1.30
   1  -5  12    8.65    1.89
  -1   5  12    8.30    1.19
   1  -5  12    6.48    1.25
   1  -5  12    9.00    1.75
   1   5 -12   11.68    1.70
   1   5  12   11.21    1.85
  -1  -5  12    8.55    1.51
   1  -5 -12    8.70    1.27
  -1  -5  12   12.18    1.54
   2   5 -12    5.91    1.54
  -2   5  12    5.86    2.10
  -2  -5 -12    4.13    1.21
   2  -5  12    4.87    1.53
  -2   5  12    6.21    1.27
   2  -5  12    4.78    1.71
  -2   5 -12    5.47    1.40
   2   5  12    3.73    1.47
   2  -5 -12    6.67    1.21
  -2  -5  12    4.76    1.37
  -3  -5 -12    0.30    1.12
  -3   5  12   -0.30    1.12
  -3   5  12   -2.22    2.00
   3  -5  12   -2.05    1.55
   3  -5  12   -0.48    1.25
   3   5 -12    3.60    1.44
  -3   5 -12    0.35    1.16
  -3  -5  12   -0.56    0.99
   3   5  12   -0.70    1.23
   4  -5  12    3.36    1.85
  -4  -5 -12    2.82    1.22
   4   5 -12    2.87    1.58
   4  -5  12    3.47    1.39
  -4   5  12    4.64    1.40
  -4  -5  12    1.51    1.11
   4  -5 -12    3.24    1.85
   4   5  12    1.88    1.36
  -5  -5 -12   -1.03    1.19
  -5   5  12   -1.05    1.30
   5   5 -12   -0.37    1.55
   5  -5  12    3.07    1.97
   5  -5 -12   -2.02    1.63
   5   5  12    0.65    1.38
  -5  -5  12   -0.49    1.17
   6   5 -12    2.26    1.87
  -6  -5 -12    0.25    1.31
   6  -5  12   -1.02    1.92
  -6   5  12   -0.27    1.45
  -6  -5  12   -0.10    1.29
   6  -5 -12   -0.81    1.93
   6   5  12    0.08    1.44
  -7   5  12    0.59    1.61
   7   5 -12    1.11    2.03
   7  -5  12    2.32    2.02
  -7  -5 -12   -1.29    1.36
  -7  -5  12   -0.58    1.40
   7  -5 -12   -0.30    1.98
   7   5  12   -1.24    1.54
   8  -5  12    4.77    2.27
  -8  -5 -12    0.25    1.58
   8   5 -12    1.81    2.36
  -8   5  12   -0.18    1.62
   8  -5 -12   -0.89    2.18
   8   5  12   -0.01    1.77
  -8  -5  12   -1.83    1.26
  -9   5  12    3.41    1.92
  -9  -5 -12    0.37    1.68
   9   5 -12    1.02    2.62
   9   5  12    1.22    2.02
  -9  -5  12    0.04    1.64
   9  -5 -12   -1.64    2.30
   0   6  12   90.50    6.07
   0  -6  12  102.08    5.68
   0  -6  12   93.07    5.71
   0   6 -12   90.49    5.89
   0  -6 -12  103.58    5.40
  -1   6  12    8.88    1.25
  -1   6  12   10.44    2.12
   1  -6  12   10.78    1.44
   1  -6  12    6.38    1.82
   1   6 -12    7.85    1.57
  -1  -6 -12   12.01    1.44
   1  -6  12    7.61    1.98
   1  -6 -12    9.94    1.43
   1   6  12   10.04    1.83
  -1  -6  12    7.79    1.45
  -1  -6  12   10.43    1.68
   2   6 -12   19.81    2.13
  -2   6  12   14.89    2.73
   2  -6  12   17.84    2.20
   2  -6  12   12.74    2.23
  -2  -6 -12   16.98    1.74
  -2   6  12   20.81    1.83
  -2   6 -12   19.69    2.11
   2  -6 -12   19.74    1.79
  -2  -6  12   18.64    2.11
   2   6  12   12.73    2.04
   3  -6  12   10.99    2.30
  -3   6  12   15.95    1.76
  -3   6  12   17.57    2.93
   3   6 -12   15.73    2.14
  -3  -6 -12   13.59    1.65
   3   6  12   14.66    2.06
  -3   6 -12   15.39    1.87
  -3  -6  12   18.99    2.12
   4  -6  12   38.26    3.38
   4   6 -12   37.70    3.25
  -4  -6 -12   33.57    2.65
  -4   6  12   35.69    2.90
  -4   6 -12   35.41    2.65
  -4  -6  12   34.26    2.83
   4  -6 -12   21.88    3.10
   4   6  12   27.14    2.83
   5  -6  12   -1.55    1.95
   5   6 -12    0.74    1.68
  -5  -6 -12    1.45    1.32
  -5   6  12    0.13    1.32
   5   6  12    1.16    1.47
  -5  -6  12    2.01    1.34
   5  -6 -12    1.19    1.86
   6  -6  12   30.63    3.42
  -6  -6 -12   31.99    2.69
   6   6 -12   32.21    3.51
  -6   6  12   38.29    3.21
   6  -6 -12   31.75    3.60
  -6  -6  12   32.58    2.82
  -7  -6 -12    5.56    1.69
  -7   6  12    6.36    1.74
   7   6 -12    4.46    2.24
   7  -6  12    8.61    2.58
  -7  -6  12    4.17    1.55
   7  -6 -12    8.77    2.31
   7   6  12    3.42    1.84
   8  -6  12   22.90    3.19
  -8   6  12   23.24    2.75
  -8  -6 -12   19.17    2.36
   8   6 -12   24.19    3.48
  -8  -6  12   19.69    2.51
   8  -6 -12   24.48    3.31
   8   6  12   14.73    2.60
  -9   6  12   -0.20    1.70
   9   6 -12   -0.67    2.50
   9  -6  12    2.32    2.53
  -9  -6 -12   -1.00    1.77
  -9  -6  12   -4.02    1.47
   9  -6 -12   -3.00    2.24
   9   6  12    0.74    2.01
   0   7  12   -2.49    1.47
   0  -7 -12   -0.39    1.16
   0  -7  12   -0.02    1.10
   0  -7  12   -0.78    1.39
   0   7 -12   -0.15    1.19
   1  -7  12   15.04    2.14
  -1   7  12   15.70    2.51
   1  -7  12   15.86    2.33
   1  -7  12   15.80    1.84
  -1  -7 -12   15.30    1.75
   1   7 -12   20.44    2.07
   1   7  12   18.58    2.36
  -1  -7  12   22.76    2.09
  -1  -7  12   18.63    2.01
   1  -7 -12   16.39    1.77
  -2  -7 -12    3.82    1.28
   2   7 -12    4.07    1.45
  -2   7  12    2.22    1.15
   2  -7  12    5.37    1.85
  -2   7  12    0.72    2.07
   2  -7 -12    4.98    1.31
  -2   7 -12    2.60    1.46
   2   7  12    0.66    1.43
  -2  -7  12    2.42    1.36
  -3   7  12    0.70    1.20
   3   7 -12    1.64    1.44
  -3  -7 -12    0.87    1.21
  -3   7  12    0.89    2.28
   3  -7  12    2.94    1.89
   3   7  12    2.38    1.44
  -3   7 -12    3.31    1.40
  -3  -7  12    2.69    1.45
   3  -7 -12    2.20    1.25
  -4  -7 -12    3.48    1.35
   4  -7  12    0.83    2.01
  -4   7  12    3.70    1.39
   4   7 -12    3.61    1.72
   4   7  12    2.12    1.49
  -4   7 -12    4.84    1.44
   4  -7 -12    1.00    1.84
  -4  -7  12    4.75    1.46
   5  -7  12   -0.44    2.04
   5   7 -12   -0.25    1.71
  -5   7  12    2.90    1.42
  -5  -7 -12    0.09    1.29
   5   7  12    0.11    1.48
  -5  -7  12    1.29    1.44
   5  -7 -12    2.96    1.99
  -6  -7 -12    1.10    1.46
   6  -7  12    3.44    2.36
  -6   7  12    1.51    1.40
   6   7 -12   -0.07    1.87
   6  -7 -12    4.90    2.21
   6   7  12    3.46    1.70
  -6  -7  12    3.40    1.48
   7  -7  12   -2.15    2.38
  -7  -7 -12    1.95    1.59
  -7   7  12    0.51    1.51
   7   7 -12   -1.60    2.10
   7   7  12   -0.40    1.68
   7  -7 -12   -0.07    2.01
  -7  -7  12    0.19    1.46
   8   7 -12   -0.33    2.41
   8  -7  12    2.35    2.62
  -8  -7 -12   -0.60    1.65
  -8   7  12    2.84    1.90
   8   7  12    0.59    1.82
  -8  -7  12    0.50    1.64
   0  -8  12  160.41    8.32
   0  -8 -12  146.55    8.09
   0  -8  12  151.66    8.38
   0   8  12  144.99    8.98
  -1   8  12   -1.31    1.84
   1  -8  12    1.59    1.66
   1   8 -12    4.64    1.40
  -1  -8 -12    5.22    1.39
   1   8  12    4.33    1.71
   1  -8 -12    3.86    1.36
  -1   8 -12    7.14    1.61
  -1  -8  12    2.31    1.47
  -1  -8  12    4.88    1.30
  -2   8  12   54.04    4.90
   2   8 -12   51.31    4.13
  -2  -8 -12   56.60    3.74
  -2   8  12   58.25    3.77
   2  -8  12   58.50    4.29
   2  -8 -12   59.57    3.87
  -2  -8  12   67.46    4.22
  -2   8 -12   62.44    4.17
   2   8  12   59.75    4.25
   3   8 -12   -0.18    1.42
  -3  -8 -12    2.00    1.31
  -3   8  12    5.59    2.52
   3  -8  12    2.30    1.88
  -3   8  12    0.31    1.18
  -3  -8  12    0.14    1.31
  -3   8 -12   -0.55    1.36
   3   8  12    1.44    1.50
   3  -8 -12    1.05    1.35
   4   8 -12   22.33    2.68
  -4   8  12   31.50    2.62
   4  -8  12   24.20    2.98
  -4  -8 -12   25.75    2.27
   4  -8 -12   22.51    3.00
  -4   8 -12   22.71    2.45
   4   8  12   24.51    2.67
  -4  -8  12   25.64    2.71
  -5   8  12    2.28    1.45
  -5  -8 -12    0.40    1.39
   5  -8  12   -4.22    2.05
   5   8 -12   -0.44    1.76
   5  -8 -12    3.67    2.05
  -5  -8  12    0.68    1.38
  -5   8 -12   -0.76    1.25
   5   8  12   -0.41    1.52
  -6  -8 -12   16.74    2.07
   6  -8  12   15.46    3.02
  -6   8  12   19.63    2.44
   6   8 -12   17.60    2.73
   6   8  12   16.11    2.38
   6  -8 -12   20.77    2.90
  -6  -8  12   17.48    2.46
  -7   8  12   -0.49    1.70
   7   8 -12    3.34    2.36
   7  -8  12   -0.50    2.55
  -7  -8 -12    0.10    1.53
   7   8  12   -1.07    1.68
  -7  -8  12    1.23    1.50
  -8  -8 -12   14.10    2.21
   8  -8  12   10.66    3.09
   8   8 -12   14.96    3.17
  -8   8  12   16.54    2.57
   8   8  12    9.33    2.34
  -8  -8  12   17.91    2.55
   0  -9 -12   -1.13    1.31
   0   9  12   -2.08    1.70
   0  -9  12    0.23    1.29
   0  -9  12   -1.08    1.43
  -1   9  12    5.09    2.19
  -1  -9 -12    8.56    1.58
   1  -9  12    3.36    1.71
  -1   9 -12    7.26    1.72
   1  -9 -12    5.98    1.57
  -1  -9  12    7.93    1.61
   1   9  12    8.36    2.08
   2  -9  12    9.82    2.04
  -2   9  12    8.54    2.69
  -2  -9 -12    9.76    1.63
  -2   9 -12   10.16    1.99
   2   9  12    7.87    1.95
   2  -9 -12   11.19    1.69
  -2  -9  12    8.13    1.72
  -3   9  12   -2.57    2.39
  -3  -9 -12   -0.61    1.32
   3   9 -12    0.44    1.49
  -3   9  12    1.99    1.35
   3  -9  12   -1.45    1.85
  -3   9 -12   -0.34    1.53
   3  -9 -12    3.85    1.46
   3   9  12    1.48    1.61
  -3  -9  12    0.77    1.35
   4  -9  12    5.44    2.20
   4   9 -12    5.68    1.84
  -4   9  12    4.61    1.55
  -4  -9 -12    3.16    1.46
  -4   9 -12    6.80    1.74
  -4  -9  12    3.91    1.65
   4   9  12    3.24    1.67
   4  -9 -12    5.40    2.17
   5  -9  12   13.43    2.73
  -5  -9 -12   12.33    1.89
   5   9 -12   14.84    2.47
  -5   9  12   19.05    2.31
  -5   9 -12    9.07    1.88
   5   9  12   11.87    2.16
  -5  -9  12   13.64    2.32
  -6  -9 -12    0.38    1.57
   6   9 -12   -2.14    2.00
   6  -9  12   -5.95    2.21
  -6   9  12    1.93    1.65
  -6  -9  12   -2.08    1.51
   6   9  12   -0.28    1.74
   7   9 -12    1.78    2.36
  -7   9  12   -0.61    1.81
  -7  -9 -12    1.17    1.63
   7  -9  12   -4.44    2.39
  -7  -9  12    0.40    1.73
   7   9  12    1.51    1.89
   0 -10 -12   15.26    1.94
   0 -10  12   14.20    2.04
   0  10  12   16.35    2.70
   0 -10  12   14.69    2.02
  -1 -10 -12    0.00    1.42
   1 -10  12    1.39    1.63
  -1  10  12    1.28    2.17
  -1  10 -12   -0.51    1.52
   1 -10 -12    2.26    1.49
   1  10  12   -0.56    1.73
  -1 -10  12   -0.19    1.32
   2 -10  12   17.95    2.41
  -2 -10 -12   14.42    2.00
  -2  10  12   15.12    3.27
   2 -10 -12   15.14    1.98
  -2  10 -12   18.82    2.52
   2  10  12   21.79    2.68
  -2 -10  12   15.43    2.08
   3 -10  12    2.56    1.95
  -3 -10 -12    0.48    1.44
  -3  10  12   -0.34    1.36
   3 -10 -12    1.01    1.52
  -3  10 -12   -0.11    1.60
  -3 -10  12   -1.22    1.32
   3  10  12    0.24    1.70
  -4  10  12   15.14    2.09
  -4 -10 -12   12.92    1.90
   4 -10  12   11.64    2.52
   4  10  12   12.91    2.24
  -4 -10  12   14.46    2.27
  -4  10 -12   12.65    2.18
   5 -10  12    0.11    2.20
   5  10 -12    1.59    1.96
  -5  10  12   -3.88    1.48
  -5 -10 -12    0.29    1.51
   5  10  12   -1.53    1.63
  -5 -10  12    0.61    1.68
  -5  10 -12   -0.25    1.52
   6 -10  12    6.29    2.71
  -6 -10 -12    7.55    1.82
  -6  10  12    7.90    2.09
   6  10 -12    7.12    2.40
   6  10  12    6.66    2.14
  -6 -10  12    8.39    2.15
  -7  10  12   -0.65    1.84
  -7 -10 -12   -1.27    1.68
   7  10 -12    2.95    2.48
   7 -10  12   -1.09    2.50
  -7 -10  12    1.52    1.93
   7  10  12   -0.09    1.95
   0 -11  12   -1.45    1.51
   0  11 -12    1.13    1.42
   0  11  12   -1.58    1.99
   0 -11 -12    0.27    1.59
   1 -11  12    4.55    1.79
  -1 -11 -12    5.40    1.68
  -1 -11  12    3.99    1.51
   1 -11 -12    7.28    1.75
  -1  11 -12    4.91    1.88
   1  11  12    5.98    2.33
   2 -11  12    0.08    1.79
  -2 -11 -12   -0.18    1.52
  -2  11 -12   -0.96    1.52
   2 -11 -12    2.15    1.65
   2  11  12    0.86    1.92
  -2 -11  12    0.00    1.45
   3 -11  12    3.57    2.02
  -3 -11 -12   -1.33    1.51
   3 -11 -12   -1.14    1.59
   3  11  12    0.71    1.82
  -3  11 -12    0.69    1.70
  -3 -11  12    0.68    1.55
   4 -11  12    0.94    2.08
  -4  11  12    1.88    1.68
  -4 -11 -12    1.17    1.61
  -4  11 -12    0.78    1.78
  -4 -11  12   -0.31    1.38
   4  11  12    0.98    1.84
  -5 -11 -12    3.93    1.73
  -5  11  12    2.81    1.76
   5 -11  12    0.96    2.30
  -5  11 -12   -0.39    1.70
  -5 -11  12    3.20    1.81
   5  11  12    1.00    1.90
  -6 -11 -12   -3.45    1.59
   6 -11  12    3.54    2.62
  -6  11  12   -0.15    1.81
  -6 -11  12   -0.25    1.52
   6  11  12   -0.28    1.99
   0 -12  12   13.12    2.13
   0  12 -12   12.47    2.07
   0 -12 -12   10.31    2.08
  -1 -12 -12    1.30    1.68
   1  12 -12    5.32    1.76
   1 -12  12    0.96    1.78
   1 -12 -12    0.59    1.70
  -1  12 -12   -0.73    1.54
   2 -12  12   26.64    2.99
  -2 -12 -12   25.98    2.67
   2  12  12   28.65    3.38
  -2  12 -12   26.87    3.12
  -2 -12  12   28.15    2.80
   2 -12 -12   32.46    2.76
   3 -12  12    0.35    1.97
  -3 -12 -12   -0.01    1.63
  -3  12 -12   -1.93    1.77
   3 -12 -12    0.78    1.73
  -3 -12  12   -1.15    1.29
   3  12  12   -0.40    1.96
   4 -12  12   21.38    2.89
  -4 -12 -12   16.00    2.24
  -4  12  12   19.23    2.46
   4  12  12   20.52    2.88
  -4  12 -12   15.81    2.61
  -4 -12  12   15.16    2.42
   5 -12  12   -1.77    2.28
  -5 -12 -12   -0.05    1.73
  -5  12  12    2.68    1.87
   5  12  12   -2.30    1.92
  -5  12 -12   -2.55    1.82
  -5 -12  12    1.27    1.49
   0 -13 -12   -0.62    1.75
   0  13 -12    1.27    1.72
   0 -13  12    2.55    1.78
   1 -13  12    4.62    2.02
   1  13 -12    4.01    1.68
  -1 -13 -12    1.06    1.86
   1 -13 -12    0.41    1.82
  -1  13 -12    3.96    1.94
  -2 -13 -12    6.96    1.95
   2 -13  12    8.00    2.17
  -2 -13  12    0.07    1.37
  -2  13 -12    2.88    1.97
   2 -13 -12    1.98    1.88
   3 -13  12   -0.68    2.05
  -3 -13 -12    0.80    1.78
  -3 -13  12   -1.52    1.30
   3 -13 -12    0.18    1.87
  -3  13 -12   -1.81    1.94
   4 -13  12    0.52    2.33
  -4 -13 -12    3.82    1.88
  -4 -13  12    4.02    1.70
   4  13  12    7.49    2.46
  -4  13 -12   -1.34    2.04
   0 -14 -12   15.47    2.44
   0  14 -12   16.66    2.58
   1 -14  12    1.17    2.05
   1  14 -12    0.85    1.71
  -1 -14 -12    0.50    1.95
   1 -14 -12    1.96    1.93
  -1  14 -12   -1.46    1.77
   2 -14  12   25.36    3.09
   2  14 -12   25.85    2.91
  -2 -14 -12   22.51    2.80
   2 -14 -12   24.99    2.81
  -2  14 -12   23.97    3.13
   0   0  13    1.01    1.40
   0   0  13    0.82    0.76
   0   0 -13    0.86    0.90
  -1   0  13   -1.03    1.56
   1   0  13   -1.38    1.23
  -1   0  13   -0.87    0.84
  -1   0 -13    0.55    0.93
   1   0 -13   -1.21    0.79
  -2   0  13   -1.93    0.88
  -2   0 -13    0.99    1.01
   2   0  13    0.08    1.28
  -2   0  13    2.00    1.79
  -3   0  13   -0.38    1.05
  -3   0 -13    0.60    1.08
   3   0  13   -3.53    1.23
   3   0 -13    0.70    1.42
  -4   0  13   -0.26    1.09
  -4   0 -13    1.54    1.17
   4   0  13    1.87    1.39
   4   0 -13   -1.46    1.35
   5   0  13    0.50    1.44
  -5   0 -13   -0.28    1.21
  -5   0  13    0.62    1.25
   5   0 -13   -2.30    1.43
  -6   0  13    1.57    1.28
  -6   0 -13    1.39    1.37
   6   0 -13    0.05    1.67
   6   0  13   -0.81    1.50
  -7   0  13    2.41    1.44
   7   0  13    2.58    1.76
   7   0 -13   -0.35    1.91
  -7   0 -13    0.12    1.47
  -8   0  13    2.27    1.60
   8   0 -13   -1.09    2.08
  -8   0 -13    2.01    1.62
   8   0  13    1.04    1.84
  -9   0  13    0.07    1.68
   9   0  13    1.55    2.01
  -9   0 -13   -0.67    1.69
   9   0 -13    0.07    2.34
   0   1 -13    0.28    0.87
   0   1  13    1.22    1.36
   0  -1 -13    0.32    0.88
   0   1  13    0.22    0.76
   0  -1  13    2.62    1.57
   0  -1  13   -1.26    0.81
   1  -1  13    6.35    1.60
   1   1 -13    6.16    1.02
  -1  -1 -13    6.51    1.12
  -1   1  13    8.80    1.19
  -1   1  13    8.81    1.94
   1  -1  13    6.20    1.15
   1   1  13    4.86    1.54
  -1   1 -13    7.09    1.15
  -1  -1  13    8.09    1.22
   1  -1 -13    6.37    1.04
  -1  -1  13    3.33    1.83
  -2   1  13   18.18    1.64
   2  -1  13   14.77    2.02
  -2   1  13   10.27    2.23
  -2  -1 -13   10.84    1.46
   2   1  13   14.10    1.96
  -2   1 -13   14.07    1.53
  -2  -1  13   13.25    1.58
  -2  -1  13   14.50    2.40
   3  -1  13  103.15    6.40
  -3  -1 -13  103.54    5.72
   3   1 -13  104.52    6.63
  -3   1  13  105.27    5.91
  -3  -1  13  103.96    5.96
   3   1  13  103.51    6.40
  -3   1 -13   98.26    5.74
   3  -1 -13  107.70    6.70
   4   1 -13    0.64    1.47
   4  -1  13    1.96    1.45
  -4  -1 -13    0.67    1.15
  -4   1  13    1.08    1.21
   4  -1 -13    0.53    1.44
   4   1  13    2.01    1.43
  -4  -1  13    1.19    1.08
  -4   1 -13    0.47    1.20
  -5   1  13   59.98    4.02
  -5  -1 -13   58.37    3.82
   5   1 -13   59.15    4.63
   5  -1  13   51.36    4.18
   5  -1 -13   62.57    4.79
  -5   1 -13   52.40    3.79
   5   1  13   60.24    4.28
  -5  -1  13   60.71    3.87
  -6   1  13    2.79    1.57
   6   1 -13    7.45    2.09
   6  -1  13    3.94    1.76
  -6  -1 -13    5.59    1.49
  -6  -1  13    6.23    1.64
   6  -1 -13    4.84    2.04
  -6   1 -13    5.76    1.54
   6   1  13    5.01    1.77
   7  -1  13   23.79    2.88
  -7   1  13   31.68    2.86
  -7  -1 -13   27.76    2.53
   7   1 -13   32.67    3.56
  -7  -1  13   33.27    2.85
   7  -1 -13   20.71    3.11
   7   1  13   20.36    2.86
  -7   1 -13   29.03    2.63
   8   1 -13    1.08    2.25
  -8  -1 -13    2.42    1.62
  -8   1  13    1.03    1.58
   8  -1  13   11.22    2.22
   8   1  13    5.45    2.04
   8  -1 -13    5.51    2.40
  -8  -1  13    5.89    1.67
  -8   1 -13    5.04    1.73
  -9  -1 -13    2.76    1.76
  -9   1  13    1.92    1.78
   9  -1  13   -2.07    1.86
   9   1 -13   -2.07    2.23
  -9   1 -13    3.25    1.81
   9  -1 -13   -0.10    2.41
  -9  -1  13    0.34    1.66
   9   1  13    2.78    2.05
   0   2 -13    5.99    1.06
   0   2  13    1.19    1.46
   0   2  13    5.27    0.95
   0  -2  13    5.59    1.71
   0  -2 -13    6.00    1.06
   0  -2  13    4.35    1.13
  -1   2  13    8.96    1.96
   1  -2  13   10.88    1.83
  -1   2  13   11.24    1.32
   1   2 -13    7.02    1.10
  -1  -2 -13   10.97    1.30
   1  -2  13    9.38    1.26
  -1  -2  13    7.95    1.30
  -1   2 -13    8.45    1.29
  -1  -2  13    7.96    2.03
   1   2  13    8.21    1.69
   1  -2 -13    9.44    1.20
   2   2 -13    5.05    1.55
  -2  -2 -13    2.64    1.10
  -2   2  13    3.74    1.11
   2  -2  13    5.41    1.54
  -2   2  13    6.64    2.02
  -2   2 -13    1.32    1.14
   2   2  13    4.71    1.56
  -2  -2  13    5.24    1.23
  -3   2  13   28.62    3.28
   3   2 -13   25.57    2.69
   3  -2  13   21.76    2.44
  -3   2  13   27.28    2.25
  -3  -2 -13   24.55    2.05
  -3  -2  13   27.08    2.25
   3   2  13   20.00    2.43
  -3   2 -13   24.18    2.14
  -4  -2 -13    3.74    1.27
  -4   2  13    3.60    1.24
   4  -2  13    3.76    1.51
   4   2 -13    4.53    1.64
  -4  -2  13    2.24    1.23
  -4   2 -13    2.54    1.33
   4   2  13    2.70    1.50
   4  -2 -13    4.45    1.71
  -5  -2 -13    1.93    1.30
   5   2 -13    0.25    1.65
   5  -2  13    2.22    1.54
  -5   2  13    0.41    1.18
  -5   2 -13    3.17    1.42
   5  -2 -13    0.95    1.74
  -5  -2  13    1.95    1.18
   5   2  13   -0.74    1.35
  -6   2  13   -1.85    1.27
   6  -2  13    1.06    1.53
   6   2 -13   -2.30    1.66
  -6  -2 -13   -0.07    1.31
  -6   2 -13   -0.65    1.45
   6  -2 -13   -1.46    1.68
   6   2  13    0.26    1.57
  -6  -2  13   -1.04    1.27
   7  -2  13    8.36    1.97
   7   2 -13    8.85    2.49
  -7  -2 -13    4.39    1.61
  -7   2  13    6.65    1.81
  -7   2 -13    3.80    1.71
   7   2  13    7.94    2.04
  -7  -2  13    7.49    1.76
   7  -2 -13    4.68    2.23
   8   2 -13   -0.19    2.13
  -8  -2 -13    1.11    1.59
  -8   2  13    0.26    1.59
   8  -2  13    3.48    1.91
  -8   2 -13   -0.97    1.64
   8  -2 -13    2.35    2.36
   8   2  13   -4.19    1.70
  -8  -2  13    0.70    1.43
  -9   2  13    0.75    1.74
   9  -2  13    0.50    1.90
   9   2 -13    0.70    2.33
  -9  -2 -13    3.55    1.77
  -9   2 -13   -0.90    1.74
  -9  -2  13    0.90    1.75
   9  -2 -13    1.77    2.60
   9   2  13   -0.79    2.01
   0  -3  13    1.05    1.05
   0   3 -13    1.01    0.94
   0  -3 -13    0.28    0.95
   0  -3  13   -1.92    1.52
   0   3  13    1.15    1.44
   1   3 -13   56.55    3.27
   1  -3  13   54.83    4.03
  -1  -3 -13   51.95    3.35
  -1   3  13   50.43    4.16
  -1   3  13   47.10    3.33
   1  -3  13   60.83    3.48
   1   3  13   47.69    3.93
   1  -3 -13   55.38    3.28
  -1  -3  13   51.36    3.61
  -1  -3  13   58.24    4.40
   2  -3  13    3.79    1.00
  -2   3  13    4.00    2.06
   2  -3  13    4.20    1.55
   2  -3  13    5.03    1.45
   2   3 -13    4.63    1.54
  -2  -3 -13    3.91    1.16
  -2   3  13    4.03    1.10
   2   3  13    4.71    1.52
  -2  -3  13    3.20    1.09
   3  -3  13   53.45    3.80
   3   3 -13   54.15    3.97
  -3   3  13   54.35    3.48
  -3  -3 -13   49.35    3.28
   3  -3  13   52.19    3.71
  -3   3  13   50.59    4.54
  -3  -3  13   49.81    3.42
   3   3  13   39.92    3.67
   4  -3  13    4.63    1.52
  -4  -3 -13    3.35    1.24
   4   3 -13    0.14    1.49
  -4   3  13    4.23    1.30
   4  -3 -13    1.78    1.72
   4   3  13    2.40    1.49
  -4  -3  13    3.65    1.30
  -5  -3 -13   44.11    3.21
   5  -3  13   46.56    3.64
   5   3 -13   48.65    4.08
  -5   3  13   52.32    3.56
  -5   3 -13   49.13    3.39
   5  -3 -13   37.90    3.93
  -5  -3  13   46.61    3.43
   5   3  13   40.31    3.65
   6   3 -13   -0.48    1.78
  -6   3  13   -0.17    1.38
  -6  -3 -13   -0.49    1.29
   6  -3  13    1.00    1.61
   6  -3 -13   -0.14    1.85
  -6   3 -13    0.29    1.51
   6   3  13    0.47    1.60
  -6  -3  13   -2.05    1.15
  -7   3  13   14.96    2.11
   7   3 -13   13.22    2.65
  -7  -3 -13   12.72    1.95
   7  -3  13   14.56    2.24
   7  -3 -13   11.13    2.65
   7   3  13   12.32    2.36
  -7   3 -13   16.22    2.21
  -7  -3  13   17.50    2.12
   8   3 -13   -2.29    2.03
  -8   3  13    1.63    1.70
  -8  -3 -13    0.89    1.55
   8   3  13   -3.76    1.69
   8  -3 -13    0.67    2.35
  -8   3 -13   -0.37    1.74
  -8  -3  13    0.80    1.40
   9   3 -13    7.54    2.85
  -9   3  13   12.56    2.24
  -9  -3 -13   13.12    2.17
  -9  -3  13   16.00    2.30
   9   3  13   15.16    2.66
   9  -3 -13   16.38    3.24
  -9   3 -13   15.78    2.42
   0  -4  13    0.98    1.08
   0   4  13    1.16    1.44
   0  -4  13    1.00    1.23
   0  -4 -13    0.71    1.02
   0  -4  13    0.89    1.71
  -1   4  13    8.46    2.02
   1  -4  13    9.08    1.63
  -1  -4 -13    9.85    1.35
  -1   4  13    7.71    1.21
   1  -4  13    8.41    1.92
   1  -4  13   10.36    1.35
   1   4  13    8.88    1.79
   1  -4 -13    9.49    1.30
  -1  -4  13    5.65    1.31
  -1  -4  13    9.34    1.53
   2  -4  13    2.55    1.02
  -2  -4 -13    3.45    1.18
   2  -4  13    2.43    1.52
  -2   4  13    5.46    2.18
  -2   4  13    2.94    1.10
   2   4 -13    3.27    1.45
   2  -4  13    5.38    1.63
   2   4  13    2.21    1.47
  -2  -4  13    7.01    1.40
   2  -4 -13    3.94    1.12
   3   4 -13    2.61    1.49
   3  -4  13    2.37    1.40
  -3  -4 -13    1.82    1.14
   3  -4  13    2.66    1.66
  -3   4  13    3.07    2.13
  -3   4  13    2.28    1.12
   3   4  13    2.27    1.41
  -3  -4  13    2.09    1.22
   4  -4  13    0.93    1.34
  -4   4  13   -1.89    1.09
   4  -4  13   -0.54    1.62
  -4  -4 -13    0.04    1.18
   4   4 -13    2.30    1.58
   4   4  13    0.26    1.34
  -4  -4  13    0.82    1.19
   4  -4 -13    4.15    1.74
   5   4 -13    3.36    1.78
   5  -4  13   -0.93    1.76
   5  -4  13    1.60    1.47
  -5  -4 -13    2.16    1.30
  -5   4  13    0.47    1.28
   5  -4 -13    0.64    1.84
   5   4  13    1.28    1.46
  -5  -4  13    0.41    1.30
   6  -4  13    0.56    1.52
   6  -4  13    1.84    1.95
  -6  -4 -13    2.53    1.43
  -6   4  13    2.84    1.51
   6   4 -13    0.01    1.83
   6   4  13    0.01    1.57
   6  -4 -13   -2.12    1.87
  -6  -4  13    2.16    1.42
   7   4 -13    1.64    2.09
  -7  -4 -13    2.45    1.53
  -7   4  13    1.90    1.40
   7   4  13    0.03    1.73
   7  -4 -13    2.96    2.29
  -7  -4  13   -1.24    1.30
  -8   4  13    2.48    1.56
   8   4 -13   -2.16    2.09
  -8  -4 -13    0.71    1.62
  -8   4 -13    0.60    1.80
  -8  -4  13    1.85    1.49
   8   4  13   -0.59    1.83
   8  -4 -13   -0.75    2.33
  -9  -4 -13    2.11    1.83
   9   4 -13    1.82    2.59
  -9   4  13    2.80    1.86
  -9  -4  13    2.28    1.77
   9  -4 -13   -2.56    2.41
  -9   4 -13    3.88    2.01
   9   4  13    2.05    2.10
   0  -5 -13    0.99    1.08
   0   5  13    0.62    1.50
   0  -5  13    0.19    1.37
   0  -5  13    0.16    1.01
   0  -5  13   -1.64    1.74
  -1  -5 -13   75.28    4.58
   1  -5  13   70.17    4.95
   1   5 -13   76.24    5.15
   1  -5  13   80.80    5.50
   1  -5  13   89.88    4.82
  -1   5  13   80.47    5.50
  -1  -5  13   81.00    5.04
  -1  -5  13   79.08    4.74
   1   5  13   76.48    5.24
   1  -5 -13   80.97    4.59
  -2  -5 -13   -1.16    1.10
   2  -5  13   -0.19    1.47
  -2   5  13   -0.82    0.91
   2  -5  13    0.30    1.60
   2   5 -13    0.06    1.30
  -2   5  13    0.05    1.98
   2  -5 -13    0.15    1.10
  -2   5 -13    2.60    1.34
  -2  -5  13   -0.40    1.07
   2   5  13    1.06    1.39
   3  -5  13   22.84    2.58
   3  -5  13   14.44    2.08
   3   5 -13   17.84    2.23
  -3  -5 -13   17.03    1.80
  -3   5  13   16.13    2.86
  -3   5  13   17.82    1.89
  -3   5 -13   15.28    1.87
  -3  -5  13   17.43    2.00
   3   5  13   16.87    2.20
   4  -5  13    3.36    1.44
   4  -5  13    0.18    1.82
   4   5 -13    0.85    1.54
  -4  -5 -13   -1.24    1.20
  -4   5  13    0.00    1.24
   4  -5 -13    4.01    1.85
  -4  -5  13    0.54    1.24
   4   5  13    2.60    1.49
   5  -5  13   16.96    2.58
   5   5 -13   14.70    2.41
  -5   5  13   17.08    2.15
  -5  -5 -13   14.03    1.82
   5  -5 -13   10.61    2.46
   5   5  13   11.96    2.12
  -5  -5  13   17.66    2.07
  -6  -5 -13    0.75    1.37
   6  -5  13   -0.61    2.02
  -6   5  13   -0.91    1.44
   6   5 -13   -0.38    1.81
   6   5  13    0.04    1.60
  -6  -5  13    1.32    1.40
   6  -5 -13   -0.53    1.97
   7   5 -13    3.92    2.28
   7  -5  13    9.56    2.52
  -7   5  13   10.11    2.08
  -7  -5 -13    9.54    1.80
  -7  -5  13   11.05    2.02
   7   5  13    6.16    2.03
   7  -5 -13    9.94    2.58
  -8  -5 -13    1.61    1.69
   8   5 -13   -5.32    2.07
   8  -5  13    0.38    2.30
  -8   5  13    0.18    1.68
  -8  -5  13    2.99    1.55
   8  -5 -13    1.06    2.35
   8   5  13    1.15    1.92
   0   6  13    5.84    1.84
   0  -6  13    5.23    1.32
   0  -6  13    5.56    1.67
   0  -6 -13    4.47    1.26
   0   6 -13    7.12    1.51
   1  -6  13    1.96    1.62
  -1   6  13   -2.35    1.60
  -1  -6 -13    0.06    1.14
   1  -6  13    1.46    1.08
   1   6 -13    0.75    1.24
   1  -6  13    0.22    1.70
   1  -6 -13    0.98    1.16
  -1  -6  13   -1.31    1.11
   1   6  13   -0.71    1.45
  -2   6  13    1.32    1.08
  -2  -6 -13    0.54    1.15
   2  -6  13   -4.00    1.56
   2  -6  13   -1.27    1.56
  -2   6  13   -2.85    1.90
   2   6 -13   -0.89    1.29
  -2  -6  13   -1.47    1.22
   2  -6 -13    2.16    1.20
  -2   6 -13    0.84    1.31
   2   6  13   -0.67    1.32
   3   6 -13    4.85    1.58
  -3   6  13    4.06    2.40
   3  -6  13    0.65    1.88
  -3   6  13    2.21    1.23
  -3  -6 -13    3.86    1.28
  -3  -6  13    2.58    1.39
   3   6  13    0.79    1.41
  -3   6 -13    3.19    1.36
   4  -6  13   -1.94    1.85
  -4   6  13   -0.96    1.25
   4   6 -13   -0.64    1.49
  -4  -6 -13   -1.04    1.23
  -4  -6  13   -0.05    1.35
   4   6  13    1.14    1.48
   4  -6 -13   -1.43    1.68
   5  -6  13    1.27    2.17
  -5  -6 -13   -0.97    1.31
   5   6 -13   -1.48    1.66
  -5   6  13    2.63    1.50
  -5  -6  13   -1.01    1.23
   5  -6 -13   -2.51    1.80
   5   6  13    0.64    1.53
   6   6 -13   -0.17    1.86
   6  -6  13   -0.58    2.23
  -6  -6 -13   -1.12    1.40
  -6   6  13    0.10    1.54
  -6  -6  13   -2.02    1.22
   6   6  13   -1.40    1.58
   6  -6 -13    0.85    2.09
  -7   6  13    1.96    1.65
  -7  -6 -13    1.67    1.61
   7  -6  13    0.13    2.35
   7   6 -13   -1.58    1.97
   7  -6 -13    2.26    2.25
  -7  -6  13   -1.74    1.26
   7   6  13    3.35    1.91
  -8  -6 -13   -0.70    1.64
   8  -6  13   -1.57    2.43
  -8   6  13   -1.97    1.56
   8   6 -13   -3.91    2.22
  -8  -6  13   -1.30    1.36
   8  -6 -13    1.18    2.48
   8   6  13    0.36    1.85
   0   7 -13   -0.79    1.22
   0  -7  13   -3.82    1.44
   0  -7 -13    0.93    1.24
   0   7  13   -0.61    1.59
   0  -7  13    0.85    1.19
   1  -7  13   96.92    5.98
   1  -7  13   97.66    5.81
   1   7 -13   97.65    6.02
  -1   7  13   93.01    6.46
  -1  -7 -13  100.78    5.56
   1   7  13   91.10    6.23
  -1  -7  13  105.53    5.94
   1  -7 -13   97.89    5.56
  -2   7  13    1.17    1.16
  -2  -7 -13    1.79    1.25
  -2   7  13    1.71    2.18
   2   7 -13    0.56    1.34
   2  -7  13   -1.77    1.74
   2   7  13    1.89    1.53
   2  -7 -13    4.82    1.35
  -2  -7  13    4.13    1.41
  -2   7 -13    1.51    1.46
   3   7 -13   37.77    3.30
   3  -7  13   39.01    3.49
  -3   7  13   36.78    4.14
  -3  -7 -13   35.05    2.82
  -3   7  13   34.93    2.93
  -3  -7  13   38.63    3.38
   3   7  13   36.59    3.22
  -3   7 -13   35.71    3.08
   4  -7  13   -1.50    2.06
   4   7 -13    4.21    1.72
  -4  -7 -13    4.27    1.44
  -4   7  13    2.63    1.36
  -4  -7  13    4.31    1.67
   4  -7 -13    1.24    1.95
   4   7  13    2.17    1.54
   5  -7  13   -0.05    2.26
   5   7 -13    8.79    2.13
  -5   7  13   11.17    1.92
  -5  -7 -13    7.82    1.64
   5   7  13    5.38    1.82
  -5  -7  13    9.99    1.94
   5  -7 -13    6.58    2.31
   6  -7  13    2.25    2.43
  -6  -7 -13   -0.94    1.45
   6   7 -13   -2.45    1.82
  -6   7  13    0.42    1.53
   6   7  13   -1.28    1.66
   6  -7 -13   -0.42    2.14
  -6  -7  13    0.99    1.51
   7   7 -13    0.64    2.15
  -7   7  13    4.83    1.91
   7  -7  13    7.67    2.78
  -7  -7 -13    4.22    1.74
   7   7  13    4.05    2.01
   7  -7 -13    8.51    2.51
  -7  -7  13    5.38    1.69
   8   7 -13   -3.07    2.36
   8  -7  13   -0.97    2.57
  -8  -7 -13    0.19    1.74
  -8   7  13    1.30    1.96
  -8  -7  13    0.72    1.55
   8   7  13   -0.07    1.99
   0   8  13    7.61    2.07
   0  -8  13    7.02    1.55
   0  -8 -13    6.62    1.54
   0  -8  13    9.12    1.83
   1  -8  13    8.12    1.90
  -1   8  13    9.00    2.35
  -1  -8 -13    7.43    1.56
  -1   8 -13    9.41    1.78
   1  -8 -13    8.13    1.56
   1   8  13    8.86    2.09
  -1  -8  13    8.36    1.54
  -2   8  13   -0.53    2.23
   2   8 -13    0.05    1.33
   2  -8  13   -1.49    1.68
  -2  -8 -13   -1.72    1.24
   2  -8 -13    1.24    1.36
   2   8  13    1.81    1.59
  -2   8 -13   -1.59    1.35
  -2  -8  13   -0.42    1.23
   3   8 -13    3.73    1.60
  -3  -8 -13    2.87    1.42
  -3   8  13    3.41    2.59
   3  -8  13    6.56    2.21
  -3   8  13    2.49    1.33
  -3  -8  13    4.71    1.74
  -3   8 -13    4.74    1.66
   3   8  13    2.27    1.67
   4  -8  13    0.35    2.10
   4   8 -13    0.61    1.64
  -4  -8 -13    2.35    1.43
  -4   8  13    1.19    1.41
  -4  -8  13   -0.84    1.58
  -4   8 -13    0.19    1.43
   4  -8 -13    2.20    2.01
   4   8  13    0.18    1.58
   5   8 -13   -1.29    1.77
   5  -8  13    0.68    2.24
  -5   8  13   -0.89    1.42
  -5  -8 -13    0.04    1.42
  -5  -8  13   -0.20    1.42
   5  -8 -13   -0.05    2.03
   5   8  13    0.32    1.59
  -6  -8 -13    1.76    1.50
  -6   8  13    0.82    1.67
   6   8 -13   -2.49    1.85
   6  -8  13    0.41    2.45
   6   8  13   -0.65    1.71
   6  -8 -13    1.44    2.28
  -6  -8  13    1.08    1.64
   7  -8  13   -0.25    2.63
  -7  -8 -13    1.46    1.67
  -7   8  13    1.96    1.85
   7   8 -13    2.19    2.32
  -7  -8  13    3.88    1.82
   7   8  13    3.63    2.05
   0  -9  13   -0.73    1.18
   0   9  13    0.16    1.89
   0  -9  13   -2.33    1.48
   0  -9 -13    1.26    1.42
  -1   9  13   18.70    3.07
  -1  -9 -13   19.07    2.09
   1  -9  13   21.46    2.48
  -1  -9  13   19.42    2.24
   1  -9 -13   18.47    2.10
   1   9  13   20.49    2.81
  -1   9 -13   20.44    2.31
  -2   9  13   11.56    3.08
  -2  -9 -13   12.54    1.79
   2  -9  13   11.24    2.18
   2  -9 -13   11.82    1.85
  -2  -9  13   14.07    2.01
   2   9  13    6.32    2.03
  -2   9 -13   11.43    2.11
   3  -9  13   29.23    3.05
  -3  -9 -13   27.89    2.42
  -3   9  13   21.63    3.79
   3   9 -13   22.44    2.66
  -3   9  13   32.93    2.68
   3   9  13   22.33    2.78
  -3   9 -13   26.02    2.78
  -3  -9  13   27.04    2.84
  -4   9  13   -0.92    1.42
   4  -9  13   -3.51    1.99
   4   9 -13   -1.44    1.62
  -4  -9 -13    0.44    1.48
   4   9  13    1.87    1.75
  -4  -9  13    1.16    1.66
   4  -9 -13   -1.85    1.99
  -4   9 -13    2.63    1.71
  -5  -9 -13   14.17    2.02
   5  -9  13   17.99    2.99
   5   9 -13   13.89    2.46
  -5   9  13   17.33    2.40
  -5  -9  13   14.52    2.34
   5   9  13   12.99    2.30
  -6  -9 -13   -0.16    1.57
   6   9 -13   -0.91    2.04
  -6   9  13   -2.36    1.61
   6  -9  13   -2.06    2.38
  -6  -9  13    2.51    1.81
   6   9  13    1.16    1.87
   7   9 -13    6.44    2.53
  -7   9  13    6.06    2.12
   7  -9  13    9.21    3.03
  -7  -9 -13    7.60    1.93
  -7  -9  13    4.09    2.01
   7   9  13    3.90    2.12
   0 -10 -13   -1.68    1.42
   0 -10  13    3.09    1.56
   0  10  13    1.66    2.15
   0 -10  13    1.12    1.63
   1 -10  13    5.14    1.83
  -1  10  13    3.32    2.46
  -1 -10 -13    3.23    1.59
  -1 -10  13    3.40    1.55
   1 -10 -13    2.58    1.59
   1  10  13    4.21    2.15
  -1  10 -13    5.78    1.74
  -2  10  13   -0.14    2.66
  -2 -10 -13    1.84    1.54
   2 -10  13    1.14    1.82
   2 -10 -13    2.53    1.53
   2  10  13   -1.23    1.73
  -2  10 -13    2.02    1.75
  -2 -10  13    1.48    1.38
   3 -10  13    1.18    1.96
  -3 -10 -13   -0.91    1.48
  -3 -10  13   -3.00    1.40
   3  10  13   -0.58    1.72
  -3  10 -13   -0.10    1.68
   4 -10  13   -1.81    2.06
  -4 -10 -13   -0.22    1.48
  -4  10  13    0.44    1.51
  -4  10 -13    0.36    1.67
   4  10  13    1.57    1.84
  -4 -10  13   -3.36    1.37
   5 -10  13   -4.31    2.29
  -5 -10 -13    0.34    1.61
  -5  10  13    0.47    1.67
  -5 -10  13    3.48    1.61
   5  10  13    2.18    1.81
  -6  10  13   -1.82    1.72
  -6 -10 -13    0.43    1.66
   6 -10  13   -1.39    2.41
   6  10 -13   -3.06    2.07
  -6 -10  13    3.45    1.95
   6  10  13   -0.13    1.93
   0 -11 -13   -0.50    1.60
   0  11  13    0.61    2.21
   0 -11  13   -2.15    1.56
   0  11 -13    0.53    1.56
  -1  11  13    8.02    2.82
  -1 -11 -13    8.64    1.85
   1 -11  13   10.48    2.11
   1 -11 -13    6.78    1.88
   1  11  13    5.30    2.42
  -1  11 -13    7.50    1.85
  -1 -11  13    8.25    1.79
   2 -11  13    0.10    1.89
  -2 -11 -13   -0.47    1.56
   2 -11 -13    0.85    1.65
  -2 -11  13    2.25    1.53
   2  11  13    2.51    2.08
  -2  11 -13    2.68    1.75
  -3 -11 -13   31.81    2.83
   3 -11  13   35.53    3.38
  -3  11 -13   30.75    3.21
   3 -11 -13   28.73    2.78
  -3 -11  13   28.13    2.96
   3  11  13   30.74    3.33
  -4 -11 -13    3.02    1.72
  -4  11  13    0.35    1.64
   4 -11  13   -0.11    2.10
   4  11  13   -1.45    1.87
  -4  11 -13    0.48    1.84
  -4 -11  13    0.88    1.59
   5 -11  13   43.49    4.27
  -5 -11 -13   49.17    3.73
  -5  11  13   57.17    4.26
  -5  11 -13   40.61    3.90
  -5 -11  13   49.54    4.08
   5  11  13   49.21    4.18
   0 -12 -13    1.72    1.79
   0  12 -13    5.94    1.80
  -1 -12 -13   -0.56    1.70
   1  12 -13   -0.22    1.50
   1 -12  13    1.78    1.86
   1  12  13    2.21    2.46
   1 -12 -13    2.28    1.74
  -1  12 -13   -0.35    1.69
  -2 -12 -13   -0.11    1.71
   2 -12  13    2.12    1.97
   2 -12 -13    3.23    1.84
  -2 -12  13    1.18    1.42
  -2  12 -13   -0.34    1.72
   2  12  13   -1.90    2.10
   3 -12  13    2.69    2.15
  -3 -12 -13    0.10    1.66
   3  12  13    0.00    2.12
   3 -12 -13    0.96    1.82
  -3 -12  13   -1.92    1.33
  -3  12 -13   -0.84    1.88
   4 -12  13    5.10    2.38
  -4 -12 -13    2.49    1.81
  -4  12 -13    3.93    2.11
  -4 -12  13    3.83    1.82
   4  12  13    4.42    2.28
   0 -13 -13   -2.69    1.76
   0  13 -13    0.94    1.62
   1  13 -13    4.05    1.86
  -1 -13 -13    3.79    2.00
   1 -13  13    5.59    2.07
  -1  13 -13    5.50    2.06
   1 -13 -13    4.96    2.04
   2 -13  13    0.17    2.02
  -2 -13 -13   -0.99    1.86
  -2 -13  13   -1.05    1.50
  -2  13 -13   -3.51    1.73
   2 -13 -13    2.28    1.94
   3 -13  13   11.99    2.65
  -3 -13 -13    9.80    2.16
  -3 -13  13   10.88    2.05
   3 -13 -13   14.32    2.33
  -3  13 -13   10.04    2.56
   0 -14 -13    0.77    2.03
   0  14 -13   -0.67    1.81
   0   0 -14   53.42    3.29
   0   0  14   42.52    3.98
   0   0  14   57.64    3.39
  -1   0  14    4.29    2.00
   1   0  14    6.63    1.74
  -1   0 -14    6.91    1.23
  -1   0  14    7.80    1.22
   1   0 -14    6.83    1.13
  -2   0  14   38.81    3.03
  -2   0  14   42.20    3.91
   2   0  14   40.52    3.36
  -2   0 -14   35.60    2.72
   3   0  14   -2.64    1.37
  -3   0 -14    0.73    1.14
  -3   0  14   -0.24    1.04
   3   0 -14    0.01    1.37
  -4   0  14   24.16    2.22
   4   0  14   15.47    2.28
   4   0 -14   19.93    2.54
  -4   0 -14   18.56    1.94
  -5   0 -14    2.58    1.40
   5   0  14    4.57    1.79
   5   0 -14    7.95    1.95
  -5   0  14    3.89    1.37
  -6   0 -14   28.35    2.66
   6   0  14   31.65    3.23
  -6   0  14   38.95    2.95
   6   0 -14   30.74    3.47
  -7   0 -14    2.95    1.62
  -7   0  14    4.69    1.61
   7   0  14    1.09    1.84
   7   0 -14    2.08    2.07
  -8   0 -14   15.76    2.16
   8   0 -14    2.86    2.37
  -8   0  14   14.10    2.13
   8   0  14   10.23    2.36
   9   0  14    1.43    2.15
   9   0 -14    2.22    2.57
  -9   0 -14   -3.39    1.69
  -9   0  14    2.80    1.79
   0  -1 -14   -0.95    0.97
   0  -1  14   -1.27    1.52
   0   1 -14   -0.20    0.96
   0  -1  14   -0.21    0.95
   0   1  14   -1.18    1.43
   1  -1  14   17.38    2.29
  -1  -1 -14   16.94    1.65
  -1   1  14   18.77    1.73
  -1   1  14   12.96    2.36
   1  -1 -14   17.81    1.57
  -1  -1  14   18.06    1.75
  -1  -1  14   14.61    2.52
  -1   1 -14   17.08    1.65
   1   1  14   14.43    2.20
  -2   1  14   -0.09    1.75
  -2   1  14    0.18    1.04
  -2  -1 -14    0.49    1.11
   2  -1  14    1.37    1.48
  -2  -1  14    0.65    1.77
  -2   1 -14   -1.56    1.07
  -2  -1  14   -1.04    0.99
   2   1  14   -2.41    1.28
  -3   1  14    4.80    1.26
  -3  -1 -14    4.37    1.27
   3  -1  14    5.04    1.64
   3   1 -14    2.56    1.55
   3   1  14    4.36    1.59
  -3  -1  14    2.20    1.21
  -3   1 -14    3.53    1.29
   3  -1 -14    3.17    1.53
  -4  -1 -14    3.07    1.31
   4  -1  14    4.36    1.67
   4   1 -14    5.59    1.74
  -4   1  14    4.28    1.37
   4   1  14    0.89    1.56
   4  -1 -14    5.68    1.72
  -4   1 -14    2.51    1.33
  -4  -1  14    3.60    1.35
  -5  -1 -14    0.82    1.30
   5  -1  14   -0.85    1.53
  -5   1  14    0.69    1.36
   5   1 -14    0.64    1.64
  -5  -1  14    0.84    1.37
   5  -1 -14    1.16    1.66
   5   1  14   -2.04    1.43
  -5   1 -14    2.89    1.40
   6   1 -14   -0.49    1.75
  -6   1  14    2.60    1.54
   6  -1  14    3.60    1.85
  -6  -1 -14    2.33    1.49
   6  -1 -14    5.30    2.06
  -6   1 -14    2.54    1.54
  -6  -1  14    4.27    1.49
   6   1  14    2.77    1.77
   7  -1  14    1.50    1.83
  -7  -1 -14   -2.21    1.45
  -7   1  14   -0.88    1.49
   7   1 -14   -2.77    1.75
  -7  -1  14   -0.62    1.45
   7  -1 -14    0.67    2.00
  -7   1 -14    2.32    1.57
   7   1  14   -1.47    1.75
  -8  -1 -14    0.26    1.67
  -8   1  14    1.12    1.64
   8  -1  14    0.77    1.93
   8   1 -14   -0.64    2.17
   8  -1 -14   -1.99    2.18
  -8   1 -14    1.59    1.73
  -8  -1  14   -0.41    1.63
   8   1  14   -1.26    1.93
  -9  -1 -14    2.48    1.92
  -9   1 -14    2.51    1.89
   9   1  14    3.75    2.28
   0  -2  14   39.10    3.86
   0  -2 -14   52.05    3.09
   0  -2  14   48.45    3.26
   0   2  14   43.09    3.71
   0   2 -14   44.92    3.05
  -1   2  14   -0.66    1.73
   1  -2  14    2.01    0.97
   1  -2  14    2.71    1.62
  -1   2  14    0.33    0.94
  -1  -2 -14    0.89    1.08
  -1  -2  14   -0.37    1.76
   1  -2 -14    1.67    1.02
  -1   2 -14    0.43    1.07
  -1  -2  14    1.05    1.05
   1   2  14    1.62    1.46
  -2   2  14   42.75    3.02
  -2   2  14   37.54    3.86
   2  -2  14   40.42    3.43
   2   2 -14   40.73    3.46
  -2  -2 -14   36.31    2.83
  -2   2 -14   42.15    2.90
  -2  -2  14   44.70    3.09
   2   2  14   37.24    3.36
  -3  -2 -14   14.29    1.68
   3   2 -14   16.16    2.25
  -3   2  14   17.45    1.79
   3  -2  14   16.32    2.17
  -3   2  14   15.71    2.69
  -3   2 -14   13.24    1.74
  -3  -2  14   15.35    1.82
   3   2  14   14.37    2.20
  -4  -2 -14   13.22    1.75
   4  -2  14   15.87    2.18
  -4   2  14   18.69    2.02
   4   2 -14   16.99    2.39
   4  -2 -14   18.87    2.50
   4   2  14   12.42    2.13
  -4   2 -14   16.06    1.93
  -4  -2  14   17.55    1.91
  -5  -2 -14    4.22    1.43
  -5   2  14    3.80    1.41
   5  -2  14    1.99    1.67
   5   2 -14    4.19    1.86
   5   2  14    2.15    1.69
  -5  -2  14    4.68    1.52
  -5   2 -14    4.42    1.55
   5  -2 -14    5.10    1.92
  -6   2  14   22.61    2.46
   6   2 -14   21.15    2.92
   6  -2  14   20.44    2.53
  -6  -2 -14   20.93    2.17
  -6   2 -14   19.64    2.31
  -6  -2  14   24.33    2.48
   6  -2 -14   17.75    2.91
   6   2  14   13.02    2.42
  -7   2  14    0.12    1.53
   7   2 -14    0.92    2.11
   7  -2  14   -0.73    1.70
  -7  -2 -14   -0.97    1.45
   7   2  14    0.20    1.74
  -7  -2  14    2.85    1.60
   7  -2 -14   -0.83    2.00
  -7   2 -14   -0.09    1.60
  -8   2  14   18.92    2.61
  -8  -2 -14   22.02    2.39
   8   2 -14   13.36    2.92
   8  -2  14   15.82    2.63
  -8  -2  14   20.58    2.48
   8   2  14   18.73    2.88
  -8   2 -14   24.50    2.59
   8  -2 -14   16.23    3.22
   0  -3 -14   -1.94    1.00
   0  -3  14   -0.72    0.97
   0   3 -14   -1.83    1.01
   0   3  14   -1.36    1.47
   0  -3  14   -1.23    1.68
  -1   3  14    6.58    2.01
  -1  -3 -14    5.83    1.26
   1  -3  14    9.21    1.31
   1  -3  14    3.06    1.69
   1   3  14    7.86    1.84
  -1  -3  14    7.54    2.15
  -1  -3  14    8.52    1.47
   1  -3 -14    7.08    1.23
  -1   3 -14    6.21    1.35
  -2   3  14    4.15    1.14
   2   3 -14    4.12    1.57
  -2   3  14    1.73    2.02
  -2  -3 -14    1.75    1.15
   2  -3  14    4.32    1.64
  -2   3 -14    2.02    1.27
  -2  -3  14    3.38    1.26
   2   3  14    2.59    1.50
   3   3 -14   11.81    2.05
   3  -3  14    9.27    1.87
  -3   3  14   12.38    2.61
  -3  -3 -14   10.68    1.54
  -3   3  14   11.77    1.62
  -3  -3  14   12.66    1.70
   3   3  14   12.30    2.03
  -3   3 -14   10.96    1.66
  -4  -3 -14   -1.25    1.18
   4  -3  14    1.04    1.53
   4   3 -14    0.94    1.56
  -4   3  14   -1.28    1.20
   4   3  14    1.63    1.49
  -4   3 -14    1.36    1.40
   4  -3 -14   -0.49    1.55
  -4  -3  14    0.49    1.16
   5  -3  14    5.81    1.81
  -5  -3 -14    3.60    1.41
   5   3 -14    7.92    2.06
  -5   3  14    5.46    1.62
   5  -3 -14    9.37    2.25
  -5   3 -14    6.80    1.71
   5   3  14    4.21    1.76
  -5  -3  14    8.78    1.69
   6   3 -14   -0.60    1.84
  -6   3  14    0.69    1.46
   6  -3  14    1.91    1.71
  -6  -3 -14    1.13    1.42
   6  -3 -14    1.72    1.97
   6   3  14   -0.07    1.63
  -6  -3  14    2.20    1.41
  -6   3 -14    1.13    1.62
   7   3 -14    1.17    2.11
  -7   3  14    3.95    1.71
   7  -3  14    2.70    1.84
  -7  -3 -14    1.31    1.51
  -7   3 -14    1.11    1.76
   7  -3 -14    2.76    2.25
   7   3  14    0.47    1.87
  -7  -3  14    3.50    1.57
   8   3 -14    4.28    2.34
  -8  -3 -14    4.46    1.80
  -8   3  14    3.01    1.66
   8   3  14    1.67    2.19
  -8   3 -14    2.70    1.92
  -8  -3  14    3.06    1.79
   8  -3 -14    0.85    2.45
   0  -4 -14   71.43    4.16
   0  -4  14   70.28    5.16
   0  -4  14   68.88    4.47
   0  -4  14   73.75    4.41
   0   4  14   66.07    4.92
   1  -4  14    0.46    1.64
   1  -4  14    1.80    1.01
  -1   4  14    2.17    1.76
  -1  -4 -14    0.11    1.12
   1  -4  14    2.34    1.48
   1   4  14   -0.02    1.47
  -1  -4  14    2.41    1.24
   1  -4 -14    1.79    1.10
  -2  -4 -14   59.88    3.70
  -2   4  14   59.93    4.87
   2  -4  14   60.12    4.30
   2   4 -14   56.43    4.31
   2  -4  14   63.16    3.79
  -2   4  14   55.73    3.72
   2  -4  14   68.52    4.23
   2   4  14   51.05    4.17
  -2  -4  14   59.30    3.94
  -3  -4 -14    3.08    1.27
   3  -4  14    7.44    1.89
  -3   4  14   -1.98    2.09
   3   4 -14    4.11    1.61
  -3   4  14    6.92    1.39
   3  -4  14    5.49    1.68
   3   4  14    4.29    1.63
  -3  -4  14    7.67    1.44
   4  -4  14   30.27    3.03
  -4  -4 -14   26.91    2.38
   4   4 -14   32.21    3.17
   4  -4  14   29.80    2.87
  -4   4  14   32.66    2.70
  -4  -4  14   35.23    2.73
   4  -4 -14   30.55    3.27
   4   4  14   25.58    2.88
   5  -4  14    0.40    1.90
   5   4 -14    3.16    1.80
  -5   4  14    2.97    1.46
  -5  -4 -14    1.72    1.36
   5  -4  14    2.00    1.57
   5   4  14    2.79    1.61
   5  -4 -14   -1.60    1.80
  -5  -4  14    1.83    1.34
   6   4 -14   24.37    3.06
  -6   4  14   24.12    2.56
  -6  -4 -14   21.07    2.25
   6   4  14   17.51    2.56
   6  -4 -14   16.87    2.98
  -6  -4  14   24.81    2.54
  -6   4 -14   24.45    2.54
   7   4 -14    9.20    2.54
  -7  -4 -14   10.94    1.86
  -7   4  14    9.67    2.07
   7   4  14    5.78    2.15
   7  -4 -14    6.97    2.52
  -7   4 -14    7.32    2.04
  -7  -4  14    7.49    1.91
   8   4 -14   17.28    3.19
  -8   4  14   14.83    2.45
  -8  -4 -14   16.97    2.28
   8   4  14   12.01    2.58
   8  -4 -14   19.34    3.34
  -8   4 -14   17.35    2.55
  -8  -4  14   19.22    2.50
   0  -5  14    0.20    1.06
   0  -5  14    2.62    1.47
   0  -5  14   -0.20    1.79
   0  -5 -14    0.76    1.12
   0   5  14   -2.95    1.45
   1  -5  14    1.25    1.09
   1  -5  14    0.85    1.78
   1   5 -14    0.85    1.37
   1  -5  14    0.26    1.54
  -1  -5 -14   -0.94    1.13
  -1   5  14    1.84    1.79
  -1  -5  14   -1.35    1.18
   1   5  14    0.59    1.51
   1  -5 -14   -0.58    1.10
  -2  -5 -14    1.33    1.24
  -2   5  14    2.46    1.07
   2   5 -14    1.52    1.44
   2  -5  14   -0.91    1.61
   2  -5  14    1.89    1.56
  -2   5  14    1.68    2.10
  -2  -5  14    2.49    1.43
  -2   5 -14    2.77    1.38
   2   5  14    0.53    1.48
  -3  -5 -14    2.23    1.28
   3   5 -14   -1.34    1.37
  -3   5  14   -2.45    1.02
  -3   5  14    1.56    2.28
   3  -5  14    1.63    1.80
   3  -5  14    0.72    1.46
   3   5  14   -0.31    1.44
  -3  -5  14    0.20    1.29
  -4   5  14    0.51    1.20
   4   5 -14   -2.80    1.48
   4  -5  14    0.70    1.91
  -4  -5 -14    1.08    1.34
   4  -5  14    0.40    1.48
   4   5  14   -0.43    1.49
  -4  -5  14   -1.49    1.14
   4  -5 -14    0.07    1.81
   5   5 -14    4.42    1.86
   5  -5  14    5.27    2.19
  -5   5  14    0.47    1.38
  -5  -5 -14    2.18    1.44
   5   5  14    3.22    1.70
   5  -5 -14    3.78    2.15
  -5  -5  14    3.00    1.50
   6  -5  14    0.70    2.24
   6   5 -14    0.50    1.98
  -6  -5 -14    1.10    1.47
  -6   5  14   -0.28    1.33
  -6  -5  14    1.85    1.43
   6   5  14    2.18    1.72
   6  -5 -14   -1.46    2.02
   7  -5  14    2.22    2.38
   7   5 -14    2.22    2.18
  -7   5  14    0.50    1.60
  -7  -5 -14    1.18    1.59
   7  -5 -14    1.67    2.27
   7   5  14   -0.51    1.82
  -7  -5  14   -2.44    1.23
  -8  -5 -14    0.09    1.71
   8   5 -14   -0.38    2.28
  -8   5  14   -1.65    1.68
  -8   5 -14   -1.90    1.86
  -8  -5  14   -1.45    1.41
   8  -5 -14   -1.94    2.37
   8   5  14   -0.65    1.97
   0  -6  14   45.78    3.75
   0   6 -14   52.57    3.80
   0  -6  14   52.15    3.58
   0  -6 -14   48.48    3.33
   0   6  14   47.78    4.01
   1  -6  14    5.79    1.38
  -1   6  14    6.56    2.18
   1  -6  14    7.11    2.03
   1  -6  14    6.42    1.90
   1   6 -14    8.47    1.74
  -1  -6 -14    6.26    1.41
  -1  -6  14   10.83    1.74
   1   6  14   11.36    2.07
   1  -6 -14    7.22    1.42
  -2  -6 -14   21.65    2.05
   2  -6  14   19.37    2.59
  -2   6  14   25.06    3.34
   2   6 -14   20.49    2.44
   2  -6  14   21.07    2.67
   2   6  14   19.26    2.58
  -2  -6  14   26.05    2.53
  -2   6 -14   26.36    2.44
  -3   6  14    6.89    2.67
  -3   6  14    8.05    1.53
   3  -6  14    1.52    2.02
   3   6 -14    9.30    1.82
  -3  -6 -14    7.01    1.48
   3   6  14    7.95    1.89
  -3  -6  14    4.87    1.75
  -4   6  14   17.58    2.11
   4  -6  14   14.86    2.74
   4   6 -14   16.53    2.41
  -4  -6 -14   16.19    1.93
  -4  -6  14   20.79    2.36
   4  -6 -14   18.51    2.80
   4   6  14   14.36    2.25
   5   6 -14    1.93    1.86
   5  -6  14   -0.14    2.27
  -5  -6 -14    2.99    1.53
  -5   6  14    0.75    1.46
   5  -6 -14    1.18    2.04
   5   6  14    3.71    1.75
  -5  -6  14    0.75    1.38
  -6  -6 -14    7.33    1.75
  -6   6  14   11.16    2.07
   6  -6  14    3.68    2.48
   6   6 -14    7.75    2.30
   6  -6 -14    9.67    2.61
   6   6  14    7.36    2.03
  -6  -6  14    5.50    1.68
   7  -6  14    4.97    2.60
   7   6 -14    7.71    2.40
  -7   6  14    6.36    1.93
  -7  -6 -14    5.89    1.83
   7   6  14    5.94    2.14
   7  -6 -14    5.97    2.55
  -7  -6  14    4.48    1.57
   8  -6  14    8.96    2.87
   8   6 -14    5.22    2.54
  -8   6  14    3.96    1.98
  -8  -6 -14    4.57    1.90
  -8  -6  14    5.52    1.81
   8   6  14    2.95    2.13
   8  -6 -14    9.51    2.92
   0  -7 -14   -0.42    1.26
   0   7 -14    1.89    1.34
   0  -7  14    0.45    1.63
   0  -7  14    0.87    1.24
   0   7  14   -1.05    1.67
  -1  -7 -14    4.86    1.45
  -1   7  14    7.43    2.28
   1   7 -14    7.31    1.67
   1  -7  14    7.93    1.51
   1  -7  14    3.65    1.86
   1   7  14    4.95    1.90
  -1  -7  14    7.93    1.65
   1  -7 -14    5.41    1.48
   2   7 -14    3.12    1.51
   2  -7  14    1.21    1.91
  -2   7  14    3.67    2.50
  -2  -7 -14    1.18    1.37
  -2  -7  14    2.85    1.47
  -2   7 -14    5.97    1.70
   2   7  14    5.82    1.83
   2  -7 -14    4.20    1.40
   3  -7  14    0.55    2.06
  -3   7  14    1.88    1.30
  -3   7  14   -2.34    2.35
  -3  -7 -14    0.68    1.34
   3   7 -14    2.59    1.57
  -3  -7  14    3.41    1.74
   3   7  14    2.30    1.64
  -3   7 -14    0.45    1.54
  -4   7  14   -0.73    1.41
   4   7 -14    0.04    1.58
   4  -7  14   -0.93    2.12
  -4  -7 -14   -0.65    1.37
   4  -7 -14    0.29    1.99
   4   7  14    2.10    1.67
  -4  -7  14    2.42    1.66
  -5  -7 -14    3.23    1.54
   5   7 -14   -0.02    1.78
   5  -7  14    1.09    2.36
  -5   7  14    3.78    1.67
   5   7  14   -1.36    1.60
  -5  -7  14    1.71    1.56
   5  -7 -14    1.21    2.12
   6   7 -14   -0.11    1.92
   6  -7  14   -0.81    2.45
  -6  -7 -14   -0.49    1.48
  -6   7  14   -1.57    1.57
  -6  -7  14   -0.44    1.34
   6   7  14    0.73    1.69
   6  -7 -14    1.83    2.29
   7   7 -14    1.05    2.14
  -7  -7 -14   -0.84    1.67
  -7   7  14   -1.08    1.75
   7  -7  14    0.56    2.67
  -7  -7  14   -2.17    1.47
   7  -7 -14    1.52    2.42
   7   7  14    0.07    1.90
   0   8  14   57.89    4.58
   0  -8  14   61.00    4.03
   0  -8 -14   52.91    3.80
   0  -8  14   58.14    4.21
  -1  -8 -14   -1.53    1.30
  -1   8  14    1.47    2.17
   1  -8  14   -1.37    1.71
   1   8  14    0.85    1.79
  -1  -8  14   -0.44    1.34
  -1   8 -14    0.83    1.40
   1  -8 -14    0.06    1.39
  -2  -8 -14   10.58    1.72
   2   8 -14    9.58    1.89
  -2   8  14    8.19    2.90
   2  -8  14   12.10    2.35
  -2  -8  14   12.41    2.04
  -2   8 -14   10.92    2.02
   2  -8 -14   12.25    1.78
   2   8  14   11.00    2.23
   3  -8  14   -4.58    1.93
  -3   8  14   -2.51    2.61
   3   8 -14   -1.12    1.46
  -3  -8 -14   -0.94    1.39
   3   8  14    1.87    1.71
  -3  -8  14   -0.57    1.60
  -3   8 -14    1.30    1.55
   4  -8  14   26.24    3.30
  -4   8  14   27.54    2.61
   4   8 -14   30.51    2.99
  -4  -8 -14   21.41    2.34
   4  -8 -14   20.49    3.10
  -4  -8  14   27.98    2.92
   4   8  14   26.29    2.91
  -5  -8 -14   -0.72    1.48
  -5   8  14   -1.94    1.47
   5   8 -14    0.16    1.79
   5  -8  14   -2.77    2.24
  -5  -8  14   -0.15    1.60
   5   8  14    0.31    1.74
   5  -8 -14    1.21    2.23
   6   8 -14   14.30    2.69
  -6   8  14   20.01    2.60
  -6  -8 -14   19.77    2.25
   6  -8  14   13.77    3.12
   6  -8 -14   16.92    3.08
  -6  -8  14   19.55    2.50
   6   8  14   14.95    2.55
  -7  -8 -14   -2.43    1.68
  -7   8  14    0.62    1.87
   7   8 -14   -2.16    2.17
   7  -8  14   -2.62    2.73
  -7  -8  14    0.41    1.74
   7   8  14   -0.36    1.97
   0  -9  14    0.40    1.26
   0  -9 -14    0.22    1.42
   0   9  14    1.67    2.06
   1  -9  14    1.95    1.78
  -1  -9 -14   -0.25    1.45
  -1   9  14    0.23    2.28
  -1   9 -14    3.79    1.60
   1  -9 -14   -0.70    1.45
   1   9  14   -0.64    1.93
  -1  -9  14    2.32    1.51
  -2  -9 -14   -2.82    1.38
   2  -9  14    0.98    1.87
  -2   9  14    1.20    2.70
  -2  -9  14    0.59    1.52
  -2   9 -14    2.57    1.69
   2   9  14    3.13    1.92
   2  -9 -14    0.71    1.54
  -3   9  14    2.88    2.94
  -3  -9 -14    3.80    1.64
   3  -9  14    8.84    2.36
  -3   9 -14    5.59    1.90
   3   9  14    4.60    1.95
  -3  -9  14    9.58    2.02
  -4   9  14   -0.76    1.42
  -4  -9 -14   -1.18    1.51
   4  -9  14    0.55    2.21
   4   9 -14   -1.20    1.62
   4   9  14   -2.00    1.66
   4  -9 -14   -1.27    2.07
  -4  -9  14    1.81    1.71
   5   9 -14    1.10    1.84
  -5  -9 -14    1.60    1.65
  -5   9  14   -0.01    1.55
   5  -9  14   -2.02    2.44
  -5  -9  14    6.28    1.81
   5   9  14    0.71    1.84
   6  -9  14   -2.81    2.55
  -6   9  14   -0.45    1.64
   6   9 -14   -0.86    1.97
  -6  -9 -14   -1.36    1.64
   6   9  14   -1.25    1.87
  -6  -9  14    0.33    1.78
   0 -10 -14   15.11    2.09
   0  10  14   16.73    3.02
   0 -10  14   16.03    2.14
  -1 -10 -14    3.29    1.61
  -1  10  14    3.80    2.60
   1 -10  14    3.27    1.85
  -1 -10  14    2.36    1.57
   1 -10 -14    1.59    1.66
   1  10  14    1.33    2.18
  -1  10 -14    1.01    1.59
  -2 -10 -14   20.68    2.39
  -2  10  14   23.24    3.94
   2 -10  14   23.77    2.79
  -2  10 -14   26.56    2.77
  -2 -10  14   22.89    2.61
   2  10  14   22.57    3.03
   2 -10 -14   25.82    2.47
  -3 -10 -14    0.28    1.58
   3 -10  14    5.14    2.28
  -3  10  14   -1.18    2.93
  -3 -10  14    4.31    1.66
  -3  10 -14    4.37    1.88
   3  10  14    3.81    2.04
  -4 -10 -14    9.62    1.94
   4 -10  14   11.30    2.62
  -4  10 -14   11.74    2.25
  -4 -10  14   14.33    2.36
   4  10  14   13.46    2.40
  -5 -10 -14    1.66    1.68
  -5  10  14    1.08    1.74
   5 -10  14   -3.34    2.31
  -5 -10  14   -1.19    1.54
   5  10  14   -0.76    1.87
   6  10 -14   13.06    2.72
  -6 -10 -14   19.95    2.37
   6  10  14   13.81    2.66
   0  11 -14    3.17    1.62
   0 -11 -14   -1.22    1.66
   0  11  14    1.50    2.53
  -1 -11 -14    0.28    1.66
  -1  11  14    3.50    2.72
   1 -11  14    3.78    1.87
   1 -11 -14   -3.69    1.65
  -1 -11  14   -0.62    1.59
   1  11  14   -1.36    2.18
  -1  11 -14    0.38    1.68
   2 -11  14   -2.04    1.91
  -2 -11 -14   -0.48    1.64
   2  11  14   -0.51    2.11
   2 -11 -14    1.24    1.74
  -2 -11  14   -0.59    1.40
  -2  11 -14   -0.98    1.76
   3 -11  14   -0.93    2.04
  -3 -11 -14    2.47    1.70
  -3 -11  14   -1.02    1.32
  -3  11 -14    1.52    1.87
   3  11  14    1.75    2.11
  -4 -11 -14    1.45    1.74
   4 -11  14   -1.44    2.19
   4  11  14   -2.72    1.89
  -4 -11  14   -1.47    1.54
  -4  11 -14   -1.03    1.84
  -5 -11 -14   -1.88    1.71
   5 -11  14    0.25    2.45
  -5  11  14    1.81    1.87
   5  11  14    0.51    2.10
  -5 -11  14    3.32    1.88
   0  12 -14   13.17    2.10
   0 -12 -14   12.95    2.24
   1  12 -14    2.81    1.51
  -1 -12 -14    2.35    1.89
   1 -12  14    2.02    1.88
   1 -12 -14    2.71    1.87
  -1  12 -14    1.57    1.83
   1  12  14    4.44    2.59
  -1 -12  14    1.19    1.42
   2 -12  14   20.76    2.79
  -2 -12 -14   19.64    2.50
  -2  12 -14   21.50    2.82
   2  12  14   22.14    3.27
   2 -12 -14   20.27    2.53
  -3 -12 -14    0.90    1.84
   3 -12  14    8.43    2.40
  -3 -12  14    7.30    1.82
   3  12  14    6.90    2.50
  -3  12 -14    6.84    2.20
  -4 -12 -14    5.29    1.95
   4  12  14    8.34    2.52
  -4  12 -14    3.19    2.15
   0  13 -14   -0.87    1.70
   0 -13 -14    0.94    1.99
  -1 -13 -14   -0.03    1.97
   1 -13  14    3.22    2.07
   1  13 -14   -1.14    1.58
   1 -13 -14   -0.32    1.91
  -1  13 -14   -0.94    1.71
   2 -13  14    1.28    2.16
  -2 -13 -14   -0.33    1.90
  -2  13 -14   -2.03    1.85
  -2 -13  14    0.88    1.71
   2 -13 -14   -1.72    1.90
   0   0  15   -1.03    1.57
   0   0 -15   -1.50    0.99
  -1   0  15    0.30    1.83
  -1   0  15    1.00    1.01
  -1   0 -15   -2.01    1.06
   1   0  15    0.21    1.54
   2   0  15    0.10    1.55
  -2   0  15   -0.44    1.83
  -2   0  15    0.17    1.05
  -2   0 -15    0.80    1.14
   3   0 -15   -0.85    1.42
   3   0  15   -0.54    1.53
  -3   0 -15   -0.09    1.25
  -3   0  15   -0.92    1.15
   4   0 -15   -0.14    1.57
  -4   0 -15    1.19    1.33
  -4   0  15   -2.86    0.99
   4   0  15   -0.07    1.59
   5   0 -15   -0.51    1.60
  -5   0  15    0.06    1.37
  -5   0 -15    0.35    1.42
   5   0  15   -0.05    1.72
  -6   0 -15    1.97    1.56
   6   0 -15   -1.16    1.76
  -6   0  15   -0.42    1.45
   6   0  15    0.64    1.89
  -7   0  15    1.11    1.66
   7   0  15    0.43    1.92
   7   0 -15   -0.73    1.94
  -7   0 -15   -2.67    1.53
   8   0 -15   -1.36    2.28
  -8   0  15   -0.37    1.72
   8   0  15    0.05    2.02
  -8   0 -15    1.81    1.80
   0  -1  15    0.63    1.07
   0   1  15   -1.82    1.54
   0  -1  15   -1.91    1.69
   0  -1 -15   -0.34    1.03
   0   1 -15   -0.43    1.02
   1  -1  15   69.81    4.94
  -1   1  15   66.80    5.25
  -1  -1 -15   72.97    4.17
  -1   1  15   64.57    4.21
   1   1  15   65.02    4.88
  -1   1 -15   69.75    4.21
  -1  -1  15   68.10    5.25
  -1  -1  15   78.51    4.36
  -2  -1 -15    0.73    1.14
  -2   1  15   -0.06    1.05
   2  -1  15    1.89    1.61
  -2   1  15    0.26    1.85
   2   1  15   -0.35    1.50
  -2  -1  15   -1.01    1.79
  -2   1 -15   -1.48    1.12
  -2  -1  15    1.95    1.13
  -3  -1 -15   47.18    3.46
   3   1 -15   48.01    4.13
   3  -1  15   48.51    4.03
  -3   1  15   55.57    3.66
  -3  -1  15   58.04    3.73
  -3   1 -15   49.47    3.50
   3  -1 -15   65.27    4.45
   3   1  15   45.22    3.99
  -4   1  15   -1.17    1.19
  -4  -1 -15   -1.41    1.26
   4  -1  15   -1.87    1.54
   4   1 -15   -1.77    1.46
   4   1  15   -0.85    1.54
   4  -1 -15   -1.06    1.46
  -4  -1  15    1.42    1.38
  -4   1 -15   -0.14    1.30
  -5   1  15    5.42    1.43
   5  -1  15    5.43    1.96
  -5  -1 -15    2.96    1.50
   5   1 -15    5.40    1.97
  -5   1 -15    2.50    1.54
  -5  -1  15    5.73    1.68
   5  -1 -15    4.54    1.98
   5   1  15    2.63    1.86
   6   1 -15    3.93    1.99
  -6   1  15    1.72    1.40
  -6  -1 -15    4.07    1.59
   6  -1  15    1.95    1.83
  -6  -1  15    4.79    1.62
   6  -1 -15    2.57    1.98
   6   1  15    2.66    1.95
  -6   1 -15    3.77    1.65
  -7   1  15   13.25    2.24
   7  -1  15   10.43    2.54
   7   1 -15   16.79    2.88
  -7  -1 -15   11.99    2.07
   7  -1 -15   12.18    2.79
   7   1  15   13.25    2.53
  -7   1 -15   13.88    2.15
  -7  -1  15   15.92    2.27
  -8   1  15   -0.20    1.66
   8  -1  15    0.04    1.99
  -8  -1 -15    1.07    1.75
   8   1 -15   -0.60    2.21
  -8   1 -15   -2.31    1.78
  -8  -1  15   -2.32    1.57
   8  -1 -15   -1.38    2.21
   8   1  15   -1.68    1.94
   0   2  15   10.35    2.19
   0  -2  15   15.32    1.79
   0  -2 -15   14.97    1.58
   0  -2  15   12.95    2.43
   0   2 -15   13.90    1.55
  -1  -2 -15    8.01    1.39
  -1   2  15   10.31    2.35
   1  -2  15   11.44    2.12
  -1   2 -15    9.02    1.44
  -1  -2  15   10.64    1.58
   1   2  15    8.83    2.03
  -1  -2  15   12.48    2.41
   2   2 -15    3.73    1.55
  -2   2  15    5.12    1.30
   2  -2  15    4.06    1.83
  -2   2  15    1.25    2.02
  -2  -2 -15    4.06    1.26
  -2  -2  15    5.78    1.36
  -2   2 -15    2.12    1.30
   2   2  15    3.58    1.68
   3  -2  15   25.15    2.78
   3   2 -15   26.12    2.77
  -3  -2 -15   21.00    2.13
  -3   2  15   27.62    2.33
  -3  -2  15   33.35    2.61
  -3   2 -15   24.56    2.28
   3   2  15   21.85    2.75
  -4  -2 -15    1.19    1.28
  -4   2  15   -0.56    1.22
   4  -2  15    1.43    1.68
   4   2 -15    0.56    1.56
  -4  -2  15    1.78    1.38
   4   2  15    0.36    1.63
  -4   2 -15    0.94    1.45
   4  -2 -15   -0.44    1.59
  -5  -2 -15   -0.59    1.36
  -5   2  15    0.96    1.38
   5  -2  15    0.35    1.64
   5   2 -15    0.55    1.72
  -5   2 -15   -0.86    1.50
  -5  -2  15    0.11    1.27
   5   2  15    1.48    1.70
   5  -2 -15    1.93    1.84
  -6  -2 -15    0.76    1.46
  -6   2  15   -0.91    1.48
   6   2 -15   -0.71    1.88
   6  -2  15    0.27    1.83
  -6   2 -15    2.93    1.68
   6  -2 -15    1.37    1.98
  -6  -2  15   -0.75    1.41
   6   2  15    0.93    1.81
  -7   2  15    6.70    1.82
  -7  -2 -15    4.59    1.72
   7  -2  15    7.07    2.20
   7   2 -15    6.12    2.41
   7   2  15    4.87    2.12
   7  -2 -15    2.35    2.31
  -7   2 -15    9.69    2.08
  -7  -2  15   10.08    1.90
  -8  -2 -15   -1.33    1.69
   8   2 -15   -0.26    2.22
  -8   2  15   -0.36    1.76
   8  -2  15    0.65    2.01
   8  -2 -15    0.51    2.40
  -8   2 -15    4.19    2.00
   8   2  15    4.98    2.12
  -8  -2  15    1.53    1.57
   0  -3 -15    0.25    1.11
   0  -3  15   -1.00    1.76
   0   3 -15   -1.30    1.08
   0   3  15   -1.65    1.50
   0  -3  15   -1.68    0.98
   1  -3  15   19.09    2.65
  -1  -3 -15   20.23    1.95
  -1   3  15   22.78    2.95
  -1  -3  15   22.88    2.92
  -1  -3  15   21.93    2.20
   1  -3 -15   25.45    1.93
  -1   3 -15   20.00    1.97
   1   3  15   20.59    2.58
  -2  -3 -15    1.59    1.18
  -2   3  15    2.28    1.17
   2   3 -15    1.21    1.47
   2  -3  15    0.67    1.63
  -2   3  15    5.16    2.22
  -2  -3  15    2.75    1.34
   2   3  15    0.32    1.56
  -2   3 -15    0.86    1.33
  -3   3  15   14.05    1.87
   3   3 -15   14.87    2.25
  -3   3  15   12.59    2.84
  -3  -3 -15   14.83    1.75
   3  -3  15   15.69    2.30
  -3   3 -15   15.71    1.93
   3   3  15   15.36    2.29
  -3  -3  15   16.47    1.99
   4   3 -15    2.61    1.67
  -4  -3 -15   -0.28    1.30
   4  -3  15   -0.77    1.56
  -4   3  15   -0.60    1.21
  -4   3 -15   -1.92    1.39
  -4  -3  15   -0.86    1.31
   4   3  15    0.84    1.64
   4  -3 -15    0.27    1.64
  -5   3  15   27.67    2.60
   5  -3  15   17.80    2.57
   5   3 -15   27.71    3.08
  -5  -3 -15   21.69    2.26
  -5   3 -15   26.25    2.56
   5   3  15   18.65    2.71
  -5  -3  15   27.27    2.63
   5  -3 -15   23.89    3.06
   6  -3  15    0.20    1.77
  -6   3  15    3.75    1.55
   6   3 -15   -1.11    1.83
  -6  -3 -15    1.56    1.51
  -6  -3  15   -1.76    1.20
   6   3  15   -1.34    1.66
  -6   3 -15    1.23    1.71
   6  -3 -15    0.85    2.02
  -7   3  15    1.03    1.69
   7   3 -15    1.90    2.30
  -7  -3 -15    5.62    1.77
   7  -3  15    5.81    2.00
   7  -3 -15    3.72    2.39
  -7  -3  15    6.17    1.83
   7   3  15    5.46    2.20
  -7   3 -15    4.44    1.99
   8   3 -15    3.71    2.44
  -8   3  15   -3.41    1.45
  -8  -3 -15    0.90    1.75
  -8  -3  15    1.41    1.71
  -8   3 -15    2.69    2.04
   8  -3 -15   -0.38    2.44
   8   3  15    1.37    2.14
   0   4 -15    3.55    1.25
   0  -4 -15    1.41    1.18
   0  -4  15    1.41    1.98
   0   4  15    2.50    1.77
   0  -4  15    0.99    1.14
  -1  -4 -15    1.40    1.21
  -1   4  15    2.53    1.93
   1  -4  15    2.15    1.82
   1  -4  15    1.08    1.11
  -1  -4  15   -1.81    1.14
   1   4  15    2.56    1.66
  -1   4 -15    0.65    1.23
   1  -4 -15   -0.47    1.12
   2   4 -15    0.43    1.44
  -2   4  15    0.32    2.09
  -2  -4 -15   -1.83    1.17
   2  -4  15    1.09    1.67
  -2  -4  15    1.32    1.31
   2   4  15   -1.28    1.49
  -3   4  15    8.39    1.53
  -3  -4 -15    4.08    1.42
   3  -4  15    4.14    1.82
   3   4 -15    4.85    1.71
  -3   4  15    6.96    2.52
   3   4  15    3.03    1.70
  -3  -4  15    6.49    1.62
   4   4 -15   -0.95    1.61
  -4  -4 -15   -0.76    1.25
   4  -4  15   -1.11    1.57
  -4   4  15    1.96    1.36
   4  -4 -15    0.39    1.80
  -4  -4  15    0.33    1.40
   4   4  15   -0.37    1.55
  -5  -4 -15   -0.10    1.42
   5  -4  15   -2.38    1.60
  -5   4  15    0.11    1.40
   5   4 -15   -2.97    1.62
   5   4  15   -3.21    1.55
  -5   4 -15   -1.60    1.56
  -5  -4  15    3.11    1.60
   5  -4 -15    0.49    2.00
  -6   4  15   -0.64    1.33
  -6  -4 -15    0.95    1.50
   6   4 -15    0.17    1.88
   6   4  15   -0.12    1.73
  -6   4 -15    1.11    1.74
   6  -4 -15    0.84    2.10
  -6  -4  15   -1.32    1.28
  -7  -4 -15    2.41    1.68
  -7   4  15    1.48    1.75
   7   4 -15    2.13    2.15
   7   4  15    1.66    1.92
  -7   4 -15    0.67    1.90
   7  -4 -15   -0.41    2.29
  -7  -4  15    2.56    1.68
   8   4 -15   -1.73    2.23
  -8   4  15   -1.66    1.71
  -8  -4 -15    3.03    1.80
  -8   4 -15    1.86    2.01
   8  -4 -15   -0.38    2.54
  -8  -4  15    0.83    1.51
   8   4  15    0.45    2.12
   0  -5  15    0.95    1.17
   0  -5  15   -1.48    1.38
   0  -5 -15    1.55    1.22
   0   5  15   -1.84    1.66
   0  -5  15    0.40    1.87
   1  -5  15   16.58    2.20
  -1  -5 -15    8.11    1.55
  -1   5  15   11.35    2.50
   1   5 -15   14.20    2.05
   1  -5  15   10.70    2.35
   1  -5  15   12.81    1.60
   1  -5 -15   10.96    1.58
   1   5  15   11.48    2.20
  -1  -5  15   13.60    1.95
   2  -5  15   -0.57    1.70
  -2  -5 -15    0.65    1.25
  -2   5  15    1.21    2.20
   2   5 -15   -1.13    1.39
   2  -5  15    1.39    1.76
   2   5  15   -1.61    1.55
  -2  -5  15   -1.02    1.36
  -3   5  15   29.90    3.81
   3  -5  15   29.78    2.98
  -3  -5 -15   31.07    2.61
   3  -5  15   25.07    3.08
   3   5 -15   29.37    3.05
  -3   5  15   31.25    2.62
   3   5  15   29.79    3.06
  -3  -5  15   34.76    2.98
   4  -5  15    4.06    2.13
  -4  -5 -15    1.19    1.40
   4   5 -15    4.08    1.79
  -4   5  15    1.33    1.30
   4  -5 -15    1.04    1.96
  -4  -5  15    3.40    1.48
   4   5  15    0.45    1.66
  -5  -5 -15   44.03    3.32
  -5   5  15   44.83    3.57
   5  -5  15   45.47    4.03
   5   5 -15   44.23    3.96
  -5  -5  15   45.74    3.53
   5   5  15   34.52    3.63
   5  -5 -15   36.95    4.11
   6  -5  15    4.46    2.48
  -6   5  15    0.95    1.53
  -6  -5 -15   -0.71    1.53
   6   5 -15    1.40    2.06
  -6  -5  15    2.38    1.46
   6  -5 -15    0.30    2.23
   6   5  15    1.87    1.79
   7   5 -15   14.84    2.86
  -7   5  15   17.80    2.46
  -7  -5 -15   14.94    2.17
  -7   5 -15   16.50    2.41
   7  -5 -15   11.06    2.91
   7   5  15    6.39    2.30
  -7  -5  15   16.13    2.25
   0   6  15   -0.16    1.75
   0  -6  15   -1.05    1.07
   0   6 -15    1.64    1.46
   0  -6 -15    0.04    1.24
   1  -6  15    1.08    1.95
   1   6 -15    3.87    1.53
   1  -6  15   -2.63    1.63
   1  -6  15    1.09    1.18
  -1   6  15    0.36    2.01
  -1  -6 -15   -2.07    1.23
   1  -6 -15    0.58    1.30
  -1  -6  15    3.77    1.50
   1   6  15    2.72    1.84
   2  -6  15   -1.25    1.81
   2  -6  15    1.27    1.97
   2   6 -15    5.19    1.65
  -2   6  15    4.22    2.41
  -2  -6 -15   -0.51    1.29
  -2  -6  15    3.08    1.61
   2   6  15    0.94    1.73
  -3   6  15   -3.58    2.35
   3  -6  15   -5.11    1.84
  -3  -6 -15    1.86    1.36
   3   6 -15    0.87    1.58
   3   6  15   -0.10    1.59
  -3  -6  15    0.17    1.56
  -4   6  15    1.11    1.35
   4  -6  15   -3.51    1.98
  -4  -6 -15    0.35    1.40
   4   6 -15   -0.29    1.59
   4   6  15   -1.69    1.59
  -4  -6  15    3.52    1.70
   4  -6 -15   -0.22    1.96
   5  -6  15    1.19    2.36
  -5  -6 -15    1.27    1.54
  -5   6  15   -0.12    1.49
   5   6 -15   -1.58    1.79
  -5  -6  15    0.96    1.40
   5   6  15    0.92    1.78
   5  -6 -15   -0.72    2.07
  -6  -6 -15    4.67    1.69
  -6   6  15   -0.80    1.51
   6   6 -15   -2.76    1.81
   6  -6  15   -0.57    2.46
  -6  -6  15    1.00    1.41
   6   6  15   -0.84    1.76
   6  -6 -15   -0.84    2.16
   7  -6  15    0.36    2.63
   7   6 -15   -1.21    2.09
  -7  -6 -15   -3.24    1.59
  -7   6  15    0.99    1.68
  -7  -6  15   -0.97    1.40
   7   6  15   -0.81    1.88
   7  -6 -15    0.17    2.43
   0   7 -15   -0.24    1.44
   0  -7  15    1.69    1.31
   0   7  15   -2.55    1.83
   0  -7 -15   -0.86    1.32
  -1   7  15   24.66    3.18
   1  -7  15   18.16    2.05
  -1  -7 -15   15.96    1.94
   1  -7  15   13.61    2.41
   1   7 -15   22.39    2.40
  -1  -7  15   18.66    2.21
   1   7  15   16.06    2.61
   1  -7 -15   14.72    1.94
  -2   7  15    2.11    2.54
  -2  -7 -15    1.65    1.42
   2  -7  15    3.69    2.09
   2   7 -15    2.90    1.63
  -2   7 -15    7.65    1.77
   2   7  15    3.17    1.87
  -2  -7  15    7.31    1.80
   3   7 -15   28.64    2.93
   3  -7  15   29.82    3.30
  -3   7  15   32.49    4.07
  -3  -7 -15   25.28    2.43
   3   7  15   28.74    3.11
  -3  -7  15   27.21    2.96
  -4  -7 -15    2.40    1.50
   4   7 -15    0.93    1.68
  -4   7  15    1.42    1.46
   4  -7  15    1.78    2.32
  -4  -7  15    3.26    1.67
   4   7  15    2.63    1.84
   4  -7 -15   -1.36    1.98
   5  -7  15   24.32    3.53
  -5  -7 -15   29.69    2.71
   5   7 -15   36.39    3.45
  -5   7  15   33.46    3.09
   5  -7 -15   27.23    3.66
  -5  -7  15   34.84    3.23
   6  -7  15   -3.15    2.54
  -6  -7 -15    0.93    1.66
   6   7 -15    0.02    2.01
  -6   7  15    0.19    1.69
   6  -7 -15    0.73    2.39
   6   7  15    1.70    1.94
  -6  -7  15    1.51    1.71
   7   7 -15   12.23    2.77
  -7   7  15   15.32    2.58
  -7  -7 -15   13.26    2.23
   7  -7  15   14.03    3.30
   7  -7 -15   20.80    3.37
  -7  -7  15   16.30    2.53
   7   7  15   12.96    2.64
   0  -8  15    2.26    1.41
   0   8  15    0.03    2.07
   0  -8 -15   -1.87    1.44
   1  -8  15   13.11    2.33
  -1  -8 -15    9.73    1.76
  -1   8  15    9.39    2.65
  -1   8 -15    8.36    1.81
  -1  -8  15    8.01    1.79
   1  -8 -15   10.62    1.81
   1   8  15   11.30    2.43
  -2   8  15   -1.71    2.47
   2   8 -15    1.19    1.48
   2  -8  15   -0.18    1.97
  -2  -8 -15   -1.02    1.42
  -2  -8  15   -0.42    1.53
  -2   8 -15    1.15    1.59
   2   8  15   -0.07    1.82
  -3   8  15   22.10    3.84
   3  -8  15   23.27    3.03
  -3  -8 -15   17.84    2.16
   3   8 -15   16.48    2.39
   3   8  15   19.52    2.64
  -3  -8  15   21.06    2.65
   4  -8  15   -0.03    2.27
   4   8 -15   -1.21    1.64
  -4  -8 -15    1.71    1.55
   4  -8 -15   -0.30    2.17
  -4  -8  15    0.32    1.51
   4   8  15    0.46    1.80
   5  -8  15   -1.83    2.39
  -5   8  15   -1.73    1.51
  -5  -8 -15   -0.10    1.55
   5   8 -15    0.49    1.82
  -5  -8  15    0.51    1.68
   5   8  15    2.15    1.93
   5  -8 -15   -1.50    2.15
   6   8 -15    3.33    2.14
  -6  -8 -15    1.77    1.74
  -6   8  15    2.39    1.87
   6  -8  15   -2.75    2.66
  -6  -8  15    2.49    1.80
   6  -8 -15    1.35    2.46
   6   8  15    2.59    1.99
   0  -9 -15    1.03    1.54
   0  -9  15    0.86    1.44
   0   9  15    1.42    2.28
  -1  -9 -15   13.81    2.01
   1  -9  15   17.45    2.43
  -1   9  15    9.97    2.91
   1   9  15    9.92    2.57
  -1  -9  15   13.23    1.98
   1  -9 -15   12.85    1.98
  -1   9 -15   13.52    2.12
  -2   9  15   -0.57    2.67
   2  -9  15    2.63    2.08
  -2  -9 -15   -0.02    1.54
   2   9  15    1.76    1.98
  -2   9 -15    6.27    1.83
  -2  -9  15    1.61    1.53
   3  -9  15   16.03    2.82
  -3  -9 -15   18.72    2.20
  -3   9  15   14.38    3.65
  -3  -9  15   21.43    2.65
   3   9  15   19.57    2.81
  -3   9 -15   20.19    2.59
   4  -9  15    0.31    2.39
  -4  -9 -15   -1.40    1.58
   4   9 -15   -1.40    1.67
  -4  -9  15    0.48    1.66
   4   9  15    1.03    1.91
   4  -9 -15   -1.14    2.19
   5  -9  15   11.01    2.95
  -5   9  15   12.88    2.27
  -5  -9 -15   12.13    2.10
   5   9 -15    9.07    2.32
  -5  -9  15   18.30    2.60
   5   9  15    9.04    2.38
   0 -10  15    0.99    1.61
   0  10  15    3.08    2.48
   0 -10 -15   -2.02    1.58
   1 -10  15   -1.21    1.81
  -1  10  15   -0.07    2.61
  -1 -10 -15   -2.57    1.54
  -1  10 -15    0.77    1.55
   1  10  15    0.71    2.23
   1 -10 -15   -0.17    1.68
  -1 -10  15    2.72    1.61
  -2  10  15   -0.19    2.99
   2 -10  15   -0.40    1.95
  -2 -10 -15   -0.37    1.63
  -2 -10  15    1.12    1.39
  -2  10 -15   -0.21    1.73
   2  10  15    0.59    2.10
  -3 -10 -15    3.31    1.76
  -3  10  15    5.84    3.42
   3 -10  15    7.93    2.39
  -3  10 -15    3.19    1.90
  -3 -10  15    5.36    1.84
   3  10  15    5.86    2.16
   4 -10  15    0.67    2.33
  -4 -10 -15    0.25    1.66
   4  10  15   -0.19    1.98
  -4 -10  15    0.49    1.56
   5 -10  15    0.39    2.56
  -5 -10 -15   -3.03    1.65
   5  10  15   -0.33    2.06
  -5 -10  15   -0.59    1.53
   0 -11 -15   -1.62    1.71
   0  11 -15    2.26    1.64
   0  11  15   -2.85    2.45
  -1 -11 -15   17.64    2.41
  -1  11  15   23.86    3.94
   1 -11  15   22.77    2.70
   1 -11 -15   18.45    2.49
  -1 -11  15   19.41    2.40
  -1  11 -15   24.19    2.75
   1  11  15   20.22    3.31
  -2 -11 -15    1.63    1.74
   2 -11  15    2.27    2.05
   2  11  15    3.21    2.41
  -2 -11  15    0.73    1.49
  -2  11 -15   -0.48    1.75
  -3 -11 -15    3.41    1.90
   3 -11  15    4.01    2.31
  -3 -11  15    7.82    1.96
   3  11  15    5.37    2.32
  -3  11 -15    4.86    2.19
   4 -11  15    2.25    2.44
  -4 -11 -15   -1.68    1.78
  -4 -11  15    0.23    1.74
   4  11  15    3.85    2.28
   0  12 -15    3.15    1.60
   0 -12 -15    0.08    1.90
  -1 -12 -15   -0.41    1.90
   1  12 -15    1.52    1.65
   1  12  15    0.64    2.73
   1 -12 -15   -0.17    1.88
  -1  12 -15   -0.89    1.80
  -2 -12 -15    0.00    1.85
   2 -12  15   -2.34    1.98
  -2  12 -15    2.44    1.93
  -2 -12  15    2.58    1.70
   2  12  15    0.92    2.53
   0   0  16    8.75    2.32
   0   0 -16   13.35    1.57
   1   0  16   10.63    2.14
  -1   0 -16    9.63    1.50
  -1   0  16    7.47    2.33
  -2   0  16   10.05    1.59
  -2   0 -16    9.71    1.54
  -2   0  16    8.90    2.37
   2   0  16    5.77    1.96
   3   0  16    8.49    2.07
   3   0 -16    9.04    2.01
  -3   0 -16    8.85    1.63
  -3   0  16    9.20    1.62
   4   0  16    7.10    2.08
  -4   0  16   11.41    1.83
  -4   0 -16    8.84    1.67
   4   0 -16    4.89    1.97
  -5   0  16   -1.74    1.32
   5   0  16   -1.43    1.74
  -5   0 -16    0.67    1.52
   5   0 -16    0.36    1.70
  -6   0 -16   19.07    2.26
  -6   0  16   16.92    2.36
   6   0  16   11.73    2.48
   6   0 -16   16.57    2.76
   7   0  16   10.54    2.61
   7   0 -16   15.56    2.89
  -7   0  16   16.35    2.43
  -7   0 -16   12.92    2.19
   0  -1  16   -2.66    1.77
   0   1 -16   -0.54    1.16
   0   1  16   -2.17    1.66
   0  -1 -16    0.42    1.13
   1  -1  16   -1.09    1.72
  -1  -1 -16    1.68    1.20
  -1   1  16   -0.08    1.84
  -1   1 -16    2.94    1.25
   1   1  16    2.05    1.81
  -1  -1  16   -1.56    1.86
  -1  -1  16    2.19    1.24
  -2   1  16    1.52    1.25
   2  -1  16    0.11    1.76
  -2   1  16   -2.33    1.92
  -2  -1 -16   -0.33    1.22
   2   1  16    1.04    1.75
  -2  -1  16    0.12    1.88
  -2   1 -16   -0.02    1.25
  -2  -1  16    1.28    1.18
  -3   1  16    0.76    1.24
   3   1 -16    1.82    1.65
  -3  -1 -16   -0.50    1.26
   3  -1  16    1.26    1.74
   3   1  16   -0.47    1.71
  -3   1 -16   -2.29    1.32
  -3  -1  16    0.16    1.24
   3  -1 -16    0.72    1.55
   4   1 -16    4.33    1.88
  -4  -1 -16    5.94    1.53
   4  -1  16    7.17    2.10
  -4   1  16    4.56    1.43
   4  -1 -16    4.48    1.83
  -4   1 -16    3.24    1.56
  -4  -1  16    5.08    1.56
   4   1  16    3.37    1.98
   5  -1  16    2.62    1.89
  -5   1  16    0.24    1.42
   5   1 -16    0.22    1.76
  -5  -1 -16   -0.61    1.49
   5   1  16    2.62    1.91
  -5  -1  16   -0.90    1.35
   5  -1 -16   -0.59    1.76
  -5   1 -16   -1.28    1.50
   6  -1  16    1.24    1.94
  -6   1  16    1.20    1.57
  -6  -1 -16   -0.06    1.58
   6   1 -16   -0.24    1.93
  -6   1 -16   -0.18    1.63
  -6  -1  16    2.34    1.60
   6   1  16   -0.63    1.87
   6  -1 -16    0.49    1.96
  -7  -1 -16    0.29    1.73
   7  -1  16    0.65    2.08
  -7   1  16    0.51    1.63
   7   1 -16    0.90    2.09
  -7  -1  16    1.94    1.67
  -7   1 -16   -0.71    1.75
   7  -1 -16   -0.90    2.01
   7   1  16   -2.22    1.97
   0  -2 -16   44.83    2.99
   0  -2  16   33.96    3.77
   0   2  16   39.20    3.79
  -1   2  16   -0.50    1.98
  -1  -2 -16    2.81    1.27
   1  -2  16    5.94    2.03
   1   2  16    3.66    1.82
  -1   2 -16    4.22    1.32
  -1  -2  16    2.70    1.35
  -1  -2  16    0.57    1.97
  -2   2  16   49.11    4.67
  -2   2  16   50.88    3.60
  -2  -2 -16   54.53    3.51
   2   2 -16   56.24    4.26
   2  -2  16   49.74    4.20
   2   2  16   47.06    4.20
  -2   2 -16   56.83    3.64
  -2  -2  16   60.06    3.85
  -3  -2 -16    8.93    1.59
  -3   2  16   11.37    1.70
   3   2 -16    8.87    2.02
   3  -2  16    7.40    2.03
   3   2  16    8.39    2.17
   3  -2 -16   12.87    2.19
  -3   2 -16    8.21    1.71
  -3  -2  16   11.65    1.81
  -4  -2 -16   18.76    2.09
  -4   2  16   24.14    2.35
   4   2 -16   23.04    2.83
   4  -2  16   22.27    2.79
   4  -2 -16   22.75    2.86
  -4   2 -16   18.72    2.22
   4   2  16   15.01    2.57
  -4  -2  16   25.58    2.44
   5   2 -16    2.36    1.83
  -5  -2 -16    1.36    1.53
   5  -2  16    0.28    1.84
  -5   2  16   -0.25    1.36
  -5  -2  16    0.64    1.35
   5   2  16    0.98    1.85
  -5   2 -16    0.46    1.60
   5  -2 -16    0.66    1.84
   6  -2  16   12.26    2.34
   6   2 -16    9.56    2.43
  -6   2  16   13.37    2.06
  -6  -2 -16   11.60    1.97
   6   2  16    9.23    2.31
  -6   2 -16   12.83    2.14
   6  -2 -16   14.01    2.63
  -6  -2  16   12.46    2.12
  -7  -2 -16   -0.93    1.69
   7  -2  16    4.12    2.14
   7   2 -16    1.14    2.24
  -7   2  16    1.99    1.76
   7  -2 -16    5.22    2.43
  -7   2 -16    3.46    1.91
   7   2  16    3.78    2.23
  -7  -2  16    5.17    1.73
   0  -3  16    0.09    1.92
   0  -3 -16   -0.01    1.23
   0  -3  16   -1.06    1.04
   0   3  16    0.06    1.79
  -1  -3 -16    6.82    1.40
  -1   3  16    1.49    2.13
   1  -3  16    4.93    2.17
  -1  -3  16    8.06    1.58
  -1   3 -16    4.71    1.41
   1   3  16    2.46    1.76
  -1  -3  16    3.27    2.18
  -2   3  16    0.15    2.16
   2   3 -16    2.88    1.68
   2  -3  16    3.17    1.92
  -2  -3 -16    7.91    1.42
   2   3  16    2.12    1.78
  -2   3 -16    5.56    1.55
  -2  -3  16    4.41    1.53
  -3   3  16    1.59    1.31
  -3   3  16    0.51    2.31
   3   3 -16   -0.74    1.59
  -3  -3 -16    0.64    1.30
   3  -3  16    3.48    1.83
  -3  -3  16    1.35    1.39
   3   3  16    1.62    1.79
  -3   3 -16    2.34    1.53
  -4   3  16   -1.38    1.24
   4   3 -16    2.21    1.75
   4  -3  16   -1.18    1.74
  -4  -3 -16    0.84    1.40
   4  -3 -16    0.94    1.78
  -4  -3  16    1.35    1.48
   4   3  16   -0.89    1.71
  -4   3 -16    1.99    1.62
   5   3 -16    7.95    2.14
   5  -3  16    8.93    2.14
  -5  -3 -16    8.11    1.75
  -5   3  16   10.68    1.94
  -5  -3  16    9.86    1.95
  -5   3 -16    4.60    1.83
   5  -3 -16    9.02    2.32
   5   3  16    4.71    2.08
   6  -3  16   -1.20    1.78
   6   3 -16   -2.97    1.77
  -6  -3 -16   -0.05    1.60
  -6   3  16    1.30    1.58
   6   3  16    0.28    1.95
   6  -3 -16    0.92    2.14
  -6  -3  16    2.29    1.46
  -6   3 -16    1.11    1.81
  -7  -3 -16    0.64    1.69
  -7   3  16    0.57    1.71
   7   3 -16   -1.92    2.09
  -7  -3  16   -0.44    1.59
   7   3  16    1.04    2.10
   7  -3 -16   -1.88    2.13
  -7   3 -16    3.22    1.92
   0  -4  16   10.65    1.69
   0  -4  16    8.78    2.38
   0  -4 -16    9.95    1.56
   0   4  16   15.21    2.55
   1  -4  16    6.07    2.28
   1   4 -16    6.91    1.79
  -1   4  16    7.15    2.36
  -1  -4 -16    4.06    1.44
  -1  -4  16    6.62    1.62
   1   4  16    6.93    2.03
  -1   4 -16    7.15    1.58
   2  -4  16   13.81    2.33
   2   4 -16   10.24    2.08
  -2  -4 -16   12.55    1.74
  -2   4  16   12.88    2.86
  -2  -4  16   12.78    2.02
   2   4  16   11.11    2.28
  -2   4 -16   11.66    1.82
  -3   4  16   10.02    2.76
  -3  -4 -16    5.50    1.51
  -3   4  16    7.11    1.54
   3  -4  16    6.04    2.06
   3   4 -16    4.38    1.80
  -3  -4  16    5.32    1.71
  -3   4 -16    4.85    1.67
   3   4  16    3.74    1.87
  -4  -4 -16   18.43    2.13
   4  -4  16   22.83    2.78
  -4   4  16   24.61    2.43
   4   4 -16   22.52    2.78
   4   4  16   19.78    2.75
  -4  -4  16   24.66    2.57
   4  -4 -16   23.48    2.98
  -4   4 -16   20.54    2.40
  -5   4  16    1.19    1.49
   5  -4  16    0.53    1.75
   5   4 -16    0.28    1.78
  -5  -4 -16    0.09    1.45
   5  -4 -16    1.85    2.01
  -5   4 -16   -2.25    1.65
  -5  -4  16    0.87    1.48
   5   4  16    2.09    1.89
  -6  -4 -16   14.07    2.03
  -6   4  16   12.62    2.23
   6   4 -16   16.61    2.67
  -6  -4  16   15.05    2.28
  -6   4 -16   15.85    2.36
   6  -4 -16   14.67    2.87
   6   4  16   10.95    2.45
   7   4 -16   -0.76    2.09
  -7   4  16    1.48    1.74
  -7  -4 -16   -0.09    1.67
  -7  -4  16    4.25    1.69
  -7   4 -16   -1.01    1.93
   7  -4 -16    0.70    2.48
   7   4  16    0.38    2.06
   0  -5 -16   -0.43    1.28
   0  -5  16    1.29    1.19
   0   5  16   -0.76    1.79
   0  -5  16    0.00    2.08
  -1   5  16   -0.34    2.10
   1   5 -16    1.43    1.55
  -1  -5 -16    0.52    1.32
   1  -5  16    1.16    2.15
   1   5  16    1.45    1.84
  -1  -5  16    1.37    1.36
   2  -5  16    0.86    1.90
  -2  -5 -16    3.18    1.44
  -2   5  16    4.06    2.49
   2  -5  16    4.69    2.19
   2   5 -16    2.34    1.65
   2   5  16    3.60    1.91
  -2  -5  16    2.69    1.64
   3  -5  16    0.42    1.82
   3  -5  16    0.88    2.02
  -3   5  16   -0.01    2.49
  -3  -5 -16    0.76    1.39
   3   5 -16    2.14    1.70
   3   5  16    1.95    1.82
  -3  -5  16    2.33    1.67
  -4  -5 -16    1.06    1.50
  -4   5  16    1.81    1.43
   4   5 -16   -1.64    1.59
   4  -5  16   -1.16    2.10
  -4  -5  16   -1.42    1.56
   4   5  16   -0.47    1.72
   4  -5 -16    1.43    1.98
  -5   5  16   -0.29    1.45
   5   5 -16   -1.21    1.78
  -5  -5 -16    2.76    1.61
  -5  -5  16    0.48    1.52
   5   5  16    1.89    1.88
   5  -5 -16    1.20    2.19
   6   5 -16    0.02    2.01
  -6   5  16   -1.09    1.56
  -6  -5 -16    0.54    1.65
   6   5  16    2.88    2.03
  -6  -5  16    0.55    1.51
  -6   5 -16   -1.29    1.76
   6  -5 -16   -0.91    2.31
  -7   5  16    2.45    1.80
   7   5 -16    5.53    2.40
  -7  -5 -16   -0.09    1.73
  -7   5 -16    0.36    1.95
   7  -5 -16    0.04    2.54
   7   5  16   -0.18    2.01
  -7  -5  16    2.56    1.77
   0   6 -16   24.76    2.70
   0  -6  16   26.14    2.48
   0  -6 -16   24.03    2.27
   0   6  16   27.62    3.28
   1  -6  16   -2.38    1.15
   1  -6  16    0.48    2.15
  -1  -6 -16    0.97    1.37
  -1   6  16   -1.30    2.17
   1  -6  16   -0.64    1.80
   1   6 -16   -1.50    1.41
  -1  -6  16    3.70    1.52
   1   6  16    0.66    1.87
  -2   6  16   19.31    3.50
   2  -6  16   24.64    2.98
   2   6 -16   29.99    2.85
  -2  -6 -16   20.51    2.23
   2   6  16   25.36    3.06
  -2  -6  16   26.86    2.86
  -3  -6 -16   14.36    1.89
   3   6 -16   15.11    2.35
   3  -6  16   17.97    2.77
  -3   6  16    9.55    3.17
   3   6  16    9.48    2.31
  -3  -6  16   16.75    2.46
  -4   6  16   37.17    3.07
  -4  -6 -16   29.66    2.66
   4  -6  16   26.75    3.46
   4   6 -16   32.15    3.27
   4  -6 -16   29.11    3.56
  -4  -6  16   30.20    3.23
   4   6  16   27.46    3.24
  -5   6  16    1.05    1.55
   5   6 -16   -2.77    1.66
   5  -6  16   -0.45    2.41
  -5  -6 -16    1.07    1.58
   5  -6 -16   -0.08    2.18
  -5  -6  16    1.11    1.47
   5   6  16   -0.42    1.82
   6  -6  16   15.77    3.24
  -6  -6 -16   13.77    2.14
  -6   6  16   15.01    2.33
   6   6 -16   12.43    2.67
  -6  -6  16   17.69    2.40
   6   6  16   12.98    2.56
   6  -6 -16   10.72    2.88
   0  -7  16   -2.85    1.22
   0  -7 -16   -4.11    1.38
   0   7  16   -4.13    1.89
   1  -7  16    1.38    1.37
   1   7 -16    0.15    1.52
  -1  -7 -16   -0.12    1.39
  -1   7  16    0.86    2.39
   1  -7  16    1.07    1.95
   1  -7 -16    1.02    1.48
   1   7  16    0.93    1.92
  -1  -7  16    1.30    1.47
   2  -7  16   -3.33    1.95
   2   7 -16    0.64    1.59
  -2  -7 -16   -0.06    1.49
  -2   7  16   -1.76    2.45
  -2  -7  16   -2.96    1.47
   2   7  16    0.40    1.93
   3   7 -16    0.36    1.70
  -3   7  16    0.37    2.81
  -3  -7 -16    0.21    1.47
   3  -7  16   -3.93    2.10
   3   7  16    0.06    1.82
  -3  -7  16    2.06    1.86
   4  -7  16    3.73    2.47
  -4  -7 -16    0.89    1.57
   4   7 -16    0.68    1.73
  -4  -7  16    2.18    1.81
   4   7  16    1.10    1.87
   4  -7 -16    2.33    2.25
   5   7 -16    0.36    1.91
  -5  -7 -16    1.34    1.62
  -5   7  16    1.24    1.63
   5  -7  16   -2.53    2.49
   5  -7 -16    3.32    2.30
  -5  -7  16    6.09    1.95
   5   7  16   -1.80    1.83
   6   7 -16   -0.68    2.03
  -6   7  16   -0.17    1.69
  -6  -7 -16    0.16    1.70
   6  -7  16   -3.68    2.66
   6  -7 -16   -0.82    2.34
  -6  -7  16   -0.54    1.71
   6   7  16    1.30    1.99
   0  -8  16   18.42    2.13
   0  -8 -16   14.10    2.07
   0   8  16   12.23    2.77
  -1  -8 -16    0.79    1.57
   1  -8  16    0.36    1.95
  -1   8  16   -4.68    2.19
  -1   8 -16    0.37    1.44
   1  -8 -16   -1.37    1.50
   1   8  16    1.46    2.15
  -1  -8  16    1.69    1.55
  -2  -8 -16    6.13    1.74
  -2   8  16    5.24    2.98
   2  -8  16    7.71    2.36
   2   8  16    3.63    2.17
  -2  -8  16   10.20    1.92
  -3   8  16   -3.53    2.76
   3   8 -16    1.13    1.68
   3  -8  16    1.57    2.27
  -3  -8 -16   -0.23    1.56
   3   8  16   -0.28    1.93
  -3  -8  16    2.17    1.63
  -4  -8 -16   12.34    2.00
   4  -8  16   13.06    2.93
   4   8 -16    9.87    2.21
   4   8  16    7.95    2.30
  -4  -8  16   12.47    2.47
   4  -8 -16   15.10    2.97
   5   8 -16    1.58    1.93
  -5  -8 -16    1.12    1.67
  -5   8  16    3.26    1.75
   5  -8  16    1.53    2.65
   5   8  16    0.30    1.96
  -5  -8  16    1.17    1.82
   5  -8 -16    0.84    2.52
   0  -9  16   -0.01    1.55
   0   9  16   -0.52    2.32
   0  -9 -16   -0.28    1.57
  -1   9  16    0.19    2.57
  -1  -9 -16    1.81    1.66
   1  -9 -16   -0.97    1.64
   1   9  16    3.08    2.19
  -1  -9  16    1.59    1.60
  -1   9 -16   -0.75    1.45
  -2   9  16    0.81    3.01
   2  -9  16   -0.81    2.10
  -2  -9 -16    1.18    1.64
  -2  -9  16    5.18    1.59
   2   9  16    0.63    2.05
  -2   9 -16    3.63    1.78
   3  -9  16    2.74    2.32
  -3  -9 -16    0.13    1.65
  -3   9  16    2.32    3.21
  -3  -9  16   -2.79    1.50
   3   9  16   -0.10    2.01
  -4  -9 -16    1.98    1.78
   4  -9  16   -1.92    2.37
   4  -9 -16    5.80    2.62
   4   9  16    1.36    2.02
  -4  -9  16    5.21    1.82
   5   9 -16   -2.41    1.87
   5  -9  16    2.43    2.73
  -5  -9 -16    0.87    1.78
   5   9  16   -4.00    1.93
  -5  -9  16    2.43    1.91
   0  10  16   16.73    3.27
   0 -10  16   18.82    2.38
   0 -10 -16   17.90    2.30
  -1  10  16   -0.78    2.86
  -1 -10 -16   -2.34    1.67
   1 -10 -16   -0.80    1.74
  -1 -10  16    1.30    1.65
   1  10  16   -0.57    2.37
  -1  10 -16    1.92    1.69
  -2  10  16   24.95    4.35
  -2 -10 -16   21.20    2.53
   2 -10  16   21.95    2.93
  -2  10 -16   23.94    2.85
   2  10  16   24.52    3.36
  -3 -10 -16    0.54    1.79
  -3  10  16   -2.39    3.29
   3 -10  16    4.83    2.39
  -3 -10  16    3.70    1.80
   3  10  16    2.32    2.29
  -4 -10 -16   10.48    2.16
   4 -10  16   23.49    3.22
  -4 -10  16   10.57    2.44
   4  10  16   12.77    2.68
   0  11  16    0.49    2.76
   0  11 -16    1.42    1.74
   0 -11 -16   -1.07    1.85
  -1 -11 -16   -2.95    1.73
  -1  11  16    3.89    3.32
  -1 -11  16   -0.21    1.57
  -1  11 -16    1.85    1.78
   1  11  16    1.11    2.60
   1 -11 -16   -0.03    1.90
   2 -11  16    3.45    2.19
  -2 -11 -16    1.55    1.88
  -2 -11  16    2.32    1.68
   2  11  16    4.61    2.61
  -2  11 -16    2.43    1.96
   0   0  17   -2.19    1.99
   1   0  17    2.57    1.95
  -1   0 -17   -0.05    1.26
  -1   0  17   -5.59    1.89
   2   0  17   -2.92    1.76
  -2   0 -17    1.21    1.37
  -2   0  17   -0.53    2.03
  -2   0  17   -0.80    1.21
  -3   0 -17    0.54    1.40
   3   0 -17   -0.99    1.58
  -3   0  17    0.54    1.35
   3   0  17    2.60    1.96
   4   0 -17    0.85    1.69
  -4   0  17    1.37    1.49
  -4   0 -17   -1.55    1.45
   4   0  17    3.16    2.02
   5   0 -17    2.27    1.90
  -5   0 -17   -0.74    1.61
   5   0  17    2.03    2.09
  -5   0  17    1.29    1.50
   6   0  17   -0.33    2.07
  -6   0 -17    2.66    1.73
   6   0 -17   -1.26    1.87
  -6   0  17    1.54    1.68
   7   0 -17   -1.02    2.13
  -7   0  17    0.73    1.76
  -7   0 -17   -1.74    1.78
   7   0  17    2.49    2.24
   0   1  17    1.72    2.01
   0  -1  17   -0.45    2.12
  -1  -1 -17    6.33    1.47
  -1   1  17    7.79    2.55
   1  -1  17    7.53    2.34
  -1   1 -17    5.70    1.51
  -1  -1  17    9.55    2.51
   1   1  17    4.28    2.05
  -2   1  17    7.13    2.43
   2  -1  17    6.91    2.08
  -2  -1 -17    4.94    1.49
  -2  -1  17    8.40    2.42
  -2  -1  17    4.03    1.49
   2   1  17    7.52    2.10
  -2   1 -17    7.07    1.56
  -3   1  17   21.76    2.20
   3  -1  17   18.46    2.65
  -3  -1 -17   15.50    1.97
   3   1 -17   19.35    2.65
   3  -1 -17   12.99    2.40
  -3   1 -17   15.97    2.03
   3   1  17   14.25    2.63
  -3  -1  17   18.49    2.19
   4   1 -17   -2.84    1.60
   4  -1  17    0.89    1.94
  -4  -1 -17    2.64    1.51
  -4   1  17    1.79    1.46
   4  -1 -17    1.23    1.76
  -4   1 -17   -0.15    1.49
  -4  -1  17    0.30    1.45
   4   1  17    2.60    2.02
  -5   1  17   26.14    2.63
   5  -1  17   24.68    3.19
   5   1 -17   26.91    3.22
  -5  -1 -17   27.60    2.59
  -5  -1  17   31.63    2.85
   5  -1 -17   27.11    3.25
   5   1  17   20.33    2.98
  -5   1 -17   19.99    2.51
  -6   1  17    1.30    1.64
  -6  -1 -17    1.02    1.68
   6   1 -17   -0.52    1.95
   6  -1  17    0.52    1.95
   6   1  17   -1.46    1.96
  -6   1 -17   -0.13    1.69
  -6  -1  17   -0.37    1.56
   6  -1 -17   -0.28    1.90
  -7  -1 -17   13.66    2.35
   7  -1  17   17.59    2.84
   7   1 -17   18.93    3.07
  -7   1  17   20.58    2.74
  -7  -1  17   24.79    2.89
  -7   1 -17   15.91    2.49
   7  -1 -17   17.56    3.16
   7   1  17   14.95    2.85
   0  -2  17    3.12    2.27
   0   2  17   -0.77    1.92
  -1  -2 -17    0.35    1.25
  -1   2  17    1.17    2.14
   1  -2  17    1.07    1.94
  -1  -2  17    0.56    2.22
  -1   2 -17    1.19    1.39
   1   2  17    1.88    1.90
   2   2 -17   -0.74    1.57
  -2  -2 -17    1.27    1.38
  -2   2  17   -1.16    2.20
   2  -2  17   -0.85    1.89
   2   2  17   -0.09    1.80
  -2  -2  17    0.20    1.32
  -2   2 -17    4.81    1.50
   3  -2  17    2.31    1.95
  -3  -2 -17    2.65    1.48
  -3   2  17    3.97    1.47
   3   2 -17    2.62    1.76
  -3   2 -17    2.62    1.56
   3  -2 -17    2.79    1.80
   3   2  17    2.50    1.96
  -3  -2  17    2.70    1.45
  -4  -2 -17    1.63    1.48
   4  -2  17   -0.72    1.90
  -4   2  17    1.89    1.37
   4   2 -17   -1.07    1.65
   4   2  17    0.19    1.92
   4  -2 -17    1.37    1.73
  -4  -2  17    1.66    1.60
  -4   2 -17    1.49    1.57
   5   2 -17    2.41    1.98
   5  -2  17   -1.04    1.91
  -5  -2 -17    0.34    1.54
  -5   2  17   -0.65    1.42
   5  -2 -17   -0.03    1.84
   5   2  17   -0.11    1.96
  -5  -2  17    0.27    1.28
  -5   2 -17   -0.77    1.67
  -6  -2 -17   -0.86    1.65
   6  -2  17    1.30    2.07
  -6   2  17   -0.06    1.59
   6   2 -17   -1.14    1.98
   6   2  17    4.75    2.24
  -6  -2  17   -0.43    1.58
   6  -2 -17    1.42    2.12
  -6   2 -17    4.22    1.88
  -7   2  17    6.25    2.00
   7   2 -17   10.82    2.63
   7  -2  17    6.17    2.40
  -7  -2 -17    6.07    1.98
   7   2  17    4.06    2.39
  -7  -2  17    3.60    1.96
  -7   2 -17    7.32    2.11
   7  -2 -17    2.48    2.34
   0  -3  17    1.01    2.27
   0  -3 -17    0.04    1.30
   0   3  17   -1.64    1.98
  -1  -3 -17   54.61    3.64
  -1   3  17   48.32    4.87
   1  -3  17   50.11    4.61
  -1  -3  17   56.26    4.79
  -1   3 -17   53.32    3.70
   1   3  17   51.74    4.38
  -1  -3  17   62.72    4.29
  -2   3  17   -3.11    2.14
   2  -3  17   -1.59    1.83
  -2  -3 -17    2.06    1.37
   2   3 -17    1.58    1.67
  -2  -3  17    0.93    1.45
  -2   3 -17   -0.79    1.40
   2   3  17    1.76    1.86
  -3  -3 -17   14.19    1.89
   3  -3  17   17.09    2.59
  -3   3  17   10.19    2.92
   3   3 -17   12.24    2.35
  -3   3 -17   13.95    2.04
  -3  -3  17   17.35    2.20
   3   3  17   15.95    2.51
   4  -3  17    2.87    2.03
  -4  -3 -17    0.61    1.47
  -4   3  17   -1.78    1.26
   4   3 -17   -1.27    1.67
  -4   3 -17   -0.59    1.66
   4   3  17    2.03    1.96
  -4  -3  17   -0.30    1.46
   4  -3 -17    4.54    2.05
   5   3 -17    8.80    2.32
  -5   3  17    7.25    1.87
   5  -3  17    6.81    2.32
  -5  -3 -17    6.46    1.81
  -5  -3  17    6.75    1.84
   5   3  17    8.30    2.37
   5  -3 -17   10.14    2.42
  -5   3 -17    7.88    2.00
   6   3 -17    0.40    2.03
  -6  -3 -17   -1.79    1.67
  -6   3  17    1.50    1.65
   6  -3  17   -1.55    2.02
  -6  -3  17   -0.35    1.37
  -6   3 -17    0.82    1.86
   6  -3 -17    2.65    2.16
   6   3  17   -1.01    1.98
   0   4  17   -2.33    1.93
   0  -4 -17    0.00    1.32
   0  -4  17   -0.91    2.19
   1  -4  17    7.77    2.52
  -1  -4 -17    4.67    1.51
  -1   4  17    3.71    2.42
   1   4 -17    6.97    1.93
   1   4  17    4.73    2.08
  -1   4 -17    3.72    1.53
  -1  -4  17    5.50    1.68
   2   4 -17    0.05    1.66
  -2   4  17   -3.47    2.28
  -2  -4 -17    1.46    1.38
   2  -4  17    4.41    2.11
  -2  -4  17    2.67    1.61
  -2   4 -17   -0.64    1.50
   2   4  17    0.94    1.90
  -3  -4 -17    1.79    1.46
   3   4 -17    3.75    1.80
   3  -4  17    0.81    1.92
  -3   4  17   -1.14    2.55
   3   4  17    2.37    1.97
  -3   4 -17    0.33    1.64
  -3  -4  17    1.32    1.46
   4   4 -17    0.46    1.78
   4  -4  17   -1.94    1.77
  -4   4  17   -2.14    1.28
  -4  -4 -17    3.74    1.62
   4  -4 -17    1.13    1.86
   4   4  17    0.59    1.85
  -4  -4  17   -2.06    1.40
  -4   4 -17    0.54    1.74
  -5   4  17   -1.63    1.42
   5   4 -17   -1.07    1.88
  -5  -4 -17   -0.65    1.54
  -5  -4  17   -1.33    1.40
   5  -4 -17   -2.63    1.92
  -5   4 -17   -2.00    1.75
   5   4  17   -0.47    1.88
  -6  -4 -17   -0.19    1.63
  -6   4  17    2.34    1.67
   6   4 -17    0.78    1.96
   6  -4 -17    3.82    2.46
  -6  -4  17   -0.60    1.53
   6   4  17   -1.23    2.03
  -6   4 -17    1.97    2.01
   0   5  17    0.56    2.10
   0  -5  17   -5.84    2.12
   0  -5  17    1.34    1.38
   0  -5 -17   -1.09    1.37
  -1   5  17   33.70    4.14
  -1  -5 -17   35.57    3.01
   1  -5  17   38.39    4.00
   1   5 -17   35.87    3.40
   1   5  17   36.27    3.83
  -1  -5  17   41.50    3.37
  -2  -5 -17    0.24    1.42
   2  -5  17   -2.65    2.00
   2   5 -17    0.38    1.60
  -2   5  17   -2.38    2.40
   2   5  17   -1.00    1.87
  -2   5 -17   -1.48    1.52
  -2  -5  17   -2.24    1.50
   3   5 -17   10.57    2.20
  -3   5  17   13.34    3.16
  -3  -5 -17   10.44    1.84
   3  -5  17   14.13    2.45
  -3   5 -17   15.04    2.10
  -3  -5  17   14.43    2.34
   3   5  17    7.22    2.21
   4   5 -17    1.15    1.79
  -4  -5 -17    0.51    1.58
   4  -5 -17    3.22    2.14
   4   5  17    0.86    1.88
  -4   5 -17    3.25    1.80
  -4  -5  17   -0.38    1.59
  -5   5  17    6.11    1.81
  -5  -5 -17    5.84    1.80
   5   5 -17    3.98    2.04
  -5  -5  17    3.91    1.66
  -5   5 -17    1.12    1.89
   5  -5 -17    2.62    2.40
   5   5  17    5.87    2.18
  -6  -5 -17    1.38    1.74
  -6   5  17   -1.93    1.55
   6   5 -17   -0.03    2.02
   6  -5 -17    0.81    2.41
  -6  -5  17   -0.62    1.42
  -6   5 -17   -2.20    1.92
   6   5  17   -2.67    1.87
   0  -6  17    0.17    1.32
   0   6 -17    1.82    1.64
   0   6  17    2.10    2.11
   0  -6 -17    0.06    1.43
   1   6 -17    0.77    1.64
   1  -6  17   -2.03    2.18
  -1   6  17   -1.65    2.31
  -1  -6 -17    1.81    1.50
   1   6  17    0.29    1.99
  -1  -6  17    0.99    1.49
   2   6 -17    1.30    1.67
  -2  -6 -17    2.24    1.52
  -2   6  17    6.10    2.81
   2  -6  17   -0.03    2.04
   2   6  17    0.30    1.95
  -2  -6  17    0.05    1.69
   3   6 -17   -0.84    1.66
  -3   6  17    1.33    2.86
   3  -6  17   -2.36    2.19
  -3  -6 -17    1.85    1.59
  -3  -6  17    0.29    1.78
   3   6  17   -0.64    1.96
   4   6 -17    1.38    1.85
  -4  -6 -17   -2.12    1.54
   4  -6  17   -1.37    2.41
  -4  -6  17   -2.44    1.55
   4   6  17   -0.20    1.84
   4  -6 -17    1.33    2.16
  -5  -6 -17   -0.68    1.66
   5   6 -17    0.82    1.89
  -5   6  17    2.62    1.67
  -5  -6  17    0.18    1.68
   5   6  17    2.60    2.12
   5  -6 -17    2.08    2.39
  -6   6  17   -0.75    1.70
   6   6 -17    2.23    2.19
  -6  -6 -17    0.37    1.76
  -6  -6  17    2.29    1.79
   6  -6 -17   -1.52    2.42
  -6   6 -17    1.55    2.02
   6   6  17   -2.03    1.92
   0  -7 -17   -0.94    1.52
   0   7  17    1.36    2.28
   0  -7  17    1.27    1.39
   1   7 -17   20.54    2.56
  -1   7  17   23.25    3.53
  -1  -7 -17   22.05    2.31
  -1  -7  17   18.36    2.39
   1   7  17   25.49    3.21
   2  -7  17    4.27    2.24
  -2   7  17    3.02    2.93
   2   7 -17    2.78    1.75
  -2  -7 -17   -1.04    1.56
   2   7  17    3.25    2.09
  -2  -7  17    2.13    1.76
  -3  -7 -17    1.12    1.62
   3  -7  17    2.53    2.41
   3   7 -17    1.54    1.78
  -3   7  17    1.88    2.93
  -3  -7  17    3.81    1.80
   3   7  17    0.78    2.01
  -4  -7 -17    0.78    1.64
   4  -7  17   -4.19    2.36
   4   7 -17    0.75    1.83
   4  -7 -17    4.71    2.46
  -4  -7  17   -0.71    1.70
   4   7  17   -2.73    1.80
   5  -7  17    4.17    2.75
   5   7 -17    3.82    2.10
  -5  -7 -17    0.84    1.72
   5   7  17   -0.66    1.95
  -5  -7  17    0.84    1.82
   5  -7 -17    3.87    2.61
   0  -8 -17    0.12    1.61
   0   8  17    1.20    2.30
   0  -8  17    1.06    1.52
  -1  -8 -17    0.76    1.64
  -1   8  17    0.96    2.69
  -1  -8  17    2.89    1.73
  -1   8 -17    4.28    1.69
   1   8  17   -1.87    2.03
  -2  -8 -17    1.03    1.63
  -2   8  17    4.60    3.12
   2  -8  17    0.22    2.18
  -2  -8  17    1.86    1.64
   2   8  17    0.57    2.14
  -3   8  17    0.04    3.22
  -3  -8 -17    6.47    1.82
   3  -8  17    4.05    2.48
   3   8 -17    3.49    1.87
   3   8  17    1.15    2.11
  -3  -8  17    5.72    2.07
  -4  -8 -17    1.51    1.71
   4   8 -17   -1.00    1.79
   4  -8  17   -0.40    2.51
   4   8  17    2.36    2.12
   4  -8 -17    4.55    2.59
  -4  -8  17    1.20    1.90
   0   9  17    2.09    2.53
   0  -9 -17   -0.44    1.67
   0  -9  17    1.46    1.64
  -1  -9 -17    3.63    1.84
  -1   9  17    2.38    2.96
  -1   9 -17    8.24    1.94
   1   9  17    7.55    2.62
  -1  -9  17    3.52    1.62
  -2  -9 -17   -3.03    1.68
  -2   9  17    0.06    3.12
   2  -9  17   -2.79    2.10
  -2  -9  17   -0.78    1.58
   2   9  17   -2.24    2.12
  -3  -9 -17   17.95    2.31
   3  -9  17   20.81    3.05
  -3   9  17   16.53    3.94
  -3  -9  17   14.06    2.52
   3   9  17   11.51    2.74
   0  10 -17    1.19    1.71
   0 -10 -17   -0.42    1.81
   0  10  17    0.10    2.67
  -1 -10 -17    0.79    1.85
  -1  10  17    0.34    3.16
  -1  10 -17    3.78    1.83
   1  10  17    1.69    2.58
  -1 -10  17    3.50    1.82
  -2 -10 -17    2.65    1.93
   2 -10  17    1.61    2.23
  -2  10  17    3.35    3.48
  -2 -10  17   -0.44    1.62
   2  10  17   -0.45    2.37
   0   0  18   15.31    2.83
   1   0  18    3.14    2.23
  -1   0  18   -3.28    2.14
  -1   0 -18    4.28    1.46
  -2   0 -18   14.24    1.94
   2   0  18   19.18    2.77
  -2   0  18   12.86    2.89
  -3   0 -18    7.67    1.78
  -3   0  18   12.83    1.97
   3   0 -18   10.74    2.24
   3   0  18    5.85    2.35
   4   0  18   15.88    2.77
   4   0 -18   19.10    2.77
  -4   0 -18   14.59    2.17
  -4   0  18   17.62    2.29
  -5   0 -18   -0.59    1.73
   5   0 -18    1.26    1.94
  -5   0  18    2.66    1.62
   5   0  18   -0.71    2.22
   6   0 -18   21.59    3.25
  -6   0 -18   25.78    2.77
   6   0  18   21.68    3.19
  -6   0  18   26.19    2.83
   0  -1  18   -2.00    2.13
   0   1  18    0.13    2.13
  -1  -1 -18    1.04    1.39
   1  -1  18    0.39    2.10
  -1   1  18   -2.47    2.14
   1   1  18    1.47    2.09
  -1   1 -18   -4.09    1.31
  -1  -1  18    3.96    2.47
  -2   1  18    3.27    2.45
  -2  -1 -18    3.77    1.52
   2  -1  18    0.41    2.11
  -2   1 -18    0.47    1.48
   2   1  18    0.30    1.99
   3  -1  18    5.39    2.24
  -3  -1 -18   -0.53    1.48
   3   1 -18    1.21    1.77
  -3  -1  18    2.98    1.66
  -3   1 -18    3.98    1.60
   3  -1 -18    2.28    1.88
   3   1  18   -0.61    2.02
  -4   1  18    2.71    1.54
  -4  -1 -18   -3.03    1.48
   4   1 -18    0.34    1.80
   4  -1  18   -1.09    2.02
   4   1  18   -1.68    2.01
  -4  -1  18    0.06    1.42
  -4   1 -18    2.84    1.73
   4  -1 -18   -0.88    1.68
  -5  -1 -18   -1.05    1.62
   5  -1  18   -0.03    2.17
  -5   1  18    1.78    1.55
   5   1 -18   -0.36    1.91
  -5   1 -18    2.61    1.80
   5   1  18    1.01    2.15
   5  -1 -18    1.21    2.02
  -5  -1  18    0.59    1.46
   6  -1  18    0.32    2.29
  -6   1  18    0.22    1.53
  -6  -1 -18   -2.24    1.74
   6   1 -18   -1.12    2.03
   6  -1 -18   -0.09    2.07
  -6  -1  18   -3.02    1.39
  -6   1 -18    5.05    2.00
   6   1  18    0.84    2.28
   0  -2  18    5.09    2.60
   0   2  18   14.55    2.71
  -1  -2 -18   -0.89    1.37
   1  -2  18    0.64    2.23
  -1   2  18    3.18    2.39
  -1  -2  18    4.40    2.49
   1   2  18    4.14    2.13
  -2  -2 -18   14.29    1.93
   2  -2  18   16.09    2.71
   2   2 -18   11.70    2.40
  -2   2  18    9.85    2.88
  -2  -2  18   20.35    2.31
   2   2  18   16.93    2.77
  -2   2 -18   16.60    2.08
   3   2 -18    2.22    1.80
   3  -2  18    1.20    2.08
  -3  -2 -18    0.86    1.51
   3   2  18    2.04    2.11
  -3  -2  18   -0.11    1.43
   3  -2 -18    1.35    1.71
  -3   2 -18    1.57    1.61
   4  -2  18    6.37    2.32
  -4   2  18   10.23    1.97
   4   2 -18    8.80    2.22
  -4  -2 -18    5.85    1.79
  -4   2 -18    7.70    1.90
   4   2  18    3.61    2.23
   4  -2 -18    7.52    2.26
  -4  -2  18    6.74    1.78
  -5   2  18    2.99    1.66
   5   2 -18   -0.43    1.88
   5  -2  18    2.40    2.19
  -5  -2 -18    3.96    1.77
   5   2  18   -1.11    2.12
  -5  -2  18   -0.34    1.56
   5  -2 -18    0.27    2.01
  -5   2 -18    2.06    1.88
   6  -2  18   -2.32    2.08
  -6   2  18    1.77    1.75
  -6  -2 -18    5.32    1.90
   6   2 -18    2.86    2.25
  -6  -2  18    2.75    1.76
  -6   2 -18    4.64    2.10
   6  -2 -18    0.82    2.14
   6   2  18   -0.59    2.22
   0   3  18   -1.65    2.03
   0  -3  18   -0.48    2.29
  -1  -3 -18   19.08    2.05
  -1   3  18   15.33    3.08
   1  -3  18   22.52    3.13
  -1  -3  18   14.17    3.01
   1   3  18   12.72    2.70
  -2   3  18    2.22    2.60
   2  -3  18    4.95    2.33
   2   3 -18    1.23    1.77
  -2  -3 -18    3.10    1.52
  -2  -3  18    0.04    1.56
  -2   3 -18    1.36    1.51
   2   3  18   -1.11    1.95
   3  -3  18    0.39    2.00
  -3  -3 -18   -0.01    1.47
   3   3 -18    0.70    1.72
   3   3  18    1.43    2.00
  -3   3 -18   -4.09    1.52
  -3  -3  18    2.52    1.62
   4  -3  18    3.30    2.10
  -4  -3 -18    2.18    1.62
   4   3 -18    0.85    1.90
   4   3  18    0.29    2.05
  -4  -3  18    1.36    1.48
   4  -3 -18    0.09    1.88
  -4   3 -18   -0.24    1.79
   5   3 -18    1.72    2.07
   5  -3  18   -0.79    2.01
  -5   3  18    2.41    1.64
  -5  -3 -18    3.70    1.73
   5  -3 -18    1.58    2.04
   5   3  18    1.27    2.11
  -5   3 -18    1.25    1.95
  -5  -3  18    1.26    1.47
   6   3 -18   -4.75    1.84
  -6   3  18    2.04    1.71
  -6  -3 -18   -1.21    1.71
  -6   3 -18    1.73    2.05
   6   3  18    1.31    2.22
   6  -3 -18   -1.03    2.20
  -6  -3  18    1.27    1.71
   0   4  18   15.88    3.01
   0  -4  18   18.90    3.11
  -1   4  18   -1.17    2.35
   1  -4  18    3.30    2.43
  -1  -4 -18   -0.05    1.44
   1   4 -18    2.14    1.76
   1   4  18    0.19    2.04
  -2   4  18   14.22    3.18
   2  -4  18   13.56    2.75
   2   4 -18   12.45    2.34
  -2  -4 -18    9.85    1.84
   2   4  18    8.03    2.42
  -2   4 -18   12.92    2.05
  -2  -4  18   16.88    2.34
  -3   4  18   -1.62    2.59
   3   4 -18   -1.11    1.71
   3  -4  18    1.26    2.13
  -3  -4 -18    0.28    1.57
   3   4  18    1.62    2.07
  -3   4 -18    0.99    1.71
  -3  -4  18    3.19    1.81
  -4  -4 -18   12.75    2.03
   4  -4  18   11.35    2.42
   4   4 -18   13.52    2.46
  -4   4 -18   13.63    2.24
   4   4  18   10.51    2.59
   4  -4 -18   15.32    2.73
  -4  -4  18   13.56    2.34
  -5   4  18    1.97    1.59
  -5  -4 -18   -0.27    1.63
   5   4 -18    3.82    2.12
  -5   4 -18    0.50    1.88
   5  -4 -18    4.54    2.24
   5   4  18   -0.51    2.04
  -5  -4  18    1.97    1.66
   0   5  18   -0.10    2.18
   0  -5  18   -1.02    2.37
  -1  -5 -18    0.06    1.48
  -1   5  18   -1.32    2.31
   1  -5  18   -0.17    2.33
   1   5 -18   -0.33    1.69
  -1  -5  18   -1.51    1.48
   1   5  18    1.09    2.20
  -2  -5 -18    0.10    1.52
   2   5 -18    0.48    1.75
  -2   5  18   -0.77    2.60
   2  -5  18   -3.41    2.14
  -2   5 -18    1.83    1.70
   2   5  18   -5.55    1.78
  -2  -5  18    1.79    1.78
  -3   5  18   -0.84    2.71
  -3  -5 -18    1.45    1.59
   3   5 -18    1.51    1.82
  -3  -5  18    2.16    1.96
  -3   5 -18   -1.00    1.66
   3   5  18    0.28    2.04
   4   5 -18    1.31    1.89
  -4  -5 -18   -2.40    1.61
  -4  -5  18   -0.23    1.57
   4   5  18    0.08    2.04
  -4   5 -18    3.92    2.00
   4  -5 -18    2.68    2.13
  -5  -5 -18    0.47    1.73
   5   5 -18    3.20    2.11
   5   5  18    0.05    2.05
   5  -5 -18    2.02    2.40
  -5  -5  18    2.93    1.83
  -5   5 -18   -0.41    1.98
   0   6 -18    6.64    1.97
   0   6  18    7.47    2.53
   1   6 -18   -1.53    1.63
  -1  -6 -18    1.70    1.62
  -1   6  18    0.66    2.65
  -1  -6  18    1.70    1.73
   1   6  18    0.85    2.16
   2   6 -18   12.26    2.27
  -2   6  18   14.87    3.43
  -2  -6 -18   13.61    2.03
  -2  -6  18   18.91    2.54
  -2   6 -18   13.13    2.07
   2   6  18    8.95    2.58
   3   6 -18   -1.21    1.77
  -3   6  18    6.27    3.17
  -3  -6 -18    1.49    1.64
  -3  -6  18    3.09    1.87
   3   6  18    3.75    2.19
  -3   6 -18    1.20    1.73
  -4  -6 -18   17.95    2.34
   4   6 -18   21.47    2.91
  -4  -6  18   15.93    2.72
   4   6  18   20.22    2.98
  -4   6 -18   18.22    2.46
   4  -6 -18   24.39    3.42
  -5  -6 -18    1.32    1.77
   5   6 -18    1.79    2.01
  -5   6 -18    1.32    1.96
  -5  -6  18    0.21    1.73
   5  -6 -18   -0.17    2.40
   5   6  18    0.69    2.24
   0   7  18    0.95    2.39
   0  -7  18   -0.92    1.39
  -1  -7 -18    3.16    1.68
  -1   7  18   -0.53    2.69
  -1  -7  18    1.52    1.68
   1   7  18    1.23    2.30
   2   7 -18    0.62    1.77
   2  -7  18   -1.19    2.20
  -2   7  18   -2.28    2.81
  -2  -7 -18    1.77    1.69
  -2  -7  18   -3.63    1.56
   2   7  18   -0.40    2.14
  -3   7  18    0.97    3.14
   3  -7  18    1.17    2.49
   3   7 -18    4.21    1.96
  -3  -7 -18    2.42    1.76
   3   7  18    2.96    2.24
  -3  -7  18    4.55    1.97
   4  -7  18   -0.23    2.63
  -4  -7 -18    2.35    1.81
   4   7 -18   -1.77    1.78
   4   7  18    1.35    2.21
   4  -7 -18    2.92    2.52
  -4  -7  18    2.34    1.96
   0  -8  18    7.03    1.79
   0   8  18    6.72    2.85
   0  -8 -18    5.60    1.90
  -1  -8 -18   -1.45    1.70
  -1   8  18   -0.82    2.81
  -1  -8  18   -0.09    1.71
   1   8  18    1.30    2.41
  -2  -8 -18   11.08    2.09
  -2   8  18   16.28    3.83
   2   8  18    6.93    2.64
  -2  -8  18   18.11    2.50
  -3   8  18   -3.98    3.14
  -3  -8 -18    3.16    1.88
   3  -8  18   -2.57    2.40
  -3  -8  18    1.07    1.84
   3   8  18    2.48    2.34
   0   9  18   -3.75    2.52
   0  -9 -18    2.65    1.87
   0  -9  18    0.55    1.73
  -1  -9 -18    0.91    1.86
  -1   9  18    3.46    3.24
   1   9  18    5.73    2.72
  -1  -9  18    1.11    1.57
  -2  -9 -18   -0.39    1.85
  -2   9  18    2.49    3.33
   2   9  18    1.22    2.46
  -2  -9  18   -0.63    1.62
   0   0  19   -0.67    2.33
   1   0  19   -2.84    2.16
  -1   0  19   -0.54    2.45
  -2   0 -19   -0.81    1.54
   2   0  19   -0.63    2.22
  -2   0  19    1.35    2.58
   3   0 -19    1.33    1.89
  -3   0 -19   -1.02    1.58
   3   0  19   -1.67    2.13
   4   0 -19    1.65    1.93
  -4   0 -19    2.37    1.76
  -4   0  19    1.58    1.53
   4   0  19    2.96    2.38
   5   0  19    0.43    2.35
  -5   0 -19   -0.81    1.81
  -5   0  19    0.68    1.52
   5   0 -19   -0.61    1.94
   0   1  19   -1.66    2.32
   0  -1  19    0.08    2.43
   1  -1  19   25.66    3.54
  -1   1  19   27.24    3.63
   1   1  19   26.25    3.43
  -1  -1  19   20.89    3.41
  -2   1  19    1.56    2.51
   2  -1  19    0.02    2.18
  -2  -1 -19   -1.25    1.50
   2   1 -19   -0.71    1.79
  -2   1 -19   -0.19    1.58
   2   1  19    0.37    2.11
   3   1 -19    3.58    2.07
   3  -1  19    8.53    2.57
  -3  -1 -19    7.39    1.80
  -3   1 -19    6.19    1.88
   3   1  19    6.99    2.50
   3  -1 -19    6.24    2.14
  -4  -1 -19    3.07    1.75
   4   1 -19   -0.64    1.86
   4  -1  19    2.24    2.32
  -4  -1  19   -1.11    1.45
   4  -1 -19   -0.13    1.86
  -4   1 -19   -1.00    1.77
   4   1  19   -1.74    2.19
   5  -1  19    0.69    2.36
   5   1 -19    1.13    2.05
  -5  -1 -19    0.70    1.85
  -5   1  19   -0.60    1.52
   5  -1 -19    2.18    2.16
  -5  -1  19    3.20    1.70
  -5   1 -19    0.05    1.89
   5   1  19    1.18    2.38
   0   2  19    3.82    2.52
   0  -2  19    6.65    2.57
   1  -2  19    4.37    2.66
  -1   2  19    1.09    2.52
  -1  -2  19   -3.42    2.41
   1   2  19    0.48    2.29
   2   2 -19    0.34    1.88
   2  -2  19    0.84    2.31
  -2  -2 -19    2.09    1.57
  -2   2  19    0.49    2.58
   2   2  19    1.62    2.30
  -2   2 -19    2.42    1.65
   3   2 -19    5.14    2.02
   3  -2  19    2.50    2.28
  -3  -2 -19    4.92    1.75
  -3   2 -19    1.50    1.79
   3   2  19    2.53    2.28
  -3  -2  19    6.76    1.91
   3  -2 -19    3.64    2.01
   4  -2  19    1.56    2.22
   4   2 -19   -0.45    1.93
  -4  -2 -19    1.29    1.70
  -4   2 -19   -1.61    1.82
   4   2  19    1.30    2.32
   4  -2 -19    0.80    1.97
  -4  -2  19    0.31    1.48
  -5   2  19    0.23    1.62
   5   2 -19    0.69    2.00
   5  -2  19   -0.08    2.34
  -5  -2 -19   -0.41    1.77
   5  -2 -19   -2.40    1.87
   5   2  19    1.12    2.28
  -5   2 -19   -1.52    1.93
  -5  -2  19   -0.04    1.58
   0   3  19    0.29    2.26
   0  -3  19    1.96    2.52
   1  -3  19    8.87    2.98
  -1  -3 -19    6.26    1.73
  -1   3  19    4.30    2.73
   1   3  19   14.35    2.76
  -1  -3  19   12.21    3.08
  -2   3  19    1.35    2.65
   2   3 -19   -2.09    1.70
   2  -3  19   -0.90    2.31
  -2  -3 -19    2.09    1.60
   2   3  19    0.91    2.17
  -2   3 -19    0.82    1.71
   3  -3  19   17.06    2.90
   3   3 -19   17.46    2.66
  -3  -3 -19   11.72    2.06
  -3   3 -19   17.89    2.31
   3   3  19    8.12    2.67
  -3  -3  19   15.52    2.39
   3  -3 -19   17.60    2.77
   4   3 -19   -0.79    1.90
   4  -3  19    0.41    2.26
  -4  -3 -19    1.57    1.72
   4   3  19    1.85    2.29
  -4  -3  19   -1.17    1.56
   4  -3 -19   -0.47    1.97
  -4   3 -19    1.06    1.87
   5   3 -19   12.62    2.67
   5  -3  19   13.13    2.73
  -5  -3 -19   10.31    2.13
   5  -3 -19   11.59    2.66
   5   3  19   10.91    2.91
  -5  -3  19   14.62    2.42
  -5   3 -19   12.76    2.34
   0   4  19   -1.03    2.35
   0  -4  19    0.79    2.55
   1   4 -19    0.24    1.85
  -1   4  19    0.45    2.56
   1  -4  19   -1.19    2.49
  -1  -4 -19    1.56    1.56
   1   4  19   -2.38    2.09
   2  -4  19    0.54    2.41
  -2  -4 -19   -0.49    1.55
  -2   4  19    3.68    2.84
   2   4 -19    2.06    1.91
   2   4  19   -0.37    2.03
  -2  -4  19    2.48    1.94
   3   4 -19    0.32    1.89
  -3  -4 -19   -1.29    1.64
   3  -4  19   -2.34    2.16
   3   4  19    1.83    2.23
  -3  -4  19   -0.38    1.90
  -3   4 -19   -0.60    1.76
   4   4 -19    1.34    2.06
  -4  -4 -19    0.17    1.75
   4   4  19    0.52    2.18
  -4  -4  19    3.90    1.83
  -4   4 -19    2.49    2.01
   4  -4 -19    5.83    2.38
   0   5  19   -2.68    2.31
   1   5 -19   -1.65    1.69
  -1   5  19    0.58    2.67
  -1  -5 -19   -0.32    1.62
   1  -5  19    2.77    2.60
   1   5  19    3.08    2.41
  -2   5  19    1.47    2.85
   2   5 -19    2.05    1.92
  -2  -5 -19    1.04    1.64
   2  -5  19   -1.70    2.30
   2   5  19   -1.14    2.12
  -2  -5  19    1.04    1.93
  -3   5  19   11.20    3.37
  -3  -5 -19   17.15    2.25
   3   5 -19   17.98    2.70
   3   5  19    9.84    2.75
  -3  -5  19   23.28    2.96
  -3   5 -19   15.04    2.34
  -4  -5 -19   -1.18    1.71
   4   5 -19    0.01    1.97
   4   5  19   -0.30    2.16
  -4  -5  19   -1.84    1.72
  -4   5 -19   -5.49    1.83
   4  -5 -19    3.06    2.30
   0   6 -19    1.25    1.87
   0   6  19    1.37    2.46
   1   6 -19    0.45    1.83
  -1   6  19   -0.61    2.73
  -1  -6 -19   -0.39    1.66
   1   6  19    1.07    2.38
  -2   6  19   -2.37    2.87
  -2  -6 -19    1.80    1.72
   2   6 -19    1.35    1.86
  -2  -6  19    1.80    1.79
   2   6  19   -0.74    2.21
  -3  -6 -19   -3.11    1.62
  -3   6  19    0.89    3.11
   3   6 -19    1.25    1.92
   3   6  19   -1.31    2.14
  -3   6 -19    2.09    1.93
  -3  -6  19    1.08    1.79
   0   7  19    0.05    2.62
  -1   7  19    0.14    2.93
  -1  -7 -19    1.82    1.82
   1   7  19    7.20    2.67
  -1  -7  19   -0.58    1.71
  -2   7  19   -6.53    2.77
   2   7 -19    1.58    1.90
  -2  -7 -19   -1.73    1.76
  -2  -7  19   -0.65    1.63
   2   7  19   -1.13    2.33
   0   8  19   -0.09    2.73
  -1   8  19   -0.37    3.02
  -1  -8 -19   -1.33    1.80
   1   8  19    3.26    2.73
   0   0  20    5.10    2.81
  -1   0  20   -5.78    2.40
   1   0  20   -1.81    2.44
   2   0  20   10.65    2.80
  -2   0 -20   12.35    2.07
   3   0  20   -0.56    2.47
   3   0 -20   -0.12    2.00
  -3   0 -20   -1.73    1.73
   4   0 -20    6.27    2.31
   4   0  20    9.04    2.85
  -4   0 -20    4.91    2.02
   0   1  20   -0.20    2.61
   0  -1  20    0.47    2.58
  -1   1  20    1.08    2.66
   1  -1  20   -0.35    2.53
   1   1  20   -4.21    2.26
  -1  -1  20   -1.46    2.59
   2  -1  20    5.92    2.78
  -2  -1 -20   -3.82    1.57
   2   1 -20    3.13    2.07
  -2   1  20   -3.70    2.52
   2   1  20    0.79    2.49
   3  -1  20    3.55    2.46
  -3  -1 -20   -1.50    1.73
   3   1 -20   -0.47    1.92
  -3   1 -20    0.42    1.83
   3  -1 -20   -1.44    1.88
   3   1  20    6.02    2.63
   4  -1  20   -3.30    2.32
   4   1 -20    1.09    2.03
  -4  -1 -20    0.65    1.84
   4   1  20    2.48    2.55
  -4   1 -20    0.77    1.96
   4  -1 -20    1.63    2.15
   0  -2  20    4.26    2.89
   0   2  20    4.40    2.80
  -1   2  20    0.20    2.56
   1  -2  20   -5.01    2.39
   1   2  20    0.10    2.45
  -1  -2  20   -1.87    2.52
  -2  -2 -20    4.18    1.77
   2   2 -20    4.85    2.12
   2  -2  20    2.58    2.62
  -2   2  20    4.59    2.86
   2   2  20    4.52    2.57
   3  -2  20    2.69    2.47
  -3  -2 -20    2.40    1.77
   3   2 -20    1.57    2.03
  -3   2 -20   -0.30    1.84
   3   2  20   -1.23    2.31
   3  -2 -20    0.31    1.94
  -4  -2 -20   13.36    2.21
   4  -2  20   11.66    2.89
  -4   2 -20    9.57    2.27
   4   2  20   10.97    2.76
   0  -3  20   -0.50    2.64
   0   3  20    0.95    2.51
  -1   3  20    2.71    2.87
   1   3 -20    4.19    2.12
   1  -3  20    1.14    2.70
   1   3  20    8.14    2.74
   2   3 -20    0.08    2.00
  -2  -3 -20   -0.44    1.65
   2  -3  20   -0.47    2.46
  -2   3  20    0.17    2.77
   2   3  20   -1.00    2.25
   3   3 -20    0.83    2.03
  -3  -3 -20    0.38    1.79
   3  -3  20    0.69    2.48
   3  -3 -20    2.93    2.11
  -3   3 -20    1.45    1.94
   3   3  20   -2.91    2.24
   0   4  20   31.14    4.25
   0  -4  20   31.81    4.03
   1  -4  20    6.57    2.82
  -1   4  20    2.44    2.82
   1   4 -20   -4.59    1.85
   1   4  20    0.75    2.38
  -2   4  20   10.79    3.36
   2  -4  20   10.52    2.88
  -2  -4 -20   10.36    2.04
   2   4 -20   11.02    2.42
   2   4  20    9.42    2.89
  -3  -4 -20    1.23    1.84
   3   4 -20   -0.35    1.95
   3  -4  20   -0.05    2.47
  -3   4 -20    2.51    1.99
  -3  -4  20    1.09    1.73
   3   4  20   -0.43    2.30
   3  -4 -20    5.06    2.31
   0   5  20   -0.24    2.56
   0   5 -20    1.18    1.94
   1   5 -20    4.71    2.18
  -1   5  20    2.60    3.00
   1  -5  20    0.78    2.73
   1   5  20   -0.59    2.48
  -2  -5 -20    0.56    1.75
  -2   5  20   -0.19    2.97
   2   5 -20   -1.80    1.87
   2   5  20   -1.03    2.38
   0   6  20   12.85    3.30
   1   6 -20   -0.61    1.95
  -1   6  20   -0.12    2.89
   1   6  20    3.92    2.66
   0   0  21   -2.77    2.65
   1   0  21    1.69    2.95
  -1   0  21    1.21    2.88
   2   0 -21    3.18    2.17
   2   0  21   -1.77    2.60
   0  -1  21    1.62    2.93
   0   1  21    6.37    2.99
   1  -1  21    5.68    2.99
  -1   1  21    0.29    2.89
   1   1  21    3.55    2.90
  -1  -1  21    0.29    2.86
   2   1 -21    4.05    2.21
  -2   1  21   -1.17    2.77
   2  -1  21    4.58    2.87
   2   1  21    0.50    2.54
   0   2  21    1.65    2.93
   0  -2  21   -1.94    2.70
  -1   2  21   -1.93    2.77
   1  -2  21   -0.59    2.77
  -1  -2  21    6.76    2.93
   1   2  21   -0.73    2.67
   0   3  21    1.40    2.96
   0  -3  21    3.11    2.98
   1  -3  21    3.35    3.08
  -1   3  21    3.52    3.05
   1   3  21    2.45    2.72
   0   0   0    0.00    0.00
;
_shelx_hkl_checksum              50813
loop_
_symmetry_equiv_pos_as_xyz
'x, y, z'
'-x+1/2, -y, z+1/2'
'-x, y+1/2, -z+1/2'
'x+1/2, -y+1/2, -z'
'-x, -y, -z'
'x-1/2, y, -z-1/2'
'x, -y-1/2, z-1/2'
'-x-1/2, y-1/2, z'
loop_
_atom_site_label
_atom_site_type_symbol
_atom_site_fract_x
_atom_site_fract_y
_atom_site_fract_z
_atom_site_U_iso_or_equiv
_atom_site_adp_type
_atom_site_occupancy
_atom_site_site_symmetry_order
_atom_site_calc_flag
_atom_site_refinement_flags_posn
_atom_site_refinement_flags_adp
_atom_site_refinement_flags_occupancy
_atom_site_disorder_assembly
_atom_site_disorder_group
Sr Sr 0.5000 0.0000 0.5000 0.03386(12) Uani 1 2 d S . P . .
S S 0.59844(9) 0.41116(6) 0.73368(5) 0.0538(2) Uani 1 1 d . . . . .
N1 N 0.3887(2) 0.40935(15) 0.62953(12) 0.0327(5) Uani 1 1 d . . . . .
N3 N 0.4930(2) 0.26373(16) 0.65540(13) 0.0366(5) Uani 1 1 d . . . . .
O1 O 0.4354(2) 0.13241(14) 0.58517(12) 0.0508(6) Uani 1 1 d . . . . .
O2 O 0.2119(2) 0.42187(14) 0.54013(12) 0.0537(6) Uani 1 1 d . . . . .
C2 C 0.4869(3) 0.3583(2) 0.66955(15) 0.0347(6) Uani 1 1 d . . . . .
C4 C 0.4135(3) 0.21872(19) 0.59603(16) 0.0370(7) Uani 1 1 d . . . . .
C5 C 0.3179(3) 0.27386(19) 0.55702(17) 0.0414(7) Uani 1 1 d . . . . .
H5 H 0.2632 0.2460 0.5183 0.050 Uiso 1 1 calc R U . . .
C6 C 0.2993(3) 0.36838(19) 0.57248(16) 0.0359(6) Uani 1 1 d . . . . .
C7 C 0.3698(3) 0.51164(18) 0.64487(18) 0.0432(7) Uani 1 1 d . . . . .
H7A H 0.4010 0.5256 0.6976 0.052 Uiso 1 1 calc R U . . .
H7B H 0.2707 0.5269 0.6417 0.052 Uiso 1 1 calc R U . . .
C8 C 0.4496(4) 0.5731(2) 0.5882(2) 0.0613(9) Uani 1 1 d . . . . .
H8A H 0.4339 0.6383 0.6006 0.074 Uiso 1 1 calc R U . . .
H8B H 0.5481 0.5593 0.5919 0.074 Uiso 1 1 calc R U . . .
H8C H 0.4178 0.5607 0.5359 0.074 Uiso 1 1 calc R U . . .
C9 C 0.5828(3) 0.2013(2) 0.70507(18) 0.0512(8) Uani 1 1 d . . . . .
H9A H 0.5373 0.1404 0.7108 0.061 Uiso 1 1 calc R U . . .
H9B H 0.5915 0.2290 0.7567 0.061 Uiso 1 1 calc R U . . .
C10 C 0.7263(3) 0.1869(3) 0.6715(2) 0.0694(10) Uani 1 1 d . . . . .
H10A H 0.7797 0.1465 0.7054 0.083 Uiso 1 1 calc R U . . .
H10B H 0.7186 0.1582 0.6208 0.083 Uiso 1 1 calc R U . . .
H10C H 0.7728 0.2468 0.6668 0.083 Uiso 1 1 calc R U . . .
O O 0.3819(3) 0.0691(2) 0.38105(16) 0.0756(8) Uani 1 1 d D . . . .
H1 H 0.439(3) 0.082(3) 0.3486(19) 0.091 Uiso 1 1 d D U . . .
H2 H 0.3019(17) 0.076(3) 0.368(2) 0.091 Uiso 1 1 d D U . . .
loop_
_atom_site_aniso_label
_atom_site_aniso_U_11
_atom_site_aniso_U_22
_atom_site_aniso_U_33
_atom_site_aniso_U_23
_atom_site_aniso_U_13
_atom_site_aniso_U_12
Sr 0.0340(2) 0.02556(18) 0.0420(2) 0.00085(17) 0.00607(18) -0.00127(16)
S 0.0446(4) 0.0665(6) 0.0504(5) -0.0185(4) -0.0134(4) -0.0015(4)
N1 0.0309(12) 0.0283(12) 0.0390(13) -0.0056(10) -0.0032(10) 0.0029(10)
N3 0.0348(13) 0.0358(13) 0.0393(13) -0.0008(11) -0.0062(11) 0.0077(11)
O1 0.0593(14) 0.0305(12) 0.0627(14) -0.0096(10) -0.0010(12) 0.0064(10)
O2 0.0509(13) 0.0436(12) 0.0666(14) -0.0022(11) -0.0241(12) 0.0134(11)
C2 0.0301(15) 0.0381(16) 0.0360(15) -0.0040(12) 0.0007(12) 0.0003(13)
C4 0.0382(16) 0.0313(16) 0.0416(17) -0.0061(13) 0.0021(13) -0.0002(13)
C5 0.0460(18) 0.0349(16) 0.0432(17) -0.0078(13) -0.0147(14) 0.0017(14)
C6 0.0306(15) 0.0366(16) 0.0407(16) -0.0010(13) -0.0062(13) 0.0020(13)
C7 0.0522(19) 0.0273(16) 0.0500(18) -0.0127(13) -0.0009(15) 0.0073(13)
C8 0.071(2) 0.0363(18) 0.077(2) -0.0031(17) 0.003(2) -0.0080(17)
C9 0.053(2) 0.0474(19) 0.053(2) 0.0100(15) -0.0058(16) 0.0102(16)
C10 0.048(2) 0.069(3) 0.091(3) 0.011(2) -0.007(2) 0.0130(18)
O 0.0596(17) 0.101(2) 0.0660(18) 0.0264(16) -0.0002(14) 0.0162(17)
loop_
_atom_type_symbol
_atom_type_description
_atom_type_scat_dispersion_real
_atom_type_scat_dispersion_imag
_atom_type_scat_source
C C 0.0033 0.0016 'International Tables Vol C Tables 4.2.6.8 and 6.1.1.4'
H H 0.0000 0.0000 'International Tables Vol C Tables 4.2.6.8 and 6.1.1.4'
N N 0.0061 0.0033 'International Tables Vol C Tables 4.2.6.8 and 6.1.1.4'
O O 0.0106 0.0060 'International Tables Vol C Tables 4.2.6.8 and 6.1.1.4'
S S 0.1246 0.1234 'International Tables Vol C Tables 4.2.6.8 and 6.1.1.4'
Sr Sr -1.5307 3.2498 'International Tables Vol C Tables 4.2.6.8 and 6.1.1.4'
loop_
_geom_angle_atom_site_label_1
_geom_angle_atom_site_label_2
_geom_angle_atom_site_label_3
_geom_angle
_geom_angle_site_symmetry_1
_geom_angle_site_symmetry_3
O2 Sr O2 180.0 8_655 4_556
O2 Sr O1 91.64(7) 8_655 5_656
O2 Sr O1 88.36(7) 4_556 5_656
O2 Sr O1 88.36(7) 8_655 .
O2 Sr O1 91.64(7) 4_556 .
O1 Sr O1 180.0 5_656 .
O2 Sr O 88.07(8) 8_655 5_656
O2 Sr O 91.93(8) 4_556 5_656
O1 Sr O 94.01(9) 5_656 5_656
O1 Sr O 85.99(9) . 5_656
O2 Sr O 91.93(8) 8_655 .
O2 Sr O 88.07(8) 4_556 .
O1 Sr O 85.99(9) 5_656 .
O1 Sr O 94.01(9) . .
O Sr O 180.0 5_656 .
C2 N1 C6 122.6(2) . .
C2 N1 C7 120.8(2) . .
C6 N1 C7 116.6(2) . .
C2 N3 C4 123.1(2) . .
C2 N3 C9 120.4(2) . .
C4 N3 C9 116.5(2) . .
C4 O1 Sr 151.05(19) . .
C6 O2 Sr 164.2(2) . 4_456
N3 C2 N1 117.4(2) . .
N3 C2 S 121.3(2) . .
N1 C2 S 121.2(2) . .
O1 C4 C5 126.4(3) . .
O1 C4 N3 117.1(2) . .
C5 C4 N3 116.5(2) . .
C4 C5 C6 123.1(3) . .
O2 C6 C5 126.1(3) . .
O2 C6 N1 117.0(2) . .
C5 C6 N1 116.9(2) . .
N1 C7 C8 112.9(2) . .
N3 C9 C10 112.7(3) . .
loop_
_geom_bond_atom_site_label_1
_geom_bond_atom_site_label_2
_geom_bond_distance
_geom_bond_site_symmetry_2
Sr O2 2.4026(19) 8_655
Sr O2 2.4026(19) 4_556
Sr O1 2.4525(19) 5_656
Sr O1 2.4525(19) .
Sr O 2.522(3) 5_656
Sr O 2.522(3) .
S C2 1.701(3) .
N1 C2 1.366(3) .
N1 C6 1.419(3) .
N1 C7 1.483(3) .
N3 C2 1.362(4) .
N3 C4 1.418(3) .
N3 C9 1.495(3) .
O1 C4 1.254(3) .
O2 C6 1.254(3) .
O2 Sr 2.4026(19) 4_456
C4 C5 1.373(4) .
C5 C6 1.376(3) .
C7 C8 1.509(4) .
C9 C10 1.497(4) .

_cod_database_fobs_code 1542918
