#------------------------------------------------------------------------------
#$Date: 2016-03-04 10:23:11 +0200 (Fri, 04 Mar 2016) $
#$Revision: 177314 $
#$URL: svn://www.crystallography.net/cod/cif/1/54/26/1542664.cif $
#------------------------------------------------------------------------------
#
# This file is available in the Crystallography Open Database (COD),
# http://www.crystallography.net/
#
# All data on this site have been placed in the public domain by the
# contributors.
#
data_1542664
loop_
_publ_author_name
'Jiang, Jin'
'Liu, Hui'
'Lu, Chong-Dao'
'Xu, Yan-Jun'
_publ_section_title
;
 Diethyl Phosphite Initiated Coupling of \a-Ketoesters with Imines for
 Synthesis of \a-Phosphonyloxy-\b-amino Acid Derivatives and
 Aziridine-2-carboxylates.
;
_journal_issue                   4
_journal_name_full               'Organic letters'
_journal_page_first              880
_journal_page_last               883
_journal_paper_doi               10.1021/acs.orglett.6b00273
_journal_volume                  18
_journal_year                    2016
_chemical_formula_moiety         'C29 H36 N O9 P S'
_chemical_formula_sum            'C29 H36 N O9 P S'
_chemical_formula_weight         605.62
_chemical_name_systematic
;
 ?
;
_space_group_crystal_system      monoclinic
_space_group_IT_number           14
_space_group_name_Hall           '-P 2yab'
_space_group_name_H-M_alt        'P 1 21/a 1'
_symmetry_space_group_name_Hall  '-P 2yab'
_symmetry_space_group_name_H-M   'P 1 21/a 1'
_atom_sites_solution_hydrogens   mixed
_audit_creation_date             2015-12-30
_audit_creation_method
;
Olex2 1.2
(compiled 2015.09.30 svn.r3233 for OlexSys, GUI svn.r5103)
;
_cell_angle_alpha                90
_cell_angle_beta                 104.369(5)
_cell_angle_gamma                90
_cell_formula_units_Z            4
_cell_length_a                   16.580(6)
_cell_length_b                   10.731(4)
_cell_length_c                   17.820(7)
_cell_measurement_reflns_used    2399
_cell_measurement_temperature    296(2)
_cell_measurement_theta_max      21.973
_cell_measurement_theta_min      2.235
_cell_volume                     3071(2)
_computing_cell_refinement       'SAINT v7.68A (Bruker, 2009)'
_computing_data_reduction        'SAINT v7.68A (Bruker, 2009)'
_computing_molecular_graphics    'Olex2 (Dolomanov et al., 2009)'
_computing_publication_material  'Olex2 (Dolomanov et al., 2009)'
_computing_structure_refinement  'ShelXL (Sheldrick, 2015)'
_computing_structure_solution    'ShelXS (Sheldrick, 2008)'
_diffrn_ambient_temperature      296.15
_diffrn_measured_fraction_theta_full 0.998
_diffrn_measured_fraction_theta_max 0.986
_diffrn_measurement_device_type  'CCD area detector'
_diffrn_measurement_method       'phi and omega scans'
_diffrn_radiation_monochromator  graphite
_diffrn_radiation_source         'fine-focus sealed tube'
_diffrn_radiation_type           MoK\a
_diffrn_radiation_wavelength     0.71073
_diffrn_reflns_av_R_equivalents  0.0497
_diffrn_reflns_av_unetI/netI     0.0656
_diffrn_reflns_laue_measured_fraction_full 0.998
_diffrn_reflns_laue_measured_fraction_max 0.986
_diffrn_reflns_limit_h_max       21
_diffrn_reflns_limit_h_min       -21
_diffrn_reflns_limit_k_max       13
_diffrn_reflns_limit_k_min       -13
_diffrn_reflns_limit_l_max       12
_diffrn_reflns_limit_l_min       -22
_diffrn_reflns_number            18108
_diffrn_reflns_point_group_measured_fraction_full 0.998
_diffrn_reflns_point_group_measured_fraction_max 0.986
_diffrn_reflns_theta_full        26.000
_diffrn_reflns_theta_max         27.418
_diffrn_reflns_theta_min         2.235
_exptl_absorpt_coefficient_mu    0.210
_exptl_absorpt_correction_T_max  1.0000
_exptl_absorpt_correction_T_min  0.9119
_exptl_absorpt_correction_type   multi-scan
_exptl_absorpt_process_details
;
SADABS-2008/1 (Bruker,2008) was used for absorption correction.
wR2(int) was 0.0990 before and 0.0505 after correction.
The Ratio of minimum to maximum transmission is 0.9119.
The \l/2 correction factor is 0.0015.
;
_exptl_crystal_colour            colorless
_exptl_crystal_density_diffrn    1.310
_exptl_crystal_description       bolock
_exptl_crystal_F_000             1280
_exptl_crystal_size_max          0.212
_exptl_crystal_size_mid          0.2
_exptl_crystal_size_min          0.177
_refine_diff_density_max         0.278
_refine_diff_density_min         -0.355
_refine_diff_density_rms         0.051
_refine_ls_extinction_method     none
_refine_ls_goodness_of_fit_ref   1.030
_refine_ls_hydrogen_treatment    mixed
_refine_ls_matrix_type           full
_refine_ls_number_parameters     378
_refine_ls_number_reflns         6891
_refine_ls_number_restraints     0
_refine_ls_restrained_S_all      1.030
_refine_ls_R_factor_all          0.0989
_refine_ls_R_factor_gt           0.0513
_refine_ls_shift/su_max          0.001
_refine_ls_shift/su_mean         0.000
_refine_ls_structure_factor_coef Fsqd
_refine_ls_weighting_details
;
 w=1/[\s^2^(Fo^2^)+(0.0605P)^2^]
 where P=(Fo^2^+2Fc^2^)/3
;
_refine_ls_weighting_scheme      calc
_refine_ls_wR_factor_gt          0.1190
_refine_ls_wR_factor_ref         0.1441
_reflns_Friedel_coverage         0.000
_reflns_number_gt                3972
_reflns_number_total             6891
_reflns_threshold_expression     'I > 2\s(I)'
_iucr_refine_instructions_details
;
TITL js01_0m in P21/a #14
REM reset to P21/a #14
CELL 0.71073 16.5802 10.7306 17.8204 90 104.369 90
ZERR 4 0.0063 0.0041 0.0069 0 0.0049 0
LATT 1
SYMM 0.5-X,0.5+Y,-Z
SFAC C H N O P S
UNIT 116 144 4 36 4 4
 
L.S. 4
PLAN  20
SIZE 0.177 0.2 0.212
TEMP 23
BOND
fmap 2
acta 52
MORE -1
BOND $H
CONF
REM <olex2.extras>
REM <HklSrc "%.\\js01_0m.hkl">
REM </olex2.extras>
 
WGHT    0.060500
FVAR       0.44407
P1    5   -0.112696   -0.320795   -0.115942    11.00000    0.04604    0.03426 =
         0.05010   -0.00340    0.00861   -0.00048
S2    6   -0.309177   -0.246654   -0.366744    11.00000    0.03871    0.04005 =
         0.05797    0.00670    0.00888    0.00347
O1    4   -0.146572   -0.449473   -0.152535    11.00000    0.03985    0.03151 =
         0.05142   -0.00260    0.00907   -0.00198
O2    4   -0.368465   -0.473255   -0.217307    11.00000    0.04057    0.05098 =
         0.05832   -0.00515    0.01996   -0.00066
O3    4   -0.020103   -0.326249   -0.119671    11.00000    0.04285    0.04510 =
         0.07218    0.00128    0.01003   -0.00404
O4    4   -0.325406   -0.123059   -0.344965    11.00000    0.05810    0.03872 =
         0.08217    0.00717    0.02392    0.01464
N5    3   -0.257151   -0.311918   -0.288001    11.00000    0.04336    0.03068 =
         0.04877    0.00416    0.01399    0.00538
O6    4   -0.108243   -0.332272   -0.027988    11.00000    0.06923    0.05588 =
         0.04427   -0.00491    0.01332    0.01648
O7    4   -0.153530   -0.209770   -0.154612    11.00000    0.06388    0.03165 =
         0.06031    0.00052    0.00463    0.00392
C8    1   -0.233533   -0.443999   -0.285810    11.00000    0.03815    0.03033 =
         0.04894    0.00019    0.01347    0.00080
AFIX  13
H8    2   -0.280698   -0.488916   -0.318737    11.00000   -1.20000
AFIX   0
O9    4   -0.375987   -0.328159   -0.400938    11.00000    0.04222    0.06316 =
         0.07206    0.00786   -0.00008   -0.01138
O10   4   -0.287263   -0.389305   -0.110811    11.00000    0.05711    0.08016 =
         0.06363   -0.02626    0.01982   -0.00005
C11   1   -0.223690   -0.492124   -0.201805    11.00000    0.03735    0.03146 =
         0.04662   -0.00043    0.01284   -0.00142
C12   1   -0.244686   -0.237419   -0.431002    11.00000    0.04604    0.03511 =
         0.04576    0.00509    0.00765    0.00172
C13   1   -0.158377   -0.470508   -0.317659    11.00000    0.04392    0.03807 =
         0.04441    0.00439    0.01584    0.00710
C14   1   -0.295974   -0.443646   -0.169999    11.00000    0.04344    0.03645 =
         0.05217    0.00086    0.01708   -0.00237
O15   4   -0.085246   -0.234810   -0.574799    11.00000    0.07512    0.06436 =
         0.06256    0.00301    0.03041    0.00041
C16   1   -0.135736   -0.135629   -0.472814    11.00000    0.05586    0.04325 =
         0.06074    0.00317    0.01606   -0.00561
AFIX  43
H16   2   -0.099118   -0.069025   -0.469439    11.00000   -1.20000
AFIX   0
C17   1   -0.189803   -0.139301   -0.425829    11.00000    0.05645    0.03594 =
         0.05206   -0.00123    0.01319   -0.00247
AFIX  43
H17   2   -0.189491   -0.075548   -0.390406    11.00000   -1.20000
AFIX   0
C18   1   -0.221626   -0.634953   -0.196595    11.00000    0.04799    0.02965 =
         0.04807    0.00220    0.01898   -0.00324
C19   1   -0.189866   -0.329367   -0.529774    11.00000    0.07690    0.04674 =
         0.05043   -0.00573    0.01813   -0.00466
AFIX  43
H19   2   -0.189526   -0.393926   -0.564512    11.00000   -1.20000
AFIX   0
C20   1   -0.157818   -0.575093   -0.362463    11.00000    0.06040    0.04887 =
         0.07501   -0.00747    0.02592    0.00439
AFIX  43
H20   2   -0.201879   -0.631218   -0.370558    11.00000   -1.20000
AFIX   0
C21   1   -0.243914   -0.332141   -0.483463    11.00000    0.06630    0.04315 =
         0.05031   -0.00111    0.01039   -0.00990
AFIX  43
H21   2   -0.280764   -0.398507   -0.487132    11.00000   -1.20000
AFIX   0
C22   1   -0.278534   -0.706384   -0.249495    11.00000    0.06507    0.03834 =
         0.05808    0.00054    0.01379   -0.00833
AFIX  43
H22   2   -0.317382   -0.667999   -0.289502    11.00000   -1.20000
AFIX   0
C23   1   -0.277372   -0.834657   -0.242616    11.00000    0.08127    0.04044 =
         0.07062   -0.00733    0.02412   -0.01548
AFIX  43
H23   2   -0.314755   -0.882351   -0.278879    11.00000   -1.20000
AFIX   0
C24   1   -0.092500   -0.388189   -0.307548    11.00000    0.04591    0.05453 =
         0.05699   -0.00392    0.02130   -0.00306
AFIX  43
H24   2   -0.092376   -0.316574   -0.278128    11.00000   -1.20000
AFIX   0
C25   1   -0.166871   -0.694311   -0.136079    11.00000    0.04965    0.03749 =
         0.05960    0.00555    0.01450    0.00105
AFIX  43
H25   2   -0.129438   -0.646942   -0.099657    11.00000   -1.20000
AFIX   0
C26   1   -0.221983   -0.892158   -0.183207    11.00000    0.08051    0.02950 =
         0.08241    0.00171    0.03438    0.00051
AFIX  43
H26   2   -0.221675   -0.978631   -0.179648    11.00000   -1.20000
AFIX   0
C27   1   -0.166414   -0.823189   -0.128348    11.00000    0.06304    0.03747 =
         0.07349    0.01435    0.02639    0.00877
C28   1   -0.135422   -0.230294   -0.525065    11.00000    0.05787    0.04663 =
         0.04428    0.00945    0.01117    0.00421
C29   1   -0.442184   -0.424616   -0.196228    11.00000    0.04647    0.07123 =
         0.07433   -0.01220    0.02492    0.00814
AFIX  23
H29A  2   -0.440652   -0.447051   -0.143163    11.00000   -1.20000
H29B  2   -0.443397   -0.334450   -0.200233    11.00000   -1.20000
AFIX   0
C30   1    0.033346   -0.431446   -0.097380    11.00000    0.05075    0.06300 =
         0.15098    0.03769    0.02032    0.01267
AFIX  23
H30A  2    0.010465   -0.502712   -0.129046    11.00000   -1.20000
H30B  2    0.036674   -0.452198   -0.043718    11.00000   -1.20000
AFIX   0
C31   1   -0.027253   -0.410598   -0.340301    11.00000    0.04827    0.08425 =
         0.08132   -0.00557    0.02989   -0.00406
AFIX  43
H31   2    0.016875   -0.354612   -0.332395    11.00000   -1.20000
AFIX   0
C32   1   -0.029209   -0.134060   -0.573911    11.00000    0.06959    0.07085 =
         0.07999    0.01831    0.03354    0.00459
AFIX 137
H32A  2   -0.000699   -0.145778   -0.614147    11.00000   -1.50000
H32B  2    0.010639   -0.131228   -0.524595    11.00000   -1.50000
H32C  2   -0.059762   -0.057205   -0.582393    11.00000   -1.50000
AFIX   0
C33   1   -0.026599   -0.513995   -0.384217    11.00000    0.06231    0.09542 =
         0.09711   -0.00072    0.04551    0.01931
AFIX  43
H33   2    0.017658   -0.528564   -0.406487    11.00000   -1.20000
AFIX   0
C34   1   -0.091619   -0.596781   -0.395513    11.00000    0.08415    0.06952 =
         0.09025   -0.01786    0.03960    0.02204
AFIX  43
H34   2   -0.091315   -0.667703   -0.425437    11.00000   -1.20000
AFIX   0
C35   1   -0.516340   -0.477358   -0.248576    11.00000    0.04596    0.12637 =
         0.10099   -0.03179    0.01578    0.01008
AFIX 137
H35A  2   -0.519739   -0.449485   -0.300458    11.00000   -1.50000
H35B  2   -0.564970   -0.450591   -0.232950    11.00000   -1.50000
H35C  2   -0.513054   -0.566669   -0.246728    11.00000   -1.50000
AFIX   0
C36   1   -0.107982   -0.884892   -0.059675    11.00000    0.09301    0.05745 =
         0.11339    0.03459    0.01638    0.01413
AFIX 137
H36A  2   -0.062422   -0.829807   -0.038402    11.00000   -1.50000
H36B  2   -0.086960   -0.960832   -0.076082    11.00000   -1.50000
H36C  2   -0.137465   -0.903212   -0.020938    11.00000   -1.50000
AFIX   0
C37   1    0.116639   -0.404232   -0.106806    11.00000    0.05958    0.08582 =
         0.21350    0.04000    0.04665    0.01298
AFIX 137
H37A  2    0.113991   -0.391543   -0.160690    11.00000   -1.50000
H37B  2    0.152984   -0.472974   -0.087660    11.00000   -1.50000
H37C  2    0.137658   -0.330302   -0.078258    11.00000   -1.50000
AFIX   0
C38   1   -0.158278   -0.260271    0.012779    11.00000    0.09871    0.10932 =
         0.06487   -0.01968    0.02501    0.02933
AFIX  23
H38A  2   -0.179468   -0.186696   -0.017318    11.00000   -1.20000
H38B  2   -0.205555   -0.309859    0.017849    11.00000   -1.20000
AFIX   0
C39   1   -0.112079   -0.223676    0.086889    11.00000    0.11756    0.13963 =
         0.10500   -0.06682    0.04275   -0.01487
AFIX 137
H39A  2   -0.072625   -0.160710    0.081857    11.00000   -1.50000
H39B  2   -0.083020   -0.294463    0.113580    11.00000   -1.50000
H39C  2   -0.149097   -0.190908    0.115753    11.00000   -1.50000
AFIX   0
H5    2   -0.228225   -0.262207   -0.256264    11.00000   -1.20000
HKLF 4
 
REM  js01_0m in P21/a #14
REM R1 =  0.0513 for    3972 Fo > 4sig(Fo)  and  0.0989 for all    6891 data
REM    378 parameters refined using      0 restraints
 
END  
     
WGHT      0.0605      0.0000 

REM Highest difference peak  0.278,  deepest hole -0.355,  1-sigma level  0.051
Q1    1  -0.1023 -0.2160  0.0090  11.00000  0.05    0.25
Q2    1  -0.1086 -0.1827 -0.1166  11.00000  0.05    0.19
Q3    1  -0.0020 -0.3728 -0.0564  11.00000  0.05    0.18
Q4    1   0.0045 -0.3162 -0.3678  11.00000  0.05    0.18
Q5    1  -0.0732 -0.1066  0.0100  11.00000  0.05    0.18
Q6    1  -0.1176 -0.2688 -0.3005  11.00000  0.05    0.18
Q7    1   0.0434 -0.1988 -0.3304  11.00000  0.05    0.17
Q8    1  -0.4624 -0.2429 -0.4069  11.00000  0.05    0.17
Q9    1  -0.0254 -0.2390  0.1175  11.00000  0.05    0.17
Q10   1  -0.1465 -1.0013 -0.0603  11.00000  0.05    0.17
Q11   1  -0.4983 -0.5724 -0.1882  11.00000  0.05    0.17
Q12   1  -0.0887 -0.7356 -0.1452  11.00000  0.05    0.17
Q13   1  -0.5636 -0.3784 -0.2604  11.00000  0.05    0.17
Q14   1  -0.2209 -0.2171 -0.0317  11.00000  0.05    0.16
Q15   1  -0.0145 -0.1859 -0.6121  11.00000  0.05    0.16
Q16   1   0.0970 -0.4663 -0.1472  11.00000  0.05    0.16
Q17   1  -0.0533 -0.6796 -0.0927  11.00000  0.05    0.16
Q18   1  -0.1075 -0.6239 -0.0701  11.00000  0.05    0.16
Q19   1  -0.0429 -0.2533 -0.0250  11.00000  0.05    0.16
Q20   1   0.0017 -0.5128 -0.0857  11.00000  0.05    0.16

  REM The information below was added by Olex2.
  REM
  REM R1 = 0.0513 for 3972 Fo > 4sig(Fo) and 0.0989 for all 18667 data
  REM n/a parameters refined using n/a restraints
  REM Highest difference peak 0.28, deepest hole -0.36
  REM Mean Shift 0, Max Shift 0.001.
  
  REM +++ Tabular Listing of Refinement Information +++
  REM R1_all = 0.0989
  REM R1_gt = 0.0513
  REM wR_ref = 0.1441
  REM GOOF = 1.030
  REM Shift_max = 0.001
  REM Shift_mean = 0
  REM Reflections_all = 18667
  REM Reflections_gt = 3972
  REM Parameters = n/a
  REM Hole = -0.36
  REM Peak = 0.28
  REM Flack = n/a
  
  
;
_cod_data_source_file            ol6b00273_si_002.cif
_cod_data_source_block           7m
_cod_database_code               1542664
_shelxl_version_number           2013-2
_shelx_space_group_comment
;
The symmetry employed for this shelxl refinement is uniquely defined
by the following loop, which should always be used as a source of
symmetry information in preference to the above space-group names.
They are only intended as comments.
;
_shelx_estimated_absorpt_t_max   0.964
_shelx_estimated_absorpt_t_min   0.957
_olex2_refinement_description
;
1. Fixed Uiso
 At 1.2 times of:
  All C(H) groups, All C(H,H) groups
 At 1.5 times of:
  All C(H,H,H) groups
2.a Ternary CH refined with riding coordinates:
 C8(H8)
2.b Secondary CH2 refined with riding coordinates:
 C29(H29A,H29B), C30(H30A,H30B), C38(H38A,H38B)
2.c Aromatic/amide H refined with riding coordinates:
 C16(H16), C17(H17), C19(H19), C20(H20), C21(H21), C22(H22), C23(H23),
 C24(H24), C25(H25), C26(H26), C31(H31), C33(H33), C34(H34)
2.d Idealised Me refined as rotating group:
 C32(H32A,H32B,H32C), C35(H35A,H35B,H35C), C36(H36A,H36B,H36C), C37(H37A,H37B,
 H37C), C39(H39A,H39B,H39C)
;
_olex2_submission_special_instructions 'No special instructions were received'
loop_
_space_group_symop_operation_xyz
'x, y, z'
'-x+1/2, y+1/2, -z'
'-x, -y, -z'
'x-1/2, -y-1/2, z'
loop_
_atom_site_label
_atom_site_type_symbol
_atom_site_fract_x
_atom_site_fract_y
_atom_site_fract_z
_atom_site_U_iso_or_equiv
_atom_site_adp_type
_atom_site_occupancy
_atom_site_site_symmetry_order
_atom_site_calc_flag
_atom_site_refinement_flags_posn
P1 P -0.11270(4) -0.32079(6) -0.11594(4) 0.04405(19) Uani 1 1 d .
S2 S -0.30918(4) -0.24665(6) -0.36674(4) 0.04612(19) Uani 1 1 d .
O1 O -0.14657(9) -0.44947(13) -0.15253(9) 0.0413(4) Uani 1 1 d .
O2 O -0.36846(9) -0.47325(15) -0.21731(10) 0.0486(5) Uani 1 1 d .
O3 O -0.02010(10) -0.32625(15) -0.11967(12) 0.0541(5) Uani 1 1 d .
O4 O -0.32541(10) -0.12306(15) -0.34497(12) 0.0585(5) Uani 1 1 d .
N5 N -0.25715(12) -0.31192(17) -0.28800(13) 0.0405(5) Uani 1 1 d .
O6 O -0.10824(11) -0.33227(16) -0.02799(11) 0.0566(5) Uani 1 1 d .
O7 O -0.15353(10) -0.20977(14) -0.15461(11) 0.0538(5) Uani 1 1 d .
C8 C -0.23353(14) -0.4440(2) -0.28581(15) 0.0387(6) Uani 1 1 d .
H8 H -0.2807 -0.4889 -0.3187 0.046 Uiso 1 1 calc R
O9 O -0.37599(10) -0.32816(17) -0.40094(12) 0.0617(5) Uani 1 1 d .
O10 O -0.28726(11) -0.38931(19) -0.11081(12) 0.0661(6) Uani 1 1 d .
C11 C -0.22369(13) -0.4921(2) -0.20181(14) 0.0380(6) Uani 1 1 d .
C12 C -0.24469(14) -0.2374(2) -0.43100(15) 0.0430(6) Uani 1 1 d .
C13 C -0.15838(14) -0.4705(2) -0.31766(14) 0.0413(6) Uani 1 1 d .
C14 C -0.29597(15) -0.4436(2) -0.17000(16) 0.0431(6) Uani 1 1 d .
O15 O -0.08525(12) -0.23481(18) -0.57480(12) 0.0650(5) Uani 1 1 d .
C16 C -0.13574(16) -0.1356(2) -0.47281(17) 0.0530(7) Uani 1 1 d .
H16 H -0.0991 -0.0690 -0.4694 0.064 Uiso 1 1 calc R
C17 C -0.18980(15) -0.1393(2) -0.42583(16) 0.0482(6) Uani 1 1 d .
H17 H -0.1895 -0.0755 -0.3904 0.058 Uiso 1 1 calc R
C18 C -0.22163(14) -0.6350(2) -0.19659(15) 0.0407(6) Uani 1 1 d .
C19 C -0.18987(18) -0.3294(2) -0.52977(17) 0.0576(7) Uani 1 1 d .
H19 H -0.1895 -0.3939 -0.5645 0.069 Uiso 1 1 calc R
C20 C -0.15782(17) -0.5751(3) -0.36246(18) 0.0598(8) Uani 1 1 d .
H20 H -0.2019 -0.6312 -0.3706 0.072 Uiso 1 1 calc R
C21 C -0.24391(17) -0.3321(2) -0.48346(16) 0.0540(7) Uani 1 1 d .
H21 H -0.2808 -0.3985 -0.4871 0.065 Uiso 1 1 calc R
C22 C -0.27853(17) -0.7064(2) -0.24949(17) 0.0541(7) Uani 1 1 d .
H22 H -0.3174 -0.6680 -0.2895 0.065 Uiso 1 1 calc R
C23 C -0.27737(19) -0.8347(2) -0.24262(19) 0.0632(8) Uani 1 1 d .
H23 H -0.3148 -0.8824 -0.2789 0.076 Uiso 1 1 calc R
C24 C -0.09250(15) -0.3882(2) -0.30755(16) 0.0510(7) Uani 1 1 d .
H24 H -0.0924 -0.3166 -0.2781 0.061 Uiso 1 1 calc R
C25 C -0.16687(15) -0.6943(2) -0.13608(16) 0.0487(7) Uani 1 1 d .
H25 H -0.1294 -0.6469 -0.0997 0.058 Uiso 1 1 calc R
C26 C -0.22198(19) -0.8922(2) -0.1832(2) 0.0616(8) Uani 1 1 d .
H26 H -0.2217 -0.9786 -0.1796 0.074 Uiso 1 1 calc R
C27 C -0.16641(17) -0.8232(2) -0.12835(18) 0.0563(7) Uani 1 1 d .
C28 C -0.13542(16) -0.2303(2) -0.52507(16) 0.0499(7) Uani 1 1 d .
C29 C -0.44218(15) -0.4246(3) -0.19623(18) 0.0623(8) Uani 1 1 d .
H29A H -0.4407 -0.4471 -0.1432 0.075 Uiso 1 1 calc R
H29B H -0.4434 -0.3345 -0.2002 0.075 Uiso 1 1 calc R
C30 C 0.03335(17) -0.4314(3) -0.0974(3) 0.0891(12) Uani 1 1 d .
H30A H 0.0105 -0.5027 -0.1290 0.107 Uiso 1 1 calc R
H30B H 0.0367 -0.4522 -0.0437 0.107 Uiso 1 1 calc R
C31 C -0.02725(17) -0.4106(3) -0.34030(19) 0.0688(9) Uani 1 1 d .
H31 H 0.0169 -0.3546 -0.3324 0.083 Uiso 1 1 calc R
C32 C -0.02921(18) -0.1341(3) -0.5739(2) 0.0708(9) Uani 1 1 d .
H32A H -0.0007 -0.1458 -0.6141 0.106 Uiso 1 1 calc GR
H32B H 0.0106 -0.1312 -0.5246 0.106 Uiso 1 1 calc GR
H32C H -0.0598 -0.0572 -0.5824 0.106 Uiso 1 1 calc GR
C33 C -0.02660(19) -0.5140(4) -0.3842(2) 0.0804(10) Uani 1 1 d .
H33 H 0.0177 -0.5286 -0.4065 0.096 Uiso 1 1 calc R
C34 C -0.0916(2) -0.5968(3) -0.3955(2) 0.0781(10) Uani 1 1 d .
H34 H -0.0913 -0.6677 -0.4254 0.094 Uiso 1 1 calc R
C35 C -0.51634(17) -0.4774(4) -0.2486(2) 0.0915(12) Uani 1 1 d .
H35A H -0.5197 -0.4495 -0.3005 0.137 Uiso 1 1 calc GR
H35B H -0.5650 -0.4506 -0.2330 0.137 Uiso 1 1 calc GR
H35C H -0.5131 -0.5667 -0.2467 0.137 Uiso 1 1 calc GR
C36 C -0.1080(2) -0.8849(3) -0.0597(2) 0.0896(12) Uani 1 1 d .
H36A H -0.0624 -0.8298 -0.0384 0.134 Uiso 1 1 calc GR
H36B H -0.0870 -0.9608 -0.0761 0.134 Uiso 1 1 calc GR
H36C H -0.1375 -0.9032 -0.0209 0.134 Uiso 1 1 calc GR
C37 C 0.1166(2) -0.4042(4) -0.1068(3) 0.1174(17) Uani 1 1 d .
H37A H 0.1140 -0.3915 -0.1607 0.176 Uiso 1 1 calc GR
H37B H 0.1530 -0.4730 -0.0877 0.176 Uiso 1 1 calc GR
H37C H 0.1377 -0.3303 -0.0783 0.176 Uiso 1 1 calc GR
C38 C -0.1583(2) -0.2603(4) 0.0128(2) 0.0901(11) Uani 1 1 d .
H38A H -0.1795 -0.1867 -0.0173 0.108 Uiso 1 1 calc R
H38B H -0.2056 -0.3099 0.0178 0.108 Uiso 1 1 calc R
C39 C -0.1121(3) -0.2237(4) 0.0869(3) 0.1181(16) Uani 1 1 d .
H39A H -0.0726 -0.1607 0.0819 0.177 Uiso 1 1 calc GR
H39B H -0.0830 -0.2945 0.1136 0.177 Uiso 1 1 calc GR
H39C H -0.1491 -0.1909 0.1158 0.177 Uiso 1 1 calc GR
H5 H -0.228(3) -0.262(4) -0.256(3) 0.142 Uiso 1 1 d R
loop_
_atom_site_aniso_label
_atom_site_aniso_U_11
_atom_site_aniso_U_22
_atom_site_aniso_U_33
_atom_site_aniso_U_23
_atom_site_aniso_U_13
_atom_site_aniso_U_12
P1 0.0460(4) 0.0343(3) 0.0501(4) -0.0034(3) 0.0086(3) -0.0005(3)
S2 0.0387(3) 0.0400(3) 0.0580(4) 0.0067(3) 0.0089(3) 0.0035(3)
O1 0.0399(8) 0.0315(8) 0.0514(11) -0.0026(8) 0.0091(8) -0.0020(7)
O2 0.0406(9) 0.0510(10) 0.0583(12) -0.0051(9) 0.0200(9) -0.0007(8)
O3 0.0428(10) 0.0451(10) 0.0722(14) 0.0013(9) 0.0100(9) -0.0040(8)
O4 0.0581(11) 0.0387(9) 0.0822(15) 0.0072(10) 0.0239(10) 0.0146(8)
N5 0.0434(11) 0.0307(10) 0.0488(14) 0.0042(9) 0.0140(10) 0.0054(8)
O6 0.0692(12) 0.0559(11) 0.0443(11) -0.0049(9) 0.0133(10) 0.0165(9)
O7 0.0639(11) 0.0317(9) 0.0603(13) 0.0005(8) 0.0046(10) 0.0039(8)
C8 0.0381(12) 0.0303(12) 0.0489(15) 0.0002(11) 0.0135(11) 0.0008(10)
O9 0.0422(10) 0.0632(12) 0.0721(14) 0.0079(11) -0.0001(9) -0.0114(9)
O10 0.0571(11) 0.0802(14) 0.0636(14) -0.0263(12) 0.0198(10) 0.0000(10)
C11 0.0374(12) 0.0315(12) 0.0466(15) -0.0004(11) 0.0128(11) -0.0014(10)
C12 0.0460(13) 0.0351(12) 0.0458(16) 0.0051(12) 0.0077(12) 0.0017(11)
C13 0.0439(13) 0.0381(13) 0.0444(15) 0.0044(12) 0.0158(12) 0.0071(11)
C14 0.0434(14) 0.0364(13) 0.0522(17) 0.0009(13) 0.0171(13) -0.0024(11)
O15 0.0751(13) 0.0644(13) 0.0626(14) 0.0030(11) 0.0304(11) 0.0004(10)
C16 0.0559(16) 0.0432(14) 0.0607(19) 0.0032(14) 0.0161(15) -0.0056(12)
C17 0.0564(15) 0.0359(13) 0.0521(17) -0.0012(12) 0.0132(14) -0.0025(12)
C18 0.0480(13) 0.0296(11) 0.0481(16) 0.0022(11) 0.0190(12) -0.0032(10)
C19 0.0769(19) 0.0467(16) 0.0504(18) -0.0057(14) 0.0181(16) -0.0047(14)
C20 0.0604(17) 0.0489(16) 0.075(2) -0.0075(15) 0.0259(16) 0.0044(13)
C21 0.0663(17) 0.0431(15) 0.0503(17) -0.0011(13) 0.0104(15) -0.0099(13)
C22 0.0651(17) 0.0383(14) 0.0581(19) 0.0005(13) 0.0138(15) -0.0083(12)
C23 0.081(2) 0.0404(15) 0.071(2) -0.0073(15) 0.0241(18) -0.0155(14)
C24 0.0459(14) 0.0545(16) 0.0570(18) -0.0039(14) 0.0213(13) -0.0031(12)
C25 0.0497(14) 0.0375(13) 0.0596(18) 0.0056(13) 0.0145(13) 0.0011(11)
C26 0.081(2) 0.0295(13) 0.082(2) 0.0017(15) 0.0344(19) 0.0005(14)
C27 0.0630(17) 0.0375(14) 0.073(2) 0.0144(15) 0.0264(16) 0.0088(13)
C28 0.0579(16) 0.0466(15) 0.0443(16) 0.0094(13) 0.0112(14) 0.0042(12)
C29 0.0465(15) 0.0712(19) 0.074(2) -0.0122(17) 0.0249(15) 0.0081(13)
C30 0.0507(17) 0.063(2) 0.151(4) 0.038(2) 0.020(2) 0.0127(15)
C31 0.0483(16) 0.084(2) 0.081(2) -0.006(2) 0.0299(16) -0.0041(15)
C32 0.0696(19) 0.071(2) 0.080(2) 0.0183(18) 0.0335(18) 0.0046(16)
C33 0.062(2) 0.095(3) 0.097(3) -0.001(2) 0.046(2) 0.0193(18)
C34 0.084(2) 0.070(2) 0.090(3) -0.018(2) 0.040(2) 0.0220(18)
C35 0.0460(17) 0.126(3) 0.101(3) -0.032(3) 0.0158(18) 0.0101(18)
C36 0.093(2) 0.057(2) 0.113(3) 0.035(2) 0.016(2) 0.0141(17)
C37 0.060(2) 0.086(3) 0.213(5) 0.040(3) 0.047(3) 0.0130(18)
C38 0.099(3) 0.109(3) 0.065(2) -0.020(2) 0.025(2) 0.029(2)
C39 0.118(3) 0.140(4) 0.105(3) -0.067(3) 0.043(3) -0.015(3)
loop_
_atom_type_symbol
_atom_type_description
_atom_type_scat_dispersion_real
_atom_type_scat_dispersion_imag
_atom_type_scat_source
C C 0.0033 0.0016 'International Tables Vol C Tables 4.2.6.8 and 6.1.1.4'
H H 0.0000 0.0000 'International Tables Vol C Tables 4.2.6.8 and 6.1.1.4'
N N 0.0061 0.0033 'International Tables Vol C Tables 4.2.6.8 and 6.1.1.4'
O O 0.0106 0.0060 'International Tables Vol C Tables 4.2.6.8 and 6.1.1.4'
P P 0.1023 0.0942 'International Tables Vol C Tables 4.2.6.8 and 6.1.1.4'
S S 0.1246 0.1234 'International Tables Vol C Tables 4.2.6.8 and 6.1.1.4'
loop_
_geom_angle_atom_site_label_1
_geom_angle_atom_site_label_2
_geom_angle_atom_site_label_3
_geom_angle
O3 P1 O1 101.80(9)
O3 P1 O6 103.87(11)
O6 P1 O1 105.75(10)
O7 P1 O1 116.52(10)
O7 P1 O3 111.02(10)
O7 P1 O6 116.22(10)
O4 S2 N5 105.26(12)
O4 S2 C12 108.19(11)
N5 S2 C12 108.16(11)
O9 S2 O4 120.55(11)
O9 S2 N5 107.26(11)
O9 S2 C12 106.92(12)
C11 O1 P1 135.02(13)
C14 O2 C29 115.8(2)
C30 O3 P1 124.67(17)
S2 N5 H5 114(3)
C8 N5 S2 121.58(18)
C8 N5 H5 120(3)
C38 O6 P1 124.84(19)
N5 C8 H8 106.9
N5 C8 C11 108.06(19)
N5 C8 C13 114.14(18)
C11 C8 H8 106.9
C13 C8 H8 106.9
C13 C8 C11 113.46(18)
O1 C11 C8 110.38(17)
O1 C11 C14 108.92(19)
O1 C11 C18 106.16(18)
C14 C11 C8 109.73(19)
C18 C11 C8 112.68(19)
C18 C11 C14 108.85(18)
C17 C12 S2 119.9(2)
C17 C12 C21 119.3(2)
C21 C12 S2 120.63(19)
C20 C13 C8 119.5(2)
C20 C13 C24 118.5(2)
C24 C13 C8 121.8(2)
O2 C14 C11 110.6(2)
O10 C14 O2 125.2(2)
O10 C14 C11 124.2(2)
C28 O15 C32 118.0(2)
C17 C16 H16 119.9
C17 C16 C28 120.3(2)
C28 C16 H16 119.9
C12 C17 H17 119.9
C16 C17 C12 120.1(2)
C16 C17 H17 119.9
C22 C18 C11 120.6(2)
C25 C18 C11 120.5(2)
C25 C18 C22 118.7(2)
C21 C19 H19 120.1
C21 C19 C28 119.9(3)
C28 C19 H19 120.1
C13 C20 H20 119.9
C13 C20 C34 120.1(3)
C34 C20 H20 119.9
C12 C21 H21 119.6
C19 C21 C12 120.8(2)
C19 C21 H21 119.6
C18 C22 H22 120.1
C23 C22 C18 119.9(3)
C23 C22 H22 120.1
C22 C23 H23 119.6
C26 C23 C22 120.7(3)
C26 C23 H23 119.6
C13 C24 H24 119.5
C31 C24 C13 120.9(3)
C31 C24 H24 119.5
C18 C25 H25 119.2
C18 C25 C27 121.5(3)
C27 C25 H25 119.2
C23 C26 H26 119.7
C23 C26 C27 120.6(2)
C27 C26 H26 119.7
C25 C27 C36 120.2(3)
C26 C27 C25 118.5(3)
C26 C27 C36 121.3(2)
O15 C28 C16 124.9(2)
O15 C28 C19 115.4(2)
C16 C28 C19 119.7(3)
O2 C29 H29A 109.9
O2 C29 H29B 109.9
H29A C29 H29B 108.3
C35 C29 O2 108.8(2)
C35 C29 H29A 109.9
C35 C29 H29B 109.9
O3 C30 H30A 109.6
O3 C30 H30B 109.6
O3 C30 C37 110.4(2)
H30A C30 H30B 108.1
C37 C30 H30A 109.6
C37 C30 H30B 109.6
C24 C31 H31 119.7
C33 C31 C24 120.5(3)
C33 C31 H31 119.7
O15 C32 H32A 109.5
O15 C32 H32B 109.5
O15 C32 H32C 109.5
H32A C32 H32B 109.5
H32A C32 H32C 109.5
H32B C32 H32C 109.5
C31 C33 H33 120.2
C31 C33 C34 119.6(3)
C34 C33 H33 120.2
C20 C34 H34 119.9
C33 C34 C20 120.3(3)
C33 C34 H34 119.9
C29 C35 H35A 109.5
C29 C35 H35B 109.5
C29 C35 H35C 109.5
H35A C35 H35B 109.5
H35A C35 H35C 109.5
H35B C35 H35C 109.5
C27 C36 H36A 109.5
C27 C36 H36B 109.5
C27 C36 H36C 109.5
H36A C36 H36B 109.5
H36A C36 H36C 109.5
H36B C36 H36C 109.5
C30 C37 H37A 109.5
C30 C37 H37B 109.5
C30 C37 H37C 109.5
H37A C37 H37B 109.5
H37A C37 H37C 109.5
H37B C37 H37C 109.5
O6 C38 H38A 109.2
O6 C38 H38B 109.2
H38A C38 H38B 107.9
C39 C38 O6 111.8(3)
C39 C38 H38A 109.2
C39 C38 H38B 109.2
C38 C39 H39A 109.5
C38 C39 H39B 109.5
C38 C39 H39C 109.5
H39A C39 H39B 109.5
H39A C39 H39C 109.5
H39B C39 H39C 109.5
loop_
_geom_bond_atom_site_label_1
_geom_bond_atom_site_label_2
_geom_bond_distance
P1 O1 1.5702(16)
P1 O3 1.5541(18)
P1 O6 1.556(2)
P1 O7 1.4564(17)
S2 O4 1.4261(18)
S2 N5 1.613(2)
S2 O9 1.4242(18)
S2 C12 1.753(3)
O1 C11 1.435(3)
O2 C14 1.324(3)
O2 C29 1.461(3)
O3 C30 1.429(3)
N5 C8 1.468(3)
N5 H5 0.84(4)
O6 C38 1.453(3)
C8 H8 0.9800
C8 C11 1.553(3)
C8 C13 1.519(3)
O10 C14 1.182(3)
C11 C14 1.538(3)
C11 C18 1.535(3)
C12 C17 1.380(3)
C12 C21 1.383(3)
C13 C20 1.379(3)
C13 C24 1.381(3)
O15 C28 1.359(3)
O15 C32 1.423(3)
C16 H16 0.9300
C16 C17 1.371(3)
C16 C28 1.379(4)
C17 H17 0.9300
C18 C22 1.387(3)
C18 C25 1.381(3)
C19 H19 0.9300
C19 C21 1.361(4)
C19 C28 1.384(4)
C20 H20 0.9300
C20 C34 1.388(4)
C21 H21 0.9300
C22 H22 0.9300
C22 C23 1.382(3)
C23 H23 0.9300
C23 C26 1.365(4)
C24 H24 0.9300
C24 C31 1.372(4)
C25 H25 0.9300
C25 C27 1.390(3)
C26 H26 0.9300
C26 C27 1.380(4)
C27 C36 1.512(4)
C29 H29A 0.9700
C29 H29B 0.9700
C29 C35 1.460(4)
C30 H30A 0.9700
C30 H30B 0.9700
C30 C37 1.461(4)
C31 H31 0.9300
C31 C33 1.359(4)
C32 H32A 0.9600
C32 H32B 0.9600
C32 H32C 0.9600
C33 H33 0.9300
C33 C34 1.373(4)
C34 H34 0.9300
C35 H35A 0.9600
C35 H35B 0.9600
C35 H35C 0.9600
C36 H36A 0.9600
C36 H36B 0.9600
C36 H36C 0.9600
C37 H37A 0.9600
C37 H37B 0.9600
C37 H37C 0.9600
C38 H38A 0.9700
C38 H38B 0.9700
C38 C39 1.408(5)
C39 H39A 0.9600
C39 H39B 0.9600
C39 H39C 0.9600
loop_
_geom_torsion_atom_site_label_1
_geom_torsion_atom_site_label_2
_geom_torsion_atom_site_label_3
_geom_torsion_atom_site_label_4
_geom_torsion
P1 O1 C11 C8 72.7(2)
P1 O1 C11 C14 -47.9(3)
P1 O1 C11 C18 -164.91(17)
P1 O3 C30 C37 -178.9(3)
P1 O6 C38 C39 -140.7(3)
S2 N5 C8 C11 -153.64(16)
S2 N5 C8 C13 79.1(2)
S2 C12 C17 C16 176.0(2)
S2 C12 C21 C19 -175.5(2)
O1 P1 O3 C30 -45.7(3)
O1 P1 O6 C38 -114.7(3)
O1 C11 C14 O2 175.25(17)
O1 C11 C14 O10 -5.9(3)
O1 C11 C18 C22 -166.2(2)
O1 C11 C18 C25 18.3(3)
O3 P1 O1 C11 -143.6(2)
O3 P1 O6 C38 138.5(3)
O4 S2 N5 C8 175.76(16)
O4 S2 C12 C17 29.4(2)
O4 S2 C12 C21 -155.2(2)
N5 S2 C12 C17 -84.2(2)
N5 S2 C12 C21 91.2(2)
N5 C8 C11 O1 -76.5(2)
N5 C8 C11 C14 43.6(2)
N5 C8 C11 C18 165.02(18)
N5 C8 C13 C20 -140.1(2)
N5 C8 C13 C24 35.4(3)
O6 P1 O1 C11 108.1(2)
O6 P1 O3 C30 64.0(3)
O7 P1 O1 C11 -22.7(2)
O7 P1 O3 C30 -170.4(3)
O7 P1 O6 C38 16.3(3)
C8 C11 C14 O2 54.3(2)
C8 C11 C14 O10 -126.8(3)
C8 C11 C18 C22 -45.3(3)
C8 C11 C18 C25 139.2(2)
C8 C13 C20 C34 176.4(3)
C8 C13 C24 C31 -176.5(3)
O9 S2 N5 C8 46.2(2)
O9 S2 C12 C17 160.60(19)
O9 S2 C12 C21 -24.0(2)
C11 C8 C13 C20 95.5(3)
C11 C8 C13 C24 -89.0(3)
C11 C18 C22 C23 -178.1(2)
C11 C18 C25 C27 177.1(2)
C12 S2 N5 C8 -68.77(19)
C13 C8 C11 O1 51.1(2)
C13 C8 C11 C14 171.19(19)
C13 C8 C11 C18 -67.4(2)
C13 C20 C34 C33 -0.4(5)
C13 C24 C31 C33 0.7(5)
C14 O2 C29 C35 -173.4(3)
C14 C11 C18 C22 76.7(3)
C14 C11 C18 C25 -98.9(3)
C17 C12 C21 C19 0.0(4)
C17 C16 C28 O15 179.1(2)
C17 C16 C28 C19 -0.2(4)
C18 C11 C14 O2 -69.4(3)
C18 C11 C14 O10 109.5(3)
C18 C22 C23 C26 1.5(4)
C18 C25 C27 C26 0.4(4)
C18 C25 C27 C36 -177.6(3)
C20 C13 C24 C31 -1.0(4)
C21 C12 C17 C16 0.6(4)
C21 C19 C28 O15 -178.6(2)
C21 C19 C28 C16 0.7(4)
C22 C18 C25 C27 1.6(4)
C22 C23 C26 C27 0.6(4)
C23 C26 C27 C25 -1.5(4)
C23 C26 C27 C36 176.5(3)
C24 C13 C20 C34 0.8(4)
C24 C31 C33 C34 -0.3(5)
C25 C18 C22 C23 -2.5(4)
C28 C16 C17 C12 -0.5(4)
C28 C19 C21 C12 -0.6(4)
C29 O2 C14 O10 5.3(4)
C29 O2 C14 C11 -175.8(2)
C31 C33 C34 C20 0.1(5)
C32 O15 C28 C16 -0.7(4)
C32 O15 C28 C19 178.6(2)
loop_
_refln_index_h
_refln_index_k
_refln_index_l
_refln_F_squared_meas
_refln_F_squared_sigma
_refln_scale_group_code
-2 0 0 6401.19 214.33 3
3 0 0 0.3926 0.68453 1
-3 0 0 -1.3792 0.6091 3
-4 0 0 1083.07 38.98 3
-4 0 0 1129.01 38.32 2
-5 0 0 0.66519 1.02639 3
5 0 0 1.43228 1.15723 1
-5 0 0 0.56588 0.85862 2
6 0 0 352.019 15.253 1
-6 0 0 355.534 13.51 2
-6 0 0 342.245 14.598 3
-7 0 0 1.53229 1.16167 2
-7 0 0 -0.4038 1.1316 3
7 0 0 1.54264 1.73781 1
-8 0 0 982.561 36.669 3
-8 0 0 972.194 34.715 2
8 0 0 953.957 38.088 1
9 0 0 -2.5877 1.7185 1
-9 0 0 1.38347 1.64768 3
-9 0 0 -0.17 1.1813 2
-10 0 0 103.49 7.55 3
-10 0 0 93.371 5.7315 2
10 0 0 108.12 7.904 1
11 0 0 1.92477 2.57251 1
-11 0 0 0.49492 1.55489 2
-11 0 0 -0.5794 1.7073 3
-12 0 0 124.235 8.959 3
12 0 0 103.549 10.022 1
-13 0 0 0.47648 2.46663 3
13 0 0 0.39117 3.09811 1
-14 0 0 91.1741 9.7604 3
-15 0 0 2.17872 3.00976 3
-16 0 0 2.9007 3.63364 3
-17 0 0 -2.9713 3.0899 3
-18 0 0 0.51975 3.67326 3
-19 0 0 -1.7039 3.4821 3
-20 0 0 5.54328 5.24736 3
1 1 0 660.512 24.685 1
-2 -1 0 1376.86 47.17 3
-2 1 0 1421.85 47.47 2
2 1 0 1344.76 50.14 1
-3 -1 0 88.3049 4.4208 3
3 -1 0 89.8591 4.6249 1
3 1 0 89.9968 5.1381 1
-3 1 0 92.806 4.4325 3
-3 1 0 89.0991 4.4186 2
4 -1 0 1211.29 44.46 1
-4 -1 0 1200.77 42.54 3
4 1 0 1173.02 45.1 1
-4 1 0 1236.47 42.37 2
-4 1 0 1243.24 42.53 3
5 -1 0 3.49405 1.4537 1
-5 -1 0 0.96502 1.00296 3
-5 -1 0 1.31847 0.82307 2
-5 1 0 1.88818 1.26025 3
-5 1 0 1.10809 1.09396 2
5 1 0 0.69777 1.2304 1
-6 -1 0 800.489 28.21 2
-6 -1 0 777.302 29.769 3
6 -1 0 812.275 31.031 1
-6 1 0 835.52 29.93 3
6 1 0 783.593 31.65 1
-6 1 0 797.657 29.108 2
-7 -1 0 126.53 7.407 3
7 -1 0 145.739 7.777 1
-7 -1 0 132.005 5.924 2
-7 1 0 133.294 7.449 3
-7 1 0 132.46 6.656 2
7 1 0 90.2237 7.2128 1
-8 -1 0 1.22006 1.14651 2
-8 -1 0 0.23272 1.59206 3
8 -1 0 1.39781 1.72083 1
8 1 0 -0.3389 1.5107 1
-8 1 0 -0.2861 1.2874 3
-8 1 0 1.9597 1.45322 2
-9 -1 0 1.10062 1.74155 3
9 -1 0 1.80648 2.11533 1
-9 -1 0 3.77064 1.50785 2
-9 1 0 3.32343 1.60427 2
9 1 0 0.44396 1.70584 1
-9 1 0 2.47788 1.86415 3
-10 -1 0 360.951 14.065 2
-10 -1 0 360.477 16.895 3
10 -1 0 345.931 16.934 1
-10 1 0 333.685 16.563 3
-10 1 0 351.977 15.052 2
-11 -1 0 17.6819 3.8086 3
11 -1 0 25.6145 4.7067 1
-11 1 0 21.3346 3.2298 2
-11 1 0 14.6537 3.6501 3
12 -1 0 -1.0533 2.5993 1
-12 -1 0 2.95206 2.54231 3
-12 1 0 0.70052 2.35694 3
12 1 0 0.07906 2.4247 1
-13 -1 0 11.2284 3.7178 3
-13 1 0 8.25379 3.32841 3
13 1 0 14.1707 4.6037 1
-14 -1 0 141.124 12.164 3
-14 1 0 90.5725 10.0424 3
-15 -1 0 248.943 15.71 3
-15 1 0 263.486 16.091 3
-16 -1 0 5.2806 3.60636 3
-16 1 0 -1.4609 2.5712 3
-17 -1 0 -0.5685 3.3283 3
-17 1 0 -0.5736 3.5882 3
-18 -1 0 4.40416 4.08216 3
-18 1 0 5.11464 4.45605 3
-19 -1 0 1.28934 3.65569 3
-19 1 0 -1.8729 3.6487 3
-20 -1 0 7.36007 4.93196 3
-20 1 0 6.59518 4.80966 3
0 2 0 2901.63 96.4 2
0 2 0 2775.31 101.69 1
1 2 0 1392.15 55.24 2
-1 2 0 1738.21 59.08 1
1 2 0 1752.75 59.45 1
-2 -2 0 2421.39 81.16 3
2 2 0 2396.66 81.37 2
2 2 0 2338.73 86.87 1
-2 2 0 2422.05 80.98 3
-2 2 0 2423.16 82.18 2
-3 -2 0 21.6236 2.2308 3
-3 2 0 20.265 2.4777 2
-3 2 0 23.4203 2.1951 3
3 2 0 17.7871 2.9574 1
-4 -2 0 840.61 29.423 3
4 -2 0 844.994 31.013 1
-4 2 0 862.234 29.758 2
4 2 0 819.86 32.162 1
-4 2 0 720.18 29.006 3
5 -2 0 584.552 23.248 1
-5 -2 0 587.353 22.228 3
-5 2 0 600.378 22.177 3
-5 2 0 582.157 22.189 2
5 2 0 578.179 24.466 1
6 -2 0 105.768 6.389 1
-6 -2 0 111.771 6.264 3
-6 -2 0 102.317 4.794 2
-6 2 0 97.8462 5.8293 2
-6 2 0 105.516 6.12 3
6 2 0 86.5174 6.9597 1
7 -2 0 1133.25 43.83 1
-7 -2 0 1153.63 40.11 2
-7 -2 0 1118.31 42.12 3
-7 2 0 1168.58 42.18 3
-7 2 0 1170.89 41.73 2
7 2 0 1166.35 45.46 1
-8 -2 0 8.32285 1.69251 2
-8 -2 0 5.95083 2.21321 3
8 -2 0 7.53589 2.52227 1
-8 2 0 4.7242 1.9103 2
8 2 0 8.27674 3.06444 1
-8 2 0 6.6406 2.21795 3
9 -2 0 53.9833 5.8978 1
-9 -2 0 47.272 3.3402 2
-9 -2 0 41.9484 5.2397 3
-9 2 0 42.8765 5.1823 3
-9 2 0 51.4306 4.96 2
9 2 0 45.481 6.333 1
-10 -2 0 178.095 10.771 3
10 -2 0 202.896 11.299 1
-10 2 0 190.513 10.91 3
10 2 0 194.221 12.295 1
-10 2 0 193.957 10.026 2
-11 -2 0 154.111 9.995 3
11 -2 0 144.092 9.687 1
11 2 0 141.144 10.799 1
-11 2 0 146.459 8.589 2
-11 2 0 145.853 9.663 3
12 -2 0 19.8195 4.6528 1
-12 -2 0 21.5693 4.6324 3
-12 2 0 20.2324 4.3837 3
-12 2 0 27.585 4.1386 2
12 2 0 27.2109 5.8707 1
-13 -2 0 1.46054 2.42048 3
-13 2 0 1.89302 2.6598 3
13 2 0 -2.9744 2.8139 1
-14 -2 0 185.48 12.702 3
-14 2 0 183.971 12.496 3
-15 -2 0 11.2328 4.2906 3
-15 2 0 11.4764 4.2222 3
-16 -2 0 115.962 11.799 3
-16 2 0 115.36 11.977 3
-17 -2 0 0.15316 2.94078 3
-17 2 0 -0.4048 3.5972 3
-18 -2 0 5.36309 4.53491 3
-18 2 0 -1.4409 3.9412 3
-19 -2 0 1.7834 4.00938 3
-19 2 0 -3.976 3.1912 3
-20 -2 0 6.42818 4.91127 3
-20 2 0 3.03823 4.55237 3
0 3 0 0.12802 0.96724 2
0 3 0 1.12761 1.41193 1
1 3 0 71.5616 4.256 2
-1 3 0 79.4007 5.5019 1
1 3 0 77.8254 5.566 1
-1 3 0 73.7429 4.4848 2
-2 -3 0 2303.01 77.66 3
-2 3 0 2291.55 83.75 1
2 3 0 2213.21 84.25 1
-2 3 0 2340.52 79.49 2
-2 3 0 2321.43 77.42 3
3 -3 0 50.4999 3.5031 1
-3 -3 0 42.038 2.9468 3
3 3 0 59.9115 5.925 1
3 3 0 50.5684 3.1789 2
-3 3 0 48.6469 2.8991 3
-3 3 0 47.7693 4.3141 2
-4 -3 0 140.293 6.808 3
4 3 0 153.06 9.117 1
-4 3 0 146.786 6.677 3
-4 3 0 132.028 7.417 2
5 -3 0 122.543 7.751 1
-5 -3 0 167.023 7.81 3
-5 3 0 170.024 8.386 2
5 3 0 186.622 10.298 1
-6 -3 0 84.618 5.4996 3
6 -3 0 83.6293 5.8933 1
-6 3 0 77.159 5.4919 2
-6 3 0 98.162 5.6325 3
6 3 0 85.0131 8.1849 1
7 -3 0 27.8996 4.0018 1
-7 -3 0 30.7727 3.9885 3
-7 3 0 29.7709 3.9324 3
-7 3 0 34.144 4.2056 2
7 3 0 25.3601 4.708 1
-8 -3 0 208.596 8.691 2
-8 -3 0 205.528 10.699 3
8 -3 0 191.098 10.842 1
-8 3 0 200.219 10.469 3
8 3 0 199.406 12.484 1
-8 3 0 206.201 10.492 2
-9 -3 0 212.867 11.504 3
9 -3 0 208.793 11.685 1
-9 3 0 216.327 11.469 3
9 3 0 232.957 13.772 1
-9 3 0 214.922 11.118 2
10 -3 0 140.765 9.238 1
-10 -3 0 129.999 8.932 3
10 3 0 144.405 11.11 1
-10 3 0 124.63 8.717 3
-10 3 0 141.421 8.596 2
11 -3 0 194.174 11.896 1
-11 -3 0 173.505 11.391 3
11 3 0 225.145 14.232 1
-11 3 0 219.939 11.456 2
-11 3 0 197.436 11.803 3
-12 -3 0 87.2771 8.7413 3
12 3 0 99.754 10.9174 1
-12 3 0 82.9062 8.5549 3
-12 3 0 95.6626 8.3315 2
-13 -3 0 157.679 11.003 3
-13 3 0 150.973 9.766 2
-13 3 0 154.941 10.969 3
13 3 0 141.82 13.909 1
-14 -3 0 4.79179 3.20799 3
14 3 0 6.64125 4.44629 1
-14 3 0 -3.5204 2.4586 3
-15 -3 0 -3.3511 2.5236 3
-15 3 0 1.27231 3.19704 3
-16 -3 0 13.7408 4.5143 3
-16 3 0 13.456 5.0156 3
-17 -3 0 6.42393 3.92839 3
-17 3 0 11.5505 5.1911 3
-18 -3 0 7.41975 4.413 3
-18 3 0 2.97243 4.282 3
-19 -3 0 9.43146 4.96833 3
-19 3 0 12.479 5.472 3
-20 -3 0 38.308 7.974 3
-20 3 0 23.7739 7.5406 3
0 4 0 228.833 12.278 1
0 4 0 235.214 10.595 2
-1 4 0 59.4813 4.3439 2
-1 4 0 64.7815 6.3341 1
1 4 0 55.0759 4.1073 2
1 4 0 56.4356 6.167 1
-2 -4 0 49.3797 2.7668 3
2 4 0 47.8382 3.6295 2
-2 4 0 57.9893 5.9086 1
-2 4 0 44.64 4.3981 2
2 4 0 46.798 5.67 1
3 -4 0 403.871 16.967 1
-3 -4 0 393.306 15.198 3
-3 4 0 401.981 17.038 2
-3 4 0 408.949 14.927 3
3 4 0 410.837 19.278 1
-3 4 0 421.976 18.652 1
-4 -4 0 2.49819 1.11095 3
4 -4 0 3.37983 1.61715 1
-4 4 0 2.07276 1.16214 3
-4 4 0 1.11074 1.44453 2
4 4 0 3.91812 1.34014 2
4 4 0 4.78744 2.50971 1
-5 -4 0 143.298 7.493 3
-5 4 0 150.629 8.583 2
-5 4 0 159.596 7.451 3
5 4 0 149.916 10.191 1
-6 -4 0 140.727 7.552 3
-6 4 0 128.9 8.047 2
-6 4 0 140.066 7.332 3
6 4 0 132.907 9.761 1
7 -4 0 311.523 15.12 1
-7 -4 0 320.671 14.094 3
-7 4 0 292.939 14.482 2
7 4 0 303.4 16.956 1
8 -4 0 14.9305 3.3791 1
-8 -4 0 14.5946 3.1983 3
-8 4 0 8.38916 2.54757 3
-8 4 0 12.3298 3.1759 2
8 4 0 6.9065 3.55107 1
-9 -4 0 11.8708 3.0399 3
9 -4 0 10.3732 3.2834 1
-9 4 0 -0.089 2.0502 2
-9 4 0 16.9554 3.3312 3
9 4 0 14.5669 4.6433 1
10 -4 0 56.6126 6.7557 1
-10 -4 0 52.5661 6.1655 3
-10 4 0 52.3927 6.1892 2
-10 4 0 61.5336 6.5511 3
10 4 0 61.1526 8.6098 1
-11 -4 0 207.339 12.443 3
11 -4 0 210.599 12.812 1
-11 4 0 228.879 12.574 2
11 4 0 235.336 15.485 1
-11 4 0 214.79 12.471 3
-12 -4 0 26.3979 5.2146 3
-12 4 0 27.136 4.8805 2
12 4 0 18.7773 6.0913 1
-12 4 0 17.9398 4.4068 3
-13 -4 0 189.088 12.767 3
-13 4 0 224.399 12.757 2
13 4 0 212.628 15.691 1
-13 4 0 210.289 13.207 3
-14 -4 0 3.7921 3.10488 3
14 4 0 9.35059 5.20523 1
-14 4 0 8.68495 3.76238 3
-14 4 0 2.74295 2.8041 2
-15 -4 0 117.264 11.492 3
15 4 0 102.947 12.968 1
-15 4 0 106.506 11.105 3
-16 -4 0 7.35448 4.12881 3
-16 4 0 18.7645 5.1538 3
-17 -4 0 4.09398 3.98063 3
-17 4 0 3.80532 3.99843 3
-18 -4 0 41.6053 8.294 3
-18 4 0 34.6068 7.7606 3
-19 -4 0 18.9614 6.0541 3
-19 4 0 9.58758 5.24936 3
0 5 0 -1.2284 1.9228 1
0 5 0 -1.7172 1.0022 2
-1 5 0 3.54627 2.10178 1
1 5 0 1.35747 1.68347 2
1 5 0 5.25624 2.69273 1
-1 5 0 4.64932 1.92813 2
-2 -5 0 35.8153 2.3287 3
2 5 0 33.8413 3.8915 2
-2 5 0 48.3465 4.9858 2
2 5 0 34.8567 5.6369 1
-2 5 0 31.4497 5.021 1
-3 -5 0 51.2665 3.3873 3
-3 5 0 59.7869 3.055 3
-3 5 0 55.0555 5.512 2
3 5 0 60.1426 4.3413 2
-3 5 0 47.8462 6.2538 1
3 5 0 73.0637 8.0787 1
-4 -5 0 4.79495 1.46211 3
4 -5 0 5.16603 1.99753 1
-4 5 0 5.60495 2.29431 2
-4 5 0 8.45602 1.57056 3
4 5 0 6.23753 1.91601 2
4 5 0 0.43537 2.50798 1
-5 -5 0 132.2 6.738 3
5 -5 0 117.857 7.342 1
-5 5 0 106.898 7.516 2
5 5 0 105.524 10.602 1
-5 5 0 127.033 6.315 3
-6 -5 0 238.726 11.065 3
6 -5 0 236.043 11.741 1
-6 5 0 244.135 10.74 3
-6 5 0 220.331 12.157 2
6 5 0 232.187 14.703 1
-7 -5 0 103.286 6.627 3
-7 5 0 94.9429 8.306 2
7 5 0 92.5967 10.4154 1
-7 5 0 93.3987 6.1328 3
-8 -5 0 22.1231 3.7577 3
8 -5 0 31.6767 5.1103 1
8 5 0 22.1371 5.6431 1
-8 5 0 22.5863 4.2262 2
-8 5 0 21.5351 3.6507 3
-9 -5 0 86.8852 7.6501 3
9 -5 0 93.5674 8.9352 1
-9 5 0 69.6967 7.4938 2
9 5 0 95.3641 11.1297 1
-10 -5 0 -0.3524 2.2112 3
10 -5 0 3.88307 2.7542 1
10 5 0 3.33174 3.89797 1
-10 5 0 3.33827 2.46437 3
-10 5 0 0.97142 2.06189 2
-11 -5 0 -0.1033 2.1928 3
-11 5 0 4.62053 2.88359 3
11 5 0 4.66543 4.14522 1
-11 5 0 5.67725 2.98445 2
-12 -5 0 475.375 22.667 3
-12 5 0 505.962 22.866 2
-12 5 0 454.57 22.173 3
12 5 0 494.261 26.827 1
-13 -5 0 35.2889 5.8964 3
-13 5 0 33.045 5.7852 3
13 5 0 42.2412 8.8194 1
-13 5 0 30.4713 5.5245 2
-14 -5 0 208.295 14.058 3
-14 5 0 246.348 14.136 2
-14 5 0 212.626 13.874 3
14 5 0 233.708 17.572 1
-15 -5 0 1.49151 3.00033 3
-15 5 0 0.51218 3.25424 3
15 5 0 -0.5641 4.3728 1
-16 -5 0 1.53916 3.05824 3
-16 5 0 4.00223 4.02813 3
-17 -5 0 1.73629 3.6625 3
-17 5 0 4.30853 4.01481 3
-18 -5 0 -0.4451 3.2611 3
-18 5 0 5.09232 4.74019 3
-19 -5 0 13.5849 5.6806 3
-19 5 0 16.2338 6.2701 3
0 6 0 101.487 10.104 1
0 6 0 90.7811 6.402 2
-1 6 0 244.899 12.238 2
-1 6 0 225.09 13.849 1
1 6 0 235.54 11.685 2
1 6 0 236.582 14.282 1
-2 -6 0 11.4383 1.4044 3
2 6 0 11.1555 3.6693 1
2 6 0 14.4238 2.9521 2
-2 6 0 7.55441 3.34521 1
-2 6 0 3.03552 2.06705 2
-3 -6 0 1.49101 1.1091 3
-3 6 0 1.94304 1.68084 2
3 6 0 -0.6685 1.2518 2
3 6 0 -0.5096 2.388 1
-3 6 0 0.52396 2.20731 1
-4 -6 0 10.2165 2.0195 3
4 -6 0 10.7228 2.8582 1
-4 6 0 14.3297 3.2312 2
4 6 0 13.5771 4.2901 1
5 -6 0 87.2155 6.7447 1
-5 -6 0 93.4412 5.607 3
-5 6 0 90.6993 8.0823 2
-5 6 0 94.3783 5.1501 3
5 6 0 93.686 6.0337 2
5 6 0 94.3976 10.4912 1
6 -6 0 0.43566 2.117 1
-6 -6 0 7.43215 2.24199 3
6 6 0 4.34243 3.40795 1
-6 6 0 3.13188 1.65858 3
-6 6 0 2.36414 2.09079 2
7 -6 0 1.12991 2.2157 1
-7 -6 0 4.09085 2.16408 3
7 6 0 1.06483 3.3181 1
-7 6 0 3.12233 1.91394 3
-7 6 0 -0.8863 2.0186 2
-8 -6 0 623.875 25.038 3
-8 6 0 621.908 24.566 3
-8 6 0 590.048 26.468 2
8 6 0 604.032 30.571 1
-9 -6 0 34.1536 4.9887 3
9 -6 0 47.3914 6.7648 1
9 6 0 49.5592 8.411 1
-9 6 0 40.8787 5.9095 2
-9 6 0 65.9854 6.3898 3
-10 -6 0 2.41911 2.37931 3
10 -6 0 2.02529 3.34085 1
-10 6 0 -0.1072 2.421 3
10 6 0 -0.7832 3.8672 1
-10 6 0 -1.747 2.3125 2
-11 -6 0 -4.1414 1.7622 3
-11 6 0 -1.3636 1.8863 3
11 6 0 6.23672 4.59193 1
-11 6 0 -0.6955 2.2779 2
-12 -6 0 7.23261 3.26293 3
-12 6 0 6.53384 3.57329 3
-12 6 0 5.298 3.40239 2
12 6 0 6.90327 4.68549 1
-13 -6 0 2.90809 3.01117 3
-13 6 0 -1.5803 2.7045 2
13 6 0 2.0835 4.6423 1
-13 6 0 1.99682 3.29513 3
-14 -6 0 10.4565 3.9667 3
-14 6 0 -0.7736 2.8726 2
14 6 0 1.8294 5.35971 1
-14 6 0 15.0561 4.6357 3
-15 -6 0 20.7905 5.4584 3
15 6 0 17.2501 7.4921 1
-15 6 0 28.3984 6.0043 2
-16 -6 0 -1.9332 2.9605 3
16 6 0 -0.6281 5.6489 1
-17 -6 0 -2.2325 3.3999 3
-18 -6 0 49.8294 8.8386 3
0 7 0 1.10192 1.83211 2
0 7 0 1.53203 2.70535 1
1 7 0 0.89783 2.28273 1
-1 7 0 -1.3083 1.4395 2
-1 7 0 3.13709 2.56324 1
1 7 0 -0.8916 1.5118 2
2 7 0 457.043 23.558 1
2 7 0 441.568 19.262 2
-2 7 0 421.38 19.9 2
-2 7 0 444.729 22.832 1
-3 7 0 15.0229 4.7803 1
3 7 0 8.90003 4.01247 1
-3 7 0 12.6962 3.3467 2
3 7 0 15.9829 3.3723 2
4 -7 0 263.354 13.444 1
-4 7 0 234.89 13.475 2
4 7 0 237.34 16.156 1
4 7 0 242.761 12.225 2
5 -7 0 6.94475 2.88908 1
5 7 0 10.4133 2.7481 2
-5 7 0 5.05524 2.70368 2
5 7 0 0.9079 3.10951 1
6 -7 0 79.4631 7.8327 1
6 7 0 95.2721 11.4352 1
-6 7 0 100.2 9.334 2
7 -7 0 107.929 8.199 1
-7 7 0 88.206 9.1795 2
7 7 0 102.836 12.32 1
8 -7 0 159.782 10.698 1
-8 7 0 146.955 10.676 2
8 7 0 182.744 14.257 1
-9 -7 0 32.3862 4.8679 3
9 7 0 30.827 8.0697 1
-9 7 0 36.3425 6.2288 2
-10 -7 0 20.8376 4.4012 3
-10 7 0 21.7611 4.9284 2
10 7 0 24.5143 7.3871 1
-11 -7 0 3.19869 2.67636 3
11 7 0 2.25304 4.61777 1
-11 7 0 2.72953 3.10601 2
-12 -7 0 114.888 10.372 3
-12 7 0 120.864 11.616 2
12 7 0 91.2583 13.331 1
-13 -7 0 25.9366 5.2528 3
-13 7 0 16.8234 4.8167 2
13 7 0 15.9758 6.7461 1
-14 -7 0 9.44942 4.06036 3
-14 7 0 7.03746 4.08452 2
14 7 0 9.50415 6.02582 1
-15 -7 0 0.68931 3.09434 3
15 7 0 1.71095 6.04448 1
-15 7 0 -0.2959 3.472 2
-16 -7 0 7.55133 4.16069 3
16 7 0 1.22949 6.46265 1
-17 -7 0 13.5369 5.1543 3
0 8 0 19.1977 5.8335 1
0 8 0 16.2306 4.1863 2
-1 8 0 636.398 27.971 2
1 8 0 667.875 27.831 2
1 8 0 681.024 32.585 1
-1 8 0 671.781 32.155 1
-2 8 0 68.5025 9.4535 1
2 8 0 48.0004 8.1779 1
-2 8 0 67.944 7.5976 2
2 8 0 64.4368 7.0414 2
3 8 0 48.0956 5.9755 2
-3 8 0 46.0519 6.2708 2
3 8 0 56.51 9.019 1
-3 8 0 53.3509 8.2718 1
4 -8 0 69.5312 7.7172 1
4 8 0 63.5302 9.6265 1
4 8 0 55.6924 6.3815 2
-4 8 0 44.676 6.7119 2
5 -8 0 127.849 9.539 1
5 8 0 142.868 14.808 1
-5 8 0 126.959 11.295 2
6 -8 0 16.7278 4.3261 1
6 8 0 14.2881 5.8534 1
-6 8 0 11.7329 3.8796 2
7 -8 0 76.8462 8.2589 1
-7 8 0 75.2142 8.8332 2
7 8 0 79.3264 11.4757 1
8 -8 0 187.985 12.158 1
8 8 0 206.374 19.279 1
-8 8 0 196.137 13.13 2
9 -8 0 31.8745 6.3585 1
9 8 0 46.2669 9.5131 1
-9 8 0 14.195 4.6333 2
-10 8 0 98.9604 10.6724 2
10 8 0 89.3733 13.1505 1
-11 8 0 -1.4581 2.5483 2
11 8 0 -3.6121 4.6133 1
12 8 0 -0.9488 5.0993 1
-12 8 0 -0.6875 2.9834 2
-13 8 0 -0.034 3.2748 2
13 8 0 4.70991 5.66545 1
-14 8 0 6.08287 3.98111 2
14 8 0 5.75867 6.46941 1
-15 8 0 -0.1694 3.7342 2
15 8 0 9.1401 7.34453 1
16 8 0 6.12264 7.59363 1
0 9 0 1.04904 2.41181 2
0 9 0 -0.9588 2.7542 1
-1 9 0 131.42 13.956 1
1 9 0 133.52 14.23 1
1 9 0 124.201 9.374 2
-1 9 0 136.072 11.639 2
2 9 0 10.2922 3.5479 2
-2 9 0 2.24861 3.78705 1
-2 9 0 3.05644 2.88378 2
2 9 0 4.16418 4.44523 1
3 9 0 44.8828 8.5268 1
-3 9 0 38.0112 6.3848 2
3 9 0 37.1939 5.734 2
-3 9 0 46.3736 8.4644 1
4 -9 0 26.5909 5.3903 1
-4 9 0 24.1761 5.2105 2
4 9 0 25.8676 6.8239 1
4 9 0 31.852 5.1659 2
5 -9 0 26.5468 5.4018 1
5 9 0 28.9632 4.9331 2
5 9 0 21.8698 6.5961 1
-5 9 0 26.464 5.3307 2
6 -9 0 0.75406 2.80332 1
-6 9 0 9.38687 4.00069 2
6 9 0 11.1481 5.746 1
7 -9 0 17.7797 4.6404 1
-7 9 0 9.56437 3.83283 2
7 9 0 15.5641 6.7706 1
8 -9 0 40.0559 6.3896 1
8 9 0 30.4292 8.4341 1
-8 9 0 34.6129 6.6971 2
9 9 0 63.2958 11.6467 1
-9 9 0 80.2199 9.709 2
10 9 0 3.38435 5.47011 1
-10 9 0 4.34295 3.98825 2
-11 9 0 34.4866 7.1916 2
11 9 0 39.021 9.6634 1
12 9 0 75.8766 13.2432 1
-12 9 0 69.3392 9.6485 2
-13 9 0 1.86292 3.74024 2
13 9 0 3.25277 6.30763 1
-14 9 0 33.5918 7.3935 2
14 9 0 18.0889 8.8035 1
15 9 0 1.62031 7.45695 1
-15 9 0 11.1591 5.0281 2
0 10 0 42.2922 8.5859 1
0 10 0 47.3579 6.9145 2
1 10 0 297.759 16.24 2
-1 10 0 310.194 20.222 1
1 10 0 263.403 19.522 1
-1 10 0 280.89 16.284 2
2 10 0 32.3688 7.9404 1
-2 10 0 37.9697 8.42 1
-2 10 0 36.9857 6.3474 2
2 10 0 35.2714 6.0507 2
-3 10 0 4.38401 4.15559 1
-3 10 0 8.31741 3.7489 2
3 10 0 -0.5927 3.1273 1
3 10 0 4.07123 3.01077 2
4 -10 0 -0.3726 2.7656 1
4 10 0 -0.6107 3.8163 1
-4 10 0 4.07617 3.1918 2
4 10 0 5.56603 3.07441 2
5 -10 0 2.8193 3.42721 1
-5 10 0 1.59408 2.8492 2
5 10 0 -3.5184 3.3025 1
5 10 0 3.24836 2.98071 2
6 -10 0 19.1049 5.1431 1
-6 10 0 39.7844 7.147 2
6 10 0 38.639 8.9384 1
7 -10 0 19.0453 5.2066 1
-7 10 0 30.8275 6.4623 2
7 10 0 21.6737 7.4635 1
-8 10 0 19.2451 5.3682 2
8 10 0 27.819 8.6274 1
-9 10 0 9.16297 4.308 2
9 10 0 13.1816 6.7728 1
-10 10 0 1.06439 3.46291 2
10 10 0 3.03199 6.08203 1
11 10 0 37.8477 10.2745 1
-11 10 0 29.0686 6.9687 2
12 10 0 2.03136 6.38384 1
-12 10 0 -0.7903 3.5905 2
13 10 0 4.36663 6.96218 1
-13 10 0 1.02184 3.74355 2
14 10 0 6.93045 7.96702 1
-14 10 0 -0.5682 4.0093 2
0 11 0 2.14972 3.21333 2
0 11 0 -2.916 3.444 1
-1 11 0 84.1988 9.5207 2
-1 11 0 77.8534 11.9122 1
1 11 0 74.3346 9.0982 2
1 11 0 80.691 12.5267 1
-2 11 0 0.37649 3.0252 2
-2 11 0 -0.8415 4.1649 1
2 11 0 2.40854 4.67397 1
2 11 0 0.63612 2.5995 2
3 -11 0 -2.6557 3.0975 1
3 11 0 1.31986 3.01495 2
-3 11 0 -1.4143 2.4369 2
3 11 0 -3.0389 4.1003 1
-3 11 0 -1.3131 3.9795 1
4 -11 0 12.5912 4.71 1
4 11 0 8.22746 5.70398 1
4 11 0 13.7562 4.2503 2
-4 11 0 18.2731 5.0585 2
5 -11 0 29.132 6.2776 1
-5 11 0 42.3034 7.6406 2
5 11 0 30.2416 8.6754 1
6 -11 0 15.4167 5.1612 1
6 11 0 20.262 6.9783 1
-6 11 0 13.2358 4.9892 2
7 -11 0 -1.4934 3.4108 1
7 11 0 3.65491 5.50413 1
-7 11 0 3.98273 3.83062 2
-8 11 0 5.29966 4.23255 2
8 11 0 7.66794 6.32694 1
-9 11 0 25.2456 6.7066 2
9 11 0 32.9243 9.3173 1
10 11 0 16.212 8.3979 1
-10 11 0 37.1136 7.9079 2
11 11 0 3.43011 6.89951 1
-11 11 0 1.27569 4.4121 2
-12 11 0 1.66014 4.65149 2
12 11 0 8.56277 8.15735 1
0 12 0 46.5257 7.5949 2
0 12 0 41.7518 9.7348 1
-1 12 0 112.143 15.09 1
1 12 0 112.628 15.201 1
-1 12 0 121.364 12.27 2
1 12 0 99.6206 10.9582 2
-2 12 0 0.98461 4.4718 1
2 12 0 -2.2077 4.0332 1
2 12 0 -1.401 2.7774 2
-2 12 0 -1.8469 3.0779 2
3 -12 0 5.45219 4.24297 1
3 12 0 5.68774 5.37128 1
3 12 0 6.94234 3.93924 2
-3 12 0 4.68353 3.59493 2
4 -12 0 5.20057 4.0562 1
4 12 0 1.12374 4.22135 1
-4 12 0 -1.8211 2.9387 2
5 -12 0 -3.9443 3.4685 1
-5 12 0 0.55319 3.4139 2
5 12 0 -1.1297 4.8029 1
6 -12 0 2.7371 4.27286 1
-6 12 0 10.5875 4.7426 2
6 12 0 -1.8351 5.0611 1
7 12 0 19.5281 8.6851 1
-7 12 0 18.6178 6.0417 2
8 12 0 2.86934 5.6262 1
-8 12 0 -0.7963 3.1182 2
9 12 0 -0.6109 5.672 1
-9 12 0 2.00819 4.06803 2
-10 12 0 27.359 7.196 2
10 12 0 21.1614 9.9139 1
0 13 0 5.19394 5.78325 1
0 13 0 -1.6908 3.3839 2
1 13 0 3.08502 3.62225 2
1 13 0 6.09882 5.66056 1
-1 13 0 -0.5753 3.3849 2
-1 13 0 2.20267 5.82417 1
2 -13 0 -1.852 4.3014 1
2 13 0 2.73442 5.51287 1
2 13 0 5.92673 4.60851 2
-2 13 0 5.45782 4.25151 2
3 -13 0 -1.8496 4.1185 1
3 13 0 2.25542 4.79492 1
-3 13 0 1.22756 3.68371 2
4 -13 0 36.0862 7.7399 1
-4 13 0 37.5729 7.6786 2
4 13 0 17.5106 7.7851 1
5 -13 0 20.115 6.543 1
-5 13 0 8.31035 4.71499 2
5 13 0 13.4015 7.3774 1
-6 13 0 0.31646 3.75041 2
6 13 0 5.86848 6.25626 1
7 13 0 -1.1563 5.6252 1
-7 13 0 8.69252 4.74039 2
-20 0 1 29.5851 7.7751 3
-19 0 1 3.0462 4.2574 3
-18 0 1 96.258 11.7741 3
-17 0 1 -0.3433 2.9264 3
-16 0 1 199.347 14.278 3
-15 0 1 0.18477 3.15742 3
-14 0 1 765.553 33.137 3
14 0 -1 743.699 34.16 1
-13 0 1 0.15924 2.09154 3
13 0 -1 3.36985 3.08033 1
-11 0 1 -1.1467 1.5842 3
11 0 -1 -1.4797 1.8167 1
-10 0 1 143.846 6.794 2
-10 0 1 123.792 8.593 3
9 0 -1 0.67327 1.7109 1
-9 0 1 1.93093 1.22654 2
-9 0 1 -0.5159 1.2335 3
8 0 -1 1187.9 47.53 1
-8 0 1 1261.5 43 2
-8 0 1 1239.99 45.35 3
-7 0 1 -0.3855 1.2751 3
-7 0 1 -0.0769 0.8263 2
7 0 -1 -1.3206 1.3882 1
-6 0 1 434.184 15.989 2
6 0 -1 431.773 18.727 1
-6 0 1 458.021 17.811 3
5 0 -1 4.17032 1.61037 1
-5 0 1 0.46087 0.63786 2
-5 0 1 0.59736 1.06965 3
4 0 -1 764.938 29.563 1
-4 0 1 789.371 28.013 3
3 0 -1 -0.6283 0.7576 1
-3 0 1 -0.5879 0.554 3
-2 0 1 1497.15 50.45 3
2 0 -1 1435.33 53.18 1
-3 0 -1 0.93787 0.88012 2
3 0 1 -0.2479 0.7497 1
-4 0 -1 2169.61 75.25 3
4 0 1 2172.68 78.45 1
-4 0 -1 2237 75.09 2
-5 0 -1 -0.6173 0.9146 2
5 0 1 0.69346 1.06886 1
-5 0 -1 -0.1644 1.0461 3
-6 0 -1 241.688 10.203 2
6 0 1 240.158 10.923 1
-6 0 -1 223.179 10.792 3
7 0 1 -0.6797 1.3787 1
-7 0 -1 1.81101 1.24581 2
-7 0 -1 0.47102 1.24968 3
-8 0 -1 1.81648 1.77132 3
8 0 1 2.82962 1.97912 1
-8 0 -1 4.06083 1.61692 2
-9 0 -1 -1.1635 1.2858 2
9 0 1 0.31519 1.85017 1
-9 0 -1 2.35246 1.97131 3
10 0 1 35.9533 5.2352 1
-10 0 -1 45.5238 4.485 2
-10 0 -1 28.4512 4.6343 3
-11 0 -1 0.96259 1.76557 2
-11 0 -1 -1.3053 1.7919 3
11 0 1 -1.9444 2.2672 1
-12 0 -1 47.3047 6.3855 3
12 0 1 45.5074 6.5474 1
-13 0 -1 0.08835 2.4873 3
-14 0 -1 387.729 20.521 3
-15 0 -1 -1.8663 2.9881 3
-16 0 -1 25.0435 6.1034 3
-17 0 -1 5.49602 3.95565 3
-18 0 -1 240.65 17.028 3
-19 0 -1 -1.9427 3.7509 3
-20 0 -1 34.561 8.4906 3
-20 -1 1 -0.6636 4.019 3
-20 1 1 -2.0553 4.2522 3
-19 -1 1 -1.0105 3.5279 3
-19 1 1 -1.739 3.2845 3
-18 -1 1 31.943 6.8414 3
-18 1 1 24.3443 6.5607 3
-17 -1 1 -0.3071 3.2087 3
-17 1 1 -0.0995 3.2496 3
-16 -1 1 154.016 14.176 3
-16 1 1 194.998 13.562 3
-15 -1 1 41.5026 7.0747 3
-15 1 1 31.0506 6.2506 3
-14 -1 1 25.9003 5.5147 3
14 1 -1 16.5265 5.2602 1
-14 1 1 36.9848 6.3343 3
-13 -1 1 137.4 10.263 3
13 -1 -1 164.53 11.559 1
-13 1 1 150.268 10.771 3
13 1 -1 163.149 12.085 1
12 -1 -1 342.045 17.256 1
-12 -1 1 309.848 16.246 3
-12 1 1 315.266 16.29 3
12 1 -1 283.207 17.095 1
-11 -1 1 19.9105 3.976 3
11 -1 -1 19.5193 4.2908 1
-11 1 1 22.579 4.1856 3
11 1 -1 28.8229 5.4609 1
-11 1 1 16.9314 2.8456 2
-10 -1 1 5.22546 1.32509 2
10 -1 -1 2.02364 2.26541 1
-10 -1 1 8.271 2.8235 3
-10 1 1 6.02545 2.57429 3
10 1 -1 9.8088 3.37955 1
-10 1 1 6.84712 1.91453 2
-9 -1 1 500.677 17.703 2
-9 -1 1 458.065 20.545 3
-9 1 1 472.608 20.676 3
-9 1 1 499.898 19.022 2
9 1 -1 482.531 22.268 1
-8 -1 1 42.6932 2.6268 2
-8 -1 1 51.658 5.1392 3
8 1 -1 45.5368 5.636 1
-8 1 1 39.6349 4.72 3
-8 1 1 45.5104 3.4602 2
-7 -1 1 11.4716 2.4354 3
-7 -1 1 13.372 1.4299 2
-7 1 1 15.4093 2.1962 2
-7 1 1 18.3371 3.0779 3
7 1 -1 14.0515 3.1072 1
-6 -1 1 1014.81 37.77 3
6 1 -1 1055.41 40.43 1
-6 1 1 1059.01 36.83 2
-6 1 1 1031.45 37.78 3
-5 -1 1 140.532 6.679 3
-5 1 1 119.982 5.803 2
5 1 -1 113.764 7.183 1
-5 1 1 130.042 6.484 3
-4 -1 1 43.2974 3.1965 3
4 -1 -1 51.5587 3.7264 1
-4 1 1 46.0204 3.2091 3
-4 1 1 45.9564 2.9765 2
4 1 -1 53.5881 4.2195 1
3 -1 -1 383.919 15.103 1
-3 -1 1 360.878 14.025 3
-3 1 1 381.78 14.076 3
-3 1 1 379.459 13.881 2
3 1 -1 371.417 15.491 1
-2 -1 1 186.819 7.226 3
2 -1 -1 175.807 7.916 1
-2 1 1 186.914 7.298 2
2 1 -1 180.374 8.257 1
1 -1 -1 4378.38 156.4 1
-1 1 1 4494.39 149.42 2
0 1 1 3243.25 109.73 2
0 1 -1 3284.23 109.87 2
0 1 1 3228.32 115.38 1
1 1 1 2701.61 96.81 1
-1 1 -1 2731.97 92.34 2
-2 1 -1 200.291 8.28 2
-3 1 -1 18.2379 2.2205 2
-3 1 -1 16.7091 1.9033 3
-4 -1 -1 151.368 7.025 3
-4 -1 -1 146.099 6.47 2
4 -1 1 145.48 6.723 1
-4 1 -1 148.666 7.045 2
-4 1 -1 153.331 6.976 3
5 -1 1 390.202 15.025 1
-5 -1 -1 394.853 15.122 3
-5 -1 -1 377.823 14.137 2
5 1 1 296.116 15.299 1
-5 1 -1 380.273 14.804 2
-6 -1 -1 174.335 8.511 3
6 -1 1 157.361 8.006 1
-6 -1 -1 162.34 7.393 2
-6 1 -1 157.674 7.868 2
6 1 1 158.1 8.735 1
-6 1 -1 157.13 8.227 3
7 -1 1 899.867 34.304 1
-7 -1 -1 883.936 33.673 3
-7 -1 -1 885.389 32.203 2
7 1 1 908.261 35.296 1
-7 1 -1 896.754 33.575 3
-7 1 -1 885.759 32.878 2
-8 -1 -1 78.9061 4.9781 2
-8 -1 -1 79.8875 6.0768 3
8 -1 1 80.4935 5.9077 1
-8 1 -1 90.8835 5.5896 2
-8 1 -1 81.8383 5.9771 3
8 1 1 83.9419 6.5159 1
-9 -1 -1 18.7407 3.4773 3
-9 -1 -1 15.195 2.5833 2
9 -1 1 19.195 3.5543 1
-9 1 -1 13.1472 2.677 2
-9 1 -1 16.9834 3.4368 3
9 1 1 10.6841 3.1606 1
10 -1 1 38.4956 5.1265 1
-10 -1 -1 53.7007 6.1727 3
-10 -1 -1 41.4671 4.1133 2
10 1 1 43.6088 5.9912 1
-10 1 -1 39.5662 5.328 3
-10 1 -1 43.9599 4.703 2
-11 -1 -1 30.0988 4.8579 3
11 -1 1 37.0823 5.258 1
-11 1 -1 42.6418 5.8002 3
-11 1 -1 30.9101 4.14 2
11 1 1 30.8305 5.3414 1
-12 -1 -1 91.3358 8.9575 3
-12 1 -1 81.8643 6.2395 2
12 1 1 74.7755 8.5288 1
-12 1 -1 92.715 8.9527 3
-13 -1 -1 1.72345 2.57808 3
-13 1 -1 2.96007 2.97837 3
-14 -1 -1 222.208 14.231 3
-14 1 -1 229.37 14.317 3
-15 -1 -1 4.9678 3.43654 3
-15 1 -1 11.0681 4.1971 3
-16 -1 -1 36.5082 7.1797 3
-16 1 -1 35.7697 6.859 3
-17 -1 -1 10.9467 4.9319 3
-17 1 -1 14.3764 4.8775 3
-18 -1 -1 5.43683 4.46301 3
-18 1 -1 4.32511 4.23622 3
-19 -1 -1 1.96675 4.18416 3
-19 1 -1 0.96595 4.29238 3
-20 -1 -1 15.1083 6.1453 3
-20 1 -1 17.9879 7.026 3
-20 -2 1 10.2824 5.5109 3
-20 2 1 7.05437 5.34578 3
-19 -2 1 2.85529 3.98385 3
-19 2 1 6.23048 4.36429 3
-18 -2 1 42.5365 8.0613 3
-18 2 1 38.7011 7.7105 3
-17 -2 1 0.79003 3.27951 3
-17 2 1 3.23287 3.87033 3
-16 -2 1 113.061 11.841 3
-16 2 1 117.148 11.93 3
-15 -2 1 67.4668 8.7544 3
15 2 -1 79.3998 10.6667 1
-15 2 1 76.2565 9.2 3
-14 -2 1 48.3712 7.2951 3
-14 2 1 84.0624 9.094 3
14 2 -1 80.0453 10.294 1
-13 -2 1 29.8353 5.3956 3
13 -2 -1 25.9982 5.5809 1
-13 2 1 40.3674 6.2239 3
13 2 -1 29.4237 6.473 1
12 -2 -1 17.3039 4.4051 1
-12 -2 1 26.6972 4.9099 3
-12 2 1 25.0518 3.9402 2
-12 2 1 15.6834 3.9295 3
12 2 -1 18.0429 5.0227 1
11 -2 -1 6.22395 3.38817 1
-11 -2 1 15.1711 3.7433 3
-11 2 1 10.2036 2.5482 2
-11 2 1 8.4261 3.03272 3
11 2 -1 8.1302 3.7581 1
10 -2 -1 6.9621 2.79911 1
-10 -2 1 7.47997 2.6583 3
10 2 -1 8.26474 3.62743 1
-10 2 1 5.62335 2.1324 2
-10 2 1 9.1679 2.78543 3
-9 -2 1 115.116 7.755 3
9 -2 -1 109.939 7.963 1
-9 2 1 123.428 7.855 3
9 2 -1 125.03 9.187 1
-9 2 1 121.498 7.021 2
-8 -2 1 221.263 11.27 3
8 2 -1 218.236 12.633 1
-8 2 1 222.48 10.539 2
-8 2 1 238.527 11.38 3
-7 -2 1 180.085 9.373 3
-7 2 1 174.535 9.267 3
-7 2 1 189.674 8.98 2
7 2 -1 195.122 11.101 1
-6 -2 1 144.143 7.671 3
-6 2 1 148.403 7.481 2
6 2 -1 139.681 9.05 1
-6 2 1 162.439 7.873 3
5 -2 -1 2.75424 1.41317 1
-5 -2 1 1.27719 1.21065 3
-5 2 1 3.32919 1.35793 3
5 2 -1 -0.382 1.591 1
-5 2 1 5.2677 1.57562 2
4 -2 -1 0.51907 1.18575 1
-4 -2 1 -1.3466 0.8168 3
-4 2 1 -0.798 0.7535 3
4 2 -1 -1.1278 1.2955 1
-4 2 1 0.54867 0.97196 2
-3 -2 1 202.515 8.236 3
3 -2 -1 208.6 8.893 1
3 2 -1 219.001 10.212 1
-3 2 1 172.589 7.954 3
-3 2 1 206.039 8.683 2
3 2 -1 202.391 7.597 2
-2 -2 1 309.492 11.095 3
2 -2 -1 295.881 12.117 1
2 2 -1 277.566 13.04 1
-2 2 1 299.843 10.967 3
2 2 -1 309.219 11.121 2
-2 2 1 288.273 11.778 2
1 2 -1 137.351 7.099 1
-1 2 1 141.83 7.144 1
-1 2 1 129.28 6.095 2
0 2 1 219.497 10.112 1
0 2 1 219.661 8.853 2
0 2 -1 221.195 9.878 1
0 2 -1 220.863 8.909 2
1 2 1 3455.14 123.56 1
-1 2 -1 3457.75 117.27 2
-1 2 -1 3460.04 122.86 1
1 2 1 3441.3 116.8 2
-2 2 -1 1556.85 52.88 2
2 2 1 1472.56 55.87 1
-2 2 -1 1512.78 55.01 1
3 -2 1 1534.54 54.64 1
-3 2 -1 1531.85 53.4 2
3 2 1 1499.94 56.49 1
-4 -2 -1 1131.37 40.77 3
4 -2 1 1128.47 42.4 1
4 2 1 1146.7 44.03 1
-4 2 -1 1181.49 41.46 2
-4 2 -1 1192.53 40.75 3
5 -2 1 424.111 17.226 1
-5 -2 -1 411.478 16.93 3
5 2 1 438.718 18.848 1
-5 2 -1 435.77 16.954 3
-5 2 -1 428.928 17.261 2
-6 -2 -1 1366.2 47.95 2
6 -2 1 1354.67 50.71 1
-6 -2 -1 1368.62 49.21 3
6 2 1 1363.29 52.41 1
-6 2 -1 1382.38 49.25 2
-6 2 -1 1400.11 49.06 3
-7 -2 -1 213.465 10.927 3
-7 -2 -1 216.431 9.652 2
7 -2 1 231.844 10.857 1
7 2 1 222.419 12.176 1
-7 2 -1 235.869 10.951 2
-7 2 -1 232.242 10.988 3
8 -2 1 3.47366 2.05619 1
-8 -2 -1 5.12371 1.73304 2
-8 -2 -1 1.48757 1.67588 3
-8 2 -1 3.84855 1.77357 2
-8 2 -1 3.10788 2.02069 3
8 2 1 0.26215 1.83435 1
9 -2 1 2.30809 2.12119 1
-9 -2 -1 3.08822 1.6293 2
-9 -2 -1 2.67113 1.9852 3
-9 2 -1 3.25595 1.84932 3
9 2 1 0.29908 1.85076 1
-9 2 -1 5.85129 2.10642 2
10 -2 1 1.9433 2.30231 1
-10 -2 -1 3.34157 2.15409 3
-10 2 -1 -1.1903 1.961 3
-10 2 -1 0.33577 1.86154 2
10 2 1 -0.0376 2.1315 1
-11 -2 -1 279.654 14.505 3
11 -2 1 249.349 13.568 1
-11 2 -1 254.115 12.913 2
-11 2 -1 262.787 14.195 3
-12 -2 -1 12.9366 3.9046 3
12 2 1 20.0662 5.118 1
-12 2 -1 4.88333 2.81493 3
-12 2 -1 19.691 3.6877 2
-13 -2 -1 11.0702 3.7069 3
-13 2 -1 4.37235 3.16041 3
13 2 1 9.53079 4.86572 1
-14 -2 -1 8.08457 3.57476 3
-14 2 -1 7.64635 3.72675 3
-15 -2 -1 38.0984 6.799 3
-15 2 -1 41.6258 7.1061 3
-16 -2 -1 33.7482 6.8989 3
-16 2 -1 37.6443 7.1963 3
-17 -2 -1 4.32653 3.7233 3
-17 2 -1 4.40379 3.90298 3
-18 -2 -1 66.7953 9.9067 3
-18 2 -1 76.7263 10.6696 3
-19 -2 -1 2.27556 4.0397 3
-19 2 -1 0.17512 4.08909 3
-20 -2 -1 27.679 7.2508 3
-20 2 -1 17.2163 6.6961 3
-20 -3 1 5.01075 4.98777 3
-20 3 1 -0.5403 4.0366 3
-19 -3 1 3.19818 3.64068 3
-19 3 1 8.50501 5.15781 3
-18 -3 1 7.40723 4.40665 3
-18 3 1 8.86028 5.02424 3
-17 -3 1 10.1761 4.6389 3
-17 3 1 14.4412 5.0834 3
-16 -3 1 31.869 6.4203 3
-16 3 1 25.756 5.948 3
-15 -3 1 12.4464 4.3608 3
-15 3 1 19.6081 4.966 3
15 3 -1 14.5007 5.7959 1
-14 -3 1 3.97713 3.36012 3
-14 3 1 1.56173 3.18745 3
14 3 -1 7.26646 4.32332 1
-13 -3 1 0.93942 2.70206 3
-13 3 1 0.35121 2.55533 3
-13 3 1 0.84235 2.25391 2
13 3 -1 1.14937 3.84852 1
12 -3 -1 99.0456 9.6575 1
-12 -3 1 73.7707 8.0768 3
-12 3 1 84.9126 7.6241 2
12 3 -1 85.4902 10.5535 1
-12 3 1 85.4836 8.6569 3
11 -3 -1 104.63 8.503 1
-11 -3 1 109.643 8.244 3
-11 3 1 114.1 8.471 3
-11 3 1 107.669 7.497 2
11 3 -1 119.807 11.941 1
-10 -3 1 14.5401 3.5097 3
10 -3 -1 26.8961 4.7975 1
-10 3 1 15.053 3.1631 2
10 3 -1 27.67 5.6944 1
-10 3 1 14.6318 3.5742 3
9 -3 -1 323.019 15.762 1
-9 -3 1 305.262 14.772 3
-9 3 1 318.475 14.894 3
-9 3 1 301.085 14.269 2
9 3 -1 305.344 17.224 1
-8 -3 1 3.26334 1.71916 3
-8 -3 1 1.36284 0.91884 2
8 -3 -1 0.52557 1.40541 1
-8 3 1 3.56234 1.88242 3
8 3 -1 2.5007 2.61108 1
-8 3 1 3.27523 1.84769 2
7 -3 -1 -1.3209 1.1448 1
-7 -3 1 0.69997 1.43432 3
-7 3 1 3.09219 1.72026 3
7 3 -1 3.96675 2.45807 1
-7 3 1 5.40369 1.99091 2
6 -3 -1 308.302 14.044 1
-6 -3 1 287.514 12.702 3
6 3 -1 274.266 14.906 1
-6 3 1 293.899 12.634 3
-6 3 1 286.726 12.959 2
-5 -3 1 58.1171 4.1257 3
5 -3 -1 62.702 4.8834 1
5 3 -1 58.7134 6.4947 1
-5 3 1 49.6399 4.8017 2
4 -3 -1 417.221 16.905 1
-4 -3 1 412.984 15.811 3
-4 3 1 399.76 16.482 2
-4 3 1 428.474 15.712 3
4 3 -1 390.113 18.545 1
4 3 -1 402.033 15.11 2
-3 -3 1 462.618 16.988 3
3 -3 -1 481.312 18.614 1
3 3 -1 426.859 19.942 1
3 3 -1 454.715 16.936 2
-3 3 1 480.347 18.194 2
-3 3 1 445.594 16.722 3
-2 -3 1 2283.57 74.09 3
2 -3 -1 2124.02 78.81 1
-2 3 1 2166.44 73.86 3
2 3 -1 2152.76 80.52 1
-2 3 1 2240.93 75.84 2
-2 3 1 2149.84 80.22 1
1 3 -1 526.113 21.971 1
-1 3 1 511.57 21.826 1
-1 3 1 523.192 19.887 2
1 3 -1 532.721 19.64 2
0 3 -1 924.268 33.132 2
0 3 -1 901.913 35.574 1
0 3 1 925.862 35.931 1
0 3 1 932.026 33.066 2
1 3 1 2281.65 82.75 1
-1 3 -1 2275.01 77.84 2
1 3 1 2198.67 77.31 2
-1 3 -1 2254.9 82.07 1
-2 3 -1 221.555 8.229 3
-2 3 -1 199.886 9.543 2
2 3 1 210.737 9.033 2
2 3 1 206.742 11.073 1
-2 3 -1 225.771 10.562 1
-3 -3 -1 251.129 9.855 3
3 -3 1 228.447 10.305 1
3 3 1 248.533 12.403 1
-3 3 -1 232.685 9.554 3
-3 3 -1 254.501 10.992 2
4 -3 1 19.1008 2.3774 1
-4 -3 -1 17.0604 2.32 3
-4 3 -1 18.4567 2.2359 3
4 3 1 16.5233 3.4262 1
-4 3 -1 16.9305 2.7914 2
5 -3 1 1987.82 68.39 1
-5 -3 -1 1842.24 65.51 3
-5 3 -1 1855.39 66.44 2
5 3 1 1813.17 70.67 1
-6 -3 -1 320.229 13.995 3
6 -3 1 325.973 14.344 1
-6 3 -1 323.565 14.461 2
6 3 1 310.604 16.102 1
-6 3 -1 318.258 13.666 3
7 -3 1 1089.71 41.48 1
-7 -3 -1 1074.64 40.12 3
-7 3 -1 1101.74 39.98 3
-7 3 -1 1080.81 40.52 2
7 3 1 1067.4 43.72 1
-8 -3 -1 38.6153 3.7744 2
8 -3 1 34.0705 4.5454 1
-8 -3 -1 45.8697 5.0814 3
-8 3 -1 39.6089 4.8809 2
-8 3 -1 46.1695 5.0491 3
8 3 1 50.9216 6.8819 1
-9 -3 -1 226.786 10.136 2
-9 -3 -1 222.95 11.97 3
9 -3 1 224.123 11.785 1
-9 3 -1 232.366 11.991 3
9 3 1 192.677 13.141 1
-9 3 -1 250.829 12.047 2
-10 -3 -1 210.07 11.869 3
10 -3 1 208.069 11.574 1
-10 3 -1 193.708 11 2
10 3 1 220.785 13.614 1
-10 3 -1 198.893 11.548 3
-11 -3 -1 268.048 14.669 3
-11 3 -1 260.412 13.709 2
-11 3 -1 287.504 14.845 3
11 3 1 277.77 16.474 1
-12 -3 -1 141.933 10.269 3
-12 3 -1 151.124 9.624 2
-12 3 -1 155.599 10.486 3
12 3 1 125.278 12.65 1
-13 -3 -1 270.3 15.733 3
-13 3 -1 276.45 14.627 2
13 3 1 290.502 17.597 1
-13 3 -1 268.623 15.526 3
-14 -3 -1 138.206 12.483 3
-14 3 -1 145.236 11.041 3
-15 -3 -1 12.1705 4.3095 3
-15 3 -1 9.1027 4.44607 3
-16 -3 -1 20.6842 5.5634 3
-16 3 -1 20.8371 5.6857 3
-17 -3 -1 4.72525 3.63143 3
-17 3 -1 12.9056 4.9506 3
-18 -3 -1 6.19731 4.59216 3
-18 3 -1 -0.3534 3.2789 3
-19 -3 -1 -2.3479 3.7435 3
-19 3 -1 -0.7296 3.7168 3
-19 -4 1 0.34312 4.10043 3
-19 4 1 2.83671 4.12836 3
-18 -4 1 -0.0739 3.2328 3
-18 4 1 1.10915 3.81048 3
-17 -4 1 -2.8864 3.0656 3
-17 4 1 6.64382 3.95237 3
-16 -4 1 29.8175 6.4914 3
-16 4 1 38.2878 7.0106 3
16 4 -1 45.1235 9.2099 1
-15 -4 1 58.7167 8.0664 3
15 4 -1 48.5905 9.1503 1
-15 4 1 62.4491 8.3883 3
-14 -4 1 75.3619 9.1523 3
14 4 -1 94.7227 12.1166 1
-14 4 1 78.5712 8.8123 3
-13 -4 1 247.862 14.79 3
-13 4 1 256.407 14.691 3
13 4 -1 232.189 16.918 1
-13 4 1 262.217 13.997 2
-12 -4 1 31.3269 5.3026 3
12 -4 -1 24.5668 5.5039 1
12 4 -1 24.9774 6.4012 1
-12 4 1 20.0167 4.5358 3
-12 4 1 32.9159 5.1149 2
11 -4 -1 30.671 5.468 1
-11 -4 1 21.9063 4.3921 3
-11 4 1 22.2077 4.38 3
11 4 -1 15.7632 5.5201 1
-11 4 1 29.9742 4.763 2
-10 -4 1 69.1613 7.0723 3
10 -4 -1 65.7666 7.5671 1
-10 4 1 60.9132 6.6116 3
10 4 -1 84.9114 10.2158 1
-10 4 1 85.787 7.6036 2
-9 -4 1 17.7967 3.5249 3
-9 4 1 17.44 3.4292 3
9 4 -1 30.257 5.9209 1
-9 4 1 16.6144 3.3678 2
-8 -4 1 256.653 12.527 3
-8 4 1 248.012 12.664 2
-8 4 1 255.687 12.271 3
8 4 -1 262.148 15.527 1
-7 -4 1 0.66927 1.49147 3
7 -4 -1 -0.0914 1.7294 1
7 4 -1 -0.1498 2.0259 1
-7 4 1 2.91567 1.64884 2
-7 4 1 -0.7808 1.0486 3
6 -4 -1 336.723 16.002 1
-6 -4 1 338.083 14.52 3
6 4 -1 344.392 17.954 1
-6 4 1 340.752 14.294 3
-6 4 1 348.238 15.384 2
-5 -4 1 232.22 10.096 3
5 -4 -1 235.436 11.035 1
5 4 -1 229.064 9.458 2
-5 4 1 200.867 10.742 2
-5 4 1 230.286 9.855 3
5 4 -1 194.51 12.58 1
4 -4 -1 81.6385 5.4182 1
-4 -4 1 75.4659 4.4372 3
-4 4 1 56.2094 5.4847 2
4 4 -1 78.9035 8.0049 1
4 4 -1 78.9616 4.4717 2
-4 4 1 80.1777 4.2659 3
-3 -4 1 93.1715 4.5169 3
3 -4 -1 91.133 5.7617 1
-3 4 1 89.4151 4.2355 3
3 4 -1 86.2605 4.966 2
3 4 -1 77.9608 7.754 1
-3 4 1 74.3439 5.4513 2
-2 -4 1 101.48 4.53 3
-2 4 1 109.012 7.512 1
2 4 -1 103.848 5.692 2
-2 4 1 97.7533 6.0857 2
2 4 -1 104.502 7.536 1
-1 4 1 442.664 20.575 1
1 4 -1 469.083 18.274 2
-1 4 1 459.733 18.524 2
1 4 -1 485.938 20.981 1
0 4 -1 63.4698 4.5674 2
0 4 1 74.3088 4.8688 2
0 4 -1 72.8902 6.9442 1
0 4 1 77.1884 7.2636 1
-1 4 -1 -0.0449 1.574 1
1 4 1 0.75266 1.60879 1
1 4 1 -0.9011 0.921 2
-1 4 -1 0.77094 1.20837 2
-2 -4 -1 267.438 10.225 3
-2 4 -1 277.052 9.835 3
-2 4 -1 263.314 13.169 1
-2 4 -1 259.714 12.084 2
2 4 1 255.754 11.329 2
2 4 1 257.27 13.971 1
-3 -4 -1 1065.02 37.82 3
-3 4 -1 1099.41 42.06 1
3 4 1 1034.2 42.95 1
-3 4 -1 1099.99 37.47 3
-3 4 -1 1079.96 39.78 2
-4 -4 -1 8.54568 1.86326 3
-4 4 -1 12.2094 2.6742 2
-4 4 -1 12.0583 1.8943 3
4 4 1 11.6535 3.3184 1
5 -4 1 1.57288 1.31907 1
-5 -4 -1 1.35323 1.31339 3
5 4 1 -0.4569 1.8111 1
-5 4 -1 0.46853 1.29657 3
-5 4 -1 -0.6086 1.4255 2
-6 -4 -1 174.321 8.778 3
6 -4 1 176.829 8.912 1
-6 4 -1 161.747 8.341 3
6 4 1 151.447 10.767 1
-6 4 -1 155.558 9.189 2
-7 -4 -1 61.7694 5.7578 3
7 -4 1 64.938 6.2617 1
7 4 1 63.4516 7.942 1
-7 4 -1 61.4423 6.1649 2
8 -4 1 224.741 11.619 1
-8 -4 -1 201.049 10.92 3
-8 4 -1 209.342 11.504 2
-8 4 -1 206.052 10.799 3
8 4 1 211.115 13.658 1
9 -4 1 52.0113 5.9678 1
-9 -4 -1 49.5296 5.9141 3
-9 4 -1 51.3948 5.7284 3
-9 4 -1 61.544 6.6237 2
9 4 1 54.127 7.7354 1
10 -4 1 111.511 8.396 1
-10 -4 -1 116.589 8.373 3
-10 4 -1 116.448 8.227 3
-10 4 -1 112.964 8.24 2
10 4 1 122.719 12.251 1
-11 -4 -1 360.439 17.667 3
-11 4 -1 358.767 17.252 2
11 4 1 319.999 19.627 1
-11 4 -1 341.249 17.175 3
-12 -4 -1 145 10.253 3
-12 4 -1 144.791 9.993 2
12 4 1 128.665 13.542 1
-12 4 -1 156.931 10.493 3
-13 -4 -1 12.9963 3.9257 3
-13 4 -1 11.8107 3.9881 3
-13 4 -1 12.2844 4.1792 2
13 4 1 10.5155 5.4231 1
-14 -4 -1 17.4284 4.6643 3
-14 4 -1 23.061 5.0377 2
14 4 1 28.9087 7.544 1
-14 4 -1 20.6678 4.8256 3
-15 -4 -1 6.77124 3.47268 3
-15 4 -1 7.60988 3.89548 3
-16 -4 -1 -2.8362 2.665 3
-16 4 -1 -0.1382 3.5543 3
-17 -4 -1 -0.3446 3.2073 3
-17 4 -1 -2.4353 3.6358 3
-18 -4 -1 -1.526 3.2122 3
-18 4 -1 2.84912 4.23655 3
-19 -4 -1 26.4666 6.9895 3
-19 4 -1 11.4569 5.5745 3
-19 -5 1 29.9599 7.6218 3
-19 5 1 21.4472 6.8504 3
-18 -5 1 0.66942 3.89791 3
-18 5 1 0.54912 3.87938 3
-17 -5 1 0.69647 3.15895 3
-17 5 1 2.10325 3.91369 3
-16 -5 1 0.95332 2.97186 3
16 5 -1 2.29992 5.41247 1
-16 5 1 3.52634 3.77334 3
-15 -5 1 97.6919 10.4392 3
15 5 -1 95.6415 13.1082 1
-15 5 1 80.9262 9.5894 3
-14 -5 1 48.5087 7.3564 3
-14 5 1 35.579 6.2996 3
-14 5 1 38.0233 6.0728 2
14 5 -1 44.5092 9.3478 1
-13 -5 1 1.47601 2.75657 3
13 5 -1 -0.906 3.926 1
-13 5 1 2.39242 3.03026 3
-13 5 1 2.34584 2.74687 2
-12 -5 1 8.0691 3.43687 3
12 5 -1 2.08591 4.03716 1
-12 5 1 6.48859 3.22179 2
-12 5 1 5.66747 3.67093 3
-11 -5 1 74.9839 7.9079 3
11 -5 -1 60.7198 7.928 1
-11 5 1 72.0154 7.613 2
11 5 -1 55.1663 8.9515 1
-11 5 1 65.0888 7.1265 3
10 -5 -1 19.4131 4.8509 1
-10 -5 1 45.3937 5.7273 3
-10 5 1 49.1745 6.1964 2
10 5 -1 54.4733 8.4842 1
-10 5 1 50.4015 5.8446 3
8 -5 -1 194.552 12.424 1
-8 -5 1 212.958 11.222 3
-8 5 1 235.599 12.298 2
-8 5 1 231.042 11.211 3
8 5 -1 213.836 14.769 1
7 -5 -1 355.292 17.492 1
-7 -5 1 368.773 15.837 3
-7 5 1 364.173 15.486 3
-7 5 1 348.144 16.741 2
7 5 -1 370.284 20.068 1
-6 -5 1 16.6607 2.8226 3
6 -5 -1 19.5459 3.366 1
-6 5 1 14.1044 3.2366 2
-6 5 1 9.80962 2.23125 3
6 5 -1 9.81661 3.98334 1
5 -5 -1 213.875 11.122 1
-5 -5 1 213.595 9.82 3
-5 5 1 217.199 9.422 3
-5 5 1 206.136 11.22 2
5 5 -1 221.897 13.687 1
5 5 -1 218.528 9.819 2
4 -5 -1 1768.35 66.51 1
-4 -5 1 1804.03 61.87 3
-4 5 1 1758.12 64.44 2
-4 5 1 1789.65 61.42 3
4 5 -1 1769.16 62.64 2
4 5 -1 1844.36 69.87 1
-3 -5 1 110.493 5.307 3
3 5 -1 106.838 8.568 1
-3 5 1 115.836 7.229 2
-2 -5 1 660.749 22.553 3
-2 5 1 645.597 28.291 1
-2 5 1 634.199 25.503 2
2 5 -1 644.546 24.842 2
2 5 -1 623.12 28.332 1
-1 5 1 1351.32 48.7 2
1 5 -1 1349.55 48.45 2
1 5 -1 1365.89 53.13 1
-1 5 1 1289.59 52.67 1
0 5 -1 987.841 39.71 1
0 5 1 957.719 36.077 2
0 5 1 988.059 40.068 1
0 5 -1 954.187 36.132 2
-1 -5 -1 18.4765 1.6062 3
-1 5 -1 15.884 3.7311 1
1 5 1 24.8783 4.6962 1
-1 5 -1 12.8372 2.7211 2
1 5 1 13.0314 2.6027 2
-2 -5 -1 620.099 22.488 3
2 5 1 619.746 28.179 1
-2 5 -1 665.103 27.571 1
-2 5 -1 625.54 25.278 2
2 5 1 633.345 24.463 2
-3 -5 -1 65.343 3.8878 3
3 5 1 59.2255 4.5554 2
-3 5 -1 56.5268 6.6904 1
3 5 1 56.4106 7.2449 1
-3 5 -1 60.1501 6.0447 2
-3 5 -1 64.1584 3.3899 3
4 -5 1 221.927 11.239 1
-4 -5 -1 237.993 10.204 3
-4 5 -1 228.083 11.949 2
4 5 1 213.971 13.604 1
-4 5 -1 247.162 9.776 3
-5 -5 -1 81.1087 5.1332 3
-5 5 -1 80.8103 7.3124 2
5 5 1 71.0068 8.6098 1
-5 5 -1 78.0313 4.7841 3
-6 -5 -1 563.234 22.169 3
6 -5 1 553.116 23.054 1
-6 5 -1 579.796 21.855 3
-6 5 -1 553.8 23.856 2
6 5 1 533.432 26.509 1
-7 -5 -1 65.0792 5.997 3
7 -5 1 71.8477 6.7511 1
-7 5 -1 57.8336 6.6095 2
-7 5 -1 72.7268 5.3016 3
7 5 1 71.4802 9.0748 1
8 -5 1 3.97491 2.72381 1
-8 -5 -1 1.16656 1.86038 3
-8 5 -1 7.52744 2.84551 2
-8 5 -1 0.29717 1.9613 3
8 5 1 5.19752 3.78468 1
9 -5 1 26.9671 4.7473 1
-9 -5 -1 27.9327 4.4152 3
-9 5 -1 22.7439 4.3907 2
9 5 1 22.0873 5.6336 1
-10 -5 -1 168.875 10.695 3
-10 5 -1 181.813 10.693 3
-10 5 -1 187.829 11.603 2
10 5 1 169.59 13.607 1
-11 -5 -1 5.80036 2.91563 3
11 5 1 1.39003 3.9578 1
-11 5 -1 18.4362 4.1109 3
-11 5 -1 14.3754 4.0423 2
-12 -5 -1 15.3063 4.135 3
-12 5 -1 12.0296 4.2371 2
12 5 1 14.8027 5.7139 1
-12 5 -1 16.4041 4.0813 3
-13 -5 -1 2.37337 2.81876 3
-13 5 -1 8.25809 3.49206 3
13 5 1 8.58424 5.0368 1
-13 5 -1 6.8701 3.57822 2
-14 -5 -1 3.95112 3.47038 3
-14 5 -1 10.0555 3.7481 2
14 5 1 -0.6059 4.2392 1
-14 5 -1 -0.2125 2.768 3
-15 -5 -1 14.8938 5.0125 3
-15 5 -1 5.47014 3.75057 3
-16 -5 -1 5.02488 3.70294 3
-16 5 -1 11.9779 5.0961 3
-17 -5 -1 -1.2436 3.6237 3
-17 5 -1 10.1705 4.7769 3
-18 -5 -1 21.5186 6.2826 3
-18 5 -1 10.3531 5.1882 3
-19 -5 -1 1.03439 4.42378 3
-19 5 -1 2.2815 4.90321 3
-18 -6 1 2.17259 3.75017 3
-17 -6 1 -1.4328 3.4161 3
17 6 -1 4.43851 7.14799 1
-16 -6 1 4.2773 3.55916 3
16 6 -1 5.36546 6.29369 1
-15 -6 1 0.37644 3.16156 3
-15 6 1 1.22558 3.02331 2
15 6 -1 9.63018 6.02771 1
-14 -6 1 91.927 9.959 3
-14 6 1 99.6826 10.2753 2
14 6 -1 130.783 15.6 1
-14 6 1 78.8484 9.1798 3
-13 -6 1 15.2236 4.3295 3
13 6 -1 14.8826 6.6432 1
-13 6 1 17.5772 4.5122 3
-13 6 1 14.9702 4.415 2
-12 -6 1 231.374 13.697 3
-12 6 1 239.435 13.638 3
12 6 -1 248.417 18.269 1
-12 6 1 225.939 14.097 2
11 -6 -1 20.5173 5.3074 1
-11 -6 1 32.5537 5.2977 3
11 6 -1 26.3077 6.9354 1
-11 6 1 26.896 5.2893 2
-10 -6 1 47.001 6.04 3
-10 6 1 36.8908 5.7914 2
-10 6 1 42.825 5.5026 3
10 6 -1 44.5871 8.2573 1
-9 -6 1 50.539 5.8246 3
9 -6 -1 33.2918 5.8604 1
-9 6 1 43.8422 5.2693 3
9 6 -1 48.1877 8.4387 1
-9 6 1 58.8084 7.0044 2
-8 -6 1 2.18494 2.18877 3
8 -6 -1 1.7617 3.01489 1
-8 6 1 3.16902 2.21598 3
8 6 -1 1.14905 3.14717 1
-8 6 1 0.90216 2.37809 2
7 -6 -1 0.97716 1.97738 1
-7 -6 1 1.17075 1.68204 3
7 6 -1 -1.6807 2.8312 1
-7 6 1 1.11444 1.91758 2
-7 6 1 -0.8047 1.4039 3
6 -6 -1 40.2571 5.3344 1
-6 -6 1 49.4958 4.6131 3
-6 6 1 41.5752 4.0124 3
6 6 -1 48.328 4.569 2
6 6 -1 32.3922 6.4911 1
-6 6 1 41.9438 5.6662 2
5 -6 -1 8.04019 2.59917 1
-5 -6 1 6.15816 1.83003 3
-5 6 1 2.91583 1.35194 3
5 6 -1 6.63181 3.82495 1
5 6 -1 4.5426 1.8008 2
-5 6 1 -0.3239 1.7608 2
-4 -6 1 173.214 7.811 3
4 -6 -1 168.611 9.836 1
-4 6 1 148.286 9.638 2
4 6 -1 193.768 12.839 1
-3 -6 1 77.4717 3.9534 3
3 -6 -1 59.3119 6.2733 1
3 6 -1 80.2082 9.0804 1
3 6 -1 63.4801 5.9644 2
-3 6 1 68.459 8.3706 1
-3 6 1 79.6751 7.186 2
-2 6 1 262.033 13.072 2
2 6 -1 267.324 12.491 2
2 6 -1 263.893 15.637 1
-2 6 1 241.655 14.811 1
1 6 -1 0.25491 1.67195 2
1 6 -1 1.75618 2.67627 1
-1 6 1 4.52839 2.3625 2
-1 6 1 4.30025 2.73785 1
0 6 -1 337.251 17.943 1
0 6 -1 340.435 15.47 2
0 6 1 335.306 17.993 1
0 6 1 323.27 15.205 2
1 6 1 94.6924 6.4856 2
-1 6 -1 87.6234 6.5582 2
-1 6 -1 84.7971 8.9679 1
1 6 1 89.9791 9.6867 1
-2 -6 -1 128.233 5.596 3
-2 6 -1 134.572 9.802 1
-2 6 -1 122.066 8.1 2
2 6 1 118.979 7.495 2
2 6 1 121.572 9.824 1
-3 -6 -1 17.5339 2.2831 3
-3 6 -1 15.1156 3.9238 1
-3 6 -1 13.6594 3.2782 2
3 6 1 8.77526 2.47079 2
3 6 1 15.4269 4.3765 1
4 -6 1 47.7729 5.2484 1
-4 -6 -1 33.9647 3.5055 3
4 6 1 38.5919 6.8356 1
-4 6 -1 37.1685 5.7657 1
-4 6 -1 39.7116 5.2983 2
-5 -6 -1 16.903 2.788 3
5 -6 1 20.2756 3.6085 1
-5 6 -1 15.8043 3.5902 2
-5 6 -1 20.6767 2.6823 3
5 6 1 23.7138 5.51 1
-6 -6 -1 121.188 7.225 3
6 6 1 126.227 12.52 1
-6 6 -1 130.605 6.947 3
-6 6 -1 116.181 8.63 2
-7 -6 -1 179.043 9.857 3
7 -6 1 188.905 10.653 1
7 6 1 198.343 14.259 1
-7 6 -1 170.848 11.28 2
-7 6 -1 203.283 9.822 3
8 -6 1 -0.096 2.6024 1
-8 -6 -1 1.85187 2.02079 3
-8 6 -1 4.31126 2.27424 3
8 6 1 -3.7732 3.2787 1
-8 6 -1 -0.7051 2.0911 2
-9 -6 -1 57.6763 6.4247 3
9 -6 1 41.0156 6.3199 1
-9 6 -1 42.5958 5.3545 3
-9 6 -1 60.2302 7.1512 2
9 6 1 37.1275 7.4499 1
-10 -6 -1 151.918 9.959 3
-10 6 -1 163.094 9.956 3
-10 6 -1 145.401 10.696 2
10 6 1 146.878 14.949 1
-11 -6 -1 10.0749 3.3239 3
-11 6 -1 0.47981 2.19701 3
11 6 1 7.12664 4.73978 1
-11 6 -1 12.198 3.8997 2
-12 -6 -1 110.194 10.012 3
-12 6 -1 96.8997 9.3673 3
-12 6 -1 73.4817 9.0765 2
12 6 1 99.3447 12.9312 1
-13 -6 -1 -2.64 1.9967 3
13 6 1 0.14732 4.72615 1
-13 6 -1 -4.0326 2.6587 3
-13 6 -1 -4.0759 2.4076 2
-14 -6 -1 3.0961 3.42189 3
-14 6 -1 -0.9484 2.7737 2
14 6 1 4.72857 5.11833 1
-15 -6 -1 -3.8807 2.6915 3
-15 6 -1 2.60079 3.32308 2
15 6 1 3.5888 6.19855 1
-16 -6 -1 -2.0565 3.2104 3
-17 -6 -1 -4.5059 3.1163 3
-18 -6 -1 2.38871 4.32103 3
-18 -7 1 3.8233 4.49318 3
-17 -7 1 -2.6089 3.5353 3
17 7 -1 0.62096 6.45735 1
-16 -7 1 -2.7298 2.9573 3
16 7 -1 -0.3423 6.0365 1
-15 -7 1 12.7668 4.759 3
15 7 -1 17.3994 7.6679 1
-15 7 1 9.71674 4.32852 2
-14 -7 1 2.67989 3.25131 3
14 7 -1 -5.1348 4.8392 1
-14 7 1 0.15868 3.13313 2
-13 -7 1 8.13388 3.61692 3
13 7 -1 5.99487 5.42577 1
-13 7 1 9.38961 3.71356 2
-12 -7 1 7.13885 3.39297 3
-12 7 1 2.23622 3.08021 2
12 7 -1 9.91992 6.16938 1
-11 -7 1 7.92136 3.31977 3
-11 7 1 5.56309 3.35704 2
11 7 -1 4.6066 4.42922 1
10 -7 -1 532.096 26.199 1
-10 -7 1 518.456 23.182 3
10 7 -1 500.355 29.059 1
-10 7 1 568.301 25.657 2
9 -7 -1 20.5212 5.4715 1
-9 -7 1 15.9501 3.6125 3
9 7 -1 24.8834 7.1556 1
-9 7 1 25.2362 4.9225 2
8 -7 -1 988.582 39.789 1
-8 7 1 910.114 38.816 2
8 7 -1 956.738 44.019 1
7 -7 -1 -0.7697 2.0229 1
7 7 -1 -1.6561 2.8756 1
-7 7 1 1.40785 2.43408 2
6 -7 -1 45.8029 6.0001 1
6 7 -1 47.4557 8.1867 1
-6 7 1 39.0772 5.8174 2
6 7 -1 43.6265 4.927 2
5 -7 -1 6.49213 2.8839 1
-5 7 1 2.3522 2.30711 2
5 7 -1 4.96536 2.194 2
5 7 -1 -1.9118 2.6268 1
4 -7 -1 795.935 32.517 1
4 7 -1 754.362 35.684 1
-4 7 1 734.176 31.612 2
4 7 -1 796.008 30.253 2
3 7 -1 1.44022 1.97757 2
-3 7 1 0.18218 2.04387 2
3 7 -1 1.47162 3.11555 1
-3 7 1 -5.9246 2.2497 1
2 7 -1 48.1263 7.6326 1
-2 7 1 38.1578 5.3996 2
2 7 -1 35.95 4.8365 2
-2 7 1 38.8567 6.9268 1
-1 7 1 21.2288 4.2512 2
1 7 -1 18.6386 3.5686 2
-1 7 1 32.5154 6.1712 1
1 7 -1 22.9778 5.5346 1
0 7 1 224.309 11.587 2
0 7 -1 197.179 13.619 1
0 7 1 180.998 13.336 1
0 7 -1 211.502 11.592 2
-1 7 -1 74.8356 7.4025 2
1 7 1 76.1823 7.1597 2
1 7 1 77.7547 9.4393 1
-1 7 -1 93.9077 10.1203 1
-2 7 -1 376.61 19.538 1
2 7 1 334.579 19.839 1
2 7 1 352.764 16.318 2
-2 7 -1 344.391 16.992 2
-3 7 -1 13.6292 3.6448 2
3 7 1 24.2705 4.0367 2
3 7 1 34.3702 6.8365 1
-3 7 -1 16.6927 4.6349 1
4 -7 1 97.784 7.4349 1
4 7 1 96.1551 11.2818 1
-4 7 -1 98.7705 9.0687 2
-4 7 -1 114.555 11.233 1
4 7 1 103.267 7.149 2
5 -7 1 18.3315 3.897 1
5 7 1 11.7027 5.0318 1
-5 7 -1 14.7665 3.7739 2
6 -7 1 593.134 26.425 1
-6 7 -1 619.124 27.245 2
6 7 1 652.762 31.578 1
7 -7 1 -0.2605 1.7216 1
7 7 1 4.31097 3.88731 1
-7 7 -1 4.82399 2.90206 2
8 -7 1 217.825 12.602 1
-8 -7 -1 238.544 11.969 3
8 7 1 212.916 16.029 1
-8 7 -1 209.91 13.357 2
-9 -7 -1 0.16229 2.40182 3
-9 7 -1 0.69583 2.85887 2
9 7 1 -3.123 3.5645 1
-10 -7 -1 131.275 9.431 3
10 7 1 129.18 15.002 1
-10 7 -1 151.386 10.996 2
-11 -7 -1 29.5001 5.3412 3
-11 7 -1 37.835 6.5259 2
11 7 1 26.6933 7.5722 1
-12 -7 -1 9.19621 3.48654 3
12 7 1 8.30077 5.69718 1
-12 7 -1 6.37268 3.54191 2
-13 -7 -1 -0.0837 2.6801 3
13 7 1 8.60087 6.04958 1
-13 7 -1 -2.8421 2.8449 2
-14 -7 -1 3.55148 3.32868 3
14 7 1 6.86039 5.90526 1
-14 7 -1 2.40735 3.49005 2
-15 -7 -1 -0.9366 3.2677 3
15 7 1 -0.2948 5.2499 1
-15 7 -1 0.01495 3.65806 2
-16 -7 -1 5.85296 4.53378 3
-17 -7 -1 -1.5492 3.73 3
17 8 -1 -6.758 6.7669 1
16 8 -1 -0.6042 6.6684 1
-15 8 1 6.67397 4.23871 2
15 8 -1 24.84 8.9097 1
14 8 -1 65.3049 12.5646 1
-14 8 1 67.7966 9.2824 2
13 8 -1 7.88897 6.0691 1
-13 8 1 13.0974 4.517 2
-12 8 1 21.9678 5.3966 2
12 8 -1 24.7343 7.9211 1
-11 8 1 11.2929 4.0822 2
11 8 -1 7.41184 5.32353 1
10 -8 -1 4.06265 4.22133 1
-10 8 1 3.20084 2.90144 2
10 8 -1 4.40434 5.22593 1
9 -8 -1 126.569 12.469 1
-9 8 1 149.138 11.009 2
9 8 -1 128.816 15.257 1
8 -8 -1 50.7406 6.9638 1
8 8 -1 49.2737 9.3983 1
-8 8 1 36.84 6.4705 2
7 -8 -1 24.6212 4.9824 1
7 8 -1 15.3376 5.5472 1
-7 8 1 28.5807 5.5539 2
6 -8 -1 0.59347 2.39098 1
6 8 -1 4.72817 4.35439 1
-6 8 1 -0.2878 2.3329 2
6 8 -1 -2.8945 2.0593 2
5 -8 -1 2.96504 2.76987 1
-5 8 1 4.62807 3.02217 2
5 8 -1 1.36115 3.57068 1
5 8 -1 0.4067 1.64164 2
4 -8 -1 247.006 14.454 1
4 8 -1 257.244 17.72 1
-4 8 1 272.895 14.907 2
4 8 -1 266.034 13.393 2
-3 8 1 126.834 12.951 1
3 8 -1 126.934 13.602 1
3 8 -1 113.067 8.122 2
-3 8 1 114.147 10.281 2
2 8 -1 266.57 14.087 2
2 8 -1 248.484 17.07 1
-2 8 1 298.89 17.999 1
-2 8 1 272.21 14.681 2
1 8 -1 1.83216 3.5958 1
-1 8 1 9.71832 3.30872 2
-1 8 1 8.72864 4.71267 1
1 8 -1 7.94059 2.93096 2
0 8 1 603.802 25.879 2
0 8 -1 595.469 29.693 1
0 8 -1 570.242 25.726 2
0 8 1 646.096 30.703 1
1 8 1 4.07682 3.40219 1
-1 8 -1 0.20945 3.45532 1
-1 8 -1 3.85796 2.66596 2
1 8 1 -1.2297 1.8886 2
-2 8 -1 133.761 9.877 2
-2 8 -1 168.645 12.725 1
2 8 1 148.913 9.663 2
2 8 1 148.433 14.523 1
-3 8 -1 48.859 8.0199 1
-3 8 -1 52.6541 6.8729 2
3 8 1 49.923 6.1987 2
3 8 1 41.5895 7.7196 1
4 -8 1 2.5356 2.70065 1
4 8 1 2.34386 3.33706 1
-4 8 -1 -1.53 3.1312 1
-4 8 -1 -2.9463 2.0739 2
4 8 1 0.25701 2.10997 2
5 -8 1 39.2563 5.8684 1
-5 8 -1 37.4407 6.0871 2
5 8 1 45.9855 8.5711 1
6 -8 1 252.653 14.253 1
6 8 1 273.185 18.491 1
-6 8 -1 246.211 14.994 2
7 -8 1 70.2563 7.9141 1
7 8 1 80.3915 11.4729 1
-7 8 -1 64.5058 8.3715 2
8 8 1 170.684 17.204 1
-8 8 -1 147.79 12.98 2
-9 8 -1 20.5696 5.0606 2
9 8 1 18.9283 6.7115 1
10 8 1 128.348 15.317 1
-10 8 -1 116.617 11.754 2
-11 8 -1 59.5495 8.6181 2
11 8 1 44.7955 10.1789 1
12 8 1 67.7807 11.8208 1
-12 8 -1 38.8427 7.132 2
13 8 1 25.5647 8.2615 1
-13 8 -1 20.7567 5.7902 2
14 8 1 9.07034 7.02133 1
-14 8 -1 2.57587 3.50424 2
15 8 1 10.0603 7.5775 1
-15 8 -1 8.93361 4.64697 2
-16 8 -1 -0.3168 3.6227 2
-16 9 1 -0.969 4.4832 2
-15 9 1 32.8161 7.8573 2
15 9 -1 23.8304 9.7607 1
14 9 -1 13.7479 7.6917 1
-14 9 1 3.95506 4.38565 2
-13 9 1 27.4802 6.5503 2
13 9 -1 20.9338 8.3224 1
12 9 -1 0.61286 5.45675 1
-12 9 1 6.18116 4.21687 2
-11 9 1 -0.2773 3.5296 2
11 9 -1 0.9577 5.16962 1
10 9 -1 47.3979 10.2709 1
-10 9 1 59.5171 8.9617 2
9 -9 -1 125.279 12.109 1
-9 9 1 133.177 12.89 2
9 9 -1 102.232 14.034 1
8 -9 -1 155.184 11.09 1
8 9 -1 156.174 17.073 1
-8 9 1 116.985 12.079 2
7 -9 -1 5.51143 3.57565 1
7 9 -1 9.2023 5.45181 1
-7 9 1 4.74438 3.1059 2
6 -9 -1 17.7136 4.6456 1
-6 9 1 5.0977 3.54418 2
6 9 -1 9.51075 5.51862 1
5 -9 -1 164.45 11.281 1
5 9 -1 136.49 9.581 2
5 9 -1 130.77 15.32 1
-5 9 1 175.604 11.717 2
4 -9 -1 5.55535 3.35423 1
4 9 -1 4.97285 2.85763 2
4 9 -1 4.33066 4.12578 1
-4 9 1 8.49265 3.63522 2
3 -9 -1 -0.153 2.2082 1
3 9 -1 -1.8036 2.0664 2
3 9 -1 -0.7629 3.3208 1
-3 9 1 -0.7332 2.3299 2
-3 9 1 1.55608 3.45617 1
2 9 -1 26.8318 4.9184 2
-2 9 1 11.944 4.9232 1
2 9 -1 18.3582 5.9634 1
-2 9 1 26.4912 5.1953 2
-1 9 1 392.281 22.566 1
1 9 -1 353.675 21.816 1
1 9 -1 349.021 17.909 2
-1 9 1 350.582 18.205 2
0 9 1 17.8672 5.818 1
0 9 -1 34.5708 5.8194 2
0 9 -1 25.76 6.91 1
0 9 1 33.3662 5.4784 2
1 9 1 6.21897 2.9848 2
-1 9 -1 -0.3749 2.5411 2
1 9 1 2.71014 3.58155 1
-1 9 -1 -4.9064 2.8628 1
-2 9 -1 215.133 13.373 2
2 9 1 232.164 12.866 2
2 9 1 200.434 15.638 1
-2 9 -1 186.462 14.965 1
3 9 1 19.8556 4.4086 2
-3 9 -1 31.3622 7.1838 1
3 9 1 26.6399 7.0785 1
-3 9 -1 26.6153 5.4054 2
4 -9 1 75.88 8.2795 1
4 9 1 81.4485 8.1825 2
4 9 1 96.6703 12.6138 1
-4 9 -1 48.075 8.8033 1
-4 9 -1 70.1409 8.758 2
5 -9 1 2.23213 2.75217 1
-5 9 -1 -0.2629 2.5644 2
5 9 1 -2.5717 3.4262 1
6 -9 1 369.122 19.762 1
-6 9 -1 432.797 21.806 2
6 9 1 399.116 24.765 1
7 -9 1 16.4482 4.6237 1
7 9 1 10.7605 6.0147 1
-7 9 -1 32.1815 6.1629 2
8 9 1 27.2245 7.9334 1
-8 9 -1 27.0488 5.9271 2
-9 9 -1 3.68504 3.38129 2
9 9 1 13.9275 6.7557 1
-10 9 -1 16.5579 5.4135 2
10 9 1 8.7895 5.88332 1
-11 9 -1 -2.6223 2.5399 2
11 9 1 2.35981 5.73979 1
-12 9 -1 10.7173 5.0851 2
12 9 1 18.0687 7.9731 1
13 9 1 23.0876 8.7186 1
-13 9 -1 16.6401 5.862 2
-14 9 -1 -3.541 3.6863 2
14 9 1 -0.4235 6.3693 1
15 9 1 6.88594 7.43443 1
-15 9 -1 5.29182 4.62516 2
-14 10 1 6.90462 5.27089 2
14 10 -1 3.63459 7.5786 1
-13 10 1 12.0276 5.6073 2
13 10 -1 25.4369 9.5 1
-12 10 1 16.5887 5.7709 2
12 10 -1 10.9556 7.4337 1
11 10 -1 11.9299 6.6856 1
-11 10 1 2.99632 3.6508 2
10 10 -1 -1.6255 5.3608 1
-10 10 1 -1.182 3.0058 2
9 10 -1 20.1049 7.659 1
-9 10 1 30.5691 6.4955 2
8 -10 -1 4.75006 3.65267 1
8 10 -1 9.38068 5.85785 1
-8 10 1 0.50432 3.26483 2
7 -10 -1 58.466 8.1322 1
-7 10 1 83.4237 10.0892 2
7 10 -1 46.8732 10.2485 1
6 -10 -1 19.7613 5.1289 1
-6 10 1 20.8738 5.4374 2
6 10 -1 9.56859 5.7389 1
5 -10 -1 0.94883 2.8915 1
5 10 -1 -1.0494 3.464 1
-5 10 1 0.06468 3.01802 2
4 -10 -1 9.80489 4.12535 1
-4 10 1 14.8738 4.9987 2
4 10 -1 20.98 7.0141 1
4 10 -1 6.48857 3.18349 2
3 -10 -1 21.0157 5.314 1
3 10 -1 18.4062 4.5361 2
3 10 -1 10.9397 5.2029 1
-3 10 1 19.8592 5.121 2
-2 10 1 1.36557 4.01488 1
-2 10 1 1.20883 2.69397 2
2 10 -1 -0.2495 2.831 2
2 10 -1 -6.2869 3.2853 1
-1 10 1 41.4068 8.7939 1
1 10 -1 51.553 7.2646 2
1 10 -1 50.7896 9.312 1
-1 10 1 57.9998 7.9225 2
0 10 -1 137.889 12.077 2
0 10 1 131.759 11.628 2
0 10 -1 108.888 13.668 1
0 10 1 117.947 14.31 1
1 10 1 2.28936 3.71389 1
-1 10 -1 1.43676 4.02986 1
1 10 1 2.71876 2.77561 2
-1 10 -1 5.23349 3.22017 2
2 10 1 208.589 12.778 2
2 10 1 184.625 18.428 1
-2 10 -1 181.543 17.445 1
-2 10 -1 195.13 13.14 2
3 10 1 85.2255 12.3182 1
-3 10 -1 90.1695 10.0324 2
3 10 1 80.0863 8.8347 2
-3 10 -1 77.0478 11.1245 1
4 -10 1 4.77872 3.61712 1
4 10 1 -2.7504 3.5029 1
-4 10 -1 0.18832 2.86933 2
4 10 1 5.71679 3.05271 2
5 -10 1 57.5163 7.8608 1
5 10 1 52.052 10.1329 1
-5 10 -1 53.2877 8.0651 2
6 -10 1 1.47954 3.21895 1
-6 10 -1 5.24851 3.64723 2
6 10 1 1.4182 4.30435 1
7 -10 1 0.69834 3.34252 1
-7 10 -1 7.1125 3.99361 2
7 10 1 4.02115 5.50836 1
-8 10 -1 -2.1727 2.6096 2
8 10 1 -1.343 4.0894 1
9 10 1 -2.8062 4.2122 1
-9 10 -1 7.7092 4.43252 2
-10 10 -1 11.7349 4.9389 2
10 10 1 4.56529 5.94627 1
11 10 1 -5.9007 5.0729 1
-11 10 -1 1.67216 3.45857 2
-12 10 -1 34.8673 7.3575 2
12 10 1 36.299 10.5586 1
13 10 1 1.06172 6.74137 1
-13 10 -1 3.34408 4.25461 2
-14 10 -1 0.32225 3.792 2
14 10 1 -8.3726 5.899 1
-12 11 1 42.4107 8.6227 2
12 11 -1 36.5094 11.3697 1
-11 11 1 13.8415 5.6766 2
11 11 -1 16.1002 7.6019 1
10 11 -1 17.4166 8.0063 1
-10 11 1 15.3932 5.8138 2
-9 11 1 18.3016 6.007 2
9 11 -1 29.0818 9.3327 1
8 -11 -1 3.83061 4.1182 1
-8 11 1 -0.872 3.1997 2
8 11 -1 6.4204 5.62672 1
7 -11 -1 2.27485 3.5592 1
-7 11 1 7.88237 4.32649 2
7 11 -1 4.43774 5.58375 1
6 -11 -1 1.42021 3.32705 1
-6 11 1 -4.2921 2.9258 2
6 11 -1 4.16297 4.67715 1
5 -11 -1 4.66343 3.56373 1
-5 11 1 8.22286 4.26831 2
5 11 -1 18.9587 7.1257 1
4 -11 -1 36.6691 7.0298 1
4 11 -1 24.7411 7.7265 1
-4 11 1 40.6665 7.0573 2
4 11 -1 50.997 7.2519 2
3 -11 -1 19.5019 5.5349 1
-3 11 1 25.632 5.8994 2
3 11 -1 16.4669 4.4934 2
3 11 -1 17.435 7.2202 1
-2 11 1 22.4364 7.2225 1
2 11 -1 37.1143 8.6564 1
2 11 -1 54.7443 7.4795 2
-2 11 1 31.3631 6.4407 2
1 11 -1 24.1708 6.9528 1
-1 11 1 6.08142 5.24067 1
-1 11 1 10.5248 4.0559 2
1 11 -1 9.55975 4.09037 2
0 11 -1 -0.7136 2.8958 2
0 11 -1 3.44746 4.1272 1
0 11 1 6.62074 5.51918 1
0 11 1 12.8846 4.461 2
-1 11 -1 -3.1425 2.6602 2
-1 11 -1 1.57257 4.41763 1
1 11 1 0.75013 2.98784 2
1 11 1 0.87524 4.47818 1
-2 11 -1 17.3967 5.2853 2
2 11 1 7.42817 3.69616 2
2 11 1 6.52912 5.64187 1
-2 11 -1 8.54346 5.29253 1
-3 11 -1 7.57766 4.98336 1
3 11 1 3.40487 4.59461 1
-3 11 -1 14.2887 4.8316 2
3 11 1 17.861 4.9552 2
4 -11 1 8.77802 4.22578 1
4 11 1 2.25877 5.10269 1
-4 11 -1 4.38329 3.64887 2
5 -11 1 12.3819 4.5976 1
-5 11 -1 8.78383 4.16451 2
5 11 1 26.7175 8.1683 1
6 -11 1 -0.0329 3.6902 1
6 11 1 -1.8472 4.6847 1
-6 11 -1 3.02711 3.56274 2
7 11 1 -4.1483 4.7132 1
-7 11 -1 1.52573 3.12031 2
8 11 1 17.7597 7.349 1
-8 11 -1 12.501 5.0346 2
9 11 1 19.9739 8.5138 1
-9 11 -1 14.1599 5.4209 2
10 11 1 11.7211 7.8517 1
-10 11 -1 23.3153 6.5113 2
11 11 1 12.5677 8.1428 1
-11 11 -1 2.1578 3.97724 2
-12 11 -1 6.12985 4.54895 2
12 11 1 -1.4106 7.0533 1
10 12 -1 22.7319 9.5563 1
-10 12 1 0.17238 3.43153 2
-9 12 1 7.62078 4.69672 2
9 12 -1 0.79127 6.54952 1
-8 12 1 2.6946 3.76355 2
8 12 -1 1.17971 6.16122 1
7 -12 -1 0.64132 4.0404 1
7 12 -1 -0.9049 5.1246 1
-7 12 1 6.01999 4.26468 2
6 -12 -1 7.65377 4.57646 1
-6 12 1 2.63 3.3476 2
6 12 -1 12.9529 6.9186 1
5 -12 -1 1.18684 3.5074 1
-5 12 1 0.44477 3.46042 2
5 12 -1 7.13146 6.36696 1
4 -12 -1 3.0084 4.28232 1
-4 12 1 3.44314 4.00532 2
4 12 -1 -1.8236 4.6814 1
3 -12 -1 23.052 5.9779 1
3 12 -1 14.2458 6.0645 1
3 12 -1 23.9215 5.4865 2
-3 12 1 31.867 6.5316 2
2 -12 -1 0.22669 3.72467 1
-2 12 1 8.85946 6.16022 1
2 12 -1 8.85281 4.17527 2
-2 12 1 17.3299 5.2466 2
2 12 -1 9.31472 5.89214 1
-1 12 1 27.295 7.9413 1
1 12 -1 18.5171 5.3612 2
1 12 -1 -3.4822 4.3537 1
-1 12 1 21.7772 5.5227 2
0 12 1 8.41068 5.97802 1
0 12 -1 7.54479 5.80927 1
0 12 1 7.19364 3.91616 2
0 12 -1 8.95211 4.44039 2
1 12 1 3.23688 3.26052 2
-1 12 -1 10.1232 4.5241 2
-1 12 -1 1.0758 5.02478 1
1 12 1 3.79571 4.71024 1
2 12 1 80.3415 9.8733 2
2 12 1 63.0973 11.5225 1
-2 12 -1 77.8337 9.9546 2
-2 12 -1 41.6225 9.5037 1
3 -12 1 1.86519 3.79034 1
-3 12 -1 3.93976 3.97502 2
3 12 1 -2.4097 2.9585 2
3 12 1 -4.6913 3.4923 1
4 -12 1 42.1222 7.7574 1
4 12 1 34.144 8.8938 1
-4 12 -1 31.8171 7.3566 2
5 -12 1 0.18072 3.52635 1
5 12 1 -2.152 4.8968 1
-5 12 -1 4.47328 4.18414 2
6 12 1 -1.6047 5.6561 1
-6 12 -1 -2.6695 3.2022 2
7 12 1 16.0402 7.6522 1
-7 12 -1 22.3332 6.4821 2
8 12 1 0.89313 6.40266 1
-8 12 -1 10.7159 4.8463 2
-9 12 -1 -1.4658 3.9537 2
9 12 1 -5.3353 5.355 1
10 12 1 25.4184 9.8531 1
-10 12 -1 4.47817 4.87132 2
7 13 -1 3.11011 6.12647 1
-7 13 1 -1.0102 3.6812 2
6 -13 -1 5.18712 4.98666 1
6 13 -1 3.63747 5.80281 1
-6 13 1 2.81186 4.28013 2
5 -13 -1 0.45184 4.34764 1
-5 13 1 -1.1266 3.8592 2
5 13 -1 7.92849 7.18795 1
4 -13 -1 -1.9333 4.2882 1
-4 13 1 -0.3179 3.4233 2
4 13 -1 -2.2165 4.7289 1
3 -13 -1 -2.9389 3.5717 1
-3 13 1 -1.0719 3.3866 2
3 13 -1 0.42256 5.12794 1
2 -13 -1 15.9789 6.0939 1
2 13 -1 8.78771 6.04285 1
-2 13 1 18.1873 5.7346 2
2 13 -1 19.7062 5.5713 2
1 -13 -1 18.2449 5.7914 1
-1 13 1 10.3085 4.827 2
-1 13 1 11.8633 6.6479 1
1 13 -1 9.01854 6.8916 1
1 13 -1 8.24358 4.78119 2
0 13 -1 10.8047 6.7721 1
0 13 1 22.1492 6.4034 2
0 13 -1 25.2124 6.1449 2
0 13 1 4.01274 5.2819 1
-1 13 -1 9.8717 5.01368 2
1 13 1 10.2842 6.6421 1
-1 13 -1 4.87633 5.27241 1
1 13 1 16.7529 5.0902 2
2 -13 1 24.0222 6.6084 1
-2 13 -1 9.75593 6.3672 1
2 13 1 19.8568 7.1017 1
-2 13 -1 18.1087 5.6799 2
2 13 1 25.0458 6.3533 2
3 -13 1 -1.4501 4.2182 1
3 13 1 4.08622 5.26673 1
-3 13 -1 -0.8125 3.6434 2
4 -13 1 1.13518 4.33961 1
4 13 1 -8.5451 4.1792 1
-4 13 -1 3.41139 4.43653 2
-5 13 -1 2.14582 3.91875 2
5 13 1 -6.7088 4.7842 1
-6 13 -1 2.44613 4.1621 2
6 13 1 -2.6389 5.4521 1
-7 13 -1 -2.8591 3.0463 2
-21 0 2 -2.4261 4.4749 3
-20 0 2 -2.283 4.1537 3
-19 0 2 -4.169 2.9795 3
-18 0 2 -0.9457 3.7338 3
-17 0 2 -2.4357 3.0492 3
-16 0 2 -6.564 2.0916 3
-15 0 2 -2.016 2.2436 3
15 0 -2 0.23433 3.52443 1
-14 0 2 164.705 12.118 3
14 0 -2 208.803 13.739 1
13 0 -2 -2.2936 2.8853 1
-13 0 2 1.81483 2.6068 3
12 0 -2 126.14 9.806 1
-12 0 2 92.4276 9.1321 3
11 0 -2 -1.4606 2.4538 1
-11 0 2 0.47537 1.98069 3
-10 0 2 38.8543 3.1829 2
10 0 -2 25.7176 4.767 1
-10 0 2 27.7816 4.3385 3
9 0 -2 -1.8796 1.7796 1
-9 0 2 -0.8518 1.3513 3
-9 0 2 0.67731 0.90942 2
-8 0 2 103.92 4.872 2
-8 0 2 100.724 6.798 3
8 0 -2 99.8833 7.4497 1
-7 0 2 -0.2886 0.7212 2
-7 0 2 -0.3906 1.1209 3
7 0 -2 0.32875 1.41514 1
-6 0 2 335.504 12.36 2
6 0 -2 334.81 15.359 1
-6 0 2 341.64 14.292 3
-5 0 2 -0.3807 0.5004 2
5 0 -2 -1.0061 1.3387 1
-5 0 2 1.31742 1.12308 3
4 0 -2 9156.49 337.74 1
-4 0 2 9999.99 321.41 3
-3 0 2 -5.2597 0.8324 3
3 0 -2 -4.8976 1.309 1
2 0 -2 6904.39 249.22 1
-2 0 2 7220.61 237.04 3
1 0 -2 -0.1301 0.4402 1
0 0 -2 185.817 7.684 2
-1 0 -2 -1.0888 0.6253 2
-2 0 -2 175.144 7.546 2
-3 0 -2 0.38534 0.95938 2
4 0 2 181.061 7.749 1
-4 0 -2 173.328 8.149 2
5 0 2 -0.8634 0.9981 1
-5 0 -2 -1.5882 0.8947 2
-6 0 -2 236.435 10.302 2
-6 0 -2 209.117 10.328 3
6 0 2 221.83 10.217 1
-7 0 -2 0.50473 1.36557 3
-7 0 -2 -0.6398 1.317 2
7 0 2 -1.1813 1.4267 1
-8 0 -2 1.25172 1.58628 3
8 0 2 -0.383 1.7441 1
-8 0 -2 1.64494 1.61619 2
-9 0 -2 -0.3938 1.5493 3
-9 0 -2 0.76193 1.54095 2
9 0 2 -1.5235 1.6875 1
-10 0 -2 102.153 8.894 3
10 0 2 88.9839 7.0925 1
-10 0 -2 93.5258 6.3733 2
11 0 2 0.09451 2.50265 1
-11 0 -2 0.70991 1.9666 2
-11 0 -2 0.11047 1.95384 3
-12 0 -2 165.031 11.031 3
-13 0 -2 2.18137 2.68388 3
-14 0 -2 16.0721 4.9141 3
-15 0 -2 -2.173 2.6539 3
-16 0 -2 63.544 9.358 3
-17 0 -2 1.40459 3.75539 3
-18 0 -2 71.3434 10.2711 3
-19 0 -2 -0.4284 3.4549 3
-20 0 -2 7.07733 5.20385 3
-20 -1 2 -1.9752 3.7 3
-20 1 2 2.53489 4.63753 3
-19 -1 2 -0.3888 3.9486 3
-19 1 2 0.6462 3.60522 3
-18 -1 2 14.0425 4.7789 3
-18 1 2 9.31035 4.63241 3
-17 -1 2 2.85796 3.29872 3
-17 1 2 5.42484 3.6916 3
-16 -1 2 60.0712 8.2323 3
-16 1 2 64.8673 8.7833 3
-15 -1 2 9.68403 4.14713 3
15 1 -2 11.6518 4.7125 1
-15 1 2 15.1609 4.8594 3
-14 -1 2 82.5676 9.2336 3
-14 1 2 92.9958 9.488 3
14 1 -2 83.7065 10.2924 1
-13 -1 2 321.237 16.731 3
-13 1 2 286.631 16.183 3
13 1 -2 298.15 17.742 1
12 -1 -2 84.4618 9.3604 1
-12 -1 2 93.7734 8.933 3
12 1 -2 100.663 10.488 1
-12 1 2 99.0473 9.2739 3
-11 -1 2 19.7468 4.0458 3
11 -1 -2 29.1045 5.2568 1
11 1 -2 38.586 6.097 1
-11 1 2 20.4938 4.1739 3
-11 1 2 25.8929 3.272 2
10 -1 -2 9.86143 3.2698 1
-10 -1 2 17.8239 3.5529 3
10 1 -2 5.73863 3.23926 1
-10 1 2 8.07533 2.74743 3
-10 1 2 8.9521 2.02364 2
9 -1 -2 163.633 10.153 1
-9 -1 2 144.435 9.039 3
-9 1 2 145.062 9.079 3
9 1 -2 164.247 10.468 1
-9 1 2 174.322 7.806 2
-8 -1 2 275.188 13.207 3
8 -1 -2 287.934 14.312 1
-8 1 2 285.854 11.622 2
8 1 -2 268.983 14.431 1
-8 1 2 280.734 13.227 3
7 -1 -2 61.3898 5.9681 1
-7 -1 2 48.4584 4.9487 3
-7 1 2 53.241 4.9826 3
7 1 -2 48.6895 5.7951 1
-7 1 2 55.886 3.5562 2
-6 -1 2 87.7783 5.5268 3
6 -1 -2 92.844 6.2865 1
6 1 -2 95.2433 6.5442 1
-6 1 2 85.3355 4.6525 2
-6 1 2 92.6431 5.6046 3
5 -1 -2 296.694 13.409 1
-5 -1 2 295.647 12.33 3
-5 1 2 299.593 12.32 3
5 1 -2 284.808 13.629 1
-5 1 2 292.604 11.471 2
-4 -1 2 29.4348 2.8442 3
4 -1 -2 23.0659 3.0432 1
-4 1 2 25.0457 2.6518 3
-4 1 2 21.5354 2.141 2
4 1 -2 20.1223 3.0873 1
-3 -1 2 43.652 2.797 3
3 -1 -2 42.7094 3.3262 1
-3 1 2 39.9544 2.7286 3
3 1 -2 42.2718 4.0173 1
-3 1 2 39.5156 2.5369 2
2 -1 -2 614.079 23.553 1
-2 -1 2 613 21.8 3
-2 1 2 618.989 21.811 3
2 1 -2 620.735 23.684 1
-2 1 2 607.265 21.833 2
0 -1 -2 92.0618 4.2525 1
0 1 -2 88.9569 4.3924 2
-1 1 -2 28.1198 2.6863 2
2 1 2 8316.1 305.26 1
-2 1 -2 9042.96 292.08 2
-3 -1 -2 2067.72 70.93 2
-3 1 -2 2088.32 71.48 2
3 1 2 2036.7 74.31 1
-4 -1 -2 568.764 20.913 2
-4 1 -2 544.807 21.395 2
4 1 2 568.417 22.149 1
5 -1 2 112.348 5.53 1
-5 -1 -2 113.103 5.998 2
-5 1 -2 118.551 6.514 2
5 1 2 115.264 6.554 1
-6 -1 -2 197.441 9.168 2
6 -1 2 200.234 9.037 1
-6 -1 -2 185.937 9.51 3
6 1 2 200.318 10.021 1
-6 1 -2 225.97 9.936 2
-6 1 -2 187.143 9.466 3
-7 -1 -2 10.1363 2.5242 3
-7 -1 -2 2.51717 1.55793 2
7 -1 2 7.86585 1.95397 1
-7 1 -2 7.43016 2.25285 3
7 1 2 3.74708 1.99213 1
-7 1 -2 3.59371 1.88603 2
-8 -1 -2 350.613 16.041 3
-8 -1 -2 343.888 14.786 2
8 -1 2 367.676 15.46 1
8 1 2 375.31 16.594 1
-8 1 -2 340.191 15.38 2
-8 1 -2 329.215 15.776 3
-9 -1 -2 96.7738 6.1696 2
9 -1 2 83.7992 6.2322 1
-9 -1 -2 93.795 7.0136 3
-9 1 -2 92.5722 6.3851 2
9 1 2 99.454 7.3333 1
-9 1 -2 93.2169 6.9123 3
10 -1 2 0.99823 2.07471 1
-10 -1 -2 -0.4767 1.6721 2
-10 -1 -2 0.99568 1.90311 3
10 1 2 4.11917 2.55363 1
-10 1 -2 3.65766 2.0444 2
-10 1 -2 2.51821 2.35271 3
-11 -1 -2 6.42206 2.81913 3
-11 1 -2 3.20043 2.52645 3
11 1 2 3.1153 2.88867 1
-11 1 -2 3.57162 2.3859 2
-12 -1 -2 11.7181 3.6507 3
-12 1 -2 14.951 3.458 2
-12 1 -2 16.8696 4.4533 3
-13 -1 -2 4.49125 3.06282 3
-13 1 -2 7.78781 3.50661 3
-14 -1 -2 0.70851 2.5293 3
-14 1 -2 3.97293 3.22049 3
-15 -1 -2 44.1276 7.4288 3
-15 1 -2 42.3234 7.2647 3
-16 -1 -2 69.9051 9.317 3
-16 1 -2 85.2928 10.4008 3
-17 -1 -2 6.16272 4.06548 3
-17 1 -2 1.16516 3.5736 3
-18 -1 -2 61.0121 9.5607 3
-18 1 -2 44.5694 8.4783 3
-19 -1 -2 1.12655 4.09415 3
-19 1 -2 8.16415 4.6768 3
-20 -1 -2 -1.9078 3.8736 3
-20 1 -2 0.05408 4.79521 3
-20 -2 2 4.77353 4.59502 3
-20 2 2 2.40823 4.55686 3
-19 -2 2 3.77881 4.34717 3
-19 2 2 9.93267 5.21516 3
-18 -2 2 3.77516 4.10297 3
-18 2 2 2.27401 3.67889 3
-17 -2 2 32.9706 6.7086 3
-17 2 2 55.0934 8.2059 3
-16 -2 2 -0.8679 2.7932 3
-16 2 2 0.16889 3.38185 3
16 2 -2 2.00299 4.60396 1
-15 -2 2 -0.6973 2.7122 3
15 2 -2 6.42105 4.61164 1
-15 2 2 3.16187 3.14559 3
14 -2 -2 3.66927 3.76728 1
-14 -2 2 5.04223 3.34645 3
-14 2 2 1.00883 2.68617 3
14 2 -2 7.26863 4.45832 1
-13 -2 2 172.053 11.797 3
13 2 -2 188.006 13.696 1
-13 2 2 193.643 12.103 3
-12 -2 2 276.258 15.531 3
-12 2 2 329.167 16.249 3
12 2 -2 281.59 17.391 1
-12 2 2 308.57 13.923 2
-11 -2 2 14.6336 3.6661 3
11 -2 -2 19.9314 4.5267 1
-11 2 2 18.4381 3.8699 3
11 2 -2 23.1816 5.3952 1
-11 2 2 21.386 3.3302 2
10 -2 -2 5.68132 2.91033 1
-10 -2 2 4.21642 2.52788 3
-10 2 2 7.49649 2.70455 3
10 2 -2 7.92189 3.28523 1
-10 2 2 11.3015 2.4777 2
9 -2 -2 650.736 28.104 1
-9 -2 2 662.232 26.706 3
-9 2 2 661.983 25.231 2
9 2 -2 675.031 29.428 1
-9 2 2 632.097 26.356 3
-8 -2 2 609.592 24.984 3
8 -2 -2 622.128 26.547 1
8 2 -2 643.423 27.79 1
-8 2 2 622.123 24.851 3
-8 2 2 625.581 23.896 2
7 -2 -2 527.321 22.817 1
-7 -2 2 539.711 21.442 3
-7 2 2 529.007 21.23 3
7 2 -2 529.551 23.786 1
-7 2 2 529.463 20.555 2
6 -2 -2 181.194 9.933 1
-6 -2 2 185.233 9.099 3
-6 2 2 185.869 8.696 2
-6 2 2 181.766 8.945 3
6 2 -2 203.85 11.068 1
-5 -2 2 596.425 22.572 3
5 -2 -2 566.385 24.262 1
-5 2 2 622.106 22.627 3
-5 2 2 608.022 22.478 2
5 2 -2 595.315 25.23 1
-4 -2 2 1257.01 41.99 3
4 -2 -2 1141.58 44.72 1
-4 2 2 1174.62 41.94 2
-4 2 2 1182.11 41.72 3
3 -2 -2 113.228 6.217 1
-3 -2 2 129.322 5.651 3
-3 2 2 114.159 5.79 2
3 2 -2 120.105 4.985 2
-2 -2 2 5752 189.08 3
2 -2 -2 5598.22 199.11 1
2 2 -2 5771.71 189.62 2
2 2 -2 5526.29 200.15 1
-2 2 2 5529.17 190.17 2
1 -2 -2 1829.92 64.5 1
1 2 -2 1758.46 65.14 1
-1 2 2 1808.44 61.62 2
1 2 -2 1759.83 61.38 2
0 2 -2 5035.05 177.25 1
0 2 -2 4970.72 169.05 2
-1 2 -2 492.207 18.958 1
1 2 2 484.481 19.823 1
-1 2 -2 482.984 18.506 2
-2 2 -2 5124.7 183.67 1
-2 2 -2 5186.85 176.42 2
2 2 2 5301.26 185.14 1
3 -2 2 565.665 20.043 1
3 2 2 512.175 21.917 1
-3 2 -2 531.827 20.846 2
4 -2 2 41.5527 2.9594 1
-4 2 -2 42.2108 4.2668 2
4 2 2 40.9141 4.5447 1
5 -2 2 1950.24 69.68 1
-5 2 -2 1985.36 67.45 3
-5 2 -2 1873.29 68.15 2
6 -2 2 63.968 4.275 1
-6 -2 -2 57.5014 4.208 2
-6 -2 -2 65.3452 4.8472 3
-6 2 -2 62.3089 5.3869 3
-6 2 -2 70.1388 5.1553 2
-7 -2 -2 371.226 15.13 2
7 -2 2 360.008 15.432 1
-7 -2 -2 377.227 16.22 3
-7 2 -2 346.547 15.919 2
-7 2 -2 385.072 16.189 3
8 -2 2 23.8981 3.3578 1
-8 -2 -2 19.7454 3.6164 3
-8 -2 -2 18.5257 2.8582 2
8 2 2 18.4033 3.9266 1
-8 2 -2 23.3407 3.5827 2
-8 2 -2 23.2062 3.7892 3
-9 -2 -2 73.3374 5.2674 2
-9 -2 -2 84.2622 7.6366 3
9 -2 2 77.9386 5.771 1
-9 2 -2 72.2359 6.9276 3
9 2 2 83.8417 8.2033 1
-9 2 -2 86.2404 6.2874 2
-10 -2 -2 6.43272 2.25615 2
-10 -2 -2 13.3789 3.2564 3
-10 2 -2 11.8382 3.2646 3
-10 2 -2 7.28685 2.78945 2
10 2 2 7.53903 3.48135 1
-11 -2 -2 5.52746 2.93819 3
-11 2 -2 8.82424 3.36425 3
11 2 2 6.07103 3.42448 1
-11 2 -2 15.4776 3.5075 2
-12 -2 -2 292.145 16.095 3
-12 2 -2 276.765 14.691 2
-12 2 -2 300.104 16.022 3
12 2 2 322.686 17.261 1
-13 -2 -2 37.6196 6.3255 3
-13 2 -2 33.4785 5.9841 3
-13 2 -2 46.4122 5.8908 2
-14 -2 -2 35.2898 6.3058 3
-14 2 -2 38.4587 6.5239 3
-15 -2 -2 3.08348 3.40356 3
-15 2 -2 12.5402 4.5151 3
-16 -2 -2 0.17956 3.4927 3
-16 2 -2 4.89053 3.86251 3
-17 -2 -2 3.09917 4.10878 3
-17 2 -2 1.53128 3.64565 3
-18 -2 -2 1.50835 3.64899 3
-18 2 -2 4.4527 4.5543 3
-19 -2 -2 5.45842 4.43965 3
-19 2 -2 1.82889 3.83833 3
-20 -3 2 -0.9126 4.1981 3
-20 3 2 -4.3484 4.1235 3
-19 -3 2 40.2486 8.1668 3
-19 3 2 40.6886 8.1392 3
-18 -3 2 18.7796 5.7677 3
-18 3 2 14.4306 5.4829 3
-17 -3 2 1.34736 3.06091 3
-17 3 2 2.62774 3.68131 3
-16 -3 2 27.1261 5.8084 3
-16 3 2 12.894 4.6271 3
16 3 -2 27.46 7.614 1
-15 -3 2 87.5419 9.7976 3
-15 3 2 103.466 10.62 3
15 3 -2 100.2 12.672 1
-14 -3 2 23.9021 5.4116 3
-14 3 2 25.0194 5.2045 3
14 3 -2 26.0523 6.6406 1
-13 -3 2 165.788 11.479 3
-13 3 2 186.852 10.459 2
13 3 -2 166.724 15.398 1
-13 3 2 164.749 11.287 3
-12 -3 2 24.6719 4.6396 3
12 3 -2 8.69256 4.44208 1
-12 3 2 16.9615 3.5992 2
-12 3 2 26.8061 4.9478 3
-11 -3 2 224.64 12.807 3
-11 3 2 222.657 12.654 3
11 3 -2 236.795 15.203 1
-11 3 2 222.27 11.637 2
-10 -3 2 -1.1404 1.7839 3
10 -3 -2 1.89092 2.42822 1
-10 3 2 3.52987 2.10035 2
10 3 -2 -2.2696 2.4729 1
-10 3 2 -0.7434 1.7466 3
-9 -3 2 20.251 3.6984 3
9 -3 -2 21.1916 4.2095 1
-9 3 2 19.0537 3.2969 2
-9 3 2 16.75 3.5233 3
9 3 -2 22.5909 5.0607 1
8 -3 -2 119.406 8.3 1
-8 -3 2 123.306 7.559 3
8 3 -2 132.468 9.594 1
-8 3 2 116.092 7.302 3
-8 3 2 109.092 6.946 2
7 -3 -2 0.77371 1.77104 1
-7 -3 2 0.10949 1.35515 3
7 3 -2 -1.0944 2.1117 1
-7 3 2 -0.7574 1.2211 3
-7 3 2 0.59625 1.40563 2
-6 -3 2 1.01053 1.37963 3
6 -3 -2 -0.7912 1.3937 1
6 3 -2 1.66486 2.01909 1
-6 3 2 1.054 1.27059 3
-6 3 2 0.92779 1.34924 2
5 -3 -2 31.4644 4.2047 1
-5 -3 2 35.5987 3.5586 3
5 3 -2 23.2596 4.2853 1
-5 3 2 36.946 3.9195 2
5 3 -2 32.8984 2.1667 2
4 -3 -2 225.521 10.568 1
-4 -3 2 226.011 9.603 3
4 3 -2 215.977 8.913 2
-4 3 2 227.541 10.279 2
4 3 -2 225.075 12.168 1
-4 3 2 229.215 9.471 3
3 -3 -2 31.8501 3.4872 1
-3 -3 2 34.455 2.5359 3
-3 3 2 36.2843 2.5034 3
3 3 -2 36.3063 2.5853 2
3 3 -2 32.8963 4.5022 1
-3 3 2 34.1057 3.5542 2
2 -3 -2 0.26439 0.97542 1
-2 -3 2 -0.573 0.6499 3
2 3 -2 2.07029 1.65116 1
-2 3 2 -1.3128 0.8133 2
2 3 -2 -0.0794 0.5284 2
1 3 -2 117.212 5.927 2
-1 3 2 118.779 6.183 2
-1 3 2 115.349 7.44 1
1 3 -2 124.05 7.368 1
0 3 -2 1369.6 50.91 1
0 3 2 1312.62 51.37 1
0 3 -2 1369.63 47.98 2
0 3 2 1378.38 47.84 2
-1 3 -2 601.938 24.174 1
-1 3 -2 620.939 23.021 2
1 3 2 577.932 24.877 1
2 3 2 985.295 38.359 1
-2 3 -2 980.277 37.085 1
-2 3 -2 964.792 35.753 2
-3 3 -2 104.417 6.228 2
3 3 2 91.324 6.8335 1
-3 3 -2 97.5246 5.8703 1
4 -3 2 17.9197 2.1908 1
-4 3 -2 14.0815 2.7083 2
4 3 2 11.9199 3.13 1
-4 3 -2 15.0654 2.232 3
-5 -3 -2 6.38762 1.84201 3
5 -3 2 4.57854 1.521 1
-5 3 -2 0.27502 0.92915 3
-5 3 -2 3.75127 1.89707 2
5 3 2 0.93815 1.8765 1
-6 -3 -2 327.75 13.901 3
6 -3 2 293.392 13.492 1
6 3 2 297.627 15.622 1
-6 3 -2 311.764 14.388 2
-6 3 -2 328.129 13.783 3
-7 -3 -2 324.887 13.878 2
7 -3 2 324.904 14.401 1
-7 -3 -2 324.389 14.83 3
-7 3 -2 325.641 15.205 2
7 3 2 343.543 16.961 1
-7 3 -2 320.147 14.573 3
-8 -3 -2 92.1611 6.9312 3
8 -3 2 105.386 6.609 1
-8 -3 -2 103.404 6.093 2
8 3 2 100.526 9.542 1
-8 3 -2 87.8432 6.7853 2
-8 3 -2 95.2691 6.7038 3
-9 -3 -2 13.6214 2.6766 2
9 -3 2 15.6543 3.2547 1
-9 -3 -2 15.6706 3.5934 3
-9 3 -2 8.7735 2.8188 3
-9 3 -2 19.7284 3.7975 2
9 3 2 11.3449 3.822 1
-10 -3 -2 6.40138 2.84093 3
-10 3 -2 7.20672 2.99506 3
-10 3 -2 4.85166 2.69406 2
10 3 2 2.16349 2.75143 1
-11 -3 -2 136.232 9.36 3
-11 3 -2 114.464 8.534 2
-11 3 -2 126.429 9.112 3
-12 -3 -2 84.1903 8.9426 3
-12 3 -2 93.4504 9.1196 3
-12 3 -2 81.3369 8.0839 2
-13 -3 -2 18.7041 4.8712 3
-13 3 -2 16.9088 4.0875 2
-13 3 -2 12.4258 4.152 3
-14 -3 -2 49.2558 7.4477 3
-14 3 -2 49.1048 7.5352 3
-15 -3 -2 1.49875 3.44628 3
-15 3 -2 5.41498 3.82953 3
-16 -3 -2 39.184 7.1814 3
-16 3 -2 31.503 6.6322 3
-17 -3 -2 23.0835 6.2002 3
-17 3 -2 13.1468 5.072 3
-18 -3 -2 11.0269 4.8331 3
-18 3 -2 17.1588 5.8006 3
-19 -3 -2 -4.7872 3.1349 3
-19 3 -2 1.4227 4.51796 3
-20 -4 2 13.8531 5.7987 3
-20 4 2 14.2041 6.2235 3
-19 -4 2 -2.0823 3.2989 3
-19 4 2 1.19215 4.02208 3
-18 -4 2 -2.244 3.0453 3
-18 4 2 -1.7602 3.5535 3
-17 -4 2 86.6453 10.8032 3
-17 4 2 73.4506 9.708 3
17 4 -2 109.101 14.159 1
-16 -4 2 3.21065 3.36096 3
16 4 -2 8.3013 5.71803 1
-16 4 2 11.6428 4.6074 3
-15 -4 2 -1.664 2.4207 3
15 4 -2 7.43483 4.81521 1
-15 4 2 -0.365 3.0836 3
-14 -4 2 38.6803 6.4986 3
14 4 -2 59.0226 9.6782 1
-14 4 2 34.8172 6.2848 3
-13 -4 2 96.6601 9.7343 3
13 -4 -2 101.358 10.834 1
13 4 -2 100.335 12.705 1
-13 4 2 112.441 10.299 3
-13 4 2 132.769 8.946 2
-12 -4 2 129.765 9.419 3
-12 4 2 119.88 10.374 3
12 4 -2 153.212 14.502 1
-12 4 2 109.084 8.29 2
11 -4 -2 2.67407 2.6273 1
-11 -4 2 8.57974 3.22308 3
11 4 -2 6.67349 4.66789 1
-11 4 2 2.09242 2.49887 2
-11 4 2 0.82572 2.14686 3
10 -4 -2 184.707 12.014 1
-10 -4 2 200.25 11.202 3
-10 4 2 197.927 10.906 2
-10 4 2 167.304 10.482 3
10 4 -2 197.003 14.008 1
9 -4 -2 381.536 18.965 1
-9 -4 2 364.175 17.204 3
-9 4 2 382.245 17.193 3
-9 4 2 393.49 17.491 2
9 4 -2 388.293 20.874 1
-8 -4 2 456.937 19.462 3
8 -4 -2 462.774 21.437 1
8 4 -2 465.46 23.092 1
-8 4 2 457.671 19.256 3
-8 4 2 441.381 19.631 2
-7 -4 2 34.4753 4.1521 3
7 -4 -2 50.1286 6.0559 1
7 4 -2 31.6806 5.7958 1
-7 4 2 41.567 4.6923 2
6 -4 -2 2.3798 2.16381 1
-6 -4 2 3.61012 1.62131 3
6 4 -2 6.50474 1.44527 2
-6 4 2 6.39376 1.84177 3
-6 4 2 4.64108 1.91034 2
6 4 -2 5.22286 2.81486 1
5 -4 -2 15.9022 2.9711 1
-5 -4 2 14.9938 2.3779 3
5 4 -2 15.2785 2.1281 2
-5 4 2 11.637 2.5693 2
-5 4 2 17.6265 2.479 3
5 4 -2 17.4656 3.9522 1
-4 -4 2 62.3416 3.9958 3
4 -4 -2 71.5576 5.1202 1
4 4 -2 43.4578 6.182 1
-4 4 2 59.2893 3.7071 3
4 4 -2 61.2789 3.8785 2
-4 4 2 56.0665 5.3292 2
-3 -4 2 16.5038 1.9486 3
3 -4 -2 13.0639 2.5994 1
3 4 -2 15.1593 2.2835 2
3 4 -2 23.5338 4.2582 1
-3 4 2 16.3716 2.7415 2
-2 -4 2 224.174 8.348 3
2 4 -2 218.902 11.898 1
-2 4 2 201.005 10.031 2
-2 4 2 214.64 11.841 1
2 4 -2 202.254 9.526 2
-1 4 2 263.683 13.611 1
1 4 -2 246.53 11.311 2
1 4 -2 274.109 13.567 1
-1 4 2 259.809 11.607 2
0 4 -2 345.668 15.979 1
0 4 -2 340.306 14.264 2
0 4 2 329.048 16.313 1
0 4 2 326.035 14.026 2
1 4 2 1484.19 52.39 2
-1 4 -2 1474.59 55.94 1
-1 4 -2 1472.78 52.76 2
1 4 2 1472.22 56.89 1
-2 4 -2 135.323 8.257 1
-2 4 -2 134.805 7.533 2
2 4 2 123.555 8.824 1
-3 4 -2 54.9818 5.4204 2
-3 4 -2 56.2298 5.7703 1
-3 4 -2 65.0129 3.6247 3
3 4 2 64.0237 6.9635 1
4 -4 2 312.423 13.528 1
-4 4 -2 327.185 12.81 3
-4 4 -2 313.132 14.601 2
4 4 2 308.786 16.155 1
-5 -4 -2 102.222 6.354 3
5 -4 2 118.558 6.47 1
-5 4 -2 121.181 7.681 2
5 4 2 125.907 9.193 1
-5 4 -2 125.034 6.542 3
-6 -4 -2 359.566 16.094 3
6 -4 2 405.124 16.332 1
6 4 2 382.702 19.285 1
-6 4 -2 376.207 15.867 3
-6 4 -2 379.302 17.311 2
-7 -4 -2 16.9759 3.1585 3
7 -4 2 15.1332 3.1414 1
-7 4 -2 5.8598 2.00775 3
7 4 2 19.8661 4.6593 1
-7 4 -2 17.0847 3.6674 2
-8 -4 -2 9.77807 2.89921 3
8 -4 2 13.7814 3.2189 1
-8 4 -2 17.5099 3.8705 2
-8 4 -2 9.66954 2.67054 3
8 4 2 13.2314 4.251 1
-9 -4 -2 391.355 18.517 3
-9 4 -2 411.642 19.039 2
-9 4 -2 409.594 18.411 3
9 4 2 422.442 21.558 1
-10 -4 -2 67.86 7.2381 3
-10 4 -2 57.4044 6.4723 3
10 4 2 71.8141 9.2407 1
-10 4 -2 56.4355 6.5944 2
-11 -4 -2 8.41541 3.19399 3
-11 4 -2 6.41608 3.05231 2
-11 4 -2 10.2719 3.5767 3
11 4 2 17.344 5.1809 1
-12 -4 -2 3.85222 2.90844 3
12 4 2 0.56709 4.1717 1
-12 4 -2 8.30749 3.35842 3
-12 4 -2 4.61278 2.9366 2
-13 -4 -2 160.723 11.621 3
-13 4 -2 160.177 10.932 2
13 4 2 172.2 15.688 1
-13 4 -2 155.141 11.218 3
-14 -4 -2 25.0129 5.6091 3
-14 4 -2 29.6663 5.4893 2
-14 4 -2 34.6354 6.3149 3
-15 -4 -2 -0.73 2.8587 3
-15 4 -2 0.47609 3.08906 3
-16 -4 -2 65.3775 9.2118 3
-16 4 -2 39.3573 7.2058 3
-17 -4 -2 4.45808 3.78259 3
-17 4 -2 15.765 5.2544 3
-18 -4 -2 4.16377 4.5567 3
-18 4 -2 3.77714 4.14093 3
-19 -4 -2 -3.3554 3.5194 3
-19 4 -2 4.00835 4.96259 3
-19 -5 2 0.62082 4.15659 3
-19 5 2 -0.2388 4.2091 3
-18 -5 2 0.89734 3.46076 3
-18 5 2 2.29472 3.83171 3
-17 -5 2 -0.3157 3.6876 3
17 5 -2 3.81079 5.8923 1
-17 5 2 6.03974 4.20652 3
-16 -5 2 78.5702 9.8909 3
16 5 -2 108.638 14.202 1
-16 5 2 96.7996 10.7907 3
-15 -5 2 22.2494 5.4605 3
-15 5 2 32.9246 6.1661 3
15 5 -2 25.2399 8.0347 1
-14 -5 2 210.192 13.656 3
14 5 -2 232.832 17.488 1
-14 5 2 222.625 13.15 2
-14 5 2 187.264 13.132 3
-13 -5 2 15.8047 4.2518 3
-13 5 2 19.8251 4.6334 3
13 5 -2 11.5996 5.1471 1
-13 5 2 14.7487 3.9176 2
12 -5 -2 2.3971 3.02658 1
-12 -5 2 11.1266 3.7945 3
-12 5 2 17.5042 4.3616 2
-12 5 2 5.30987 3.33371 3
12 5 -2 -2.3132 3.5423 1
11 -5 -2 234.156 14.54 1
-11 -5 2 218.287 12.841 3
-11 5 2 243.684 13.36 2
-11 5 2 233.128 12.976 3
11 5 -2 236 16.388 1
10 -5 -2 130.665 10.282 1
-10 -5 2 139.323 9.131 3
-10 5 2 134.255 9.203 2
-10 5 2 141.806 9.02 3
10 5 -2 135.893 14.028 1
-9 -5 2 66.3955 6.5234 3
9 -5 -2 43.0502 6.5627 1
9 5 -2 54.1602 8.297 1
-9 5 2 59.9622 6.6232 2
8 -5 -2 8.93288 3.40023 1
-8 -5 2 5.6594 2.40037 3
-8 5 2 8.42123 2.79124 2
-8 5 2 2.88421 2.05753 3
8 5 -2 11.959 4.3564 1
7 -5 -2 112.952 8.483 1
-7 -5 2 108.273 6.807 3
-7 5 2 105.887 6.5 3
7 5 -2 107.343 11.137 1
-7 5 2 112.49 7.682 2
6 -5 -2 113.065 7.843 1
-6 -5 2 109.744 6.757 3
6 5 -2 131.847 12.387 1
-6 5 2 123.482 6.667 3
-6 5 2 131.393 8.135 2
6 5 -2 133.939 6.499 2
-5 -5 2 77.3453 5.045 3
5 -5 -2 77.1777 6.1326 1
-5 5 2 90.0307 4.9463 3
5 5 -2 83.2527 9.2066 1
5 5 -2 76.6529 4.9396 2
-5 5 2 84.2041 6.1885 2
-4 -5 2 619.146 22.519 3
4 -5 -2 589.984 25.264 1
-4 5 2 620.193 24.747 2
4 5 -2 613.722 23.219 2
4 5 -2 586.341 27.637 1
3 -5 -2 185.299 9.933 1
-3 -5 2 179.881 7.568 3
-3 5 2 172.684 9.578 2
3 5 -2 167.689 11.432 1
-2 5 2 -2.0664 1.9026 1
2 5 -2 0.82411 1.95134 1
-2 5 2 0.91005 1.41939 2
2 5 -2 1.78227 1.39928 2
-1 5 2 154.748 10.578 1
1 5 -2 148.194 10.157 1
1 5 -2 167.247 8.634 2
-1 5 2 159.34 8.622 2
0 5 2 87.3076 8.7964 1
0 5 2 88.1153 5.9295 2
0 5 -2 79.42 8.0621 1
0 5 -2 87.054 6.0437 2
-1 5 -2 118.757 7.443 2
-1 5 -2 126.308 8.745 1
1 5 2 124.734 7.19 2
1 5 2 130.687 9.347 1
-2 5 -2 6.38318 2.35916 2
2 5 2 3.97567 2.71711 1
-2 5 -2 2.55949 2.06422 1
2 5 2 1.70084 1.41768 2
-2 5 -2 5.88532 1.05393 3
-3 5 -2 770.282 32.417 1
3 5 2 813.387 34.279 1
-3 5 -2 745.138 30.666 2
-3 5 -2 804.618 27.802 3
4 -5 2 63.8077 4.7843 1
-4 -5 -2 60.5431 4.3543 3
-4 5 -2 63.9774 6.4593 2
4 5 2 54.0697 7.3653 1
-4 5 -2 74.2802 7.3261 1
-4 5 -2 73.6775 4.2638 3
5 -5 2 7.28078 2.22566 1
-5 -5 -2 7.83499 2.08439 3
-5 5 -2 5.54046 2.37195 2
-5 5 -2 5.3261 1.74773 3
5 5 2 5.97814 3.29395 1
6 -5 2 24.2098 3.3977 1
-6 -5 -2 24.4397 3.5301 3
-6 5 -2 23.1021 3.2084 3
6 5 2 23.5108 5.1255 1
-6 5 -2 23.6883 4.1483 2
7 -5 2 302.778 14.012 1
-7 -5 -2 285.202 13.749 3
-7 5 -2 273.267 14.611 2
-7 5 -2 304.114 13.447 3
7 5 2 271.931 16.662 1
-8 -5 -2 -0.709 1.6463 3
8 -5 2 -0.1313 2.2714 1
-8 5 -2 1.90627 2.36055 2
8 5 2 0.38509 3.08369 1
-8 5 -2 -0.6169 1.7937 3
-9 -5 -2 5.50559 2.57406 3
-9 5 -2 -1.5143 1.4463 3
-9 5 -2 2.51681 2.69665 2
9 5 2 4.39359 3.75289 1
-10 -5 -2 352.036 17.361 3
-10 5 -2 334.655 16.904 3
-10 5 -2 344.803 17.87 2
10 5 2 395.393 21.367 1
-11 -5 -2 120.387 10.431 3
11 5 2 125.442 13.099 1
-11 5 -2 119.249 10.538 2
-11 5 -2 113.261 8.748 3
-12 -5 -2 5.05492 2.89364 3
-12 5 -2 2.55152 2.68942 3
12 5 2 3.20364 4.04747 1
-12 5 -2 7.48943 3.50453 2
-13 -5 -2 23.4252 5.2712 3
-13 5 -2 25.8211 5.4875 2
13 5 2 23.7985 6.7458 1
-13 5 -2 30.8552 5.7531 3
-14 -5 -2 10.916 4.3038 3
-14 5 -2 15.0457 4.58 2
-14 5 -2 10.7418 4.352 3
-15 -5 -2 1.71989 3.18801 3
-15 5 -2 1.884 3.26166 3
-16 -5 -2 15.4963 5.1487 3
-16 5 -2 14.7561 4.9941 3
-17 -5 -2 1.87268 3.76276 3
-17 5 -2 -0.6661 3.7718 3
-18 -5 -2 -0.5605 4.0344 3
-18 5 -2 -2.5117 4.3124 3
-18 -6 2 2.86795 3.95396 3
-17 -6 2 -2.4626 2.929 3
17 6 -2 -0.3513 5.799 1
-16 -6 2 9.32602 4.14696 3
16 6 -2 12.1942 7.0245 1
-15 -6 2 22.4869 5.3683 3
-15 6 2 44.6495 7.1168 3
15 6 -2 51.9011 10.6089 1
-14 -6 2 2.64322 3.28176 3
14 6 -2 4.27253 4.97425 1
-14 6 2 -0.3838 2.6536 3
-14 6 2 1.96457 3.07454 2
-13 -6 2 17.1698 4.5003 3
-13 6 2 27.533 5.2295 3
-13 6 2 24.4071 5.1122 2
13 6 -2 19.6189 7.0524 1
12 -6 -2 5.15043 4.06311 1
-12 -6 2 0.49959 2.44742 3
12 6 -2 6.30333 5.12095 1
-12 6 2 1.80956 2.79428 3
-12 6 2 6.63999 3.33701 2
11 -6 -2 25.6347 5.9747 1
-11 -6 2 25.8811 4.8892 3
-11 6 2 26.3949 5.167 2
11 6 -2 19.9086 6.4217 1
-10 -6 2 434.561 20.307 3
10 -6 -2 451.546 22.95 1
10 6 -2 457.649 25.717 1
-10 6 2 464.707 21.525 2
-10 6 2 443.593 19.868 3
9 -6 -2 115.336 11.152 1
-9 -6 2 100.346 7.464 3
-9 6 2 114.533 7.371 3
9 6 -2 83.1779 11.2151 1
-9 6 2 108.388 9.512 2
-8 -6 2 26.2924 4.0359 3
8 -6 -2 27.1841 5.3806 1
-8 6 2 38.5125 5.5463 2
8 6 -2 35.863 7.2779 1
-8 6 2 28.8222 3.9313 3
-7 -6 2 20.5934 3.3177 3
7 -6 -2 13.7746 3.5433 1
-7 6 2 20.644 3.1659 3
7 6 -2 32.2427 6.6571 1
-7 6 2 21.67 4.0953 2
-6 -6 2 93.5841 5.6536 3
6 -6 -2 73.7044 7.3498 1
-6 6 2 68.6525 7.2001 2
-6 6 2 75.5155 5.0023 3
6 6 -2 71.7664 5.2239 2
6 6 -2 95.1435 10.5894 1
-5 -6 2 2.71924 1.44829 3
5 -6 -2 2.28972 2.01932 1
5 6 -2 0.10708 1.41268 2
5 6 -2 4.57909 3.02224 1
-5 6 2 2.77627 1.92905 2
4 -6 -2 98.466 7.3465 1
-4 -6 2 110.648 5.375 3
4 6 -2 71.3938 5.661 2
4 6 -2 102.669 10.614 1
-4 6 2 106.19 7.359 2
3 -6 -2 16.7606 3.6285 1
-3 -6 2 22.3091 2.2281 3
-3 6 2 16.5947 3.5004 2
3 6 -2 16.8667 2.9972 2
3 6 -2 19.4506 4.6567 1
-2 6 2 613.638 25.011 2
2 6 -2 620.28 24.517 2
-2 6 2 599.439 28.199 1
2 6 -2 591.336 28.027 1
-1 6 2 289.581 16.898 1
1 6 -2 305.239 16.869 1
-1 6 2 310.059 14.448 2
1 6 -2 302.238 14.097 2
0 6 -2 -0.6748 2.0577 1
0 6 2 -0.2243 1.3883 2
0 6 -2 0.1174 1.64801 2
0 6 2 1.21544 2.18128 1
-1 6 -2 17.092 3.4826 2
1 6 2 18.0005 4.5393 1
1 6 2 15.3941 3.094 2
-1 6 -2 22.6895 4.6698 1
-2 -6 -2 190.304 8.087 3
2 6 2 189.149 12.978 1
-2 6 -2 194.68 10.912 2
-2 6 -2 195.256 12.174 1
2 6 2 194.711 10.221 2
-3 -6 -2 89.4347 5.1624 3
-3 6 -2 96.9822 9.49 1
-3 6 -2 98.0468 7.3041 2
3 6 2 116.247 11.29 1
-4 -6 -2 333.034 14.012 3
-4 6 -2 357.377 16.838 2
-4 6 -2 333.324 17.5 1
4 6 2 335.651 18.981 1
-5 -6 -2 3.29248 1.79008 3
5 -6 2 1.64145 1.61902 1
-5 6 -2 -3.1332 1.4184 2
5 6 2 -0.184 2.8865 1
6 -6 2 132.673 8.046 1
-6 -6 -2 139.684 7.761 3
-6 6 -2 125.052 7.077 3
6 6 2 120.905 12.463 1
-6 6 -2 116.108 8.941 2
7 -6 2 73.1311 6.6973 1
-7 -6 -2 60.9118 6.036 3
-7 6 -2 73.2817 7.9849 2
-7 6 -2 69.417 6.0397 3
7 6 2 92.1671 11.024 1
-8 -6 -2 4.03817 2.37273 3
8 -6 2 3.98036 2.85704 1
-8 6 -2 3.7453 2.37683 3
8 6 2 3.19108 3.91627 1
-8 6 -2 9.42797 3.57849 2
-9 -6 -2 -1.9812 1.8343 3
-9 6 -2 -0.2131 2.1257 3
-9 6 -2 -0.8287 2.3859 2
9 6 2 0.67803 3.14592 1
-10 -6 -2 135.62 9.304 3
-10 6 -2 117.701 11.023 2
-10 6 -2 119.341 8.6 3
10 6 2 122.943 13.615 1
-11 -6 -2 2.06176 2.41854 3
-11 6 -2 -0.966 1.895 3
-11 6 -2 0.48611 2.88694 2
11 6 2 -1.9231 4.3214 1
-12 -6 -2 1.19525 2.74579 3
12 6 2 4.10388 4.57373 1
-12 6 -2 1.8838 2.84749 3
-12 6 -2 3.59283 3.20765 2
-13 -6 -2 -2.282 2.779 3
-13 6 -2 1.63408 3.24392 2
13 6 2 1.29674 4.6926 1
-14 -6 -2 78.5047 9.2959 3
-14 6 -2 76.7736 9.3995 2
14 6 2 56.7827 10.6807 1
-15 -6 -2 9.73723 4.24147 3
-15 6 -2 3.56319 3.631 2
-16 -6 -2 78.5629 10.2467 3
-17 -6 -2 -0.4095 3.4521 3
-18 -6 -2 7.53299 4.75992 3
18 7 -2 2.48355 7.21901 1
-17 -7 2 7.75233 4.31338 3
17 7 -2 -2.4584 6.4563 1
-16 -7 2 18.1074 5.3982 3
16 7 -2 22.4842 8.8645 1
-15 -7 2 4.77006 3.4981 3
15 7 -2 4.83857 6.20913 1
-15 7 2 15.9751 5.2841 2
-14 -7 2 5.68761 3.43948 3
-14 7 2 8.12413 3.9375 2
14 7 -2 5.29164 6.66891 1
-13 -7 2 2.08553 2.96976 3
-13 7 2 1.54814 3.10648 2
13 7 -2 -1.4963 4.4597 1
-12 -7 2 177.974 11.543 3
-12 7 2 158.869 11.75 2
12 7 -2 193.52 18.981 1
11 -7 -2 -2.0488 3.1563 1
-11 -7 2 2.51177 2.7012 3
-11 7 2 1.99748 2.84667 2
11 7 -2 -3.8743 3.9695 1
10 -7 -2 154.868 12.056 1
-10 -7 2 127.113 9.267 3
10 7 -2 161.076 16.611 1
-10 7 2 148.152 10.803 2
9 -7 -2 5.60002 3.68632 1
-9 7 2 5.94316 2.93345 2
9 7 -2 1.64088 4.07088 1
8 -7 -2 15.2679 4.3013 1
-8 7 2 18.3669 4.5352 2
8 7 -2 23.0114 6.4705 1
7 -7 -2 57.5637 6.9072 1
-7 7 2 49.3503 6.7501 2
7 7 -2 52.7589 8.9781 1
6 -7 -2 157.954 10.458 1
-6 7 2 133.432 9.926 2
6 7 -2 183.364 13.858 1
6 7 -2 172.139 9.075 2
5 -7 -2 132.876 9.167 1
5 7 -2 130.423 7.758 2
5 7 -2 122.595 12.981 1
-5 7 2 122.948 8.917 2
4 -7 -2 93.8649 7.3471 1
4 7 -2 62.418 6.3419 2
-4 7 2 76.0901 7.747 2
4 7 -2 96.0394 11.0336 1
3 -7 -2 23.3039 4.4225 1
-3 7 2 26.0862 4.5701 2
3 7 -2 20.2856 5.3681 1
3 7 -2 24.785 3.9905 2
2 7 -2 4.37593 2.03619 2
-2 7 2 1.88413 2.44556 2
-2 7 2 3.91877 3.16756 1
2 7 -2 0.79626 2.69605 1
1 7 -2 29.5966 4.4405 2
1 7 -2 39.6294 6.6146 1
-1 7 2 34.6892 4.8991 2
-1 7 2 42.1996 7.1835 1
0 7 -2 702.945 32.07 1
0 7 2 722.416 32.867 1
0 7 -2 662.878 28.319 2
0 7 2 703.306 28.45 2
-1 7 -2 121.263 8.095 2
1 7 2 109.265 11.467 1
1 7 2 95.2546 7.2856 2
-1 7 -2 98.3116 10.4637 1
-2 7 -2 4.70248 2.97847 1
2 7 2 3.52531 2.2114 2
-2 7 -2 0.10384 1.97644 2
2 7 2 -2.2162 2.5762 1
-3 7 -2 4.85227 2.85502 2
3 7 2 3.33498 2.26747 2
-3 7 -2 1.79993 2.92143 1
3 7 2 5.50361 3.85939 1
-4 7 -2 17.591 4.2366 2
4 7 2 21.4114 5.8507 1
-4 7 -2 12.4796 4.2825 1
5 -7 2 37.6814 5.1952 1
-5 7 -2 35.2722 5.6194 2
5 7 2 41.0532 7.7893 1
6 -7 2 2.68191 2.33263 1
6 7 2 0.51849 3.44989 1
-6 7 -2 4.75598 2.91191 2
7 -7 2 28.8436 4.6706 1
-7 -7 -2 30.1446 4.2791 3
7 7 2 14.0985 5.0922 1
-7 7 -2 26.1304 5.1094 2
-8 -7 -2 14.2107 3.4065 3
8 7 2 21.2699 6.522 1
-8 7 -2 17.6202 4.5072 2
-9 -7 -2 1.94499 2.76695 3
-9 7 -2 6.24333 3.54578 2
9 7 2 0.31401 3.89485 1
-10 -7 -2 150.876 10.013 3
10 7 2 171.091 16.699 1
-10 7 -2 120.757 11.853 2
-11 -7 -2 11.8453 3.8081 3
11 7 2 12.3701 5.9659 1
-11 7 -2 19.2757 4.9325 2
-12 -7 -2 3.59289 3.15774 3
12 7 2 2.44359 4.99111 1
-12 7 -2 -1.8701 3.0193 2
-13 -7 -2 3.51898 3.23266 3
13 7 2 2.43708 5.62927 1
-13 7 -2 -2.5493 2.8961 2
-14 -7 -2 81.2253 9.6702 3
14 7 2 84.6654 13.1206 1
-14 7 -2 63.7181 9.2689 2
-15 -7 -2 -0.9109 3.1846 3
-15 7 -2 9.00257 4.23815 2
-16 -7 -2 5.84034 4.19623 3
-17 -7 -2 4.53656 4.63924 3
17 8 -2 6.18175 7.6925 1
16 8 -2 25.3344 8.8818 1
15 8 -2 10.0976 7.4023 1
-15 8 2 9.69393 4.61606 2
14 8 -2 0.66074 5.90124 1
-14 8 2 0.84193 3.652 2
-13 8 2 38.6458 7.229 2
13 8 -2 45.4525 10.1759 1
-12 8 2 2.27527 3.53535 2
12 8 -2 6.23366 5.96917 1
11 -8 -2 0.73068 3.99384 1
11 8 -2 3.06545 4.79873 1
-11 8 2 -1.9499 2.4737 2
10 -8 -2 167.658 15.755 1
-10 8 2 216.223 13.783 2
10 8 -2 194.317 19.513 1
9 -8 -2 2.53165 3.73801 1
-9 8 2 4.16068 3.11639 2
9 8 -2 -3.1469 4.1613 1
8 -8 -2 1.40238 2.69645 1
8 8 -2 1.04168 4.06211 1
-8 8 2 0.55577 2.70835 2
7 -8 -2 59.4231 7.5313 1
-7 8 2 64.9549 8.0124 2
7 8 -2 50.1025 9.1308 1
6 -8 -2 420.543 21.13 1
6 8 -2 440.317 19.026 2
6 8 -2 413.684 24.802 1
-6 8 2 444.461 21.354 2
5 -8 -2 20.966 4.6082 1
5 8 -2 37.2022 7.3989 1
-5 8 2 19.448 4.6246 2
4 -8 -2 66.8661 7.7527 1
4 8 -2 63.5828 9.7907 1
-4 8 2 63.6229 7.6271 2
4 8 -2 64.1755 6.7986 2
3 -8 -2 109.845 8.707 1
3 8 -2 119.568 13.123 1
3 8 -2 94.9672 8.5734 2
-3 8 2 118.664 8.898 2
-2 8 2 82.8177 10.4115 1
2 8 -2 70.6763 7.2937 2
-2 8 2 83.0333 8.3005 2
2 8 -2 77.2125 10.2354 1
1 8 -2 201.995 14.05 1
1 8 -2 147.137 10.074 2
-1 8 2 158.199 15.112 1
-1 8 2 158.99 10.295 2
0 8 -2 45.0561 7.8985 1
0 8 2 31.8592 5.0838 2
0 8 2 37.0051 7.3857 1
0 8 -2 30.7361 5.0841 2
-1 8 -2 44.9012 6.2915 2
1 8 2 52.4549 6.4416 2
-1 8 -2 55.0191 8.4425 1
1 8 2 64.3554 9.4923 1
2 8 2 18.8933 5.488 1
-2 8 -2 14.0758 3.7859 2
2 8 2 14.2096 3.6481 2
-2 8 -2 24.3716 5.7853 1
3 8 2 -1.9307 1.7333 2
-3 8 -2 4.56981 2.78984 2
-3 8 -2 1.52885 3.21905 1
3 8 2 2.59368 3.61938 1
4 8 2 103.135 12.666 1
-4 8 -2 88.9131 10.6948 1
-4 8 -2 95.3722 9.4897 2
5 -8 2 45.6084 6.2318 1
5 8 2 42.25 8.3569 1
-5 8 -2 47.2297 6.9956 2
6 -8 2 346.813 17.822 1
-6 8 -2 367.007 19.419 2
6 8 2 395.045 23.138 1
7 -8 2 1.76365 2.58362 1
7 8 2 5.71619 5.09672 1
-7 8 -2 1.56027 2.76347 2
8 8 2 49.2423 9.247 1
-8 8 -2 35.0216 6.4922 2
-9 8 -2 3.336 3.15606 2
9 8 2 -1.0311 4.4497 1
-10 8 -2 6.07091 3.81634 2
10 8 2 3.34906 5.27182 1
-11 8 -2 13.4741 4.608 2
11 8 2 17.3972 6.7957 1
-12 8 -2 0.98471 3.36251 2
12 8 2 4.36597 5.70673 1
-13 8 -2 0.85603 3.59124 2
13 8 2 2.05453 5.80568 1
-14 8 -2 15.6921 5.0258 2
14 8 2 14.3915 7.0796 1
-15 8 -2 3.35732 3.9747 2
15 8 2 5.27558 7.00263 1
-16 8 -2 1.59827 4.344 2
-16 9 2 23.9803 6.8462 2
16 9 -2 21.0671 10.0025 1
-15 9 2 5.92852 4.59684 2
15 9 -2 1.93878 6.94304 1
14 9 -2 43.4437 11.4778 1
-14 9 2 47.1132 8.3231 2
13 9 -2 15.9899 7.97 1
-13 9 2 7.48258 4.16635 2
12 9 -2 4.83215 5.87883 1
-12 9 2 2.03093 3.52152 2
-11 9 2 68.2557 9.5984 2
11 9 -2 82.5956 13.5503 1
10 -9 -2 87.3689 11.4808 1
-10 9 2 112.715 11.766 2
10 9 -2 93.9467 14.3409 1
9 -9 -2 11.3287 4.9004 1
-9 9 2 3.16996 3.29156 2
9 9 -2 10.6893 6.0316 1
8 -9 -2 19.7295 5.1177 1
-8 9 2 9.40917 4.15474 2
8 9 -2 21.1118 7.0004 1
7 -9 -2 45.9005 7.1123 1
-7 9 2 41.0536 6.7909 2
7 9 -2 50.3243 9.7607 1
6 -9 -2 18.6873 4.6276 1
6 9 -2 -0.1473 3.8145 1
-6 9 2 4.91052 3.29187 2
5 -9 -2 45.6562 6.9525 1
5 9 -2 22.7343 4.4715 2
-5 9 2 41.7829 6.7869 2
5 9 -2 34.2691 7.6348 1
4 -9 -2 78.1063 8.9237 1
-4 9 2 70.5476 8.4837 2
4 9 -2 90.9428 8.6489 2
4 9 -2 106.827 12.847 1
3 -9 -2 155.486 11.031 1
3 9 -2 134.538 9.69 2
3 9 -2 136.249 14.948 1
-3 9 2 155.058 10.843 2
-2 9 2 1.08275 2.62353 2
2 9 -2 5.05676 2.85789 2
2 9 -2 -0.8512 3.2709 1
-2 9 2 6.84478 4.27773 1
1 9 -2 99.0823 9.5837 2
-1 9 2 69.0577 10.6928 1
-1 9 2 100.788 9.517 2
1 9 -2 97.2628 12.1738 1
0 9 -2 332.853 17.005 2
0 9 -2 290.231 19.23 1
0 9 2 316.443 16.683 2
0 9 2 307.566 20.238 1
-1 9 -2 6.75891 3.16251 2
1 9 2 5.19819 2.78562 2
-1 9 -2 9.86604 4.6981 1
1 9 2 1.75736 3.2689 1
2 9 2 182.511 11.397 2
2 9 2 184.919 17.575 1
-2 9 -2 170.618 13.78 1
-2 9 -2 176.984 12.144 2
-3 9 -2 264.916 15.478 2
-3 9 -2 245.399 17.062 1
3 9 2 262.834 14.24 2
3 9 2 238.854 17.754 1
-4 9 -2 2.40504 3.7443 1
4 9 2 6.69734 4.99957 1
-4 9 -2 5.96972 3.51269 2
5 -9 2 -3.5003 2.3642 1
5 9 2 -1.3609 4.0599 1
-5 9 -2 2.43805 2.80407 2
6 -9 2 9.75239 3.64976 1
-6 9 -2 3.58744 3.47552 2
6 9 2 18.3848 6.295 1
7 9 2 2.38272 5.01552 1
-7 9 -2 9.73604 3.93675 2
-8 9 -2 18.6343 5.0543 2
8 9 2 25.1821 7.6931 1
9 9 2 0.66049 4.71813 1
-9 9 -2 3.53514 3.91322 2
-10 9 -2 8.01581 4.38251 2
10 9 2 6.26624 5.60222 1
-11 9 -2 0.33924 3.61566 2
11 9 2 3.40079 5.63113 1
-12 9 -2 -1.4145 3.5927 2
12 9 2 -0.7919 6.1962 1
13 9 2 9.36352 7.58788 1
-13 9 -2 10.5166 4.9457 2
-14 9 -2 -3.1929 3.8398 2
14 9 2 7.82929 7.38954 1
-15 9 -2 -1.9476 3.8117 2
15 9 2 5.51673 7.55733 1
14 10 -2 15.8585 8.9909 1
-14 10 2 18.8315 6.5665 2
-13 10 2 3.75314 4.48274 2
13 10 -2 -3.5873 6.4376 1
12 10 -2 29.4675 9.142 1
-12 10 2 23.8021 6.5017 2
11 10 -2 -0.6249 5.9104 1
-11 10 2 -0.9507 2.993 2
-10 10 2 20.0784 5.5305 2
10 10 -2 5.82644 6.45313 1
9 -10 -2 1.94502 3.75181 1
9 10 -2 2.66216 5.13961 1
-9 10 2 3.05709 3.63557 2
8 -10 -2 3.71261 3.6955 1
-8 10 2 7.7892 3.78119 2
8 10 -2 2.50579 4.87244 1
7 -10 -2 76.9155 9.4833 1
-7 10 2 75.6032 9.5348 2
7 10 -2 76.4418 12.6327 1
6 -10 -2 -0.9611 2.9169 1
6 10 -2 -0.357 3.9006 1
-6 10 2 -0.1839 2.9899 2
5 -10 -2 6.71678 3.62533 1
5 10 -2 2.5711 4.00205 1
-5 10 2 6.77903 3.77487 2
4 -10 -2 2.03952 3.21648 1
4 10 -2 -0.6819 2.6029 2
4 10 -2 2.23115 3.93427 1
-4 10 2 -0.1742 2.8938 2
3 -10 -2 204.152 13.671 1
3 10 -2 192.157 12.419 2
-3 10 2 182.28 12.851 2
3 10 -2 238.143 17.434 1
2 10 -2 1.029 2.7718 2
2 10 -2 1.38368 3.43878 1
-2 10 2 -2.0045 2.2119 2
-2 10 2 3.5925 4.18481 1
-1 10 2 95.6555 9.7932 2
1 10 -2 72.986 11.0488 1
1 10 -2 97.2681 9.8371 2
-1 10 2 78.2369 11.7197 1
0 10 -2 29.6592 7.406 1
0 10 2 21.1406 5.0006 2
0 10 2 23.3038 6.8573 1
0 10 -2 40.385 6.554 2
-1 10 -2 300.086 20.328 1
1 10 2 313.998 17.257 2
1 10 2 352.513 22.276 1
-1 10 -2 303.09 17.424 2
2 10 2 5.19455 3.55245 2
-2 10 -2 9.23727 3.77021 2
-2 10 -2 20.3092 6.2868 1
2 10 2 15.7407 6.3401 1
-3 10 -2 20.9597 6.1573 1
3 10 2 25.8154 7.2912 1
-3 10 -2 23.8951 5.4947 2
4 -10 2 1.99118 2.81048 1
-4 10 -2 6.99154 4.42444 1
-4 10 -2 7.0942 3.38761 2
4 10 2 0.02123 4.06901 1
5 -10 2 64.038 8.0425 1
-5 10 -2 70.8869 9.5467 2
5 10 2 62.7128 10.9125 1
6 -10 2 14.8599 4.6274 1
-6 10 -2 15.214 5.2053 2
6 10 2 14.4317 6.7857 1
-7 10 -2 5.74894 3.75577 2
7 10 2 2.77806 4.74211 1
-8 10 -2 -0.3897 3.3923 2
8 10 2 3.84613 5.69241 1
-9 10 -2 23.704 6.4072 2
9 10 2 27.9619 8.8645 1
10 10 2 2.51244 6.19293 1
-10 10 -2 3.00151 3.83756 2
-11 10 -2 5.42853 4.54964 2
11 10 2 3.02218 5.98248 1
12 10 2 6.81251 7.49432 1
-12 10 -2 22.3616 6.5576 2
13 10 2 3.51508 7.07354 1
-13 10 -2 10.4602 5.1384 2
-13 11 2 0.88307 4.47284 2
12 11 -2 5.23927 6.80697 1
-12 11 2 3.914 3.98037 2
-11 11 2 0.14902 3.71504 2
11 11 -2 10.2603 6.8877 1
10 11 -2 -4.0282 5.4785 1
-10 11 2 1.94026 3.82549 2
9 -11 -2 2.73768 4.60416 1
-9 11 2 2.90372 3.89106 2
9 11 -2 -2.2733 5.7094 1
8 -11 -2 7.74805 4.405 1
-8 11 2 11.3788 4.8391 2
8 11 -2 14.2355 6.9577 1
7 -11 -2 12.9158 4.8703 1
-7 11 2 21.9387 5.4475 2
7 11 -2 24.4412 7.3371 1
6 -11 -2 3.66025 3.96515 1
6 11 -2 7.98231 5.9516 1
-6 11 2 4.71542 3.76518 2
5 -11 -2 -3.3778 2.9848 1
-5 11 2 0.4454 3.15011 2
5 11 -2 1.36231 4.75396 1
4 -11 -2 6.81045 4.02849 1
4 11 -2 1.59544 3.12011 2
-4 11 2 5.23879 3.54028 2
4 11 -2 6.4331 4.89084 1
3 -11 -2 8.3691 4.33272 1
3 11 -2 7.13657 3.98802 2
-3 11 2 8.12586 3.87756 2
3 11 -2 5.52916 4.9642 1
2 -11 -2 -0.5891 3.3066 1
-2 11 2 2.9008 3.09048 2
2 11 -2 1.73793 4.50061 1
2 11 -2 0.43732 2.89181 2
-2 11 2 4.60884 4.82359 1
-1 11 2 -1.0133 3.9301 1
1 11 -2 1.3458 4.23369 1
1 11 -2 0.5796 2.88859 2
-1 11 2 1.75777 2.80003 2
0 11 -2 1.38199 3.00601 2
0 11 2 -1.9769 2.6514 2
0 11 2 -1.2916 3.9287 1
0 11 -2 -2.6637 3.8942 1
-1 11 -2 49.3425 9.7803 1
-1 11 -2 61.1161 8.4046 2
1 11 2 76.4159 9.2481 2
1 11 2 47.3837 10.3451 1
2 11 2 81.7203 9.4507 2
-2 11 -2 81.8772 12.1277 1
-2 11 -2 59.8938 8.6182 2
2 11 2 80.6233 12.5394 1
-3 11 -2 110.91 13.979 1
-3 11 -2 93.6121 10.8915 2
3 11 2 126.836 15.921 1
4 -11 2 5.52919 3.88017 1
-4 11 -2 3.33826 3.46724 2
4 11 2 0.90244 5.11288 1
5 -11 2 3.53009 3.59829 1
5 11 2 6.36019 5.83374 1
-5 11 -2 -0.5987 3.3169 2
-6 11 -2 1.32903 3.39458 2
6 11 2 0.00692 4.88308 1
7 11 2 14.3552 7.2178 1
-7 11 -2 21.9667 6.4522 2
8 11 2 0.99743 5.34397 1
-8 11 -2 1.25946 3.4015 2
-9 11 -2 -0.9964 3.4642 2
9 11 2 -1.2847 5.7893 1
-10 11 -2 6.48003 4.74722 2
10 11 2 23.6479 8.6749 1
-11 11 -2 25.3255 7.0708 2
11 11 2 22.1547 9.5483 1
-12 11 -2 10.4561 5.1829 2
-10 12 2 -4.2972 3.6456 2
10 12 -2 4.30781 6.66607 1
-9 12 2 41.8516 8.0999 2
9 12 -2 30.1165 9.5334 1
8 -12 -2 1.83855 4.43863 1
-8 12 2 14.3232 5.4003 2
8 12 -2 11.0781 6.754 1
7 -12 -2 11.49 5.0395 1
-7 12 2 13.0032 5.2286 2
7 12 -2 8.66503 6.74908 1
6 -12 -2 0.85458 4.00503 1
-6 12 2 0.27598 3.29376 2
6 12 -2 2.7049 4.67092 1
5 -12 -2 0.92324 3.73773 1
-5 12 2 -0.3082 3.4205 2
5 12 -2 4.68544 5.52217 1
4 -12 -2 2.39085 3.9456 1
-4 12 2 16.247 5.4042 2
4 12 -2 9.52682 6.05592 1
3 -12 -2 11.1653 4.9706 1
-3 12 2 10.7196 4.5805 2
3 12 -2 12.8262 4.5001 2
3 12 -2 9.53803 5.68934 1
2 -12 -2 -0.909 3.5436 1
-2 12 2 -3.869 2.8175 2
2 12 -2 4.20036 3.65682 2
2 12 -2 -1.0291 4.3469 1
1 -12 -2 10.4467 4.927 1
1 12 -2 6.5826 4.13375 2
-1 12 2 10.1417 6.5344 1
-1 12 2 14.5394 5.2136 2
1 12 -2 12.8827 6.1383 1
0 12 -2 17.2388 6.9666 1
0 12 2 34.84 7.0339 2
0 12 2 25.633 8.0582 1
0 12 -2 26.6752 6.226 2
1 12 2 15.9274 6.8357 1
-1 12 -2 25.9996 7.7765 1
1 12 2 17.6641 5.5762 2
-1 12 -2 16.1213 5.213 2
2 12 2 43.8001 9.9139 1
-2 12 -2 38.8066 9.2325 1
-2 12 -2 61.3102 9.0105 2
2 12 2 36.7361 7.0799 2
3 -12 2 6.25341 4.29466 1
-3 12 -2 5.10206 5.18574 1
-3 12 -2 3.7333 3.94381 2
3 12 2 0.19383 4.55026 1
4 -12 2 5.23569 4.19412 1
-4 12 -2 0.56108 3.24058 2
4 12 2 3.82069 5.48787 1
-5 12 -2 14.5507 5.3892 2
5 12 2 14.907 7.2802 1
-6 12 -2 0.00336 3.78216 2
6 12 2 13.182 7.6005 1
-7 12 -2 1.45716 4.33179 2
7 12 2 16.42 7.267 1
-8 12 -2 41.1196 8.2286 2
8 12 2 29.0131 10.3246 1
-9 12 -2 32.1488 7.6461 2
9 12 2 29.5614 10.0858 1
7 -13 -2 2.88384 4.73955 1
-7 13 2 2.87813 3.89531 2
7 13 -2 0.19192 6.19894 1
6 -13 -2 13.1399 5.7124 1
6 13 -2 9.56262 6.49181 1
-6 13 2 4.1669 4.39794 2
5 -13 -2 0.56105 4.05978 1
-5 13 2 -7.0406 3.1681 2
5 13 -2 -0.7373 5.013 1
4 -13 -2 3.14069 4.71248 1
-4 13 2 -2.1266 3.7954 2
4 13 -2 2.50005 5.39481 1
3 -13 -2 2.23624 4.38505 1
3 13 -2 5.95444 5.85957 1
-3 13 2 14.8249 5.1236 2
2 -13 -2 14.489 5.838 1
2 13 -2 1.62782 5.18817 1
2 13 -2 12.0268 4.7439 2
-2 13 2 6.70819 4.76781 2
1 -13 -2 0.26404 4.12439 1
-1 13 2 1.92978 4.10535 2
1 13 -2 -2.6521 4.9283 1
1 13 -2 3.41792 4.05576 2
0 13 2 4.27145 4.08501 2
0 13 2 0.06337 5.20457 1
0 13 -2 5.85602 5.09155 1
0 13 -2 0.47783 3.78707 2
1 13 2 1.45359 4.84042 1
-1 13 -2 1.302 5.41253 1
-1 13 -2 0.99227 4.05145 2
1 13 2 -0.3203 3.537 2
-2 13 -2 10.2314 5.9685 1
2 13 2 13.2116 7.2665 1
-2 13 -2 21.5647 6.5626 2
3 -13 2 19.2638 6.3767 1
-3 13 -2 23.3758 6.6341 2
3 13 2 29.1946 9.3453 1
4 13 2 6.11052 6.09908 1
-4 13 -2 1.63062 4.15035 2
5 13 2 13.6824 7.5706 1
-5 13 -2 6.42578 5.1213 2
6 13 2 28.2005 10.3452 1
-6 13 -2 27.1846 6.9521 2
-21 0 3 -2.0936 4.1361 3
-20 0 3 22.2236 6.8768 3
-19 0 3 -1.7832 3.3508 3
-18 0 3 26.4328 6.7292 3
-17 0 3 2.53515 3.44541 3
-16 0 3 2.80315 3.68671 3
16 0 -3 8.70065 4.77355 1
-15 0 3 -0.0065 2.4911 3
15 0 -3 -2.1326 3.2078 1
-14 0 3 194.31 12.387 3
14 0 -3 151.058 12.425 1
-13 0 3 1.55999 2.40851 3
13 0 -3 0.42765 3.03399 1
12 0 -3 152.446 11.269 1
-12 0 3 146.088 10.124 3
-11 0 3 0.74912 1.94832 3
11 0 -3 -2.1695 2.3596 1
-10 0 3 269.894 13.989 3
10 0 -3 292.724 15.668 1
-10 0 3 282.24 11.05 2
9 0 -3 -0.1895 2.2074 1
-9 0 3 0.52487 0.93784 2
-9 0 3 0.91098 1.47704 3
-8 0 3 230.509 9.129 2
8 0 -3 238.055 12.935 1
-8 0 3 238.135 11.644 3
-7 0 3 -0.2699 1.3241 3
-7 0 3 -0.2698 0.6979 2
7 0 -3 -1.4921 1.7153 1
6 0 -3 376.606 17.58 1
-6 0 3 406.353 16.277 3
5 0 -3 0.27552 1.47915 1
-5 0 3 -0.5737 0.8024 3
-4 0 3 -2.0105 0.9483 3
4 0 -3 -2.1695 1.2988 1
3 0 -3 -6.4549 0.9553 1
-3 0 3 -4.9161 0.8953 3
1 0 -3 -5.1017 0.9973 1
0 0 -3 1858.85 66.24 1
-1 0 -3 -0.5473 0.6408 2
-2 0 -3 152.323 7.262 2
-3 0 -3 0.64219 0.96635 2
4 0 3 5.83068 1.18647 1
-4 0 -3 5.66048 1.71546 2
-5 0 -3 0.77091 1.30425 2
5 0 3 0.94587 0.99578 1
6 0 3 782.021 29.75 1
-6 0 -3 791.556 29.837 2
-7 0 -3 -0.2886 1.4436 2
7 0 3 2.09499 1.60592 1
-7 0 -3 -0.5326 1.2196 3
8 0 3 569.039 23.606 1
-8 0 -3 606.552 23.673 2
-8 0 -3 577.298 23.996 3
-9 0 -3 -0.2882 1.7776 3
-9 0 -3 -0.2152 1.7538 2
9 0 3 2.22724 1.9359 1
-10 0 -3 61.2038 6.143 2
-10 0 -3 50.0963 6.3111 3
-11 0 -3 0.54804 2.12771 2
-11 0 -3 -1.9395 1.9651 3
-12 0 -3 144.41 10.484 3
-13 0 -3 -0.4097 2.5156 3
-14 0 -3 175.937 12.695 3
-15 0 -3 -0.6384 3.1665 3
-16 0 -3 53.3748 8.6743 3
-17 0 -3 -3.8018 3.3523 3
-18 0 -3 10.5706 5.0529 3
-19 0 -3 -4.0922 3.8764 3
-21 -1 3 4.92082 4.69679 3
-21 1 3 -2.155 4.2068 3
-20 -1 3 12.8458 5.6453 3
-20 1 3 10.086 5.4447 3
-19 -1 3 6.43409 4.67652 3
-19 1 3 7.7031 4.87094 3
-18 -1 3 29.4587 6.5128 3
-18 1 3 47.0361 8.2039 3
-17 -1 3 -0.3264 2.5405 3
-17 1 3 6.40366 4.14641 3
-16 -1 3 66.5606 8.7821 3
-16 1 3 59.4488 8.6391 3
16 1 -3 72.5881 10.4064 1
15 -1 -3 11.8483 4.83 1
-15 -1 3 11.2232 4.2173 3
15 1 -3 9.73638 4.57999 1
-15 1 3 10.2354 4.3221 3
14 -1 -3 178.873 12.993 1
-14 -1 3 150.7 11.132 3
14 1 -3 165.976 12.963 1
-14 1 3 157.922 11.363 3
13 -1 -3 29.571 6.1515 1
-13 -1 3 28.1793 5.2263 3
13 1 -3 28.3646 6.0293 1
-13 1 3 26.7969 5.107 3
-12 -1 3 65.5095 7.4593 3
12 -1 -3 88.2396 9.5786 1
-12 1 3 94.4824 8.9216 3
12 1 -3 85.6169 9.7297 1
11 -1 -3 130.672 9.795 1
-11 -1 3 132.646 8.97 3
-11 1 3 118.096 8.648 3
-11 1 3 128.024 6.788 2
11 1 -3 128.891 10.154 1
-10 -1 3 173.041 10.474 3
10 -1 -3 188.996 11.836 1
10 1 -3 178.286 11.981 1
-10 1 3 202.606 8.822 2
-10 1 3 184.586 10.712 3
9 -1 -3 68.9018 7.3669 1
-9 -1 3 37.6057 4.9405 3
9 1 -3 63.6909 7.2667 1
-9 1 3 56.5514 5.7676 3
-9 1 3 48.8507 3.6774 2
-8 -1 3 488.172 20.413 3
8 -1 -3 491.452 22.122 1
8 1 -3 480.054 22.388 1
-8 1 3 471.902 20.262 3
-8 1 3 508.097 18.599 2
7 -1 -3 -1.0184 1.6206 1
-7 -1 3 0.9392 1.2417 3
-7 1 3 1.67357 1.45857 3
7 1 -3 0.49372 1.78029 1
-7 1 3 2.2834 1.07474 2
-6 -1 3 -0.6097 1.038 3
6 -1 -3 2.42984 1.67239 1
-6 1 3 0.47206 1.2325 3
-6 1 3 -0.2245 0.9152 2
6 1 -3 -1.5886 1.4675 1
5 -1 -3 375.546 16.657 1
-5 -1 3 394.109 15.307 3
-5 1 3 366.968 14.211 2
5 1 -3 368.506 16.826 1
4 -1 -3 3.19295 1.74525 1
-4 -1 3 6.44566 1.57787 3
-4 1 3 7.07157 1.38519 2
-4 1 3 7.43353 1.48637 3
4 1 -3 7.83058 2.19999 1
-3 -1 3 5.59074 1.2932 3
3 -1 -3 1.12141 1.27825 1
3 1 -3 -0.701 1.1673 1
-3 1 3 2.2302 1.04923 3
3 1 -3 2.94705 0.83507 2
2 -1 -3 115.04 6.182 1
2 1 -3 106.531 6.086 1
2 1 -3 116.927 5.217 2
1 -1 -3 317.608 12.821 1
1 1 -3 317.22 12.377 2
1 1 -3 321.411 13.034 1
0 -1 -3 993.202 36.465 1
0 1 -3 1042.7 35.73 2
0 1 -3 979.267 36.474 1
-1 1 -3 2322.38 80.06 2
2 1 3 4155.35 148.49 1
-2 1 -3 4224.45 142.7 2
-3 -1 -3 747.169 27.857 2
-3 1 -3 769.155 28.293 2
3 1 3 757.03 28.711 1
-4 -1 -3 898.062 32.549 2
4 1 3 893.224 33.642 1
-4 1 -3 883.031 33.079 2
-5 -1 -3 12.7467 2.3397 2
5 1 3 11.301 2.3135 1
-5 1 -3 13.6479 2.5215 2
6 -1 3 198.019 8.527 1
-6 -1 -3 188.73 9.474 2
-6 1 -3 200.785 10.094 2
6 1 3 197.042 9.872 1
-7 -1 -3 32.8719 4.3082 3
7 -1 3 46.0322 3.8007 1
-7 -1 -3 38.82 4.3907 2
7 1 3 39.5327 4.5693 1
-7 1 -3 37.8498 4.4099 3
-7 1 -3 35.0916 4.4242 2
-8 -1 -3 4.63827 1.92068 3
-8 -1 -3 0.89756 1.66321 2
8 -1 3 -0.3863 1.2743 1
-8 1 -3 -0.5358 1.4816 2
8 1 3 -1.5543 1.4218 1
-8 1 -3 -0.75 1.6553 3
9 -1 3 85.7599 6.0752 1
-9 -1 -3 104.084 7.333 3
-9 -1 -3 88.6012 6.241 2
-9 1 -3 88.6896 7.9815 3
9 1 3 91.0939 7.0972 1
-9 1 -3 103.841 7.004 2
-10 -1 -3 121.064 7.631 2
-10 -1 -3 117.476 8.473 3
-10 1 -3 104.597 9.441 3
-10 1 -3 116.502 7.989 2
10 1 3 123.601 8.557 1
-11 -1 -3 26.0424 4.7877 3
-11 -1 -3 33.6427 4.6886 2
-11 1 -3 35.9951 4.9737 2
-11 1 -3 39.1508 5.8021 3
-12 -1 -3 444.046 21.312 3
-12 1 -3 445.014 19.792 2
-12 1 -3 409.201 20.721 3
-13 -1 -3 6.1403 2.98452 3
-13 1 -3 9.20058 3.62849 3
-14 -1 -3 2.06081 3.15187 3
-14 1 -3 6.45602 3.47566 3
-15 -1 -3 2.14669 3.14825 3
-15 1 -3 7.77461 3.68013 3
-16 -1 -3 9.86103 4.11581 3
-16 1 -3 6.03512 4.16557 3
-17 -1 -3 -2.8577 2.8971 3
-17 1 -3 -2.9241 3.5219 3
-18 -1 -3 7.63006 4.72637 3
-18 1 -3 9.48039 5.31855 3
-19 -1 -3 -1.5198 3.7549 3
-19 1 -3 2.73568 4.34174 3
-20 -2 3 25.5171 7.0434 3
-20 2 3 48.5114 8.9062 3
-19 -2 3 2.96917 4.01172 3
-19 2 3 1.86329 4.16407 3
-18 -2 3 13.4845 5.1734 3
-18 2 3 18.0018 5.4285 3
-17 -2 3 13.2725 4.8959 3
17 2 -3 12.2708 5.8806 1
-17 2 3 12.6851 4.9666 3
-16 -2 3 -0.4774 2.7052 3
-16 2 3 -1.6178 2.5845 3
16 2 -3 5.12515 4.53627 1
-15 -2 3 53.8231 7.6197 3
15 -2 -3 54.5423 8.8146 1
-15 2 3 47.709 7.1803 3
15 2 -3 34.2901 7.6366 1
-14 -2 3 236.467 14.348 3
14 -2 -3 229.21 15.251 1
-14 2 3 225.396 13.916 3
14 2 -3 212.959 15.605 1
13 -2 -3 71.9746 9.0029 1
-13 -2 3 82.8606 8.9414 3
-13 2 3 83.062 8.6758 3
13 2 -3 86.1874 10.5779 1
-12 -2 3 179.935 11.209 3
12 -2 -3 163.703 11.969 1
-12 2 3 160.172 10.892 3
-12 2 3 189.021 9.527 2
12 2 -3 171.517 12.932 1
11 -2 -3 20.4509 4.7242 1
-11 -2 3 9.6054 3.07272 3
11 2 -3 10.6696 4.4738 1
-11 2 3 8.48074 2.91273 3
-11 2 3 10.9435 2.517 2
10 -2 -3 627.433 29.003 1
-10 -2 3 642.091 27.251 3
10 2 -3 667.387 30.295 1
-10 2 3 657.98 27.31 3
-10 2 3 709.652 25.709 2
-9 -2 3 -1.9723 1.6233 3
9 -2 -3 -0.1479 1.8999 1
-9 2 3 -0.5639 1.2938 2
9 2 -3 1.62756 2.46916 1
-9 2 3 -2.0209 1.4598 3
8 -2 -3 241.153 13.162 1
-8 -2 3 220.804 11.648 3
-8 2 3 243.348 10.935 2
-8 2 3 250.04 11.991 3
8 2 -3 263.94 14.273 1
7 -2 -3 1222.8 48.37 1
-7 -2 3 1268.67 45.5 3
7 2 -3 1250.75 49.35 1
-7 2 3 1252.75 45.41 3
-7 2 3 1240.84 44.44 2
-6 -2 3 130 7.161 3
6 -2 -3 130.84 8.244 1
6 2 -3 141.13 8.985 1
-6 2 3 124.697 6.969 3
-6 2 3 130.752 6.678 2
-5 -2 3 176.182 8.395 3
5 -2 -3 170.089 9.619 1
-5 2 3 187.085 8.458 3
5 2 -3 164.838 9.931 1
-5 2 3 185.898 8.24 2
4 -2 -3 0.32544 1.41055 1
-4 -2 3 0.68634 0.96955 3
4 2 -3 -1.1606 1.3694 1
-4 2 3 1.2896 0.95435 3
-4 2 3 1.0208 0.96047 2
4 2 -3 0.55791 0.60835 2
3 -2 -3 30.7755 3.6502 1
-3 -2 3 39.0497 2.7911 3
-3 2 3 39.6028 3.4444 2
3 2 -3 32.5696 2.4037 2
3 2 -3 36.7932 4.2429 1
2 -2 -3 1196.07 43.68 1
-2 2 3 1174.55 41.65 2
2 2 -3 1180.44 44.53 1
1 -2 -3 2518.75 89.95 1
1 2 -3 2506.54 90.56 1
1 2 -3 2505.26 85.97 2
0 -2 -3 0.6911 0.99735 1
0 2 -3 3.15939 1.32133 2
0 2 3 -1.1791 1.0188 1
0 2 -3 0.86605 1.08249 1
-1 2 -3 171.883 7.909 1
-1 2 -3 162.215 8.193 2
1 2 3 191.43 9.099 1
-2 2 -3 -1.6892 0.7702 1
-2 2 -3 -2.2854 1.0234 2
2 2 3 -0.7152 1.2103 1
3 -2 3 1907.37 67.17 1
-3 2 -3 1880.88 66.7 2
4 -2 3 80.3094 4.0818 1
-4 2 -3 88.6607 5.7523 2
-5 -2 -3 171.493 8.619 2
5 -2 3 178.242 7.543 1
-5 2 -3 178.025 9.424 2
5 2 3 168.41 9.486 1
-6 -2 -3 408 17.198 2
6 -2 3 438.638 16.6 1
-6 2 -3 420.22 18.239 2
6 2 3 417.313 18.834 1
7 -2 3 29.2749 3.1858 1
-7 -2 -3 25.8029 3.5518 2
-7 -2 -3 29.821 4.0239 3
-7 2 -3 40.3734 4.5369 3
7 2 3 28.6951 4.4312 1
-7 2 -3 37.1596 4.662 2
-8 -2 -3 74.5902 6.8268 3
-8 -2 -3 65.8016 5.1139 2
8 -2 3 63.4019 4.6329 1
-8 2 -3 80.4088 7.0736 2
8 2 3 70.2726 7.1705 1
-8 2 -3 74.3788 6.7731 3
-9 -2 -3 183.996 9.34 2
-9 -2 -3 147.124 9.694 3
9 2 3 172 10.629 1
-9 2 -3 160.902 9.841 3
-9 2 -3 149.96 9.464 2
-10 -2 -3 9.50392 3.30232 3
-10 -2 -3 5.49157 2.49291 2
-10 2 -3 12.934 3.2832 2
-10 2 -3 10.7452 3.4622 3
10 2 3 7.10405 3.21597 1
-11 -2 -3 2.8421 2.71548 3
-11 2 -3 7.9371 3.11664 2
11 2 3 6.48497 3.64166 1
-11 2 -3 3.91893 2.65184 3
-12 -2 -3 21.8878 4.6714 3
-12 2 -3 19.4794 4.6532 3
-12 2 -3 16.919 4.1317 2
-13 -2 -3 14.0072 4.1511 3
-13 2 -3 20.5424 4.9718 3
-13 2 -3 10.6446 3.7207 2
-14 -2 -3 79.8018 9.6242 3
-14 2 -3 65.3639 8.562 3
-15 -2 -3 6.23129 3.96445 3
-15 2 -3 0.83231 3.04213 3
-16 -2 -3 130.8 13.11 3
-16 2 -3 124.861 12.813 3
-17 -2 -3 10.6829 4.524 3
-17 2 -3 5.76057 4.29156 3
-18 -2 -3 6.94159 4.96671 3
-18 2 -3 20.0686 6.3715 3
-19 -2 -3 -1.1486 4.0332 3
-19 2 -3 4.61318 4.85667 3
-20 -3 3 -1.057 3.9869 3
-20 3 3 -1.3062 3.984 3
-19 -3 3 19.5789 5.9853 3
-19 3 3 16.3006 6.187 3
-18 -3 3 -1.2621 3.3639 3
-18 3 3 -4.7084 3.1913 3
-17 -3 3 31.0797 6.3994 3
-17 3 3 25.7133 6.1922 3
17 3 -3 76.3018 11.7971 1
-16 -3 3 35.8711 6.8554 3
16 3 -3 34.2059 8.0245 1
-16 3 3 48.5592 7.4275 3
-15 -3 3 5.12133 3.56289 3
15 3 -3 3.57101 4.70018 1
-15 3 3 5.5162 3.62567 3
-14 -3 3 116.845 11.169 3
14 -3 -3 135.109 12.94 1
-14 3 3 142.495 10.642 3
14 3 -3 138.492 14.431 1
-13 -3 3 -0.8999 2.3998 3
13 -3 -3 5.27775 3.87639 1
13 3 -3 1.04674 3.68267 1
-13 3 3 2.93732 2.94336 3
-12 -3 3 66.5114 7.4476 3
12 -3 -3 67.8359 8.551 1
12 3 -3 46.7242 8.1715 1
-12 3 3 66.4019 6.4786 2
-12 3 3 67.8412 7.5516 3
11 -3 -3 303.36 16.735 1
-11 -3 3 317.49 15.675 3
11 3 -3 297.36 18.052 1
-11 3 3 289.444 15.216 3
-11 3 3 297.494 14.203 2
10 -3 -3 172.545 11 1
-10 -3 3 152.565 9.498 3
-10 3 3 152.115 8.741 2
-10 3 3 133.895 9.007 3
10 3 -3 136.67 12.893 1
9 -3 -3 4.61827 2.76848 1
-9 -3 3 0.08374 1.6579 3
-9 3 3 -0.8884 1.3198 3
9 3 -3 0.41297 2.34911 1
-9 3 3 1.50149 1.58186 2
-8 -3 3 292.755 13.887 3
8 -3 -3 295.172 15.448 1
8 3 -3 308.94 16.784 1
-8 3 3 299.253 13.888 3
-8 3 3 301.34 13.533 2
7 -3 -3 436.177 20.614 1
-7 -3 3 450.866 18.78 3
-7 3 3 480.669 18.688 2
-7 3 3 464.545 18.684 3
7 3 -3 420.241 21.497 1
6 -3 -3 608.719 25.688 1
-6 -3 3 619.171 23.347 3
6 3 -3 596.124 20.941 2
-6 3 3 591.396 23.216 2
-6 3 3 590.197 23.015 3
6 3 -3 583.94 26.553 1
-5 -3 3 75.8445 4.6425 3
5 -3 -3 71.3905 6.7556 1
5 3 -3 69.3281 3.4911 2
5 3 -3 66.0942 7.1821 1
-5 3 3 60.6036 4.632 2
-4 -3 3 19.4043 2.4683 3
4 -3 -3 14.3396 2.7351 1
4 3 -3 23.1221 2.1946 2
-4 3 3 17.5774 2.2579 3
-4 3 3 22.4557 2.8822 2
4 3 -3 16.3732 3.442 1
-3 -3 3 297.184 11.799 3
3 -3 -3 298.413 13.337 1
3 3 -3 291.845 14.48 1
3 3 -3 302.694 11.93 2
-3 3 3 305.789 12.745 2
2 -3 -3 333.118 14.483 1
-2 3 3 329.265 13.84 2
2 3 -3 350.082 15.722 1
1 -3 -3 190.328 9.327 1
-1 3 3 199.244 9.044 2
1 3 -3 199.642 10.205 1
1 3 -3 195.611 8.958 2
0 3 -3 122.87 6.454 2
0 3 3 107.612 7.43 1
0 3 -3 117.278 7.003 1
-1 3 -3 286.421 12.726 2
-1 3 -3 298.953 13.137 1
1 3 3 286.573 14.004 1
-2 3 -3 421.033 17.162 2
2 3 3 419.654 18.587 1
-2 3 -3 396.297 16.979 1
-3 3 -3 1420.22 51.12 2
3 3 3 1410.49 53.96 1
-3 3 -3 1407.28 52.01 1
4 -3 3 109.279 5.45 1
4 3 3 125.214 8.093 1
-4 3 -3 107.08 7.033 2
5 -3 3 9.39986 1.75846 1
5 3 3 4.4504 2.29033 1
-5 3 -3 12.6269 2.9326 2
6 -3 3 533.977 20.866 1
-6 3 -3 535.928 21.114 3
-6 3 -3 529.274 22.176 2
6 3 3 509.154 23.442 1
-7 -3 -3 443.923 17.538 2
7 -3 3 430.009 17.059 1
-7 -3 -3 439.222 18.065 3
7 3 3 318.86 18.691 1
-7 3 -3 408.809 17.661 3
-7 3 -3 424.654 18.588 2
8 -3 3 248.55 11.327 1
-8 -3 -3 236.928 12.355 3
-8 -3 -3 251.926 11.694 2
-8 3 -3 216.082 11.932 3
-8 3 -3 250.853 12.917 2
-9 -3 -3 260.919 12.164 2
-9 -3 -3 239.423 13.029 3
-9 3 -3 232.051 13.012 2
-9 3 -3 255.146 13.165 3
-10 -3 -3 29.8251 4.9182 3
10 3 3 29.6389 5.7268 1
-10 3 -3 30.5667 5.029 2
-10 3 -3 29.1572 4.8407 3
-11 -3 -3 143.786 9.802 3
-11 3 -3 121.895 9.126 2
-11 3 -3 124.308 9.254 3
11 3 3 132.327 12.197 1
-12 -3 -3 19.4271 4.6631 3
-12 3 -3 17.3491 4.1648 2
-12 3 -3 10.0579 3.7551 3
-13 -3 -3 49.1611 7.371 3
-13 3 -3 61.8054 7.5191 2
-13 3 -3 49.6712 7.283 3
-14 -3 -3 0.12565 2.80567 3
-14 3 -3 1.09162 3.25068 3
-15 -3 -3 18.4515 5.251 3
-15 3 -3 15.1031 4.8052 3
-16 -3 -3 0.74623 3.52842 3
-16 3 -3 4.3195 4.04858 3
-17 -3 -3 -3.9002 2.811 3
-17 3 -3 3.22891 4.30814 3
-18 -3 -3 4.6185 4.49349 3
-18 3 -3 7.73769 4.96634 3
-19 -3 -3 5.02621 4.73296 3
-19 3 -3 2.63114 4.91816 3
-20 -4 3 13.0349 5.7932 3
-20 4 3 5.77481 4.80792 3
-19 -4 3 7.96679 4.49451 3
-19 4 3 21.6634 6.3689 3
-18 -4 3 18.0885 5.4142 3
-18 4 3 1.90147 3.90765 3
18 4 -3 11.2818 6.4455 1
-17 -4 3 5.6633 3.98026 3
-17 4 3 -0.6826 3.413 3
17 4 -3 10.3509 6.5993 1
-16 -4 3 10.839 4.3083 3
16 4 -3 6.1517 5.72627 1
-16 4 3 10.8152 4.3373 3
-15 -4 3 128.779 11.925 3
15 4 -3 131.596 15 1
-15 4 3 122.778 11.844 3
-14 -4 3 -1.9729 2.0754 3
14 -4 -3 3.57363 4.10255 1
-14 4 3 -1.124 2.485 3
14 4 -3 2.8785 4.4396 1
13 -4 -3 116.207 11.779 1
-13 -4 3 134.441 9.87 3
13 4 -3 124.824 13.886 1
-13 4 3 105.906 10.046 3
-13 4 3 107.943 8.39 2
12 -4 -3 211.328 14.099 1
-12 -4 3 201.638 12.431 3
-12 4 3 185.486 12.118 3
-12 4 3 227.276 12.092 2
12 4 -3 221.621 15.895 1
-11 -4 3 200.101 11.841 3
11 -4 -3 185.729 12.82 1
-11 4 3 176.928 11.308 3
11 4 -3 217.644 15.297 1
-11 4 3 218.701 11.511 2
10 -4 -3 275.114 15.873 1
-10 -4 3 266.547 14.044 3
-10 4 3 298.269 14.153 2
10 4 -3 293.965 17.946 1
-10 4 3 277.151 14.16 3
9 -4 -3 112.89 10.323 1
-9 -4 3 93.0319 7.103 3
9 4 -3 95.8486 10.8138 1
-9 4 3 126.76 7.745 3
-9 4 3 112.508 7.54 2
8 -4 -3 19.0391 4.2748 1
-8 -4 3 18.1836 3.3972 3
-8 4 3 21.1822 3.6623 2
8 4 -3 17.5593 4.7399 1
-8 4 3 17.2341 3.2127 3
7 -4 -3 95.9915 7.5526 1
-7 -4 3 84.3263 5.8565 3
7 4 -3 88.6393 4.2595 2
-7 4 3 75.9081 5.9451 2
7 4 -3 79.4695 8.9838 1
6 -4 -3 20.5426 4.1522 1
-6 -4 3 35.183 3.8917 3
-6 4 3 26.3388 3.3159 3
6 4 -3 30.8587 5.3893 1
6 4 -3 35.7736 2.9092 2
-6 4 3 25.27 3.7838 2
-5 -4 3 144.971 7.364 3
5 -4 -3 160.711 8.854 1
5 4 -3 139.249 10.149 1
-5 4 3 138.121 7.188 3
-5 4 3 154.293 8.316 2
5 4 -3 146.467 6.847 2
4 -4 -3 474.606 20.444 1
-4 -4 3 488.707 18.415 3
4 4 -3 479.833 22.415 1
-4 4 3 461.938 19.56 2
4 4 -3 502.339 18.523 2
-3 -4 3 2.73251 1.13389 3
3 -4 -3 5.39181 2.0104 1
-3 4 3 4.36388 1.7032 2
3 4 -3 6.68527 2.53025 1
3 4 -3 9.70009 1.92642 2
2 -4 -3 1396.57 52.81 1
2 4 -3 1415.36 54.51 1
-2 4 3 1412.19 50.55 2
2 4 -3 1412.78 49.94 2
1 4 -3 159.681 8.147 2
1 4 -3 163.614 9.681 1
-1 4 3 151.28 8.103 2
-1 4 3 161.077 10.069 1
0 4 3 19.6464 2.941 2
0 4 3 22.9494 4.1101 1
0 4 -3 22.9639 3.7938 1
0 4 -3 29.0453 3.6452 2
-1 4 -3 759.327 30.561 1
1 4 3 753.564 31.602 1
-1 4 -3 748.741 28.939 2
-2 4 -3 2.09096 1.7024 1
2 4 3 -0.5167 1.5942 1
-2 4 -3 3.12824 1.78888 2
-3 4 -3 5.54291 2.30882 2
-3 4 -3 6.61013 2.22047 1
3 4 3 5.8997 2.56228 1
4 -4 3 405.917 15.822 1
-4 4 -3 363.344 17.032 2
4 4 3 370.579 18.703 1
5 -4 3 319.816 13.527 1
-5 4 -3 317.725 15.346 2
-5 4 -3 324.841 13.58 3
5 4 3 321.474 16.935 1
6 -4 3 21.042 2.8278 1
-6 -4 -3 21.1251 3.3166 3
-6 4 -3 15.834 3.4649 2
6 4 3 20.485 4.5091 1
-7 -4 -3 32.8264 4.3746 3
7 -4 3 23.9854 3.6012 1
-7 4 -3 24.0125 3.7265 3
7 4 3 31.6734 5.7037 1
-7 4 -3 23.78 4.4422 2
-8 -4 -3 221.071 11.704 3
-8 4 -3 210.859 11.255 3
8 4 3 215.298 13.842 1
-8 4 -3 204.972 11.981 2
-9 -4 -3 202.304 10.387 2
-9 -4 -3 179.858 11.027 3
-9 4 -3 197.074 10.993 3
-9 4 -3 185.152 11.41 2
9 4 3 187.763 13.003 1
-10 -4 -3 -0.3593 2.2952 3
10 4 3 1.763 3.42182 1
-10 4 -3 8.41397 3.26823 2
-10 4 -3 -0.5267 2.093 3
-11 -4 -3 34.7747 5.6552 3
-11 4 -3 42.3675 5.9747 3
-11 4 -3 31.8764 5.6017 2
11 4 3 47.5012 7.8419 1
-12 -4 -3 13.6316 4.0261 3
12 4 3 -1.7923 3.2444 1
-12 4 -3 7.03501 3.49815 2
-12 4 -3 24.8622 5.0118 3
-13 -4 -3 51.275 7.3216 3
-13 4 -3 31.7488 5.8798 3
-13 4 -3 54.2725 7.1185 2
-14 -4 -3 3.82686 3.22821 3
-14 4 -3 3.9179 3.6889 3
-14 4 -3 -0.0509 2.9388 2
-15 -4 -3 4.59918 3.5248 3
-15 4 -3 1.38297 3.50875 3
-16 -4 -3 20.9087 5.8392 3
-16 4 -3 15.6708 5.4328 3
-17 -4 -3 0.10253 3.55229 3
-17 4 -3 -4.585 3.4121 3
-18 -4 -3 -1.7526 3.1928 3
-18 4 -3 -0.0533 3.9544 3
-19 -5 3 10.5468 4.9421 3
-19 5 3 15.9872 5.8862 3
-18 -5 3 41.3356 7.906 3
-18 5 3 46.7335 8.0449 3
18 5 -3 38.7404 10.4755 1
-17 -5 3 4.49878 3.52905 3
-17 5 3 2.22405 3.5573 3
17 5 -3 0.14407 5.14332 1
-16 -5 3 13.2768 4.7473 3
16 5 -3 16.5545 7.1666 1
-16 5 3 14.2855 5.0792 3
-15 -5 3 2.87427 3.37526 3
15 5 -3 3.07772 5.05714 1
-15 5 3 2.93556 3.50826 3
-14 -5 3 35.696 6.3341 3
14 5 -3 17.9441 6.8364 1
-14 5 3 29.8315 5.6917 3
-14 5 3 41.9883 6.2908 2
-13 -5 3 31.0004 5.6304 3
13 -5 -3 44.1658 7.5339 1
13 5 -3 34.3921 8.1633 1
-13 5 3 44.9452 6.4052 2
-13 5 3 29.6585 5.4105 3
-12 -5 3 36.1397 5.697 3
12 -5 -3 23.6159 5.9877 1
-12 5 3 25.1065 5.0549 2
-12 5 3 28.9587 5.0518 3
12 5 -3 26.3415 6.8919 1
11 -5 -3 121.768 11.822 1
-11 -5 3 136.827 9.471 3
-11 5 3 137.315 9.237 3
11 5 -3 137.018 14.493 1
-11 5 3 146.167 9.794 2
-10 -5 3 89.7344 8.1783 3
10 -5 -3 91.731 9.8891 1
10 5 -3 94.2042 11.3861 1
-10 5 3 89.8932 7.8414 3
-10 5 3 97.0986 8.7917 2
9 -5 -3 43.1348 6.6026 1
-9 -5 3 40.3198 5.0743 3
9 5 -3 23.4242 6.1289 1
-9 5 3 26.4207 4.5419 2
-8 -5 3 334.442 15.585 3
8 -5 -3 340.046 18.146 1
-8 5 3 348.899 15.354 3
-8 5 3 336.804 16.261 2
8 5 -3 371.327 20.338 1
7 -5 -3 48.9309 6.6004 1
-7 -5 3 51.1443 5.2356 3
-7 5 3 43.7689 4.6676 3
-7 5 3 48.2824 5.7316 2
7 5 -3 46.3682 7.2898 1
7 5 -3 63.1795 3.8873 2
6 -5 -3 79.5972 7.4192 1
-6 -5 3 74.5645 5.0728 3
-6 5 3 81.5093 5.1186 3
6 5 -3 58.0297 8.0577 1
-6 5 3 63.0005 6.5547 2
6 5 -3 80.6607 4.8227 2
5 -5 -3 268.067 13.852 1
-5 -5 3 294.19 12.242 3
-5 5 3 281.338 13.646 2
5 5 -3 276.34 12.082 2
5 5 -3 307.969 16.694 1
4 -5 -3 51.5882 5.5563 1
-4 -5 3 50.4793 3.6243 3
4 5 -3 39.1616 6.1551 1
-4 5 3 47.2984 5.2211 2
4 5 -3 51.9315 4.5757 2
3 -5 -3 1206.09 46.21 1
-3 5 3 1183.83 44.23 2
3 5 -3 1197.77 48.49 1
2 -5 -3 1.66625 1.41023 1
2 5 -3 -0.1291 1.3216 2
-2 5 3 -1.082 1.0256 2
2 5 -3 -0.1178 2.0518 1
1 5 -3 203.547 10.163 2
-1 5 3 191.019 10.121 2
1 5 -3 213.608 12.297 1
-1 5 3 203.23 12.457 1
0 5 3 817.789 35.221 1
0 5 3 798.628 31.45 2
0 5 -3 862.75 34.607 1
0 5 -3 831.477 31.727 2
1 5 3 76.5801 8.3669 1
-1 5 -3 75.8809 5.8627 2
-1 5 -3 93.8834 7.1092 1
-2 5 -3 27.5406 4.0717 2
-2 5 -3 39.1636 5.2297 1
2 5 3 32.5946 5.4716 1
-3 5 -3 955.538 39.271 1
-3 5 -3 982.848 37.965 2
3 5 3 978.033 41.314 1
-3 5 -3 1017.52 34.8 3
-4 5 -3 573.937 24.674 1
4 5 3 588.868 26.843 1
-4 5 -3 528.886 23.871 2
-4 5 -3 584.329 21.469 3
5 -5 3 7.40906 2.05935 1
5 5 3 6.27667 3.07391 1
-5 5 -3 8.21919 2.69585 2
-5 5 -3 7.05148 2.0735 3
-6 -5 -3 49.3843 5.1986 3
6 -5 3 60.651 5.2548 1
-6 5 -3 47.7269 4.8244 3
6 5 3 52.6232 7.533 1
-6 5 -3 61.5705 6.711 2
7 -5 3 282.811 13.243 1
-7 -5 -3 257.865 13.185 3
-7 5 -3 282.378 13.047 3
7 5 3 292.124 16.915 1
-7 5 -3 263.564 14.555 2
-8 -5 -3 151.43 9.143 3
8 5 3 144.613 11.547 1
-8 5 -3 126.284 9.474 2
-9 -5 -3 73.7341 7.5108 3
-9 5 -3 80.8368 7.4683 3
9 5 3 86.4913 10.3195 1
-9 5 -3 82.6301 8.4182 2
-10 -5 -3 16.4456 4.1409 3
10 5 3 14.347 5.3626 1
-10 5 -3 19.2513 4.0284 3
-10 5 -3 10.9366 3.7494 2
-11 -5 -3 121.961 10.67 3
11 5 3 123.87 13.156 1
-11 5 -3 116.439 10.661 2
-11 5 -3 132.507 9.456 3
-12 -5 -3 11.2571 3.7738 3
12 5 3 7.08006 4.73183 1
-12 5 -3 13.4738 4.1702 3
-12 5 -3 15.708 4.367 2
-13 -5 -3 2.14759 3.04517 3
-13 5 -3 4.34005 3.238 2
-13 5 -3 5.45183 3.26438 3
-14 -5 -3 1.29905 2.89022 3
-14 5 -3 2.14485 3.06558 3
-14 5 -3 2.16688 3.36123 2
-15 -5 -3 58.4676 8.7347 3
-15 5 -3 50.3837 7.9474 3
-16 -5 -3 -3.7703 3.0112 3
-16 5 -3 8.95614 4.76011 3
-17 -5 -3 -2.1328 3.6467 3
-17 5 -3 1.20078 4.30767 3
-18 -5 -3 3.01505 4.51615 3
-18 5 -3 3.91391 4.76512 3
-19 -6 3 11.069 5.178 3
-18 -6 3 9.99234 4.47783 3
18 6 -3 5.68604 6.74799 1
-17 -6 3 -2.583 3.0113 3
17 6 -3 0.03407 6.11925 1
-16 -6 3 3.63884 3.94833 3
16 6 -3 8.21435 6.33604 1
-15 -6 3 24.1164 5.3592 3
15 6 -3 8.98103 6.20404 1
-15 6 3 20.734 5.0692 3
-14 -6 3 9.98627 3.72149 3
-14 6 3 8.65557 3.71069 3
14 6 -3 17.7128 6.7674 1
-14 6 3 18.335 4.8313 2
13 -6 -3 129.451 13.151 1
-13 -6 3 113.381 10.754 3
-13 6 3 126.065 9.683 3
-13 6 3 150.556 10.658 2
13 6 -3 149.64 16.336 1
-12 -6 3 92.5494 8.885 3
12 -6 -3 86.1196 10.5293 1
-12 6 3 93.7661 8.8601 3
-12 6 3 87.2584 9.2616 2
12 6 -3 67.0972 11.0196 1
11 -6 -3 158.672 12.7 1
-11 -6 3 175.867 11.112 3
11 6 -3 173.702 17.13 1
-11 6 3 208.729 12.377 2
10 -6 -3 -2.2926 3.0853 1
-10 -6 3 1.61244 2.75698 3
-10 6 3 3.57738 2.29111 3
10 6 -3 -0.0509 3.1413 1
-10 6 3 1.50953 2.46493 2
-9 -6 3 14.1431 3.3956 3
9 -6 -3 18.854 4.8163 1
9 6 -3 12.9861 5.037 1
-9 6 3 12.2052 3.0968 3
-9 6 3 8.83199 3.15863 2
-8 -6 3 2.32778 1.988 3
8 -6 -3 -2.3584 2.5883 1
-8 6 3 1.68164 1.86524 3
8 6 -3 -1.0745 2.7519 1
-8 6 3 0.62456 1.9219 2
7 -6 -3 15.4575 3.7729 1
-7 -6 3 16.0253 2.904 3
-7 6 3 12.9613 2.6635 3
7 6 -3 9.1693 4.536 1
-7 6 3 16.8571 3.8311 2
-6 -6 3 75.3727 5.1092 3
6 -6 -3 70.1218 7.2149 1
-6 6 3 59.925 6.708 2
6 6 -3 56.5726 8.5519 1
6 6 -3 68.3867 5.6656 2
5 -6 -3 61.7798 6.8628 1
-5 -6 3 75.1376 4.7697 3
5 6 -3 48.1496 7.6271 1
5 6 -3 79.6285 5.3252 2
-5 6 3 62.036 6.7691 2
4 -6 -3 46.0825 5.7084 1
-4 -6 3 45.5788 3.3752 3
-4 6 3 45.9941 5.5111 2
4 6 -3 43.3127 4.7009 2
4 6 -3 43.118 6.9971 1
3 -6 -3 46.2859 5.7086 1
3 6 -3 31.4315 4.0833 2
3 6 -3 40.17 6.4967 1
-3 6 3 43.201 5.2053 2
-2 6 3 1126.74 46.71 1
2 6 -3 1136.01 41.6 2
-2 6 3 1098.6 41.96 2
2 6 -3 1081.48 46.05 1
-1 6 3 35.4478 4.7293 2
1 6 -3 44.5314 6.5423 1
-1 6 3 22.3488 4.9232 1
1 6 -3 33.0198 4.3833 2
0 6 -3 489.907 23.472 1
0 6 3 489.338 24.251 1
0 6 -3 502.843 21.171 2
0 6 3 480.95 20.789 2
-1 6 -3 137.595 9.103 2
1 6 3 150.148 8.825 2
1 6 3 176.709 12.082 1
-1 6 -3 175.142 11.124 1
-2 6 -3 142.266 9.172 2
2 6 3 143.678 11.209 1
-2 6 -3 161.463 10.581 1
-3 6 -3 204.684 12.339 1
3 6 3 199.219 13.413 1
-3 6 -3 184.867 11.098 2
-4 6 -3 0.31561 2.0134 2
-4 6 -3 2.04274 2.58882 1
4 6 3 1.61911 3.21023 1
-5 -6 -3 72.0115 5.1246 3
5 -6 3 68.3953 6.2898 1
-5 6 -3 68.5621 7.3653 2
5 6 3 50.6454 8.063 1
-6 -6 -3 163.999 9.012 3
6 -6 3 175.544 9.293 1
6 6 3 144.779 13.91 1
-6 6 -3 146.571 8.272 3
-6 6 -3 166.318 10.741 2
-7 -6 -3 54.0451 5.8557 3
7 6 3 57.1756 8.7212 1
-7 6 -3 67.684 5.9154 3
-7 6 -3 52.4541 6.8312 2
-8 -6 -3 113.164 8.095 3
-8 6 -3 122.064 10.871 2
-8 6 -3 119.026 7.909 3
8 6 3 128.112 13.143 1
-9 -6 -3 7.78621 3.06506 3
9 6 3 0.92826 3.81428 1
-9 6 -3 6.45867 3.21193 2
-9 6 -3 11.9172 3.357 3
-10 -6 -3 99.4336 9.2912 3
10 6 3 148.48 14.65 1
-10 6 -3 107.705 8.192 3
-10 6 -3 131.483 11.497 2
-11 -6 -3 52.146 6.7633 3
11 6 3 39.924 8.279 1
-11 6 -3 40.6274 6.7141 2
-12 -6 -3 70.2943 8.3471 3
-12 6 -3 67.3184 8.6613 2
12 6 3 77.2341 11.1959 1
-13 -6 -3 0.51113 2.98207 3
-13 6 -3 0.76101 2.87632 2
13 6 3 -2.4592 4.3043 1
-14 -6 -3 49.0274 7.6708 3
-14 6 -3 58.2644 8.5323 2
-15 -6 -3 4.51273 3.53171 3
-15 6 -3 9.26835 4.66364 2
-16 -6 -3 3.68362 3.81478 3
-17 -6 -3 15.6142 5.8544 3
18 7 -3 5.40324 7.34319 1
17 7 -3 2.32063 6.98385 1
-16 -7 3 15.0139 5.3583 3
16 7 -3 22.0045 8.6896 1
-15 -7 3 2.88701 3.48279 3
15 7 -3 15.5424 7.4974 1
-15 7 3 4.0426 3.80426 2
-14 -7 3 8.69058 4.02444 3
-14 7 3 7.20245 4.02645 2
14 7 -3 17.6514 7.0497 1
-13 -7 3 3.40976 3.05983 3
13 7 -3 -3.7049 4.389 1
-13 7 3 0.80997 3.13516 2
-12 -7 3 62.7737 7.5564 3
12 -7 -3 59.1779 9.18 1
-12 7 3 70.4289 8.8492 2
12 7 -3 75.9423 11.8058 1
11 -7 -3 34.2919 7.2787 1
-11 -7 3 29.7899 5.1148 3
11 7 -3 33.755 8.6685 1
-11 7 3 38.6901 6.5375 2
10 -7 -3 403.84 22.539 1
10 7 -3 382.026 24.587 1
-10 7 3 462.537 21.488 2
9 -7 -3 30.5872 6.5425 1
-9 7 3 34.4272 5.8094 2
9 7 -3 40.9325 8.6424 1
8 -7 -3 29.501 5.8824 1
8 7 -3 41.673 8.2069 1
-8 7 3 28.7631 5.3689 2
7 -7 -3 81.5677 8.4846 1
7 7 -3 87.6546 11.1571 1
-7 7 3 55.5916 7.1351 2
6 -7 -3 185.905 11.744 1
6 7 -3 179.671 9.761 2
6 7 -3 219.467 15.324 1
-6 7 3 189.949 11.62 2
5 -7 -3 30.8429 5.2534 1
-5 7 3 30.4974 5.1556 2
5 7 -3 32.508 7.0477 1
5 7 -3 33.5048 4.4422 2
4 -7 -3 22.9489 4.545 1
4 7 -3 28.1055 6.1414 1
-4 7 3 28.6499 4.8473 2
3 -7 -3 19.3162 4.1871 1
-3 7 3 10.2736 3.1302 2
3 7 -3 25.0101 5.715 1
3 7 -3 14.6334 3.3524 2
2 -7 -3 246.933 13.61 1
2 7 -3 231.744 12.425 2
-2 7 3 238.084 13.025 2
2 7 -3 264.918 16.09 1
-2 7 3 255 16.149 1
-1 7 3 6.19652 2.46561 2
1 7 -3 3.19091 2.92188 1
-1 7 3 -0.0582 2.7053 1
1 7 -3 1.00392 2.04955 2
0 7 -3 0.73341 2.16344 2
0 7 -3 1.45049 2.81861 1
0 7 3 1.3076 2.04876 2
0 7 3 2.01131 3.1592 1
1 7 3 1.47873 1.94569 2
1 7 3 3.12455 3.12417 1
-1 7 -3 2.20907 2.21146 2
-1 7 -3 9.65172 3.54738 1
-2 7 -3 566.281 24.955 2
-2 7 -3 562.562 26.816 1
2 7 3 571.061 28.445 1
-3 7 -3 48.168 7.1468 1
3 7 3 53.0431 8.1806 1
-3 7 -3 44.1724 6.1393 2
-4 7 -3 809.068 36.266 1
4 7 3 829.405 38.578 1
-4 7 -3 875.718 35.088 2
5 -7 3 294.059 15.16 1
5 7 3 331.765 19.819 1
-5 7 -3 326.033 17.019 2
6 -7 3 34.02 4.9519 1
-6 -7 -3 30.2828 4.2346 3
-6 7 -3 41.29 6.3474 2
6 7 3 51.6899 8.6475 1
-7 -7 -3 73.1631 6.7104 3
7 7 3 67.0025 9.8808 1
-7 7 -3 55.8057 7.5769 2
-8 -7 -3 209.091 11.634 3
8 7 3 215.086 16.093 1
-8 7 -3 196.606 13.217 2
-9 -7 -3 82.808 7.9968 3
-9 7 -3 96.7415 10.1073 2
9 7 3 82.2566 11.6882 1
-10 -7 -3 26.1952 4.8654 3
10 7 3 23.7406 6.9218 1
-10 7 -3 33.2943 6.3091 2
-11 -7 -3 4.82285 2.9353 3
-11 7 -3 4.10932 3.45623 2
11 7 3 7.30934 5.26085 1
-12 -7 -3 1.33508 2.54134 3
-12 7 -3 0.80622 2.96277 2
12 7 3 0.35245 5.00455 1
-13 -7 -3 12.2843 4.488 3
13 7 3 19.6512 7.5805 1
-13 7 -3 18.1593 5.4002 2
-14 -7 -3 15.677 5.1916 3
-14 7 -3 19.3976 5.6886 2
-15 -7 -3 5.42405 4.25057 3
-15 7 -3 3.66945 3.81065 2
-16 -7 -3 4.1277 3.99026 3
17 8 -3 5.21268 7.53117 1
16 8 -3 30.4291 9.7104 1
-15 8 3 1.1098 3.50299 2
15 8 -3 14.1325 7.1736 1
-14 8 3 50.0387 8.2258 2
14 8 -3 47.3869 10.7083 1
-13 8 3 35.9598 6.9237 2
13 8 -3 15.8033 7.6063 1
12 -8 -3 8.44123 5.12053 1
-12 8 3 2.78056 3.33312 2
12 8 -3 3.31588 5.03885 1
11 -8 -3 5.77739 4.19216 1
-11 8 3 6.24986 3.24043 2
11 8 -3 5.51577 5.07589 1
10 -8 -3 22.6283 6.4651 1
-10 8 3 36.2895 6.6048 2
10 8 -3 33.0575 8.1898 1
9 -8 -3 156.164 12.487 1
-9 8 3 162.08 11.478 2
9 8 -3 136.94 15.976 1
8 -8 -3 26.5113 5.705 1
-8 8 3 38.6136 6.5131 2
8 8 -3 20.185 6.359 1
7 -8 -3 -2.6302 2.3615 1
-7 8 3 0.06636 2.41426 2
7 8 -3 4.87155 5.03191 1
6 -8 -3 89.9219 9.3573 1
6 8 -3 112.265 13.343 1
-6 8 3 86.3131 9.0979 2
5 -8 -3 -0.7595 2.3317 1
-5 8 3 1.54621 2.2315 2
5 8 -3 1.01558 2.07023 2
5 8 -3 0.95179 3.39978 1
4 -8 -3 26.5991 5.0524 1
-4 8 3 18.4459 4.408 2
4 8 -3 36.331 5.1161 2
4 8 -3 18.497 5.8017 1
3 -8 -3 7.02319 2.85656 1
-3 8 3 9.05069 3.28793 2
3 8 -3 2.73569 3.4421 1
3 8 -3 2.39727 2.2416 2
2 -8 -3 278.896 14.964 1
2 8 -3 254.959 13.834 2
-2 8 3 277.592 14.439 2
-2 8 3 245.787 16.958 1
2 8 -3 221.43 16.4 1
-1 8 3 74.9699 10.2689 1
1 8 -3 95.449 11.0667 1
-1 8 3 80.573 8.3014 2
1 8 -3 88.0518 8.4633 2
0 8 -3 289.12 17.9 1
0 8 -3 273.62 14.993 2
0 8 3 298.038 18.736 1
0 8 3 287.219 15.152 2
-1 8 -3 2.2162 2.31932 2
1 8 3 1.69945 2.33139 2
-1 8 -3 2.64113 3.47336 1
1 8 3 3.9222 3.49571 1
-2 8 -3 236.221 13.782 2
-2 8 -3 234.97 15.38 1
2 8 3 220.967 16.096 1
-3 8 -3 29.7988 5.4523 2
-3 8 -3 34.6576 6.9656 1
3 8 3 34.7717 7.254 1
-4 8 -3 250.51 15.072 2
-4 8 -3 264.727 16.419 1
4 8 3 245.05 17.739 1
5 8 3 34.0117 7.7861 1
-5 8 -3 41.8268 6.524 2
6 -8 3 270.05 14.436 1
6 8 3 244.48 18.208 1
-6 8 -3 280.3 16.184 2
-7 8 -3 -0.8601 2.6897 2
7 8 3 3.55717 4.66095 1
-8 8 -3 201.306 13.761 2
8 8 3 181.815 18.185 1
-9 8 -3 -1.7321 2.5194 2
9 8 3 -1.7661 4.3708 1
-10 8 -3 45.3587 7.4608 2
10 8 3 32.2215 8.3209 1
-11 8 -3 -1.2208 2.6136 2
11 8 3 -0.7121 4.6819 1
-12 8 -3 8.39069 4.32726 2
12 8 3 8.84899 6.54121 1
13 8 3 -2.1317 6.056 1
-13 8 -3 2.30569 3.73727 2
-14 8 -3 26.8493 6.6781 2
14 8 3 22.5357 8.4953 1
-15 8 -3 7.4656 4.42832 2
-16 8 -3 1.85893 4.73357 2
-16 9 3 33.2109 7.563 2
16 9 -3 19.3615 9.5211 1
15 9 -3 -4.7152 6.3507 1
-15 9 3 -6.419 3.6275 2
-14 9 3 16.6198 5.7585 2
14 9 -3 8.82617 7.49865 1
13 9 -3 -3.1409 5.4804 1
-13 9 3 -1.0796 3.2111 2
12 9 -3 94.9778 14.6369 1
-12 9 3 82.2049 10.5082 2
11 -9 -3 11.6662 6.0307 1
11 9 -3 11.202 6.5995 1
-11 9 3 12.3967 4.7279 2
10 -9 -3 53.0363 9.236 1
-10 9 3 41.7789 7.5255 2
10 9 -3 60.8787 11.5587 1
9 -9 -3 7.08887 4.28836 1
9 9 -3 5.22271 5.6867 1
-9 9 3 10.3464 4.2318 2
8 -9 -3 68.3442 8.8592 1
8 9 -3 54.2456 10.4881 1
-8 9 3 62.2613 8.3784 2
7 -9 -3 156.921 11.701 1
-7 9 3 174.38 12.078 2
7 9 -3 157.022 16.986 1
6 -9 -3 130.87 10.741 1
6 9 -3 146.185 15.945 1
-6 9 3 158.099 11.125 2
5 -9 -3 26.351 5.4879 1
5 9 -3 15.1329 5.8204 1
-5 9 3 17.6153 4.6922 2
4 -9 -3 0.74479 2.67737 1
-4 9 3 4.19651 3.02651 2
4 9 -3 3.99226 3.78001 1
4 9 -3 1.86998 2.80019 2
3 -9 -3 138.734 10.465 1
3 9 -3 106.055 13.3 1
-3 9 3 131.838 10.028 2
3 9 -3 135.53 9.545 2
2 -9 -3 101.481 10.327 1
2 9 -3 108.741 9.643 2
-2 9 3 97.476 9.7487 2
2 9 -3 131.924 13.867 1
-2 9 3 120.121 13.677 1
1 9 -3 6.78363 4.37538 1
-1 9 3 10.4178 3.4185 2
-1 9 3 0.44599 4.07412 1
1 9 -3 7.94013 3.64215 2
0 9 -3 4.75441 4.02801 1
0 9 -3 -0.58 2.3437 2
0 9 3 -2.2184 2.8494 1
0 9 3 -0.8772 2.2759 2
-1 9 -3 265.859 15.694 2
-1 9 -3 296.026 18.618 1
1 9 3 298.408 19.859 1
1 9 3 279.858 15.427 2
2 9 3 205.602 19.038 1
-2 9 -3 220.306 15.409 1
-2 9 -3 190.399 12.82 2
3 9 3 2.71461 4.18536 1
-3 9 -3 6.00633 4.15476 1
-3 9 -3 4.22693 3.25398 2
-4 9 -3 102.387 10.31 2
-4 9 -3 109.065 12.025 1
4 9 3 76.1589 11.623 1
5 -9 3 2.39345 3.21952 1
5 9 3 -1.5036 3.3617 1
-5 9 -3 -0.1852 2.976 2
6 9 3 15.586 6.4921 1
-6 9 -3 12.4887 4.1966 2
-7 9 -3 5.88016 3.52963 2
7 9 3 14.6705 6.0722 1
8 9 3 69.0858 11.6238 1
-8 9 -3 78.5039 9.9524 2
-9 9 -3 4.65334 3.71228 2
9 9 3 11.0032 6.0158 1
-10 9 -3 5.86406 3.95107 2
10 9 3 -0.9274 5.7255 1
11 9 3 21.2933 7.9849 1
-11 9 -3 21.849 5.985 2
12 9 3 -2.3637 5.2635 1
-12 9 -3 2.90925 3.97152 2
13 9 3 8.14568 7.08644 1
-13 9 -3 1.86072 3.8636 2
-14 9 -3 7.36351 5.33152 2
14 9 3 19.356 8.7657 1
14 10 -3 7.08266 6.74669 1
-14 10 3 -1.4053 3.6099 2
13 10 -3 3.05024 6.37441 1
-13 10 3 -4.5002 3.8748 2
-12 10 3 8.52702 4.58908 2
12 10 -3 9.40331 6.89478 1
11 10 -3 3.48683 5.69886 1
-11 10 3 -3.5246 2.9251 2
10 -10 -3 9.30416 5.26788 1
-10 10 3 9.14636 4.18384 2
10 10 -3 13.7667 6.66 1
9 -10 -3 50.8647 8.3447 1
9 10 -3 35.8084 9.4578 1
-9 10 3 41.3538 7.6121 2
8 -10 -3 9.17284 4.58251 1
-8 10 3 5.65176 3.79234 2
8 10 -3 8.65783 5.51574 1
7 -10 -3 6.09837 3.94769 1
7 10 -3 4.21463 4.88905 1
-7 10 3 3.87779 3.33485 2
6 -10 -3 -1.5113 2.4041 1
6 10 -3 -3.4483 3.7316 1
-6 10 3 0.15172 2.56402 2
5 -10 -3 14.3236 4.8807 1
-5 10 3 5.59077 3.3241 2
5 10 -3 2.86295 4.15634 1
4 -10 -3 -7.264 2.4072 1
4 10 -3 0.73711 3.97753 1
-4 10 3 -0.7661 2.7125 2
4 10 -3 4.89061 3.25305 2
3 -10 -3 18.7525 5.1976 1
3 10 -3 20.0392 4.8947 2
-3 10 3 18.2547 4.99 2
3 10 -3 28.5949 7.5249 1
2 -10 -3 111.107 11.149 1
2 10 -3 79.5676 11.8172 1
-2 10 3 87.1187 9.6254 2
2 10 -3 90.0229 9.7071 2
1 10 -3 85.9468 12.0547 1
-1 10 3 92.7195 9.9965 2
1 10 -3 88.808 9.3363 2
-1 10 3 74.8645 11.7185 1
0 10 -3 16.4624 4.5904 2
0 10 -3 3.26768 4.10278 1
0 10 3 10.0825 4.2082 2
0 10 3 11.4239 5.2609 1
-1 10 -3 5.34071 4.38577 1
1 10 3 -1.5178 3.9287 1
-1 10 -3 -0.2668 2.8269 2
1 10 3 1.54854 3.0019 2
-2 10 -3 1.48841 3.11668 2
-2 10 -3 -0.2187 3.4999 1
2 10 3 -0.4757 3.4243 1
-3 10 -3 32.6051 7.5672 1
3 10 3 41.7809 9.1578 1
-3 10 -3 38.9527 7.1011 2
-4 10 -3 3.87327 4.5885 1
4 10 3 6.10881 5.19531 1
-4 10 -3 5.03108 3.23701 2
5 -10 3 10.3522 4.1817 1
5 10 3 18.746 7.0728 1
-5 10 -3 11.0686 4.5942 2
-6 10 -3 28.0817 6.2565 2
6 10 3 24.9146 7.8528 1
7 10 3 1.09274 4.23533 1
-7 10 -3 2.60495 2.96259 2
-8 10 -3 11.4804 4.7736 2
8 10 3 19.4905 8.1636 1
9 10 3 -1.4977 5.0831 1
-9 10 -3 2.35537 3.71097 2
-10 10 -3 -1.4353 3.233 2
10 10 3 -3.3875 5.2678 1
11 10 3 -1.5484 5.954 1
-11 10 -3 0.04168 3.99974 2
-12 10 -3 15.2411 6.0127 2
12 10 3 -5.8855 5.8517 1
13 10 3 1.57046 6.79669 1
-13 10 -3 3.78068 4.68185 2
-13 11 3 17.4424 6.1957 2
-12 11 3 0.6538 4.27437 2
12 11 -3 -5.5991 5.8514 1
11 11 -3 20.3296 8.7388 1
-11 11 3 29.1091 7.2701 2
10 -11 -3 -5.4076 4.5575 1
-10 11 3 0.64329 3.86291 2
10 11 -3 -5.585 4.1316 1
9 -11 -3 5.00249 4.75657 1
9 11 -3 7.50183 6.28396 1
-9 11 3 18.0111 5.3623 2
8 -11 -3 6.64351 4.4774 1
8 11 -3 -0.7177 4.9959 1
-8 11 3 5.37508 3.74622 2
7 -11 -3 27.8728 6.5565 1
-7 11 3 11.5691 4.0646 2
7 11 -3 13.5998 6.5981 1
6 -11 -3 6.83537 3.9084 1
6 11 -3 5.81371 5.35948 1
-6 11 3 6.80724 3.61507 2
5 -11 -3 0.36498 3.28844 1
5 11 -3 2.81172 4.68321 1
-5 11 3 4.80797 3.58431 2
4 -11 -3 40.2508 7.2815 1
4 11 -3 33.1812 6.0306 2
-4 11 3 26.5715 5.908 2
4 11 -3 25.5078 7.8237 1
3 -11 -3 59.3145 8.7114 1
3 11 -3 62.6527 11.2169 1
3 11 -3 68.9108 8.5793 2
-3 11 3 58.0937 8.3675 2
2 -11 -3 13.4384 4.9946 1
2 11 -3 6.71288 5.08165 1
2 11 -3 10.2493 4.2343 2
-2 11 3 6.08219 3.76032 2
1 -11 -3 2.81535 3.68305 1
1 11 -3 8.07181 3.99791 2
1 11 -3 2.10094 4.87668 1
-1 11 3 5.10639 3.2259 2
-1 11 3 4.47044 5.29756 1
0 11 -3 69.0739 8.9122 2
0 11 3 60.424 11.3863 1
0 11 -3 61.3207 10.4848 1
0 11 3 64.8571 8.6354 2
-1 11 -3 128.704 12.366 2
1 11 3 139.643 16.55 1
-1 11 -3 110.397 13.824 1
1 11 3 121.92 11.811 2
-2 11 -3 15.0442 6.3532 1
2 11 3 13.0856 6.5285 1
-2 11 -3 8.76155 4.07184 2
3 11 3 6.90086 5.41882 1
-3 11 -3 22.655 6.8713 1
-3 11 -3 11.3707 4.5436 2
4 -11 3 4.11864 4.03655 1
4 11 3 18.1763 7.8418 1
-4 11 -3 5.01486 4.23781 2
-5 11 -3 1.44369 3.26173 2
5 11 3 -4.8079 4.9687 1
-6 11 -3 -2.3904 3.0881 2
6 11 3 -2.702 5.4363 1
-7 11 -3 7.94283 4.51528 2
7 11 3 1.32442 5.42427 1
-8 11 -3 5.09924 4.59998 2
8 11 3 0.77619 5.90315 1
-9 11 -3 8.1284 5.08449 2
9 11 3 9.42335 6.63548 1
10 11 3 9.7188 7.626 1
-10 11 -3 12.7489 5.669 2
-11 11 -3 9.81176 5.06739 2
11 11 3 6.92991 7.6553 1
-10 12 3 3.16406 4.43674 2
10 12 -3 14.3071 7.9488 1
9 -12 -3 16.4734 6.4012 1
9 12 -3 13.7006 7.4377 1
-9 12 3 10.9046 4.9692 2
8 -12 -3 8.86159 5.16761 1
8 12 -3 10.3882 7.0782 1
-8 12 3 6.59475 4.35707 2
7 -12 -3 5.16597 4.52165 1
-7 12 3 1.6781 3.44807 2
7 12 -3 0.95883 4.9636 1
6 -12 -3 7.26539 4.86944 1
-6 12 3 4.70979 3.89999 2
6 12 -3 7.75492 5.22932 1
5 -12 -3 0.85812 3.60161 1
-5 12 3 5.09991 3.58328 2
5 12 -3 6.50002 5.30981 1
4 -12 -3 3.73043 4.1399 1
-4 12 3 8.16792 4.32916 2
4 12 -3 4.55007 5.41505 1
3 -12 -3 -1.6215 3.6609 1
3 12 -3 5.90698 3.89442 2
-3 12 3 1.90063 3.4998 2
3 12 -3 -6.1205 3.3672 1
2 -12 -3 3.36946 4.10981 1
-2 12 3 4.36516 4.065 2
2 12 -3 0.92092 4.9086 1
2 12 -3 5.86052 3.93867 2
1 -12 -3 5.91718 4.56261 1
1 12 -3 16.7585 5.3852 2
-1 12 3 11.1211 4.7202 2
1 12 -3 18.1892 7.0749 1
0 12 -3 10.1755 4.3689 2
0 12 3 1.10204 3.45541 2
0 12 3 -2.9382 3.6535 1
0 12 -3 8.55896 5.66631 1
-1 12 -3 1.75336 4.54023 1
1 12 3 -0.2584 4.4764 1
-1 12 -3 3.83644 3.74328 2
-2 12 -3 2.44678 5.13461 1
-2 12 -3 2.09004 3.97379 2
2 12 3 -0.0268 4.4958 1
-3 12 -3 5.79719 4.20679 2
3 12 3 -3.0552 4.4379 1
-3 12 -3 9.38277 5.88347 1
4 12 3 26.1177 8.2735 1
-4 12 -3 35.5761 7.4563 2
-5 12 -3 22.2024 6.5495 2
5 12 3 17.7814 7.4336 1
-6 12 -3 52.1068 9.3099 2
6 12 3 35.2687 9.9527 1
-7 12 -3 54.8282 9.5578 2
7 12 3 48.842 11.8092 1
-8 12 -3 5.30929 4.47381 2
8 12 3 6.31783 6.80914 1
-9 12 -3 0.07648 4.38735 2
9 12 3 3.04477 7.19288 1
7 -13 -3 0.75618 4.69603 1
7 13 -3 -3.3306 5.449 1
-7 13 3 3.73814 3.6459 2
6 -13 -3 10.8908 5.4877 1
-6 13 3 20.9633 6.3174 2
6 13 -3 5.83844 6.35087 1
5 -13 -3 7.88471 5.19867 1
-5 13 3 2.82776 4.10434 2
5 13 -3 -2.05 4.908 1
4 -13 -3 10.0421 5.0546 1
-4 13 3 3.4294 4.18678 2
4 13 -3 0.58027 5.33765 1
3 -13 -3 -1.2602 3.5802 1
3 13 -3 -3.7297 4.7982 1
-3 13 3 5.53691 4.52984 2
2 -13 -3 -0.9821 3.5623 1
-2 13 3 0.00194 3.80731 2
2 13 -3 -4.072 4.8123 1
2 13 -3 8.82205 4.50382 2
1 -13 -3 4.88035 4.83214 1
1 13 -3 -0.1561 4.7261 1
1 13 -3 1.95094 3.98454 2
-1 13 3 2.86101 4.09126 2
0 -13 -3 15.0601 5.7017 1
0 13 -3 5.12948 5.85302 1
0 13 3 12.3462 6.2769 1
0 13 -3 16.1463 5.8151 2
-1 13 -3 8.35599 4.77278 2
-1 13 -3 10.2225 6.1133 1
1 13 3 6.46126 6.49249 1
-2 13 -3 2.11005 5.49823 1
-2 13 -3 -0.841 3.8468 2
2 13 3 5.08466 5.22736 1
3 13 3 -3.2203 5.6667 1
-3 13 -3 2.90168 4.50465 2
-4 13 -3 -3.1312 3.3261 2
4 13 3 3.46996 6.22872 1
-5 13 -3 2.95813 4.56165 2
5 13 3 0.20383 6.35501 1
-6 13 -3 56.3377 10.2264 2
-21 0 4 4.52379 4.75833 3
-20 0 4 4.49815 4.42816 3
-19 0 4 -1.4284 3.5045 3
-18 0 4 -2.8639 3.0527 3
-17 0 4 -3.857 2.4717 3
17 0 -4 -5.4119 3.7772 1
16 0 -4 9.07483 4.70147 1
-16 0 4 9.46015 4.05305 3
-15 0 4 -2.0956 2.6476 3
15 0 -4 -0.0007 3.5367 1
-14 0 4 106.835 10.089 3
14 0 -4 85.8243 10.769 1
-13 0 4 -0.6971 2.1762 3
13 0 -4 1.98709 3.16468 1
-12 0 4 194.595 11.878 3
12 0 -4 194.778 13.357 1
11 0 -4 -0.137 2.5629 1
-11 0 4 -1.3547 1.6301 3
10 0 -4 279.995 15.74 1
-10 0 4 272.734 13.957 3
9 0 -4 0.13632 2.25556 1
-9 0 4 0.13753 1.58462 3
8 0 -4 333.488 16.897 1
-8 0 4 343.38 15.368 3
7 0 -4 -1.0521 1.6624 1
-7 0 4 0.81807 1.34399 3
6 0 -4 5064.83 181.91 1
-5 0 4 0.22829 1.0326 3
5 0 -4 0.06061 1.49023 1
-4 0 4 9632.36 316.59 3
4 0 -4 9216.31 333.15 1
3 0 -4 -1.8085 1.1327 1
2 0 -4 17.0829 2.7119 1
1 0 -4 -1.4882 0.9105 1
1 0 -4 -1.6915 0.8644 2
0 0 -4 6195.12 208.71 2
0 0 -4 6152.96 217.57 1
-1 0 -4 -1.4553 0.7007 1
-1 0 -4 -2.286 0.7381 2
-2 0 -4 1432.31 50.87 2
-3 0 -4 -1.957 0.9124 2
-4 0 -4 168.818 8.79 2
5 0 4 2.27975 1.06363 1
-5 0 -4 0.00222 1.31166 2
6 0 4 334.122 13.878 1
-6 0 -4 355.333 15.466 2
-7 0 -4 -0.7874 1.4139 2
7 0 4 1.09374 1.35582 1
8 0 4 303.815 13.312 1
-8 0 -4 289.954 14.05 2
-9 0 -4 -0.6703 1.822 2
-9 0 -4 -0.1261 1.7604 3
-10 0 -4 248.317 12.934 2
-10 0 -4 239.464 13.468 3
-11 0 -4 -1.3958 1.9198 3
-11 0 -4 -3.2511 2.0076 2
-12 0 -4 -0.4357 2.7262 3
-13 0 -4 -2.7173 2.2842 3
-14 0 -4 192.255 13.621 3
-15 0 -4 1.65285 2.95835 3
-16 0 -4 3.86703 3.63464 3
-17 0 -4 -0.3051 3.3613 3
-18 0 -4 0.21137 3.87571 3
-19 0 -4 6.19366 4.73954 3
-21 -1 4 6.98981 4.92724 3
-21 1 4 4.11368 4.99507 3
-20 -1 4 -1.2993 3.7411 3
-20 1 4 5.76505 4.09349 3
-19 -1 4 1.26917 3.60336 3
-19 1 4 -2.3634 3.5044 3
-18 -1 4 -0.5995 3.1953 3
-18 1 4 2.52868 3.79507 3
-17 -1 4 0.45865 3.13446 3
17 1 -4 0.68774 4.30033 1
-17 1 4 5.17768 3.88576 3
16 -1 -4 46.0639 8.4422 1
-16 -1 4 26.9858 5.8702 3
16 1 -4 60.4762 9.4613 1
-16 1 4 53.1783 8.0556 3
15 -1 -4 6.98231 4.36496 1
-15 -1 4 3.16407 3.21901 3
-15 1 4 8.1084 3.58349 3
15 1 -4 3.58233 4.01274 1
14 -1 -4 -0.4071 3.4474 1
-14 -1 4 0.31206 2.32365 3
-14 1 4 2.15244 2.73727 3
14 1 -4 6.68337 4.03507 1
13 -1 -4 152.404 13.808 1
-13 -1 4 133.196 10.252 3
13 1 -4 173.134 12.827 1
-13 1 4 174.566 11.308 3
-12 -1 4 8.47345 3.05304 3
12 -1 -4 13.4506 4.2768 1
-12 1 4 2.59301 2.45878 3
12 1 -4 4.80966 3.65219 1
-11 -1 4 8.03661 2.86293 3
11 -1 -4 10.1038 3.82 1
-11 1 4 9.66958 3.1546 3
-11 1 4 9.50499 2.1083 2
11 1 -4 4.05212 3.43589 1
10 -1 -4 627.767 27.804 1
-10 -1 4 607.947 25.492 3
-10 1 4 596.153 25.419 3
-10 1 4 628.637 22.789 2
10 1 -4 559.208 27.555 1
9 -1 -4 5.76813 2.7781 1
-9 -1 4 -1.6259 1.6404 3
-9 1 4 1.70229 1.70801 3
9 1 -4 3.51741 2.512 1
-9 1 4 1.59956 1.24984 2
-8 -1 4 3.86582 1.99745 3
8 -1 -4 3.42985 2.32198 1
8 1 -4 1.53344 2.30713 1
-8 1 4 2.85187 1.61761 3
-8 1 4 2.93743 1.3744 2
-7 -1 4 1839.18 65.83 3
7 -1 -4 1822.61 70.06 1
-7 1 4 1904.22 64.24 2
-7 1 4 1871.14 65.8 3
7 1 -4 1852.98 70.54 1
6 -1 -4 973.866 38.652 1
-6 -1 4 988.588 35.904 3
6 1 -4 973.699 38.935 1
-6 1 4 965.918 35.786 3
5 -1 -4 66.0602 6.0912 1
-5 -1 4 53.3501 4.0263 3
5 1 -4 51.6234 5.5581 1
5 1 -4 56.9644 3.0131 2
-5 1 4 49.8525 4.4495 3
-4 -1 4 6293.61 210.58 3
4 -1 -4 6103.69 221.98 1
4 1 -4 6149.93 222.18 1
-4 1 4 6290.77 210.58 3
4 1 -4 6372.28 210.07 2
3 -1 -4 920.896 35.816 1
3 1 -4 938.503 32.981 2
3 1 -4 938.789 35.974 1
2 -1 -4 1698.56 62.43 1
2 1 -4 1709.62 62.42 1
1 -1 -4 3151.11 113.98 1
1 1 -4 3238.5 108.96 2
1 1 -4 3177.48 113.8 1
0 -1 -4 939.024 35.146 1
0 1 -4 978.774 34.749 2
0 1 -4 954.755 35.228 1
-1 -1 -4 2169.51 77.91 1
-1 1 -4 2200.39 76.02 2
2 1 4 2153.11 78.21 1
-2 1 -4 2193.23 75.95 2
-3 -1 -4 70.2979 4.7554 2
3 1 4 68.6259 4.4328 1
-3 1 -4 73.2024 5.1334 2
-4 -1 -4 1467.25 52.7 2
4 1 4 1464.98 54.09 1
-4 1 -4 1500.07 53.26 2
-5 -1 -4 77.2093 5.437 2
5 1 4 78.4228 5.1238 1
-5 1 -4 76.6572 5.6977 2
-6 -1 -4 123.399 7.13 2
6 1 4 109.534 6.594 1
-6 1 -4 104.59 7.186 2
7 -1 4 641.346 24.239 1
-7 -1 -4 623.1 25.651 2
-7 1 -4 667.791 26.409 2
7 1 4 658.528 26.123 1
-8 -1 -4 85.8978 6.3728 2
8 1 4 101.83 6.737 1
-8 1 -4 86.6692 6.5568 3
-8 1 -4 93.5605 6.9567 2
-9 -1 -4 50.1384 5.99 3
-9 -1 -4 53.1478 5.6494 2
9 1 4 43.6331 5.326 1
-9 1 -4 49.8982 5.8059 2
-9 1 -4 49.2623 5.878 3
-10 -1 -4 -1.8049 1.7445 2
-10 -1 -4 2.42234 2.3361 3
-10 1 -4 1.98478 2.52652 3
-10 1 -4 -0.6078 2.0095 2
-11 -1 -4 11.8696 3.8163 3
-11 -1 -4 7.09825 2.97331 2
-11 1 -4 2.66253 2.70759 2
-11 1 -4 10.3203 3.597 3
-12 -1 -4 4.16644 2.8921 3
-12 1 -4 -1.2041 2.4076 2
-12 1 -4 4.41373 3.19727 3
-13 -1 -4 15.8829 4.5494 3
-13 1 -4 18.9118 4.6825 3
-14 -1 -4 61.8528 8.2731 3
-14 1 -4 57.813 8.1985 3
-15 -1 -4 0.26129 2.98968 3
-15 1 -4 -3.9502 2.6521 3
-16 -1 -4 2.49257 3.71909 3
-16 1 -4 -1.6177 3.1737 3
-17 -1 -4 6.6343 4.33825 3
-17 1 -4 -1.762 3.8577 3
-18 -1 -4 6.82276 4.39028 3
-18 1 -4 -1.0091 4.0096 3
-19 -1 -4 -1.3013 4.3676 3
-19 1 -4 -1.5483 3.987 3
-21 -2 4 1.28432 4.50231 3
-21 2 4 4.08316 4.71249 3
-20 -2 4 -2.123 3.4015 3
-20 2 4 10.9445 5.3574 3
-19 -2 4 10.2348 4.675 3
-19 2 4 3.99106 4.04568 3
-18 -2 4 -2.6794 3.169 3
18 2 -4 2.29128 5.24353 1
-18 2 4 2.74465 3.68657 3
-17 -2 4 7.98491 4.20692 3
17 2 -4 9.54685 5.76338 1
-17 2 4 6.16013 4.28908 3
-16 -2 4 52.9742 7.9086 3
16 -2 -4 67.5605 9.9493 1
-16 2 4 66.7636 8.8448 3
16 2 -4 75.7068 11.222 1
-15 -2 4 8.24392 3.87938 3
15 -2 -4 5.41398 4.24836 1
-15 2 4 8.96573 3.8565 3
15 2 -4 7.13845 4.25827 1
14 -2 -4 78.0516 9.7491 1
-14 -2 4 69.5414 8.2976 3
-14 2 4 71.6938 8.3219 3
14 2 -4 74.8551 10.2811 1
-13 -2 4 285.753 15.515 3
13 -2 -4 269.932 16.653 1
13 2 -4 263.921 17.441 1
-13 2 4 266.515 15.159 3
-12 -2 4 26.5083 4.7017 3
12 -2 -4 23.275 5.5631 1
-12 2 4 20.4107 3.3524 2
-12 2 4 22.4343 4.6827 3
12 2 -4 28.904 6.3803 1
-11 -2 4 425.452 20.203 3
11 -2 -4 448.456 22.27 1
-11 2 4 450.408 18.133 2
11 2 -4 453.376 23.101 1
-11 2 4 430.354 20.223 3
-10 -2 4 151.347 9.428 3
10 -2 -4 158.463 10.825 1
-10 2 4 136.815 9.095 3
-10 2 4 162.17 8.134 2
10 2 -4 141.557 11.148 1
9 -2 -4 148.355 10.181 1
-9 -2 4 159.504 9.401 3
-9 2 4 162.974 8.114 2
-9 2 4 157.418 9.127 3
9 2 -4 147.461 10.941 1
8 -2 -4 76.9962 7.7107 1
-8 -2 4 78.0509 5.8284 3
8 2 -4 74.1098 8.3183 1
-8 2 4 76.9937 5.6486 3
-8 2 4 76.2672 5.0336 2
7 -2 -4 38.1169 5.1747 1
-7 -2 4 39.4907 4.357 3
7 2 -4 28.9135 5.019 1
-7 2 4 28.5646 3.7209 3
-7 2 4 31.0507 3.4597 2
-6 -2 4 163.604 8.554 3
6 -2 -4 162.249 9.899 1
-6 2 4 171.561 8.597 3
-6 2 4 178.459 8.182 2
6 2 -4 172.922 10.539 1
-5 -2 4 322.429 13.697 3
5 -2 -4 327.624 15.513 1
5 2 -4 325.646 15.931 1
5 2 -4 330.626 12.22 2
-5 2 4 326.278 13.441 2
-5 2 4 334.879 13.754 3
4 -2 -4 1223.75 48.01 1
-4 -2 4 1275.62 44.61 3
4 2 -4 1297.06 48.6 1
4 2 -4 1285.58 43.84 2
-4 2 4 1226.18 44.57 2
3 -2 -4 551.741 22.854 1
3 2 -4 555.496 20.513 2
3 2 -4 552.385 23.086 1
2 -2 -4 130.628 6.908 1
2 2 -4 134.796 7.644 1
1 -2 -4 1013.66 37.96 1
1 2 -4 1017.22 38.48 1
1 2 -4 1021.96 36.7 2
0 -2 -4 271.281 11.581 1
0 2 -4 262.024 11.704 1
0 2 -4 275.421 11.859 2
1 2 4 4103.64 144.26 1
-1 2 -4 4038.1 137.83 2
-1 2 -4 3935.55 142.65 1
-2 2 -4 4.49787 1.7831 2
-2 2 -4 1.84407 1.03184 1
2 2 4 2.24111 1.25888 1
-3 2 -4 1607.36 57.7 2
-4 2 -4 1.13394 1.67996 2
4 2 4 -0.0621 1.5418 1
-5 -2 -4 38.0669 4.3141 2
5 2 4 37.267 4.6199 1
-5 2 -4 29.4141 4.178 2
-6 -2 -4 55.4966 5.4169 2
6 2 4 61.375 5.9558 1
-6 2 -4 54.419 5.9052 2
-7 -2 -4 6.20504 2.21468 2
7 -2 4 5.3207 1.35495 1
-7 2 -4 1.6732 2.06957 2
7 2 4 5.77596 2.51489 1
-8 -2 -4 153.872 8.851 2
8 2 4 145.701 9.524 1
-8 2 -4 161.611 9.194 3
-8 2 -4 146.235 9.401 2
-9 -2 -4 -0.6135 1.8254 2
-9 -2 -4 2.70871 2.01405 3
9 2 4 0.61374 2.19369 1
-9 2 -4 -3.5274 1.6495 3
-9 2 -4 1.89448 2.3724 2
-10 -2 -4 249.305 12.993 2
-10 -2 -4 246.171 13.954 3
10 2 4 282.744 14.67 1
-10 2 -4 253.535 13.795 2
-10 2 -4 267.597 14.163 3
-11 -2 -4 90.3131 9.1036 3
-11 2 -4 110.276 9.858 3
-11 2 -4 93.468 8.8556 2
-12 -2 -4 1.01115 2.51814 3
-12 2 -4 -2.8836 2.4184 2
-12 2 -4 1.02373 2.49686 3
-13 -2 -4 -0.7617 2.3184 3
-13 2 -4 0.02809 2.78959 2
-13 2 -4 -1.5224 2.6367 3
-14 -2 -4 42.6533 7.2984 3
-14 2 -4 44.0447 6.9752 3
-15 -2 -4 10.0673 4.4573 3
-15 2 -4 5.30143 3.88241 3
-16 -2 -4 59.132 9.0587 3
-16 2 -4 81.9751 10.4472 3
-17 -2 -4 2.25534 3.41645 3
-17 2 -4 0.62605 3.54256 3
-18 -2 -4 0.38404 3.83056 3
-18 2 -4 0.92212 4.01972 3
-19 -2 -4 4.60001 4.68112 3
-19 2 -4 5.35286 5.01206 3
-20 -3 4 37.6499 7.7499 3
-20 3 4 52.9575 9.5077 3
-19 -3 4 15.5045 5.6082 3
-19 3 4 5.71944 4.22819 3
-18 -3 4 11.2966 4.9538 3
18 3 -4 12.5436 6.984 1
-18 3 4 5.38078 4.37815 3
-17 -3 4 6.60878 4.00585 3
17 3 -4 0.87905 4.3918 1
-17 3 4 6.35155 4.03994 3
-16 -3 4 6.40658 3.68207 3
16 3 -4 9.10531 5.63968 1
-16 3 4 3.27456 3.19009 3
15 -3 -4 8.40021 4.78122 1
-15 -3 4 -3.2639 2.3011 3
15 3 -4 -0.0347 4.0158 1
-15 3 4 -1.0495 2.8488 3
14 -3 -4 198.61 14.451 1
-14 -3 4 183.853 12.451 3
-14 3 4 187.988 12.67 3
14 3 -4 187.027 17.207 1
13 -3 -4 -1.3664 3.4972 1
-13 -3 4 6.64804 3.04339 3
13 3 -4 1.98866 3.52626 1
-13 3 4 7.8112 3.26666 3
-12 -3 4 41.9247 5.8514 3
12 -3 -4 41.1639 6.9309 1
-12 3 4 28.635 5.2283 3
-12 3 4 46.3374 5.1901 2
12 3 -4 34.3338 7.0657 1
11 -3 -4 4.12309 3.3595 1
-11 -3 4 4.08408 2.60426 3
-11 3 4 0.86333 2.33368 3
-11 3 4 2.0935 2.10735 2
11 3 -4 0.76052 3.63245 1
-10 -3 4 99.525 7.5135 3
10 -3 -4 100.842 9.946 1
-10 3 4 103.871 7.505 3
-10 3 4 100.952 6.699 2
10 3 -4 125.811 12.042 1
-9 -3 4 19.5001 3.6624 3
9 -3 -4 28.6648 5.2664 1
9 3 -4 25.0125 5.557 1
-9 3 4 21.0132 3.3571 2
-9 3 4 27.5296 3.9945 3
8 -3 -4 342.43 17.298 1
-8 -3 4 333.036 15.294 3
8 3 -4 331.109 18.18 1
-8 3 4 353.159 15.345 3
-8 3 4 323.76 14.564 2
7 -3 -4 7.41938 2.66644 1
-7 -3 4 8.91217 2.28207 3
7 3 -4 5.3167 2.95083 1
-7 3 4 8.57442 2.24937 2
-7 3 4 9.25346 2.32471 3
6 -3 -4 52.1793 6.1186 1
-6 -3 4 52.8894 4.8021 3
-6 3 4 42.5028 4.4345 2
-6 3 4 44.4291 4.4226 3
6 3 -4 46.2954 6.3665 1
6 3 -4 47.6528 2.7163 2
-5 -3 4 39.8537 3.9025 3
5 -3 -4 56.7411 6.1266 1
5 3 -4 41.5649 5.5986 1
-5 3 4 36.5703 3.7689 3
5 3 -4 41.6004 2.7748 2
-5 3 4 40.2885 4.1905 2
-4 -3 4 17.6606 2.5263 3
4 -3 -4 22.5423 3.5313 1
4 3 -4 26.0727 2.6637 2
4 3 -4 18.1222 3.7452 1
-4 3 4 21.234 2.9497 2
3 -3 -4 56.8204 4.4862 1
-3 3 4 64.7847 4.419 2
3 3 -4 65.8346 6.4212 1
3 3 -4 56.4222 3.8902 2
2 -3 -4 106.141 6.192 1
2 3 -4 96.8884 5.6454 2
2 3 -4 101.284 6.934 1
1 -3 -4 830.228 32.986 1
1 3 -4 904.087 31.996 2
1 3 -4 850.466 33.81 1
0 -3 -4 109.981 6.166 1
0 3 -4 97.8047 6.1795 2
0 3 4 104.747 7.338 1
0 3 -4 105.665 6.693 1
-1 3 -4 197.501 9.82 1
-1 3 -4 209.917 10.191 2
1 3 4 198.739 10.912 1
-2 3 -4 2.8329 1.47819 1
-2 3 -4 7.57965 2.21945 2
2 3 4 4.6512 2.21772 1
3 3 4 26.6343 4.1781 1
-3 3 -4 26.5802 3.0679 1
-3 3 -4 28.4768 4.0401 2
4 -3 4 1551.15 56.63 1
-4 3 -4 1612.19 57.67 2
4 3 4 1585.96 60.17 1
5 -3 4 79.7819 4.2719 1
-5 3 -4 68.1386 6.7134 2
5 3 4 71.0535 7.2266 1
6 -3 4 48.7267 3.5078 1
-6 3 -4 42.1342 5.3796 2
-7 -3 -4 101.106 6.83 2
7 3 4 90.2423 8.7035 1
-7 3 -4 108.685 7.733 2
-7 3 -4 100.049 6.691 3
-8 -3 -4 -1.3614 1.4111 2
-8 -3 -4 0.03356 1.81021 3
-8 3 -4 -0.1556 1.8646 2
-8 3 -4 0.84554 1.89274 3
8 3 4 -0.6275 2.3603 1
-9 -3 -4 46.1256 5.427 2
-9 -3 -4 49.4391 6.1048 3
9 3 4 50.4832 6.8965 1
-9 3 -4 49.9669 6.2756 2
-9 3 -4 61.5135 6.7148 3
-10 -3 -4 12.576 3.2704 2
-10 -3 -4 8.92403 3.27087 3
10 3 4 12.5476 4.2929 1
-10 3 -4 8.28797 3.16979 3
-10 3 -4 14.5403 3.8504 2
-11 -3 -4 43.1617 6.4363 3
-11 3 -4 46.477 6.4395 2
-11 3 -4 46.8918 6.4217 3
-12 -3 -4 -3.5762 1.9654 3
-12 3 -4 3.2262 2.87099 3
-12 3 -4 1.00376 2.91323 2
-13 -3 -4 27.5887 5.7193 3
-13 3 -4 31.614 5.7524 2
-13 3 -4 30.1871 5.6501 3
-14 -3 -4 4.07002 3.58985 3
-14 3 -4 8.9844 3.81326 3
-15 -3 -4 15.8403 5.1026 3
-15 3 -4 4.35621 3.7076 3
-16 -3 -4 62.9056 9.1047 3
-16 3 -4 48.2896 8.1837 3
-17 -3 -4 19.2243 5.9939 3
-17 3 -4 15.9717 5.8204 3
-18 -3 -4 -1.2584 3.4387 3
-18 3 -4 2.89414 4.49235 3
-20 -4 4 4.34755 4.15562 3
-20 4 4 10.2026 5.5112 3
-19 -4 4 40.2866 8.2577 3
-19 4 4 47.8764 8.4139 3
19 4 -4 48.7607 11.2565 1
-18 -4 4 39.222 7.3308 3
18 4 -4 21.7601 8.1293 1
-18 4 4 34.2465 7.08 3
-17 -4 4 4.10274 3.71856 3
17 4 -4 -0.2016 4.8386 1
-17 4 4 -1.1462 3.2352 3
-16 -4 4 20.8164 5.2862 3
16 4 -4 7.3651 5.84604 1
-16 4 4 13.4564 4.3976 3
15 -4 -4 22.5798 6.4651 1
-15 -4 4 23.141 5.2167 3
-15 4 4 4.73803 3.67389 3
15 4 -4 5.18543 5.49644 1
-14 -4 4 3.38508 2.82747 3
14 -4 -4 2.23814 3.64992 1
-14 4 4 4.10536 2.89339 3
14 4 -4 -0.8053 3.9622 1
-13 -4 4 -1.2284 2.4522 3
13 -4 -4 1.78667 4.03937 1
13 4 -4 7.48104 5.05988 1
-13 4 4 0.3895 2.49548 2
-13 4 4 1.98369 2.82961 3
-12 -4 4 44.2606 6.2283 3
12 -4 -4 46.6018 7.5088 1
12 4 -4 68.5853 10.0197 1
-12 4 4 69.2674 7.0328 2
-12 4 4 44.591 6.2052 3
11 -4 -4 274.776 16.143 1
-11 -4 4 250.468 14.01 3
-11 4 4 275.273 13.596 2
11 4 -4 264.675 17.283 1
-11 4 4 253.286 13.768 3
10 -4 -4 49.3013 7.2869 1
-10 -4 4 53.391 6.0374 3
-10 4 4 42.3573 5.4558 3
10 4 -4 68.7097 9.3328 1
-10 4 4 52.5255 5.8143 2
-9 -4 4 126.241 8.19 3
9 -4 -4 127.255 9.781 1
-9 4 4 127.768 8.068 2
9 4 -4 127.114 12.471 1
-9 4 4 116.576 7.799 3
-8 -4 4 104.728 6.89 3
8 -4 -4 94.688 9.3376 1
-8 4 4 101.788 6.969 2
-8 4 4 102.632 6.705 3
8 4 -4 94.3494 10.313 1
7 -4 -4 -0.0318 2.162 1
-7 -4 4 0.59843 1.4886 3
7 4 -4 -1.0636 2.0752 1
7 4 -4 -0.5236 0.7867 2
-7 4 4 2.30014 1.68356 2
-7 4 4 0.57801 1.36767 3
6 -4 -4 2.50865 2.09861 1
-6 -4 4 1.45701 1.29461 3
6 4 -4 -0.4034 2.0061 1
-6 4 4 0.8288 1.33498 2
6 4 -4 2.46167 1.18348 2
-6 4 4 0.17862 0.85795 3
5 -4 -4 81.9266 6.3119 1
-5 -4 4 70.1058 4.756 3
5 4 -4 74.1829 4.4252 2
5 4 -4 77.5554 8.4064 1
-5 4 4 69.1856 5.2859 2
4 -4 -4 325.71 14.798 1
-4 -4 4 311.127 12.832 3
4 4 -4 318.696 16.362 1
4 4 -4 308.343 12.816 2
-4 4 4 301.622 13.884 2
3 -4 -4 71.6579 5.4874 1
3 4 -4 75.2577 7.4547 1
-3 4 4 57.0184 5.3921 2
2 -4 -4 123.312 7.451 1
2 4 -4 121.652 6.781 2
2 4 -4 125.386 8.435 1
-2 4 4 110.905 6.796 2
1 -4 -4 3.8739 1.79875 1
1 4 -4 3.3966 2.03501 1
1 4 -4 4.80397 1.81594 2
0 4 4 25.5305 4.4033 1
0 4 -4 16.7879 3.0316 2
0 4 -4 19.8261 3.5681 1
1 4 4 1.01439 1.77126 1
-1 4 -4 2.39473 1.79431 1
-1 4 -4 0.87741 1.50969 2
2 4 4 9.23153 3.12326 1
-2 4 -4 3.12696 1.96491 2
-2 4 -4 7.26219 2.39649 1
-3 4 -4 1488.92 56.01 1
-3 4 -4 1505.92 54.97 2
3 4 4 1505.83 58.37 1
-4 4 -4 80.3905 5.8837 1
-4 4 -4 97.0146 6.9581 2
4 4 4 84.6637 8.39 1
5 -4 4 0.30167 1.12348 1
-5 4 -4 -0.9943 1.4816 2
5 4 4 -2.3887 1.8463 1
6 -4 4 4.07235 1.61193 1
-6 4 -4 -1.0652 1.0919 3
-6 4 -4 5.31652 2.64939 2
6 4 4 4.21413 2.88824 1
7 4 4 305.456 16.615 1
-7 4 -4 289.787 13.735 3
-7 4 -4 294.29 15.245 2
-8 -4 -4 139.159 8.726 3
-8 -4 -4 126.565 8.174 2
-8 4 -4 126.993 9.208 2
-8 4 -4 127.994 8.325 3
8 4 4 125.971 10.104 1
-9 -4 -4 1.8234 2.4798 3
-9 -4 -4 9.9177 2.95216 2
-9 4 -4 5.99477 2.61107 3
9 4 4 9.23225 3.78853 1
-9 4 -4 11.0069 3.5639 2
-10 -4 -4 -2.2843 1.9206 3
-10 4 -4 6.52121 2.89099 3
-10 4 -4 -0.1408 2.3699 2
10 4 4 -0.0307 2.7335 1
-11 -4 -4 101.995 9.753 3
-11 4 -4 84.4995 8.9756 2
11 4 4 83.9962 10.2716 1
-11 4 -4 93.9129 9.0366 3
-12 -4 -4 5.99595 3.33356 3
-12 4 -4 5.44016 3.35529 2
-12 4 -4 4.51797 3.11756 3
-13 -4 -4 -1.7256 2.3045 3
-13 4 -4 1.12114 2.91815 2
-13 4 -4 1.39807 2.96941 3
-14 -4 -4 14.4605 4.7154 3
-14 4 -4 12.4134 4.3304 2
-14 4 -4 9.8252 4.14727 3
-15 -4 -4 34.1596 6.9691 3
-15 4 -4 16.9916 5.3304 3
-16 -4 -4 38.0124 7.488 3
-16 4 -4 20.7123 5.7972 3
-17 -4 -4 1.76856 3.9518 3
-17 4 -4 2.57161 4.21281 3
-18 -4 -4 13.7909 5.3676 3
-18 4 -4 17.3328 6.2354 3
-19 -5 4 7.89964 4.90461 3
-19 5 4 2.12301 4.22746 3
19 5 -4 -4.6167 5.5703 1
-18 -5 4 15.3128 5.2698 3
18 5 -4 26.1562 8.7653 1
-18 5 4 11.8529 4.8062 3
-17 -5 4 7.89405 4.136 3
17 5 -4 -3.6261 5.246 1
-17 5 4 8.71283 4.42651 3
-16 -5 4 3.07848 3.2177 3
-16 5 4 -3.4929 2.8083 3
16 5 -4 8.083 6.07988 1
-15 -5 4 40.7617 6.932 3
-15 5 4 37.8095 6.5427 3
15 5 -4 46.3413 9.7923 1
-14 -5 4 4.63977 3.13064 3
14 -5 -4 4.96829 4.3044 1
14 5 -4 8.52617 5.61029 1
-14 5 4 5.64336 3.1586 2
-14 5 4 1.09828 2.8554 3
13 -5 -4 84.3444 10.4723 1
-13 -5 4 74.3898 8.5933 3
13 5 -4 76.0076 11.5364 1
-13 5 4 81.7735 8.494 2
-13 5 4 79.1332 8.5315 3
-12 -5 4 153.618 10.397 3
12 -5 -4 151.142 13.748 1
-12 5 4 146.622 9.993 3
12 5 -4 125.012 14.419 1
-12 5 4 143.598 10.06 2
11 -5 -4 0.75239 3.40702 1
-11 -5 4 -0.5075 2.2471 3
-11 5 4 0.54547 2.40413 2
11 5 -4 -0.6883 3.0658 1
-11 5 4 0.34538 2.19029 3
-10 -5 4 1.62112 2.38246 3
10 -5 -4 2.00543 3.08048 1
-10 5 4 -1.9548 1.8267 2
-10 5 4 1.80654 2.11709 3
10 5 -4 -2.474 2.7562 1
9 -5 -4 139.573 10.361 1
-9 -5 4 122.244 7.827 3
9 5 -4 131.768 13.334 1
-9 5 4 116.714 8.209 2
-9 5 4 81.4421 6.7046 3
-8 -5 4 11.0235 2.9706 3
8 -5 -4 4.42078 3.00208 1
-8 5 4 5.96608 2.09051 3
-8 5 4 9.16041 2.77772 2
8 5 -4 8.60963 3.94241 1
7 -5 -4 11.9883 3.9002 1
-7 -5 4 8.09522 2.49385 3
7 5 -4 10.0759 1.9642 2
7 5 -4 8.35103 3.92492 1
-7 5 4 11.7084 2.6233 3
-7 5 4 7.94683 2.65753 2
6 -5 -4 313.087 15.899 1
-6 -5 4 337.072 13.824 3
-6 5 4 289.407 14.544 2
6 5 -4 311.974 13.004 2
6 5 -4 298.214 17.462 1
5 -5 -4 64.1336 6.6314 1
-5 -5 4 65.4334 4.6716 3
-5 5 4 71.2254 6.6978 2
5 5 -4 84.4874 9.2277 1
5 5 -4 74.2712 4.805 2
4 -5 -4 16.006 3.2991 1
4 5 -4 14.0325 2.6487 2
-4 5 4 20.9973 3.6723 2
4 5 -4 9.05378 3.41652 1
3 -5 -4 27.7639 4.1007 1
-3 5 4 21.7477 3.7485 2
3 5 -4 15.2188 2.7625 2
3 5 -4 41.277 6.15 1
2 -5 -4 97.524 6.9573 1
2 5 -4 103.623 8.202 1
-2 5 4 93.6419 6.5223 2
2 5 -4 100.532 6.345 2
1 -5 -4 4.48077 2.00427 1
-1 5 4 6.2994 3.08378 1
-1 5 4 2.81773 1.79805 2
1 5 -4 2.56356 1.77632 2
1 5 -4 2.3134 2.2987 1
0 5 4 170.441 11.583 1
0 5 -4 180.357 11.002 1
0 5 -4 188.259 9.989 2
-1 5 -4 49.4376 6.1126 1
-1 5 -4 52.8137 5.7288 2
1 5 4 50.1862 6.8722 1
-2 5 -4 26.756 4.2259 2
-2 5 -4 33.848 4.8496 1
2 5 4 33.3573 5.7919 1
-3 5 -4 99.2366 7.3282 1
3 5 4 107.763 10.402 1
-3 5 -4 96.7879 7.3133 2
-4 5 -4 7.13981 2.74615 1
-4 5 -4 4.99514 2.72239 2
4 5 4 11.4703 3.7316 1
5 -5 4 15.0337 2.6105 1
5 5 4 12.5803 4.0723 1
-5 5 -4 6.85804 2.9195 2
-5 5 -4 9.75297 2.29546 3
6 -5 4 302.938 13.474 1
-6 5 -4 307.07 15.837 2
-6 5 -4 301.202 13.699 3
6 5 4 313.334 17.671 1
-7 -5 -4 0.25866 1.77639 3
-7 5 -4 0.1637 1.78094 3
7 5 4 -2.071 2.9978 1
-7 5 -4 1.28491 2.31743 2
-8 -5 -4 37.9447 5.2045 3
-8 5 -4 56.1313 7.1804 2
8 5 4 45.6983 7.5856 1
-9 -5 -4 171.888 10.736 3
-9 5 -4 175.502 11.596 2
-9 5 -4 167.492 10.216 3
9 5 4 160.365 12.744 1
-10 -5 -4 4.10552 2.91475 3
-10 5 -4 7.3033 3.59153 2
-10 5 -4 4.90474 2.79679 3
10 5 4 8.84386 4.71447 1
-11 -5 -4 18.6676 4.4898 3
11 5 4 25.5874 6.5893 1
-11 5 -4 11.0106 3.7299 3
-11 5 -4 19.2902 5.036 2
-12 -5 -4 142.045 10.966 3
-12 5 -4 156.284 10.926 3
-12 5 -4 158.682 11.521 2
-13 -5 -4 -2.169 2.6983 3
-13 5 -4 0.11968 2.83693 3
-13 5 -4 1.39651 2.83912 2
-14 -5 -4 10.1158 4.2182 3
-14 5 -4 11.1727 4.7098 3
-14 5 -4 2.39133 3.52499 2
-15 -5 -4 7.01712 4.03824 3
-15 5 -4 5.89503 4.24469 3
-16 -5 -4 4.02022 3.97513 3
-16 5 -4 -0.5776 3.5743 3
-17 -5 -4 3.23101 4.37528 3
-17 5 -4 5.35043 4.56243 3
-19 -6 4 5.75062 4.09771 3
19 6 -4 8.28149 8.61374 1
-18 -6 4 34.1296 7.2834 3
18 6 -4 75.6666 13.9747 1
-17 -6 4 -0.3543 3.2443 3
17 6 -4 -4.5836 5.498 1
-16 -6 4 -2.3718 2.878 3
-16 6 4 1.27434 3.60112 3
16 6 -4 3.35426 5.74229 1
-15 -6 4 6.904 3.52443 3
-15 6 4 0.20966 3.09658 3
15 6 -4 6.49621 6.27004 1
-14 -6 4 14.3711 3.9143 3
14 -6 -4 5.98334 4.73228 1
-14 6 4 8.97917 3.90232 3
14 6 -4 1.1917 4.96595 1
-14 6 4 17.6491 4.8615 2
-13 -6 4 6.19402 3.06581 3
13 -6 -4 -2.9421 3.1087 1
-13 6 4 3.37144 2.93299 3
13 6 -4 0.13319 4.50691 1
-13 6 4 -3.1731 2.3477 2
12 -6 -4 36.8327 7.3136 1
-12 -6 4 18.3871 4.2954 3
-12 6 4 34.8909 5.5264 3
-12 6 4 35.1442 5.9541 2
12 6 -4 33.3685 7.9955 1
-11 -6 4 3.76784 2.6787 3
11 -6 -4 -1.3671 3.2098 1
11 6 -4 2.69451 4.03192 1
-11 6 4 2.46612 2.78089 2
-11 6 4 -1.7893 1.5942 3
-10 -6 4 50.8664 6.1305 3
10 -6 -4 33.6784 6.8685 1
-10 6 4 55.4492 6.8925 2
-10 6 4 45.6352 5.6356 3
10 6 -4 50.1739 9.0343 1
9 -6 -4 2.82473 3.33129 1
-9 -6 4 10.9091 3.0956 3
-9 6 4 9.71066 2.95682 3
-9 6 4 8.70667 3.34654 2
9 6 -4 6.19364 4.31356 1
8 -6 -4 118.359 11.826 1
-8 -6 4 125.905 7.982 3
-8 6 4 140.966 9.223 2
-8 6 4 131.737 7.896 3
8 6 -4 136.835 13.882 1
-7 -6 4 0.13408 1.59807 3
7 -6 -4 2.12681 2.77613 1
-7 6 4 -1.4693 1.7105 2
7 6 -4 0.91444 3.20134 1
6 -6 -4 162.421 10.495 1
-6 -6 4 168.878 8.568 3
-6 6 4 151.719 9.725 2
6 6 -4 151.546 14.337 1
6 6 -4 166.654 8.471 2
-5 -6 4 3.51378 1.69281 3
5 -6 -4 2.83336 2.30377 1
-5 6 4 1.40875 1.68491 2
5 6 -4 3.80479 1.84876 2
5 6 -4 -1.5413 2.3453 1
4 -6 -4 72.5112 7.3214 1
-4 6 4 67.108 6.8273 2
4 6 -4 74.9027 9.2049 1
3 -6 -4 108.139 8.125 1
3 6 -4 104.951 10.763 1
-3 6 4 121.771 7.966 2
3 6 -4 121.346 7.482 2
2 -6 -4 277.155 14.106 1
2 6 -4 264.687 12.997 2
2 6 -4 251.428 15.326 1
-2 6 4 268.355 13.41 2
1 6 -4 1.97281 2.78411 1
-1 6 4 3.26868 2.55576 1
-1 6 4 1.44308 1.86221 2
1 6 -4 -0.1367 1.7001 2
0 6 -4 230.272 13.773 1
0 6 -4 220.937 11.89 2
0 6 4 226.514 14.447 1
-1 6 -4 4.32087 2.87835 1
1 6 4 4.03322 2.9426 1
-1 6 -4 1.34495 1.9011 2
2 6 4 673.357 31.223 1
-2 6 -4 690.788 28.085 2
-2 6 -4 657.538 29.486 1
3 6 4 25.5516 5.8113 1
-3 6 -4 34.6815 5.1695 2
-3 6 -4 39.48 5.7132 1
-4 6 -4 159.224 10.676 1
4 6 4 199.308 13.295 1
-4 6 -4 162.604 10.666 2
5 -6 4 75.4723 5.6847 1
5 6 4 73.5181 9.4524 1
-5 6 -4 71.0126 7.761 2
-6 -6 -4 39.1523 4.6221 3
6 6 4 23.3507 6.0723 1
-6 6 -4 37.5379 4.3595 3
-6 6 -4 30.9838 5.4052 2
-7 -6 -4 18.6393 3.7103 3
-7 6 -4 23.6988 3.786 3
7 6 4 8.99619 4.49122 1
-7 6 -4 22.9658 4.6852 2
-8 -6 -4 237.486 12.581 3
-8 6 -4 215.763 11.619 3
-8 6 -4 216.013 13.446 2
8 6 4 206.447 15.359 1
-9 -6 -4 2.63371 2.94186 3
-9 6 -4 0.61193 2.41667 3
9 6 4 -1.1931 3.2998 1
-9 6 -4 -0.4158 2.3915 2
-10 -6 -4 3.17254 2.63389 3
10 6 4 1.1675 4.09326 1
-10 6 -4 1.27724 3.21454 2
-11 -6 -4 55.3264 7.1944 3
11 6 4 61.2537 9.9601 1
-11 6 -4 54.6305 7.672 2
-12 -6 -4 18.6063 4.8595 3
12 6 4 33.0674 7.9405 1
-12 6 -4 10.3989 4.426 2
-13 -6 -4 -0.7043 3.0573 3
-13 6 -4 3.09421 3.50531 2
-14 -6 -4 14.0865 4.6383 3
-14 6 -4 16.7736 5.2437 2
-15 -6 -4 -2.0848 2.6662 3
-15 6 -4 -1.2056 3.4045 2
-16 -6 -4 5.51834 4.43123 3
-17 -6 -4 -3.6354 3.6655 3
18 7 -4 15.5198 9.3126 1
17 7 -4 2.62771 7.12925 1
16 7 -4 21.9889 8.1147 1
-15 -7 4 11.9714 4.2134 3
15 7 -4 7.16232 6.40127 1
-15 7 4 9.14287 4.44427 2
14 7 -4 133.715 17.115 1
-14 7 4 149.567 13.32 2
-13 -7 4 8.85992 3.54944 3
13 -7 -4 6.01104 4.78874 1
-13 7 4 9.44199 4.15813 2
13 7 -4 21.8264 7.2462 1
12 -7 -4 168.498 15.582 1
12 7 -4 156.337 17.6 1
-12 7 4 164.381 11.792 2
11 -7 -4 1.23865 3.84924 1
-11 7 4 1.14369 3.0501 2
11 7 -4 3.15808 4.40714 1
10 -7 -4 7.25543 4.32799 1
10 7 -4 6.13886 4.86217 1
-10 7 4 0.41831 3.20402 2
9 -7 -4 32.8158 6.8511 1
-9 7 4 30.8913 5.5122 2
9 7 -4 24.8535 6.6353 1
8 -7 -4 9.5133 4.1823 1
-8 7 4 7.81229 3.27074 2
8 7 -4 9.54175 4.53966 1
7 -7 -4 -1.1571 2.2417 1
7 7 -4 -0.7422 3.375 1
-7 7 4 1.5866 2.23738 2
6 -7 -4 67.6035 7.9032 1
6 7 -4 72.6628 6.4636 2
6 7 -4 65.4636 9.8499 1
-6 7 4 77.3208 8.0229 2
5 -7 -4 8.02355 3.18777 1
-5 7 4 5.58442 2.68663 2
5 7 -4 8.95481 2.5208 2
5 7 -4 13.2992 4.9593 1
4 -7 -4 10.6382 3.5118 1
-4 7 4 11.8911 3.257 2
4 7 -4 12.334 4.3324 1
4 7 -4 4.49451 1.92692 2
3 -7 -4 28.4337 4.8401 1
-3 7 4 21.7098 4.1463 2
3 7 -4 22.7094 3.9219 2
3 7 -4 25.196 5.8971 1
2 -7 -4 304.036 16.07 1
2 7 -4 312.003 15.042 2
-2 7 4 297.886 15.336 2
2 7 -4 298.156 17.87 1
1 7 -4 -1.495 2.517 1
1 7 -4 -0.3328 1.6595 2
-1 7 4 1.71953 3.0532 1
-1 7 4 -0.1404 1.951 2
0 7 -4 59.7475 6.621 2
0 7 4 43.8532 5.7204 2
0 7 4 51.6295 8.3593 1
0 7 -4 57.8057 8.0162 1
-1 7 -4 25.4654 4.5969 2
1 7 4 29.8256 6.4132 1
-1 7 -4 39.4273 6.5415 1
-2 7 -4 288.142 16.929 1
2 7 4 305.329 18.614 1
-2 7 -4 314.899 15.957 2
-3 7 -4 156.221 11.177 1
-3 7 -4 161.337 10.582 2
3 7 4 134.794 14.072 1
-4 7 -4 89.3185 9.3734 1
-4 7 -4 88.7008 8.9172 2
4 7 4 69.6478 10.1333 1
-5 -7 -4 52.6079 5.2847 3
5 -7 4 47.5044 5.6713 1
-5 7 -4 56.7068 7.4642 2
5 7 4 52.3519 8.8129 1
-6 -7 -4 2.94303 2.27083 3
-6 7 -4 1.48486 2.60436 2
6 7 4 7.69881 4.42266 1
-7 -7 -4 96.3694 7.244 3
-7 7 -4 81.6662 9.4099 2
7 7 4 113.039 12.885 1
-8 -7 -4 16.4996 3.8718 3
8 7 4 22.3443 6.6011 1
-8 7 -4 15.242 4.5743 2
-9 -7 -4 79.7755 7.9909 3
-9 7 -4 66.4407 8.6855 2
9 7 4 83.0536 11.565 1
-10 -7 -4 17.3972 4.2741 3
-10 7 -4 16.5134 5.0218 2
10 7 4 20.9519 6.9271 1
-11 -7 -4 9.19452 3.67861 3
11 7 4 11.0983 5.8327 1
-11 7 -4 27.4658 5.9506 2
-12 -7 -4 9.50395 3.88727 3
-12 7 -4 0.92201 3.60831 2
12 7 4 3.8663 5.19056 1
-13 -7 -4 2.1957 3.10775 3
-13 7 -4 -2.8837 3.1195 2
-14 -7 -4 7.44367 4.04606 3
-14 7 -4 3.81454 4.28524 2
-15 -7 -4 4.38425 4.43552 3
-15 7 -4 1.23677 3.98825 2
-16 -7 -4 1.62609 4.24683 3
17 8 -4 -5.1486 6.9865 1
16 8 -4 3.93996 7.00925 1
15 8 -4 -2.3757 6.1367 1
-15 8 4 -0.8992 3.2568 2
14 8 -4 0.0355 5.43348 1
-14 8 4 24.2182 5.8653 2
13 -8 -4 8.20018 5.21749 1
13 8 -4 14.726 7.1709 1
-13 8 4 9.44101 4.13114 2
12 -8 -4 8.55767 5.05243 1
-12 8 4 3.60563 3.66913 2
12 8 -4 3.92967 5.39263 1
11 -8 -4 6.39442 4.4072 1
-11 8 4 1.65367 3.16528 2
11 8 -4 8.82906 6.12334 1
10 -8 -4 122.981 13.369 1
10 8 -4 110.954 14.608 1
-10 8 4 107.911 11.093 2
9 -8 -4 2.64406 4.12189 1
9 8 -4 -1.5091 4.2067 1
-9 8 4 12.2076 4.2853 2
8 -8 -4 489.492 24.549 1
-8 8 4 483.652 23.433 2
8 8 -4 484.088 28.116 1
7 -8 -4 8.90433 3.50801 1
7 8 -4 13.4461 5.3609 1
-7 8 4 7.08916 3.32602 2
6 -8 -4 30.6063 5.6079 1
-6 8 4 32.9115 5.539 2
6 8 -4 31.1434 7.3277 1
5 -8 -4 85.5822 9.0455 1
-5 8 4 73.1633 8.3838 2
5 8 -4 68.045 9.983 1
5 8 -4 68.8357 7.0508 2
4 -8 -4 54.4685 7.2147 1
4 8 -4 51.3074 8.822 1
4 8 -4 58.2274 6.4564 2
-4 8 4 53.7486 6.9826 2
3 -8 -4 4.43219 2.66943 1
3 8 -4 14.6276 5.1527 1
3 8 -4 4.08661 2.68724 2
-3 8 4 6.40497 2.96209 2
2 -8 -4 75.2185 8.3817 1
2 8 -4 79.3403 10.4737 1
-2 8 4 60.5319 7.3107 2
2 8 -4 83.4507 7.9796 2
-1 8 4 14.8676 5.238 1
1 8 -4 15.5356 5.0347 1
-1 8 4 19.5426 4.2904 2
1 8 -4 18.5083 4.1827 2
0 8 -4 13.1613 4.752 1
0 8 4 7.04493 4.20268 1
0 8 4 10.8775 3.5247 2
0 8 -4 7.99433 3.0972 2
1 8 4 -1.5697 3.0644 1
-1 8 -4 0.78839 2.24741 2
-1 8 -4 -2.599 2.8676 1
-2 8 -4 326.83 18.769 1
2 8 4 329.852 20.352 1
-2 8 -4 300.245 16.799 2
-3 8 -4 274.734 16.813 1
3 8 4 259.145 18.407 1
-3 8 -4 285.066 15.942 2
4 8 4 764.796 36.607 1
-4 8 -4 750.108 34.006 1
-4 8 -4 698.318 32.054 2
5 -8 4 82.1812 8.0497 1
5 8 4 94.0557 12.4092 1
-5 8 -4 79.7242 9.0961 2
-6 8 -4 150.733 11.503 2
6 8 4 135.379 15.224 1
7 8 4 2.07053 4.52528 1
-7 8 -4 5.85968 3.85677 2
-8 8 -4 32.1007 6.3827 2
8 8 4 26.3601 7.2074 1
9 8 4 16.0311 6.2438 1
-9 8 -4 9.66203 4.40406 2
-10 8 -4 5.88343 4.20815 2
10 8 4 1.54039 4.91746 1
-11 8 -4 -3.0363 3.2811 2
11 8 4 1.69848 5.47552 1
-12 8 -4 5.69753 4.62057 2
12 8 4 1.70991 5.44121 1
13 8 4 5.75489 6.38918 1
-13 8 -4 5.50097 4.25724 2
-14 8 -4 0.75488 3.90465 2
-15 8 -4 5.6517 4.57615 2
16 9 -4 6.82838 8.14291 1
-15 9 4 3.96593 4.34314 2
15 9 -4 -1.8368 5.9966 1
14 9 -4 28.8616 9.7204 1
-14 9 4 41.9994 7.7656 2
-13 9 4 -0.5875 3.4696 2
13 9 -4 2.09328 5.73073 1
12 -9 -4 29.2496 7.7332 1
-12 9 4 30.5061 6.549 2
12 9 -4 25.0122 8.8758 1
11 -9 -4 7.35114 5.2785 1
-11 9 4 7.32092 3.90489 2
11 9 -4 -2.8891 4.598 1
10 -9 -4 -0.7655 3.7938 1
-10 9 4 2.82677 3.29204 2
10 9 -4 -2.71 4.5507 1
9 -9 -4 1.10207 4.09167 1
-9 9 4 8.63752 3.87225 2
9 9 -4 -4.1987 4.1106 1
8 -9 -4 22.0046 5.6294 1
8 9 -4 24.0796 7.6302 1
-8 9 4 24.4563 5.2366 2
7 -9 -4 68.9234 8.8326 1
7 9 -4 67.9501 11.1253 1
-7 9 4 64.2551 8.5276 2
6 -9 -4 0.35068 2.6988 1
-6 9 4 -0.1453 2.3703 2
6 9 -4 4.51165 4.16087 1
5 -9 -4 26.95 5.5755 1
5 9 -4 0.94596 2.20742 2
5 9 -4 16.7871 6.2694 1
-5 9 4 13.2982 4.074 2
4 -9 -4 2.29661 3.11598 1
4 9 -4 5.58332 2.85136 2
4 9 -4 5.2214 4.13832 1
-4 9 4 5.3693 3.06637 2
3 -9 -4 -1.3878 2.2861 1
3 9 -4 4.4159 4.31229 1
3 9 -4 -0.5671 2.2675 2
-3 9 4 1.41007 2.48604 2
2 -9 -4 21.1043 4.9296 1
2 9 -4 8.31377 3.31206 2
-2 9 4 12.8243 4.0398 2
2 9 -4 3.9669 3.80954 1
-1 9 4 2.8121 2.46026 2
-1 9 4 0.61427 3.35071 1
1 9 -4 3.54116 2.99358 2
1 9 -4 1.13315 3.3932 1
0 9 -4 -0.6273 3.2863 1
0 9 4 -0.2657 2.2477 2
0 9 4 -1.9607 3.4597 1
0 9 -4 1.09589 2.79684 2
-1 9 -4 13.8768 5.3108 1
1 9 4 30.6495 7.4447 1
-1 9 -4 25.3174 5.33 2
2 9 4 71.6906 11.224 1
-2 9 -4 54.5694 8.8018 1
-2 9 -4 58.4361 7.6574 2
-3 9 -4 27.2279 6.4541 1
3 9 4 14.1304 5.5257 1
-3 9 -4 15.8259 4.4801 2
-4 9 -4 22.2607 5.8713 1
-4 9 -4 17.7134 5.1131 2
4 9 4 33.1329 7.8247 1
-5 9 -4 27.6463 6.0319 2
5 9 4 28.9864 7.987 1
6 9 4 35.8223 8.4559 1
-6 9 -4 44.9902 7.5259 2
7 9 4 9.34144 6.0499 1
-7 9 -4 12.5948 4.7502 2
8 9 4 23.9016 7.7927 1
-8 9 -4 37.9456 7.1431 2
9 9 4 0.97373 5.19442 1
-9 9 -4 -0.6814 3.3807 2
10 9 4 -2.2962 5.2994 1
-10 9 -4 -2.7291 2.6514 2
11 9 4 -3.2971 5.2557 1
-11 9 -4 3.48538 4.25915 2
-12 9 -4 58.9138 9.4985 2
12 9 4 39.9132 10.2398 1
13 9 4 1.91735 6.36094 1
-13 9 -4 -0.9191 3.9848 2
-14 9 -4 2.51058 4.46547 2
-14 10 4 0.36728 3.96736 2
14 10 -4 2.31313 7.18498 1
-13 10 4 -1.6159 3.4618 2
13 10 -4 0.07702 6.65962 1
12 10 -4 0.42148 6.30112 1
-12 10 4 1.9196 3.55311 2
11 -10 -4 23.9786 7.4582 1
11 10 -4 44.966 10.7989 1
-11 10 4 23.0421 6.1583 2
10 -10 -4 2.71708 4.52606 1
10 10 -4 -0.2944 5.2536 1
-10 10 4 -0.518 3.1561 2
9 -10 -4 0.94835 3.41815 1
-9 10 4 1.57308 2.94349 2
9 10 -4 14.8534 6.6097 1
8 -10 -4 18.5002 5.4788 1
8 10 -4 3.8032 5.2069 1
-8 10 4 23.2798 5.613 2
7 -10 -4 6.45703 3.95744 1
7 10 -4 10.85 5.4709 1
-7 10 4 7.81617 4.06767 2
6 -10 -4 -1.4659 2.73 1
6 10 -4 1.8874 4.15564 1
-6 10 4 -0.7592 2.4362 2
5 -10 -4 62.369 8.6008 1
5 10 -4 59.4601 10.6733 1
-5 10 4 57.0929 8.0256 2
4 -10 -4 37.1323 6.7302 1
4 10 -4 43.9551 6.3468 2
-4 10 4 21.7377 5.3094 2
4 10 -4 28.6436 7.7299 1
3 -10 -4 190.494 13.636 1
-3 10 4 215.296 13.954 2
3 10 -4 189.599 18.395 1
3 10 -4 211.651 13.07 2
2 -10 -4 16.5683 4.8129 1
2 10 -4 23.9085 5.1 2
2 10 -4 25.8901 7.0397 1
-2 10 4 20.1326 4.894 2
1 -10 -4 16.5623 5.0818 1
-1 10 4 19.0665 5.0301 2
1 10 -4 16.1401 4.2507 2
1 10 -4 15.7543 5.7638 1
-1 10 4 19.57 6.4709 1
0 10 -4 1.44441 3.05639 2
0 10 -4 -1.8467 3.6419 1
0 10 4 -1.755 2.3001 2
0 10 4 0.09157 3.42278 1
-1 10 -4 -0.8325 2.8672 2
-1 10 -4 -2.3503 3.2876 1
1 10 4 4.51983 4.17357 1
2 10 4 10.1488 5.9247 1
-2 10 -4 -3.0225 3.582 1
-2 10 -4 10.9626 4.2076 2
3 10 4 2.47014 4.90283 1
-3 10 -4 7.17931 4.71371 1
-3 10 -4 9.41864 4.27468 2
-4 10 -4 7.51602 3.95464 2
-4 10 -4 15.0671 5.5462 1
4 10 4 2.56325 4.71232 1
-5 10 -4 7.64568 3.90316 2
5 10 4 7.45315 5.92377 1
6 10 4 38.5133 9.7871 1
-6 10 -4 19.6531 5.7572 2
7 10 4 -3.7647 4.0305 1
-7 10 -4 7.20042 4.0035 2
8 10 4 73.716 13.0961 1
-8 10 -4 77.7177 10.4746 2
-9 10 -4 4.5749 4.4597 2
9 10 4 9.44651 6.73117 1
10 10 4 20.7656 8.7327 1
-10 10 -4 31.772 6.9985 2
11 10 4 19.8877 8.404 1
-11 10 -4 52.5488 9.0864 2
-12 10 -4 3.09472 4.25785 2
12 10 4 9.19516 7.49858 1
-13 10 -4 31.819 7.7196 2
-13 11 4 1.16877 4.42988 2
-12 11 4 7.72124 4.81285 2
12 11 -4 5.71788 6.53044 1
11 -11 -4 -2.2426 5.5052 1
11 11 -4 4.62695 5.69631 1
-11 11 4 -0.9086 3.568 2
10 -11 -4 7.97516 6.49377 1
-10 11 4 1.56656 3.66336 2
10 11 -4 7.63343 6.8562 1
9 -11 -4 24.6427 6.7334 1
-9 11 4 25.6507 6.2889 2
9 11 -4 8.33074 6.61953 1
8 -11 -4 1.67989 3.91312 1
8 11 -4 -3.0543 4.6717 1
-8 11 4 -2.0855 2.6038 2
7 -11 -4 -1.5666 2.8286 1
7 11 -4 5.40461 4.9636 1
-7 11 4 6.83202 4.02299 2
6 -11 -4 -1.8554 3.5231 1
-6 11 4 -0.9936 2.5454 2
6 11 -4 2.04257 4.18297 1
5 -11 -4 5.16118 3.98558 1
5 11 -4 11.1042 5.6146 1
-5 11 4 11.0883 4.2282 2
4 -11 -4 7.92105 4.34666 1
-4 11 4 5.93578 4.22845 2
4 11 -4 2.97079 4.26052 1
3 -11 -4 -1.123 3.078 1
3 11 -4 5.35872 4.39958 1
-3 11 4 3.16585 3.2514 2
3 11 -4 6.68675 3.78199 2
2 -11 -4 2.84689 3.71335 1
2 11 -4 6.97387 5.43703 1
2 11 -4 12.5513 4.399 2
-2 11 4 8.16437 4.1063 2
1 -11 -4 -0.8445 2.9286 1
1 11 -4 1.15142 2.71815 2
1 11 -4 -1.0636 3.5085 1
-1 11 4 1.59637 2.92353 2
0 11 -4 0.62537 3.02443 2
0 11 4 2.40675 5.08141 1
0 11 -4 -2.8136 3.7142 1
-1 11 -4 41.5377 8.9173 1
-1 11 -4 37.0041 6.8333 2
1 11 4 23.0138 7.6271 1
2 11 4 38.5463 9.4858 1
-2 11 -4 60.0608 10.0108 1
-2 11 -4 36.2016 7.2468 2
3 11 4 13.8897 6.6054 1
-3 11 -4 19.388 5.8308 2
-3 11 -4 8.45865 5.422 1
-4 11 -4 71.6693 9.9668 2
4 11 4 82.3086 13.3682 1
-5 11 -4 9.1698 4.51741 2
5 11 4 3.60625 5.77906 1
-6 11 -4 5.99009 4.2027 2
6 11 4 0.45654 4.88438 1
-7 11 -4 3.36523 3.64358 2
7 11 4 -4.3648 5.4421 1
-8 11 -4 3.89731 4.19102 2
8 11 4 5.54313 6.93349 1
-9 11 -4 5.09191 4.33535 2
9 11 4 7.05207 7.74085 1
10 11 4 -7.4784 6.0363 1
-10 11 -4 -0.0821 4.1292 2
-11 11 -4 1.10476 4.39308 2
11 11 4 4.1235 7.45375 1
10 -12 -4 15.7091 7.4252 1
-10 12 4 13.951 5.1088 2
10 12 -4 16.1189 7.3099 1
9 -12 -4 4.24301 5.58598 1
9 12 -4 0.09507 6.04423 1
-9 12 4 5.50785 4.65849 2
8 -12 -4 -0.0861 4.3012 1
8 12 -4 -3.0806 4.8133 1
-8 12 4 10.7712 4.9221 2
7 -12 -4 23.3651 6.7562 1
-7 12 4 34.2941 7.0384 2
7 12 -4 34.9516 9.3545 1
6 -12 -4 3.85223 4.4254 1
6 12 -4 10.7795 6.4536 1
-6 12 4 0.31099 3.14937 2
5 -12 -4 38.1142 7.736 1
5 12 -4 45.2206 10.2666 1
-5 12 4 44.2546 7.9389 2
4 -12 -4 0.36793 3.97245 1
-4 12 4 -1.0227 3.233 2
4 12 -4 1.40619 5.04737 1
3 -12 -4 7.17916 4.48543 1
-3 12 4 8.58615 4.31364 2
3 12 -4 5.77725 5.55932 1
3 12 -4 1.21639 3.63314 2
2 -12 -4 5.33486 4.30032 1
2 12 -4 2.02301 4.99939 1
2 12 -4 9.31602 4.45689 2
-2 12 4 7.71123 4.16762 2
1 -12 -4 16.4083 5.8869 1
1 12 -4 33.3725 6.8716 2
1 12 -4 22.9735 7.5404 1
0 -12 -4 25.834 6.4491 1
0 12 -4 18.8837 7.2052 1
0 12 4 24.161 8.0611 1
0 12 -4 35.2588 7.3758 2
-1 12 -4 3.28897 5.05684 1
-1 12 -4 1.72442 3.36682 2
1 12 4 0.82104 4.63099 1
-2 12 -4 16.7319 5.6313 2
-2 12 -4 9.36031 5.77981 1
2 12 4 17.3521 7.3279 1
-3 12 -4 9.33608 6.01125 1
-3 12 -4 -0.0196 3.5014 2
3 12 4 9.97835 6.67972 1
4 12 4 -3.9179 4.7647 1
-4 12 -4 14.4443 5.2889 2
-5 12 -4 38.1076 8.0579 2
5 12 4 58.5428 12.369 1
-6 12 -4 2.83407 4.76007 2
6 12 4 -3.977 6.17 1
-7 12 -4 32.0776 8.0145 2
7 12 4 32.8509 10.6069 1
-8 12 -4 8.11593 5.12818 2
8 12 4 10.1857 7.5787 1
-7 13 4 0.859 4.21256 2
6 -13 -4 -0.8745 4.6129 1
6 13 -4 3.67473 5.73398 1
-6 13 4 3.41125 4.64202 2
5 -13 -4 13.0981 5.9251 1
-5 13 4 19.7096 6.4162 2
5 13 -4 17.9018 8.2391 1
4 -13 -4 1.38143 4.58221 1
-4 13 4 -3.1877 3.4824 2
4 13 -4 -0.9511 5.1857 1
3 -13 -4 -1.7875 4.2624 1
3 13 -4 0.20092 4.91402 1
-3 13 4 -0.0706 3.355 2
2 -13 -4 0.47029 3.90316 1
2 13 -4 3.72479 5.68464 1
-2 13 4 2.6216 3.96777 2
2 13 -4 -1.5353 3.6234 2
1 -13 -4 2.37689 4.27287 1
1 13 -4 8.04274 4.46676 2
1 13 -4 6.00338 5.89393 1
0 -13 -4 14.5246 6.0621 1
0 13 -4 14.3613 6.5815 1
0 13 -4 10.7478 5.4698 2
-1 -13 -4 4.02491 4.66206 1
-1 13 -4 0.90776 5.85353 1
1 13 4 7.94835 6.19987 1
-1 13 -4 24.6394 6.5826 2
2 13 4 0.79877 5.73154 1
-2 13 -4 -4.2763 4.4495 1
-2 13 -4 -2.3839 3.8192 2
3 13 4 6.76749 6.58487 1
-3 13 -4 4.70782 5.02541 2
-4 13 -4 79.6717 11.3627 2
4 13 4 84.4202 15.0965 1
-5 13 -4 1.9451 3.89549 2
5 13 4 2.60079 7.00669 1
-21 0 5 7.85581 5.07118 3
-20 0 5 14.8893 5.883 3
-19 0 5 4.03303 4.03481 3
18 0 -5 -2.7076 4.4717 1
-18 0 5 -5.9297 2.5383 3
-17 0 5 -2.8965 2.6568 3
17 0 -5 -3.4814 3.784 1
-16 0 5 1.53654 2.82762 3
16 0 -5 11.2453 5.0831 1
-15 0 5 -2.3324 2.5143 3
15 0 -5 0.61001 3.77063 1
14 0 -5 24.156 6.019 1
-14 0 5 18.7474 4.7444 3
13 0 -5 -0.0411 3.1983 1
-13 0 5 1.01658 2.17053 3
12 0 -5 120.494 11.934 1
-12 0 5 107.674 9.567 3
11 0 -5 -4.3934 2.1324 1
-11 0 5 -0.6145 1.5852 3
-10 0 5 94.7307 7.1568 3
10 0 -5 109.712 10.47 1
-9 0 5 -2.4403 1.4129 3
9 0 -5 2.3388 2.38043 1
8 0 -5 2752.29 102.01 1
-8 0 5 2727.35 95.83 3
7 0 -5 0.3745 2.07162 1
-7 0 5 -1.515 1.209 3
-6 0 5 271.416 12.37 3
6 0 -5 276.091 14.106 1
-5 0 5 -0.1053 1.0695 3
5 0 -5 0.13996 1.42574 1
4 0 -5 17.2269 3.2607 1
3 0 -5 0.73547 1.52804 1
2 0 -5 1465.07 54.24 1
1 0 -5 -1.4577 1.0312 2
1 0 -5 -1.5945 0.9861 1
0 0 -5 2.13687 1.22895 1
0 0 -5 3.46881 1.45954 2
-1 0 -5 -0.5121 0.8086 1
-1 0 -5 0.93326 1.09224 2
-2 0 -5 763.069 29.129 2
-2 0 -5 768.614 28.124 1
-3 0 -5 -0.2244 1.1835 2
-4 0 -5 10.9763 2.4967 2
5 0 5 -0.0246 0.8552 1
-5 0 -5 -0.8339 1.3838 2
-6 0 -5 220.383 11.341 2
6 0 5 205.98 9.013 1
-7 0 -5 0.81174 1.86703 2
7 0 5 0.65427 1.25132 1
-8 0 -5 4.53898 2.24 2
-9 0 -5 -1.6169 1.7269 2
-10 0 -5 127.145 8.811 2
-10 0 -5 112.086 8.683 3
-11 0 -5 0.62908 2.64794 3
-11 0 -5 0.20289 2.5763 2
-12 0 -5 249.836 13.949 2
-12 0 -5 244.39 14.804 3
-13 0 -5 -4.6908 2.2255 3
-15 0 -5 -3.6298 2.8059 3
-16 0 -5 -0.3203 3.2387 3
-17 0 -5 5.38844 4.12499 3
-18 0 -5 31.0202 7.4571 3
-19 0 -5 -6.3402 3.7016 3
-21 -1 5 13.1127 5.3449 3
-21 1 5 9.75785 5.182 3
-20 -1 5 6.73919 4.32579 3
-20 1 5 3.80406 3.68964 3
-19 -1 5 10.6399 4.4752 3
-19 1 5 3.43928 4.22838 3
-18 -1 5 35.2114 7.0977 3
18 1 -5 49.2336 9.9077 1
-18 1 5 30.9965 6.9657 3
17 -1 -5 25.4554 6.9126 1
-17 -1 5 9.64359 4.13599 3
17 1 -5 16.3809 5.9202 1
-17 1 5 19.7972 5.3896 3
16 -1 -5 -0.1196 3.7751 1
-16 -1 5 -2.0546 2.5581 3
16 1 -5 -6.2998 2.9972 1
-16 1 5 1.11589 3.03046 3
-15 -1 5 55.8105 7.8186 3
15 -1 -5 77.2369 10.2928 1
15 1 -5 90.3145 11.4084 1
-15 1 5 54.8475 7.6515 3
-14 -1 5 64.7674 7.9937 3
14 -1 -5 68.5974 9.3522 1
-14 1 5 63.8942 7.8477 3
14 1 -5 55.6296 8.5416 1
13 -1 -5 53.8329 8.1621 1
-13 -1 5 34.2496 5.6361 3
-13 1 5 41.8587 6.1631 3
13 1 -5 66.3541 9.3215 1
-12 -1 5 290.378 15.613 3
12 -1 -5 290.439 17.335 1
-12 1 5 291.803 15.55 3
12 1 -5 326.824 18.387 1
11 -1 -5 17.5351 4.6533 1
-11 -1 5 20.7751 4.0787 3
11 1 -5 18.8867 4.868 1
-11 1 5 18.52 3.7955 3
10 -1 -5 6.61052 3.22255 1
-10 -1 5 5.29794 2.41508 3
10 1 -5 8.48067 3.65508 1
-10 1 5 9.84147 2.82058 3
9 -1 -5 5.6713 2.96302 1
-9 -1 5 1.40798 1.77817 3
-9 1 5 8.25988 2.39643 3
9 1 -5 6.68009 3.25252 1
8 -1 -5 44.4056 6.0547 1
-8 -1 5 33.6405 4.2596 3
-8 1 5 35.8631 4.4267 3
8 1 -5 32.5869 2.3029 2
8 1 -5 38.8166 6.0612 1
-7 -1 5 834.2 31.52 3
7 -1 -5 795.137 34.074 1
-7 1 5 804.344 31.388 3
7 1 -5 846.336 29.064 2
7 1 -5 848.13 34.703 1
6 -1 -5 977.93 38.301 1
-6 -1 5 950.926 35.257 3
-6 1 5 920.985 35.109 3
6 1 -5 954.223 33.389 2
6 1 -5 949.523 38.416 1
5 -1 -5 191.129 10.403 1
-5 -1 5 177.407 8.848 3
5 1 -5 187.315 10.454 1
5 1 -5 181.357 7.87 2
-5 1 5 183.349 8.899 3
4 -1 -5 289.943 14.244 1
4 1 -5 312.757 14.494 1
4 1 -5 306.29 12.214 2
3 -1 -5 46.0025 4.7467 1
3 1 -5 52.8812 5.1765 1
2 -1 -5 758.402 30.475 1
2 1 -5 807.883 28.885 2
2 1 -5 780.454 30.438 1
1 -1 -5 2086.28 76.09 1
1 1 -5 2037.27 75.72 1
1 1 -5 2152.21 72.95 2
0 -1 -5 2909.82 107.49 1
0 1 -5 3070.5 103.9 2
0 1 -5 3052.23 107.36 1
-1 -1 -5 86.6558 4.6989 1
-1 1 -5 87.2174 5.8054 2
-1 1 -5 95.5843 4.6929 1
-2 -1 -5 664.959 25.495 1
-2 -1 -5 708.11 26.437 2
-3 -1 -5 252.295 11.826 2
3 1 5 256.75 11.205 1
-3 1 -5 244.762 12.089 2
-4 -1 -5 35.3321 4.2278 2
-4 1 -5 34.3233 4.4746 2
4 1 5 33.4984 3.462 1
-5 -1 -5 15.3269 3.0136 2
5 1 5 15.2536 2.5148 1
-5 1 -5 13.4502 2.8988 2
-6 -1 -5 25.8814 3.9671 2
-6 1 -5 31.64 4.5348 2
6 1 5 24.2116 3.246 1
-7 -1 -5 0.55575 1.60908 2
7 1 5 0.50527 1.66209 1
-7 1 -5 3.08679 2.14307 2
-8 -1 -5 274.716 14.022 2
8 1 5 298.148 13.576 1
-8 1 -5 279.839 14.49 2
-9 -1 -5 19.5266 4.0447 2
-9 1 -5 30.5033 4.7344 3
-9 1 -5 30.3558 4.8585 2
-10 -1 -5 529.623 23.152 3
-10 -1 -5 503.694 22.155 2
-10 1 -5 444.768 22.088 2
-10 1 -5 534.497 23.031 3
-11 -1 -5 15.6281 3.9526 2
-11 -1 -5 14.8542 4.096 3
-11 1 -5 20.2358 4.4061 2
-11 1 -5 25.2195 4.5728 3
-12 -1 -5 0.71089 2.56005 3
-12 1 -5 0.18341 2.73798 3
-12 1 -5 -2.3047 2.622 2
-13 -1 -5 36.8025 6.6369 3
-13 1 -5 27.2158 5.9086 3
-14 -1 -5 50.2392 7.7669 3
-14 1 -5 41.0536 7.0032 3
-15 -1 -5 9.2883 4.04101 3
-15 1 -5 13.0055 5.0626 3
-16 -1 -5 1.67098 3.51682 3
-16 1 -5 -1.7942 2.9742 3
-17 -1 -5 -0.139 3.7861 3
-17 1 -5 -1.035 3.5817 3
-18 -1 -5 5.98447 4.6518 3
-18 1 -5 3.54783 4.44132 3
-21 -2 5 1.6588 4.08961 3
-21 2 5 -1.7629 3.9704 3
-20 -2 5 11.0869 5.0529 3
-20 2 5 10.7969 5.2199 3
-19 -2 5 0.17765 3.14622 3
-19 2 5 7.2098 4.53206 3
19 2 -5 2.22286 5.55471 1
-18 -2 5 8.65484 4.69763 3
18 2 -5 10.1209 5.9474 1
-18 2 5 6.01316 3.85849 3
17 -2 -5 17.7249 6.5413 1
-17 -2 5 10.2662 4.1729 3
17 2 -5 12.3652 6.1324 1
-17 2 5 20.2959 5.2915 3
-16 -2 5 8.85414 3.77487 3
16 -2 -5 3.17024 4.30123 1
16 2 -5 8.82291 5.45622 1
-16 2 5 1.54357 3.2603 3
15 -2 -5 12.6703 5.1321 1
-15 -2 5 8.90582 3.75025 3
-15 2 5 9.81248 3.90247 3
15 2 -5 7.05516 4.79931 1
14 -2 -5 91.363 10.8339 1
-14 -2 5 92.6257 9.5824 3
-14 2 5 73.3307 8.3378 3
14 2 -5 57.3944 9.3088 1
-13 -2 5 260.565 14.942 3
13 -2 -5 240.389 16.221 1
-13 2 5 255.757 14.666 3
13 2 -5 283.821 17.55 1
12 -2 -5 105.464 11.104 1
-12 -2 5 116.138 8.859 3
12 2 -5 142.141 13.475 1
-12 2 5 113.624 8.629 3
11 -2 -5 2.39006 3.12445 1
-11 -2 5 -2.0228 1.6549 3
-11 2 5 1.7432 1.9123 3
11 2 -5 3.7799 3.16533 1
-11 2 5 -0.7743 1.4882 2
-10 -2 5 0.01576 1.63849 3
10 -2 -5 2.34895 2.56588 1
10 2 -5 -1.5489 2.5619 1
-10 2 5 1.99096 1.7987 3
-10 2 5 -0.1433 1.4754 2
-9 -2 5 21.9115 3.7738 3
9 -2 -5 19.1191 4.4587 1
9 2 -5 13.4982 4.2937 1
-9 2 5 19.3486 2.9902 2
-9 2 5 18.696 3.4847 3
8 -2 -5 82.7365 8.3757 1
-8 -2 5 74.6235 5.7742 3
-8 2 5 76.9016 5.1376 2
-8 2 5 93.1319 6.2315 3
8 2 -5 87.0221 8.8893 1
7 -2 -5 192.322 11.279 1
-7 -2 5 173.756 9.444 3
7 2 -5 174.238 11.293 1
7 2 -5 188.002 7.192 2
-7 2 5 187.826 8.835 2
-7 2 5 183.735 9.546 3
6 -2 -5 14.9032 3.3802 1
-6 -2 5 15.0525 2.7484 3
-6 2 5 18.7226 2.9274 3
6 2 -5 20.3009 2.0839 2
6 2 -5 9.90492 3.38554 1
-5 -2 5 64.2422 4.6307 3
5 -2 -5 64.4216 6.5106 1
5 2 -5 57.3918 6.2988 1
5 2 -5 72.4276 3.9641 2
4 -2 -5 80.8071 6.0914 1
4 2 -5 74.8254 6.0464 1
4 2 -5 78.0887 4.5112 2
3 -2 -5 44.636 4.9161 1
3 2 -5 41.1733 3.8422 2
3 2 -5 41.7356 4.8912 1
2 -2 -5 199.226 10.01 1
2 2 -5 202.827 9.407 2
2 2 -5 201.141 10.293 1
1 -2 -5 352.441 14.922 1
1 2 -5 343.634 15.302 1
1 2 -5 367.158 14.969 2
0 -2 -5 154.578 7.769 1
0 2 -5 164.126 8.017 1
0 2 -5 157.581 8.361 2
-1 -2 -5 1146.39 42.05 1
-1 2 -5 1130.82 41.67 2
-1 2 -5 1123.58 41.76 1
-2 2 -5 4.54832 1.28643 1
-2 2 -5 6.45201 2.10311 2
2 2 5 -0.6397 1.0453 1
3 2 5 610.48 24.921 1
-4 -2 -5 62.0532 5.8766 2
4 2 5 72.1686 5.5032 1
-4 2 -5 62.5211 6.3698 2
-5 -2 -5 887.305 33.821 2
5 2 5 896.038 34.866 1
-5 2 -5 861.484 34.442 2
-6 -2 -5 5.47146 2.28831 2
6 2 5 6.52852 2.57756 1
-6 2 -5 7.81171 2.79765 2
-7 -2 -5 11.1227 2.9566 2
7 2 5 8.27017 2.78701 1
-7 2 -5 1.80093 2.02811 2
-8 -2 -5 273.761 13.823 2
-8 2 -5 276.112 14.488 2
8 2 5 289.578 14.468 1
-9 -2 -5 30.6205 4.6598 2
9 2 5 28.0886 4.8263 1
-9 2 -5 32.5493 5.094 3
-9 2 -5 37.0989 5.4017 2
-10 -2 -5 55.992 6.9113 3
-10 -2 -5 72.1308 7.2015 2
-10 2 -5 74.0122 7.9044 2
-10 2 -5 63.82 7.2949 3
-11 -2 -5 31.0479 5.487 3
-11 2 -5 25.6909 5.1003 2
-11 2 -5 34.3688 5.7584 3
-12 -2 -5 7.27796 3.35146 3
-12 2 -5 2.60161 2.83122 3
-12 2 -5 2.76925 2.93274 2
-13 -2 -5 36.5636 6.4731 3
-13 2 -5 31.7336 5.6856 2
-13 2 -5 25.9777 5.7612 3
-14 -2 -5 27.7324 5.9519 3
-14 2 -5 23.5707 5.6001 3
-15 -2 -5 3.15623 3.5185 3
-15 2 -5 5.23591 3.8853 3
-16 -2 -5 4.13741 3.99973 3
-16 2 -5 8.64483 4.27248 3
-17 -2 -5 -0.658 3.2756 3
-17 2 -5 -3.4934 3.3554 3
-18 -2 -5 -2.3849 3.2579 3
-18 2 -5 4.16882 4.76554 3
-20 -3 5 6.62692 4.13276 3
-20 3 5 -1.9022 3.9694 3
-19 -3 5 2.48019 3.87724 3
19 3 -5 6.75146 6.2607 1
-19 3 5 0.20668 3.5889 3
-18 -3 5 5.57341 4.06459 3
18 3 -5 13.4517 6.8065 1
-18 3 5 9.51566 4.52948 3
-17 -3 5 10.7749 4.4375 3
-17 3 5 4.70213 3.36125 3
17 3 -5 -1.0717 5.2058 1
-16 -3 5 14.5258 4.5187 3
16 -3 -5 10.4808 5.1295 1
16 3 -5 11.2647 5.7455 1
-16 3 5 8.41433 4.05478 3
15 -3 -5 56.0376 9.273 1
-15 -3 5 58.0037 7.9756 3
15 3 -5 74.2852 11.1154 1
-15 3 5 59.9987 7.976 3
-14 -3 5 196.184 12.797 3
14 -3 -5 186.666 14.127 1
14 3 -5 180.12 17.092 1
-14 3 5 197.49 12.724 3
-13 -3 5 173.815 11.735 3
13 -3 -5 189.557 13.716 1
13 3 -5 171.555 16.204 1
-13 3 5 186.054 11.831 3
-12 -3 5 283.483 15.676 3
12 -3 -5 321 18.237 1
12 3 -5 279.179 18.355 1
-12 3 5 297.619 15.731 3
-12 3 5 325.501 14.466 2
11 -3 -5 247.779 15.263 1
-11 -3 5 247.26 13.335 3
-11 3 5 204.791 12.634 3
-11 3 5 248.919 12.053 2
11 3 -5 278.625 16.959 1
10 -3 -5 4.91678 3.38757 1
-10 -3 5 7.29928 2.77407 3
10 3 -5 2.23876 3.46972 1
-10 3 5 3.98042 2.01117 2
-10 3 5 7.03546 2.68529 3
9 -3 -5 2.28445 2.60451 1
-9 -3 5 6.03672 2.27983 3
9 3 -5 2.44417 3.01945 1
-9 3 5 7.88117 2.52254 3
-9 3 5 8.57074 2.24953 2
8 -3 -5 92.0291 9.0855 1
-8 -3 5 81.8279 6.1415 3
-8 3 5 78.2342 5.9887 3
-8 3 5 91.8737 5.956 2
8 3 -5 77.6268 8.9893 1
-7 -3 5 13.9992 2.7516 3
7 -3 -5 12.1409 3.3313 1
-7 3 5 12.6581 2.6183 3
7 3 -5 16.3324 4.3171 1
-7 3 5 11.8957 2.5491 2
7 3 -5 14.8788 1.5786 2
6 -3 -5 5.33149 2.68147 1
-6 -3 5 10.8536 2.3412 3
6 3 -5 4.71822 1.28997 2
-6 3 5 10.1295 2.2484 2
6 3 -5 7.98439 3.1113 1
-6 3 5 5.39205 1.80371 3
-5 -3 5 -0.4602 1.0326 3
5 -3 -5 -0.2087 1.4928 1
5 3 -5 -0.2968 0.9147 2
5 3 -5 -1.2191 1.7335 1
-5 3 5 -1.6346 0.9736 2
4 -3 -5 4.50304 2.26318 1
4 3 -5 9.4891 1.96062 2
4 3 -5 3.37894 2.35916 1
3 -3 -5 69.5923 5.3068 1
3 3 -5 72.6588 7.058 1
2 -3 -5 10.1714 2.3045 1
2 3 -5 3.39743 1.64501 2
2 3 -5 6.3126 2.24599 1
1 -3 -5 150.823 7.867 1
1 3 -5 139.744 7.672 2
1 3 -5 129.9 8.208 1
0 -3 -5 190.353 9.349 1
0 3 -5 175.222 9.429 1
0 3 -5 187.127 9.633 2
-1 3 -5 615.331 24.979 1
1 3 5 637.156 26.71 1
-1 3 -5 636.076 25.128 2
-2 3 -5 187.58 9.132 1
2 3 5 190.118 10.807 1
-2 3 -5 197.704 10.349 2
-3 3 -5 117.557 7.578 2
-3 3 -5 113.498 6.098 1
3 3 5 102.292 7.568 1
4 -3 5 168.768 6.961 1
-4 3 -5 154.122 9.54 2
5 -3 5 45.1864 3.0046 1
-5 3 -5 58.1579 6.231 2
-6 -3 -5 31.1415 4.4125 2
-6 3 -5 29.0113 4.7416 2
6 3 5 35.9553 5.2437 1
-7 -3 -5 60.2384 6.3814 2
7 3 5 66.963 7.3918 1
-7 3 -5 69.0071 7.3108 2
-8 -3 -5 11.3888 2.8946 2
-8 3 -5 12.3724 3.3743 3
8 3 5 14.1106 3.9735 1
-8 3 -5 11.3688 3.5317 2
-9 -3 -5 127.844 8.623 2
-9 -3 -5 123.653 8.969 3
-9 3 -5 141.581 9.799 2
-9 3 -5 145.787 9.282 3
9 3 5 132.312 9.903 1
-10 -3 -5 77.8373 7.5907 2
-10 -3 -5 85.1864 8.5765 3
-10 3 -5 76.355 8.0015 3
-10 3 -5 82.7228 8.4814 2
-11 -3 -5 9.3727 3.5708 3
-11 3 -5 7.71557 3.23232 3
-11 3 -5 16.403 4.4371 2
-12 -3 -5 48.9998 7.2721 3
-12 3 -5 68.3844 8.0291 2
-12 3 -5 55.0089 7.5686 3
-13 -3 -5 18.6109 5.0071 3
-13 3 -5 41.1746 6.5552 2
-13 3 -5 26.4314 5.7063 3
-14 -3 -5 46.1992 7.662 3
-14 3 -5 69.0283 8.7123 3
-15 -3 -5 0.51033 3.32736 3
-15 3 -5 6.62418 4.04344 3
-16 -3 -5 11.632 5.0222 3
-16 3 -5 22.8549 6.3111 3
-17 -3 -5 3.05072 4.49218 3
-17 3 -5 5.18424 4.73642 3
-18 -3 -5 4.4362 4.81233 3
-18 3 -5 -4.8556 4.0607 3
-20 -4 5 9.17961 5.10489 3
-20 4 5 11.4849 5.5817 3
-19 -4 5 2.03279 3.89415 3
-19 4 5 0.73152 3.91624 3
19 4 -5 6.01569 6.75413 1
-18 -4 5 2.35608 3.38626 3
-18 4 5 8.59356 4.56989 3
18 4 -5 -5.5086 5.1493 1
-17 -4 5 2.69006 3.31185 3
-17 4 5 -1.7416 2.8585 3
17 4 -5 3.5421 6.10437 1
16 -4 -5 14.5201 5.9403 1
-16 -4 5 15.4231 4.8966 3
16 4 -5 11.3889 5.8481 1
-16 4 5 12.2181 4.4394 3
-15 -4 5 38.9067 6.5599 3
15 -4 -5 39.9021 7.9153 1
15 4 -5 35.7307 8.3686 1
-15 4 5 42.3603 6.7561 3
14 -4 -5 21.5902 6.1053 1
-14 -4 5 16.8524 4.3781 3
14 4 -5 30.5986 7.2727 1
-14 4 5 27.8814 5.588 3
-13 -4 5 75.4118 8.3445 3
13 -4 -5 79.8627 10.0076 1
-13 4 5 71.7186 7.39 2
-13 4 5 74.6014 8.1172 3
13 4 -5 79.8406 11.0622 1
12 -4 -5 85.5501 10.0755 1
-12 -4 5 74.8721 7.968 3
-12 4 5 72.9903 7.8451 3
-12 4 5 81.4056 7.696 2
12 4 -5 81.5439 11.0419 1
11 -4 -5 7.77995 4.08702 1
-11 -4 5 8.28971 3.20669 3
-11 4 5 13.6523 3.3022 2
11 4 -5 8.4203 4.18382 1
-11 4 5 5.16215 2.77567 3
10 -4 -5 26.2832 5.8444 1
-10 -4 5 49.781 5.8001 3
10 4 -5 46.8571 7.7946 1
-10 4 5 48.0086 5.5111 2
-10 4 5 56.9887 6.1932 3
9 -4 -5 1.25819 2.87214 1
-9 -4 5 2.23508 2.02538 3
9 4 -5 0.09724 2.84526 1
-9 4 5 1.02336 1.79178 2
-9 4 5 4.74913 2.24443 3
-8 -4 5 28.9415 4.1195 3
8 -4 -5 27.1773 5.4242 1
8 4 -5 20.6619 5.108 1
-8 4 5 21.1716 3.5759 3
-8 4 5 29.4678 4.1591 2
7 -4 -5 122.79 9.346 1
-7 -4 5 125.24 7.274 3
7 4 -5 110.907 5.459 2
-7 4 5 105.353 7.067 2
-7 4 5 117.394 7.114 3
7 4 -5 107.269 10.784 1
-6 -4 5 774.124 29.322 3
6 -4 -5 770.518 33.067 1
6 4 -5 778.224 27.971 2
-6 4 5 744.653 29.826 2
6 4 -5 791.307 34.189 1
-5 -4 5 3.78894 1.7227 3
5 -4 -5 1.98585 2.38653 1
-5 4 5 2.34221 1.67495 2
5 4 -5 1.6156 2.27472 1
5 4 -5 1.52255 1.29235 2
4 -4 -5 2.07019 1.78625 1
-4 4 5 0.65776 1.22867 2
4 4 -5 2.12925 2.14742 1
4 4 -5 -0.1572 1.2571 2
3 -4 -5 59.5017 5.9931 1
3 4 -5 65.0648 7.0365 1
2 -4 -5 560.994 24.13 1
2 4 -5 577.295 22.958 2
2 4 -5 611.744 25.646 1
1 -4 -5 389.239 17.07 1
1 4 -5 381.403 16.518 2
1 4 -5 369.608 17.758 1
0 -4 -5 579.013 25.022 1
0 4 -5 644.719 26.06 1
0 4 -5 625.307 24.849 2
-1 4 -5 34.4556 4.4826 1
1 4 5 36.2118 5.438 1
-1 4 -5 39.7936 4.9187 2
-2 4 -5 116.575 7.383 1
-2 4 -5 114.326 7.717 2
2 4 5 115.623 8.748 1
-3 4 -5 8.34911 2.37088 1
3 4 5 9.96488 3.58718 1
-3 4 -5 3.49278 2.32607 2
4 4 5 2.47023 2.46995 1
-4 4 -5 0.7065 1.73599 2
-4 4 -5 5.26093 2.02032 1
5 -4 5 380.67 15.491 1
5 4 5 383.695 19.445 1
-5 4 -5 417.383 18.808 2
6 4 5 383.908 19.529 1
-6 4 -5 390.056 18.603 2
7 4 5 132.495 9.938 1
-7 4 -5 124.547 9.146 2
-8 -4 -5 18.3815 3.854 2
8 4 5 -0.3178 2.2645 1
-8 4 -5 14.3554 3.9339 2
-8 4 -5 7.96098 2.89647 3
-9 -4 -5 71.5578 7.5914 3
-9 -4 -5 76.3549 7.4433 2
-9 4 -5 89.8325 8.1758 3
-9 4 -5 75.436 8.371 2
9 4 5 68.0445 8.7745 1
-10 -4 -5 11.4432 3.5564 3
-10 4 -5 13.0827 3.9009 2
-10 4 -5 22.6754 4.5005 3
10 4 5 29.819 6.3381 1
-11 -4 -5 73.8414 8.4736 3
-11 4 -5 76.9751 8.372 3
-11 4 -5 73.9787 8.4515 2
-12 -4 -5 79.3378 9.0173 3
-12 4 -5 66.7694 8.479 2
-12 4 -5 74.4478 8.4839 3
-13 -4 -5 7.73205 3.8399 3
-13 4 -5 13.3962 4.4879 3
-13 4 -5 4.35188 3.43218 2
-14 -4 -5 1.62936 3.32215 3
-14 4 -5 -1.6518 3.0419 3
-14 4 -5 -0.8712 2.909 2
-15 -4 -5 6.87333 3.90933 3
-15 4 -5 4.05172 4.0491 3
-16 -4 -5 -2.411 3.2987 3
-16 4 -5 0.66573 3.69025 3
-17 -4 -5 25.4503 6.6784 3
-17 4 -5 14.1695 5.7023 3
-18 -4 -5 20.2575 6.6969 3
-18 4 -5 22.2967 6.7912 3
-19 -5 5 13.6175 5.2584 3
-19 5 5 35.9933 7.5222 3
19 5 -5 33.6072 10.6555 1
-18 -5 5 8.77202 4.27669 3
-18 5 5 31.0108 6.9866 3
18 5 -5 14.2348 7.4486 1
-17 -5 5 -0.8726 3.0147 3
-17 5 5 0.07723 3.3401 3
17 5 -5 4.72978 5.77171 1
-16 -5 5 -0.9958 2.5366 3
-16 5 5 -3.2985 2.6665 3
16 5 -5 0.48372 5.47853 1
-15 -5 5 1.77124 2.98283 3
15 -5 -5 0.04403 4.50002 1
15 5 -5 0.99538 4.31111 1
-15 5 5 -2.3741 2.7052 3
-14 -5 5 38.3086 6.2436 3
14 -5 -5 38.2387 7.857 1
-14 5 5 45.805 6.4281 2
14 5 -5 55.5627 10.3924 1
-14 5 5 38.6286 6.144 3
-13 -5 5 6.35433 3.23298 3
13 -5 -5 3.13956 3.78781 1
-13 5 5 3.56427 2.73956 2
13 5 -5 7.8916 4.89263 1
-13 5 5 0.9873 2.61996 3
12 -5 -5 4.19245 3.68593 1
-12 -5 5 1.62114 2.41563 3
12 5 -5 1.69408 4.17343 1
-12 5 5 1.88077 2.34405 3
-12 5 5 0.0236 2.57772 2
-11 -5 5 30.7727 5.1218 3
11 -5 -5 41.1275 7.3369 1
11 5 -5 16.267 5.7329 1
-11 5 5 13.8249 3.8706 2
-11 5 5 16.0776 4.0529 3
10 -5 -5 83.434 10.0329 1
-10 -5 5 97.4305 8.3776 3
-10 5 5 76.5745 7.3783 3
10 5 -5 77.6682 10.6317 1
-10 5 5 86.7887 8.1243 2
9 -5 -5 10.0829 3.7872 1
-9 -5 5 15.7787 3.4931 3
9 5 -5 17.3094 5.5997 1
-9 5 5 19.6985 3.6095 3
-9 5 5 27.0214 4.5521 2
8 -5 -5 254.838 15.526 1
-8 -5 5 251.311 12.728 3
8 5 -5 265.914 16.815 1
-8 5 5 268.983 13.503 2
-7 -5 5 249.211 12.226 3
7 -5 -5 263.213 15.37 1
-7 5 5 255.455 13.166 2
7 5 -5 264.586 16.234 1
7 5 -5 259.818 10.988 2
6 -5 -5 0.15313 2.04001 1
-6 -5 5 2.78252 1.82354 3
6 5 -5 -0.763 1.3169 2
6 5 -5 -2.1327 2.2193 1
-6 5 5 -0.6944 1.5763 2
5 -5 -5 52.9874 6.1301 1
-5 5 5 51.4747 5.7746 2
5 5 -5 54.9326 4.7753 2
5 5 -5 52.7361 7.4162 1
4 -5 -5 6.28825 2.6469 1
-4 5 5 11.319 2.879 2
4 5 -5 9.99901 3.60258 1
4 5 -5 8.53419 2.11567 2
3 -5 -5 235.988 12.396 1
3 5 -5 246.115 14.118 1
-3 5 5 226.847 11.702 2
3 5 -5 220.189 11.068 2
2 -5 -5 176.954 10.444 1
2 5 -5 194.281 10.001 2
2 5 -5 187.244 11.883 1
1 -5 -5 14.2258 3.0881 1
1 5 -5 12.5387 2.9558 2
1 5 -5 13.499 3.5993 1
0 5 5 229.676 14.29 1
0 5 -5 258.931 12.668 2
0 5 -5 247.483 13.606 1
-1 5 -5 273.421 14.629 1
-1 5 -5 286.044 14.316 2
1 5 5 322.62 16.845 1
-2 5 -5 118.756 8.13 2
-2 5 -5 112.832 7.944 1
2 5 5 107.782 10.421 1
-3 5 -5 15.8288 3.7075 2
3 5 5 17.939 4.5645 1
-3 5 -5 22.6663 3.9388 1
-4 5 -5 604.971 26.897 2
-4 5 -5 650.514 26.487 1
4 5 5 635.79 29.147 1
5 -5 5 108.761 6.416 1
-5 5 -5 129.425 9.043 2
5 5 5 122.579 11.564 1
-6 5 -5 282.782 15.565 2
6 5 5 306.172 17.372 1
7 5 5 14.6185 4.6903 1
-7 5 -5 7.68159 3.37532 2
-7 5 -5 0.55 1.70204 3
-8 -5 -5 29.9658 4.8142 3
-8 5 -5 44.8157 5.3974 3
-8 5 -5 39.6786 6.193 2
8 5 5 39.0644 7.0841 1
-9 -5 -5 34.8148 5.3418 2
-9 -5 -5 39.3731 5.7584 3
-9 5 -5 25.8532 5.223 2
-9 5 -5 32.555 5.2673 3
9 5 5 30.424 6.6482 1
-10 -5 -5 10.9719 3.6281 3
10 5 5 19.6682 5.7007 1
-10 5 -5 8.97552 3.82354 2
-10 5 -5 12.1307 3.7944 3
-11 -5 -5 1.855 2.80574 3
-11 5 -5 1.46398 2.79311 3
-11 5 -5 -0.0673 2.7721 2
-12 -5 -5 2.7142 3.31709 3
-12 5 -5 4.12534 3.31507 3
-12 5 -5 2.00864 3.33297 2
-13 -5 -5 39.6067 6.8183 3
-13 5 -5 53.3346 7.576 3
-13 5 -5 50.5798 7.7319 2
-14 -5 -5 -1.7777 2.8776 3
-14 5 -5 -2.4561 3.2051 3
-14 5 -5 -2.9665 3.1104 2
-15 -5 -5 5.7316 4.26183 3
-15 5 -5 4.05767 3.92311 2
-15 5 -5 3.38046 4.0331 3
-16 -5 -5 13.8849 5.3502 3
-16 5 -5 21.9577 5.9242 3
-17 -5 -5 2.3325 4.04265 3
-17 5 -5 3.36689 4.75144 3
-19 -6 5 -0.9031 3.5512 3
19 6 -5 1.94058 6.89364 1
-18 -6 5 6.55679 4.14314 3
18 6 -5 8.39589 7.02425 1
-17 -6 5 -1.6922 2.9536 3
17 6 -5 -2.0948 5.0677 1
-17 6 5 12.2882 4.793 3
-16 -6 5 1.12394 3.2213 3
-16 6 5 5.39939 4.02027 3
16 6 -5 9.32292 6.44188 1
-15 -6 5 9.42443 4.02152 3
15 -6 -5 44.4976 8.746 1
15 6 -5 19.5425 7.4097 1
-15 6 5 32.0749 6.1651 3
14 -6 -5 133.774 14.141 1
-14 -6 5 117.982 10.946 3
14 6 -5 140.626 16.667 1
-14 6 5 136.46 10.291 2
-14 6 5 126.592 11.365 3
13 -6 -5 29.4622 6.9201 1
-13 -6 5 35.1951 5.7173 3
-13 6 5 43.7624 6.5329 3
13 6 -5 41.4109 9.3428 1
-13 6 5 43.1571 6.5644 2
-12 -6 5 271.801 15.048 3
12 -6 -5 282.942 18.029 1
12 6 -5 286.232 20.148 1
-12 6 5 262.771 15.116 2
-12 6 5 283.288 15.154 3
-11 -6 5 16.0072 3.9101 3
11 -6 -5 22.0967 6.0105 1
-11 6 5 27.2872 5.208 2
-11 6 5 21.8248 4.3289 3
11 6 -5 27.2944 7.2921 1
10 -6 -5 1.6114 3.41388 1
-10 -6 5 -3.5056 1.6918 3
10 6 -5 -6.1981 3.2357 1
-10 6 5 -1.5048 1.7658 2
-10 6 5 0.00809 1.91389 3
9 -6 -5 -0.9327 3.0195 1
-9 -6 5 0.66691 2.21522 3
-9 6 5 1.96198 2.19023 3
9 6 -5 4.75435 4.15799 1
-9 6 5 1.38571 2.1291 2
-8 -6 5 143.112 8.691 3
8 -6 -5 151.22 11.71 1
-8 6 5 146.91 9.757 2
8 6 -5 140.499 14.399 1
-7 -6 5 126.744 7.45 3
7 -6 -5 130.004 10.049 1
-7 6 5 101.611 9.261 2
7 6 -5 101.337 11.766 1
-6 -6 5 200.129 9.867 3
6 -6 -5 191.116 11.998 1
-6 6 5 205.192 11.559 2
6 6 -5 201.394 14.23 1
6 6 -5 187.591 9.592 2
5 -6 -5 52.8719 6.4201 1
5 6 -5 62.5194 8.7041 1
5 6 -5 53.0094 5.3028 2
-5 6 5 67.2925 7.0662 2
4 -6 -5 292.36 14.949 1
4 6 -5 262.446 16.457 1
-4 6 5 278.454 14.206 2
3 -6 -5 172.711 10.549 1
3 6 -5 161.615 9.199 2
3 6 -5 157.63 11.667 1
-3 6 5 156.968 9.624 2
2 -6 -5 -0.0394 1.7937 1
-2 6 5 -1.0654 1.5637 2
2 6 -5 0.24302 1.66929 2
2 6 -5 -1.4045 2.3458 1
1 -6 -5 0.45324 1.74787 1
1 6 -5 -1.2975 1.4853 2
1 6 -5 1.67404 2.46 1
0 6 5 173.627 12.843 1
0 6 -5 206.362 12.591 1
0 6 -5 192.618 11.083 2
-1 6 -5 1.36363 2.08687 2
-1 6 -5 1.23757 2.65344 1
1 6 5 2.28299 2.80671 1
2 6 5 175.132 12.775 1
-2 6 -5 181.68 11.435 1
-2 6 -5 161.095 10.528 2
-3 6 -5 51.6749 6.4725 1
3 6 5 44.0099 7.4838 1
-3 6 -5 52.4314 6.7585 2
-4 6 -5 170.709 10.96 1
4 6 5 185.531 13.116 1
-4 6 -5 188.028 11.644 2
5 6 5 26.9339 6.1794 1
-5 6 -5 36.6768 5.7962 2
6 6 5 69.8937 9.5918 1
-6 6 -5 76.2658 8.421 2
-7 -6 -5 -0.022 1.9564 3
7 6 5 -1.2146 3.2232 1
-7 6 -5 2.16776 2.65129 2
-8 -6 -5 0.84851 2.22072 3
8 6 5 0.73331 3.80408 1
-8 6 -5 1.48766 2.81722 2
-9 -6 -5 80.9571 8.2083 3
9 6 5 79.2836 10.8622 1
-9 6 -5 83.4766 9.5778 2
-10 -6 -5 4.50371 3.15073 3
-10 6 -5 12.5495 4.2317 2
10 6 5 5.16074 4.49109 1
-11 -6 -5 23.6616 5.1836 3
11 6 5 25.8965 6.8154 1
-11 6 -5 17.7704 5.0191 2
-12 -6 -5 0.4473 2.69468 3
-12 6 -5 0.58705 3.13411 2
-13 -6 -5 -4.6222 2.4046 3
-13 6 -5 0.04316 3.10077 2
-14 -6 -5 3.69643 3.55207 3
-14 6 -5 0.60541 3.36232 2
-15 -6 -5 3.20915 3.73165 3
-15 6 -5 3.76055 4.11906 2
-16 -6 -5 27.4995 6.9491 3
18 7 -5 8.7136 7.5729 1
17 7 -5 11.5646 7.4456 1
16 7 -5 4.00288 6.11142 1
-15 7 5 10.1902 4.3305 2
15 7 -5 14.8821 7.0997 1
14 -7 -5 92.3196 12.1752 1
-14 7 5 84.9204 9.7381 2
14 7 -5 58.1524 11.6622 1
13 -7 -5 9.10935 5.32143 1
13 7 -5 12.433 6.4062 1
-13 7 5 21.4836 5.0782 2
12 -7 -5 34.7315 7.6146 1
12 7 -5 28.7622 8.69 1
-12 7 5 30.6767 5.8502 2
11 -7 -5 61.7064 9.6675 1
-11 7 5 96.0087 9.8539 2
11 7 -5 81.2092 12.0939 1
10 -7 -5 208.15 15.238 1
10 7 -5 222.004 17.26 1
-10 7 5 225.571 13.652 2
9 -7 -5 44.1758 7.9813 1
9 7 -5 67.2739 10.5288 1
-9 7 5 59.4702 7.4959 2
8 -7 -5 41.7584 7.4849 1
8 7 -5 47.992 9.132 1
-8 7 5 40.1154 6.0327 2
7 -7 -5 22.0496 4.9735 1
7 7 -5 18.5873 5.7501 1
-7 7 5 17.3958 4.1023 2
6 -7 -5 11.2262 3.7339 1
6 7 -5 25.1384 6.1392 1
6 7 -5 26.555 3.9928 2
-6 7 5 27.1836 4.7851 2
5 -7 -5 -0.2268 2.3853 1
-5 7 5 1.73004 2.11277 2
5 7 -5 -0.51 1.5812 2
5 7 -5 0.26654 2.73893 1
4 -7 -5 4.33469 2.69102 1
4 7 -5 8.94583 2.67458 2
4 7 -5 7.70491 4.06251 1
-4 7 5 9.60983 3.15814 2
3 -7 -5 22.3253 4.6639 1
3 7 -5 16.02 3.5345 2
-3 7 5 22.0737 4.3447 2
3 7 -5 11.3166 4.4386 1
2 -7 -5 90.2363 8.8752 1
2 7 -5 88.536 7.9009 2
-2 7 5 60.6089 7.1106 2
2 7 -5 88.0447 10.0357 1
1 -7 -5 7.62005 3.17851 1
1 7 -5 6.35753 3.61214 1
1 7 -5 10.4556 3.1953 2
0 7 5 67.3061 9.6495 1
0 7 -5 65.0266 7.2267 2
0 7 -5 60.6695 8.1667 1
-1 7 -5 44.6057 5.9944 2
-1 7 -5 34.4223 6.2434 1
1 7 5 34.869 7.2759 1
2 7 5 167.058 15.575 1
-2 7 -5 172.586 11.118 2
-2 7 -5 170.763 12.069 1
3 7 5 -1.9584 3.2639 1
-3 7 -5 4.90772 3.31634 1
-3 7 -5 0.00491 2.17136 2
4 7 5 49.2645 8.5688 1
-4 7 -5 31.893 5.5566 2
-4 7 -5 37.906 6.1812 1
-5 7 -5 28.5228 5.4035 2
5 7 5 22.015 5.9002 1
-6 -7 -5 163.236 9.663 3
-6 7 -5 182.888 12.122 2
6 7 5 178.487 16.562 1
-7 -7 -5 101.003 7.404 3
-7 7 -5 106.121 10.72 2
7 7 5 86.1966 11.4777 1
-8 -7 -5 65.5499 7.1892 3
8 7 5 60.1904 9.8738 1
-8 7 -5 66.3286 8.7844 2
-9 -7 -5 2.39409 2.71816 3
9 7 5 -1.0414 4.3161 1
-9 7 -5 0.4289 3.04424 2
-10 -7 -5 20.4115 4.6142 3
10 7 5 26.4574 7.4071 1
-10 7 -5 24.1757 5.8198 2
-11 -7 -5 -0.459 2.7078 3
11 7 5 6.52086 5.20879 1
-11 7 -5 0.04723 3.06342 2
-12 -7 -5 -1.0062 2.8845 3
-12 7 -5 -0.2646 3.1883 2
-13 -7 -5 -0.9184 3.2343 3
-13 7 -5 -1.6132 2.9537 2
-14 -7 -5 -0.7638 3.1517 3
-14 7 -5 1.83758 4.13746 2
-15 -7 -5 5.57068 3.97402 3
-15 7 -5 3.46454 4.36114 2
-16 -7 -5 14.82 5.4961 3
17 8 -5 -2.8074 7.3789 1
16 8 -5 3.82894 6.80696 1
15 8 -5 9.19255 7.03269 1
-15 8 5 2.98908 3.67258 2
14 -8 -5 75.2999 11.6479 1
14 8 -5 72.1712 13.5645 1
-14 8 5 80.6071 10.1027 2
13 -8 -5 -1.4558 4.185 1
13 8 -5 12.1908 6.972 1
-13 8 5 3.90728 3.48147 2
12 -8 -5 27.5899 7.1822 1
12 8 -5 18.6291 7.0871 1
-12 8 5 18.7711 5.3458 2
11 -8 -5 0.60511 4.14162 1
11 8 -5 -3.0589 4.5468 1
-11 8 5 1.15661 2.87434 2
10 -8 -5 -0.01 3.6694 1
10 8 -5 1.00943 4.4416 1
-10 8 5 -1.7612 2.5712 2
9 -8 -5 13.5345 5.4192 1
-9 8 5 22.691 5.2002 2
9 8 -5 14.7124 6.6782 1
8 -8 -5 119.877 12.302 1
8 8 -5 119.431 14.4 1
-8 8 5 108.358 10.843 2
7 -8 -5 2.61635 3.14481 1
-7 8 5 3.34613 2.63892 2
7 8 -5 7.22536 4.64584 1
6 -8 -5 0.69883 2.59298 1
-6 8 5 -1.9125 1.6439 2
6 8 -5 1.64725 3.67056 1
5 -8 -5 0.63642 2.44262 1
5 8 -5 3.48059 2.355 2
5 8 -5 -0.4696 2.9586 1
-5 8 5 0.09608 2.06023 2
4 -8 -5 65.931 7.9511 1
4 8 -5 58.797 6.7528 2
4 8 -5 70.5717 10.3547 1
-4 8 5 77.4259 8.2974 2
3 -8 -5 63.6727 7.9922 1
3 8 -5 59.7163 6.8185 2
3 8 -5 78.9567 10.5503 1
-3 8 5 67.5675 7.9121 2
2 -8 -5 66.1384 8.1568 1
2 8 -5 79.4255 10.3831 1
-2 8 5 74.7469 8.2614 2
2 8 -5 71.2976 7.7224 2
1 -8 -5 51.1656 7.1945 1
1 8 -5 57.847 8.8297 1
1 8 -5 60.0607 7.3552 2
0 8 -5 475.295 25.478 1
0 8 5 536.639 27.815 1
0 8 -5 495.377 23.269 2
-1 8 -5 109.077 10.16 2
1 8 5 119.034 13.709 1
-1 8 -5 112.818 11.838 1
-2 8 -5 696.143 32.442 1
-2 8 -5 722.797 30.775 2
2 8 5 661.046 34.345 1
-3 8 -5 142.818 11.005 2
-3 8 -5 156.731 12.257 1
3 8 5 179.421 16.859 1
4 8 5 501.74 29.252 1
-4 8 -5 596.478 27.833 1
-4 8 -5 588.623 26.876 2
5 8 5 2.78773 4.45868 1
-5 8 -5 -2.4927 2.568 2
-6 8 -5 16.7831 4.921 2
6 8 5 12.6807 5.6221 1
7 8 5 113.068 13.805 1
8 8 5 1.99991 4.86235 1
-8 8 -5 -1.9415 2.7152 2
9 8 5 -1.7928 4.5038 1
-9 8 -5 1.12748 3.24066 2
-10 8 -5 15.8401 5.4653 2
10 8 5 14.4235 6.7214 1
-11 8 -5 0.01109 3.47077 2
11 8 5 3.24423 5.22259 1
-12 8 -5 6.89366 4.81941 2
12 8 5 8.22047 6.56691 1
-13 8 -5 19.1728 6.1655 2
-14 8 -5 12.4214 5.4796 2
-15 8 -5 5.33333 4.8191 2
16 9 -5 0.97601 6.88299 1
-15 9 5 4.48735 4.41826 2
15 9 -5 0.63525 7.07089 1
14 9 -5 -1.6632 6.3112 1
-14 9 5 3.30396 3.94651 2
13 -9 -5 28.59 8.128 1
-13 9 5 55.7307 8.6839 2
13 9 -5 63.9256 12.3347 1
12 -9 -5 58.0636 10.3598 1
12 9 -5 38.4829 10.2735 1
-12 9 5 72.6098 9.6622 2
11 -9 -5 -1.2662 4.4783 1
11 9 -5 -1.3846 5.0608 1
-11 9 5 4.04827 3.3514 2
10 -9 -5 -0.5189 4.1884 1
10 9 -5 -0.2073 4.4338 1
-10 9 5 -0.297 2.8054 2
9 -9 -5 38.8254 7.7735 1
-9 9 5 32.6492 6.4298 2
9 9 -5 26.0761 8.128 1
8 -9 -5 164.276 12.829 1
-8 9 5 172.272 12.248 2
8 9 -5 153.453 17.337 1
7 -9 -5 25.6907 5.6533 1
7 9 -5 28.5634 7.8335 1
-7 9 5 31.0867 6.0338 2
6 -9 -5 25.7457 5.6812 1
-6 9 5 9.71202 3.80958 2
6 9 -5 26.1703 7.4548 1
5 -9 -5 17.4229 4.6006 1
5 9 -5 1.11546 2.03368 2
5 9 -5 17.3026 5.978 1
-5 9 5 12.7933 4.0423 2
4 -9 -5 73.8705 8.948 1
4 9 -5 63.4556 7.4554 2
-4 9 5 73.0149 8.605 2
4 9 -5 68.0258 10.5331 1
3 -9 -5 6.19794 3.45692 1
3 9 -5 1.09663 2.35871 2
3 9 -5 1.22878 3.65101 1
-3 9 5 15.1239 4.1154 2
2 -9 -5 32.4903 6.042 1
2 9 -5 57.206 9.4512 1
-2 9 5 24.2427 5.1659 2
2 9 -5 41.7241 6.2653 2
1 -9 -5 290.676 16.91 1
1 9 -5 293.595 18.847 1
1 9 -5 275.61 15.796 2
0 9 -5 10.118 4.7314 1
0 9 -5 8.05309 3.89361 2
0 9 5 15.8786 5.8539 1
1 9 5 4.87135 4.63129 1
-1 9 -5 -0.0059 3.5279 1
-1 9 -5 1.68337 3.19643 2
-2 9 -5 5.10428 3.96295 1
2 9 5 19.2755 6.5054 1
-2 9 -5 22.6113 5.3119 2
-3 9 -5 6.72231 3.67186 2
3 9 5 7.71408 4.85591 1
-3 9 -5 10.5075 4.5497 1
-4 9 -5 75.9122 9.4541 2
4 9 5 66.9262 11.1061 1
-5 9 -5 39.7658 6.9683 2
5 9 5 58.3406 10.2124 1
-6 9 -5 50.9254 7.8977 2
6 9 5 55.1671 10.4296 1
-7 9 -5 15.97 5.1512 2
7 9 5 24.5388 7.6653 1
-8 9 -5 21.3451 5.9323 2
8 9 5 10.7282 6.3863 1
9 9 5 49.6573 10.3638 1
-9 9 -5 43.9435 7.9704 2
-10 9 -5 -1.6607 3.4673 2
10 9 5 0.94648 5.39549 1
-11 9 -5 23.4034 6.4082 2
11 9 5 31.6401 9.8915 1
12 9 5 -3.7719 5.5811 1
-12 9 -5 6.48892 4.80156 2
-13 9 -5 -2.0055 3.628 2
-14 9 -5 -0.6756 3.9663 2
-14 10 5 14.8684 6.1714 2
14 10 -5 20.9978 9.3987 1
-13 10 5 1.95965 3.85981 2
13 10 -5 10.9545 7.3117 1
12 -10 -5 13.5518 6.5681 1
-12 10 5 10.4836 4.5408 2
12 10 -5 0.61286 5.13828 1
11 -10 -5 9.47933 6.3848 1
-11 10 5 8.55553 4.36973 2
11 10 -5 7.29146 6.15203 1
10 -10 -5 6.84829 5.24188 1
10 10 -5 5.23041 5.57179 1
-10 10 5 9.84059 4.57001 2
9 -10 -5 3.67263 4.34095 1
9 10 -5 0.57411 4.01582 1
-9 10 5 -2.7502 2.7144 2
8 -10 -5 28.7558 6.6643 1
-8 10 5 24.9872 5.9513 2
8 10 -5 38.4076 9.3417 1
7 -10 -5 30.8624 6.7101 1
7 10 -5 12.0571 5.8611 1
-7 10 5 15.7744 4.8437 2
6 -10 -5 71.9228 9.3832 1
6 10 -5 74.2984 11.6533 1
-6 10 5 65.203 8.9564 2
5 -10 -5 -0.1166 2.6389 1
-5 10 5 4.90271 3.318 2
5 10 -5 -0.6864 3.512 1
4 -10 -5 137.95 12.954 1
4 10 -5 125.017 9.54 2
-4 10 5 120.364 11.871 2
4 10 -5 94.4878 13.2759 1
3 -10 -5 2.92317 3.32385 1
3 10 -5 5.39377 4.325 1
3 10 -5 2.38255 2.996 2
-3 10 5 4.30775 3.12253 2
2 -10 -5 20.6309 5.4136 1
2 10 -5 13.3848 4.5309 2
2 10 -5 17.5001 5.9012 1
-2 10 5 17.6491 4.6792 2
1 -10 -5 3.02617 3.58791 1
1 10 -5 3.70709 3.26968 2
1 10 -5 1.48053 3.83585 1
0 -10 -5 45.4638 7.567 1
0 10 -5 44.8546 8.5617 1
0 10 -5 42.6615 7.0833 2
0 10 5 44.7191 9.2804 1
-1 10 -5 50.7294 7.522 2
1 10 5 36.1438 8.9583 1
-1 10 -5 39.2682 8.1839 1
-2 10 -5 80.5366 10.8783 1
-2 10 -5 56.3295 8.3414 2
2 10 5 41.9463 9.4365 1
3 10 5 14.6325 6.4936 1
-3 10 -5 17.6499 5.1119 2
-3 10 -5 6.41156 5.02106 1
4 10 5 17.7484 6.8108 1
-4 10 -5 35.763 6.8707 2
-5 10 -5 33.1184 7.0082 2
5 10 5 35.2884 9.1307 1
-6 10 -5 28.4706 6.5488 2
6 10 5 20.6727 7.6056 1
-7 10 -5 17.3697 5.2069 2
7 10 5 12.1737 7.0165 1
8 10 5 0.22825 4.95668 1
-8 10 -5 -0.2249 3.7629 2
9 10 5 42.009 10.9428 1
-9 10 -5 55.6391 9.2451 2
-10 10 -5 16.9909 6.4915 2
10 10 5 10.1819 7.719 1
-11 10 -5 -0.2949 4.4775 2
11 10 5 -2.153 6.5408 1
-12 10 -5 11.5475 5.8737 2
12 10 5 16.0358 8.7237 1
-13 11 5 16.7263 6.2779 2
12 -11 -5 17.4722 7.0456 1
-12 11 5 5.81779 4.73347 2
12 11 -5 19.9439 8.602 1
11 -11 -5 8.07112 6.9815 1
11 11 -5 5.07454 6.26746 1
-11 11 5 7.27731 4.56227 2
10 -11 -5 17.3529 7.4514 1
10 11 -5 17.4614 7.5402 1
-10 11 5 15.6068 5.5773 2
9 -11 -5 3.19081 4.64692 1
9 11 -5 12.4357 6.3347 1
-9 11 5 1.53869 3.21815 2
8 -11 -5 5.16003 4.45042 1
8 11 -5 0.79544 5.26966 1
-8 11 5 1.98215 3.26072 2
7 -11 -5 16.8135 5.4886 1
7 11 -5 15.2827 7.0841 1
-7 11 5 25.0187 6.1072 2
6 -11 -5 4.31834 4.07253 1
6 11 -5 2.81183 4.01035 1
-6 11 5 4.00121 3.63649 2
5 -11 -5 28.073 6.6025 1
5 11 -5 19.8464 7.182 1
-5 11 5 30.5894 6.6431 2
4 -11 -5 32.6072 6.9253 1
-4 11 5 43.0576 7.3791 2
4 11 -5 25.0184 7.6025 1
3 -11 -5 3.43663 3.76922 1
3 11 -5 1.85965 3.23643 2
-3 11 5 3.97769 3.671 2
3 11 -5 6.62791 5.33664 1
2 -11 -5 2.62774 3.73925 1
2 11 -5 11.2385 5.8782 1
2 11 -5 14.4637 4.7442 2
1 -11 -5 19.1739 5.8089 1
1 11 -5 30.0144 6.3433 2
1 11 -5 11.5174 6.0654 1
0 -11 -5 0.77605 3.30169 1
0 11 -5 4.90051 3.65919 2
0 11 -5 7.71082 4.99543 1
1 11 5 11.7085 6.3762 1
-1 11 -5 9.35787 4.36735 2
-1 11 -5 8.52884 5.39978 1
-2 11 -5 -0.309 4.3134 1
-2 11 -5 -0.6016 2.6574 2
2 11 5 3.24608 5.14814 1
-3 11 -5 25.4955 6.2647 2
3 11 5 18.29 7.6467 1
4 11 5 1.34648 5.43959 1
-4 11 -5 3.90123 3.62631 2
-5 11 -5 7.96998 4.52025 2
5 11 5 18.5887 8.0744 1
-6 11 -5 25.3861 6.9282 2
6 11 5 33.7662 9.9309 1
7 11 5 3.78847 6.27492 1
-7 11 -5 7.25529 4.97402 2
-8 11 -5 24.8406 6.6668 2
8 11 5 37.4232 10.6547 1
-9 11 -5 4.08531 4.78255 2
9 11 5 8.03709 8.01828 1
10 11 5 9.82515 7.87132 1
-10 11 -5 2.72173 4.61522 2
10 -12 -5 9.198 7.04016 1
-10 12 5 2.70988 3.84376 2
10 12 -5 -0.2512 5.6061 1
9 -12 -5 2.74179 5.44503 1
-9 12 5 -0.2556 3.6492 2
9 12 -5 -3.9688 5.3038 1
8 -12 -5 0.91759 4.52404 1
8 12 -5 14.7633 7.3384 1
-8 12 5 0.90324 3.54894 2
7 -12 -5 3.68944 4.33203 1
7 12 -5 7.82421 6.04368 1
-7 12 5 0.42621 3.73598 2
6 -12 -5 4.61099 4.5992 1
6 12 -5 -1.2524 4.9148 1
-6 12 5 3.47563 3.82662 2
5 -12 -5 -0.3266 4.1355 1
5 12 -5 -0.0467 5.0079 1
-5 12 5 -1.6362 3.1483 2
4 -12 -5 2.06736 3.88849 1
-4 12 5 3.94852 3.85118 2
4 12 -5 6.9098 5.99136 1
3 -12 -5 40.8408 7.8842 1
-3 12 5 36.6177 7.0599 2
3 12 -5 42.1995 9.6681 1
3 12 -5 30.8872 6.6074 2
2 -12 -5 2.72371 3.83475 1
2 12 -5 2.70425 3.9271 2
2 12 -5 -0.213 4.7825 1
1 -12 -5 4.00192 3.673 1
1 12 -5 -2.0457 3.2254 2
1 12 -5 -0.2954 4.9424 1
0 -12 -5 3.29143 4.14359 1
0 12 -5 3.59405 3.61367 2
0 12 -5 -4.6288 3.6396 1
-1 -12 -5 12.4035 5.1324 1
-1 12 -5 5.76674 4.71421 2
1 12 5 2.74433 5.61478 1
-1 12 -5 0.34131 4.86513 1
-2 12 -5 1.15303 4.78409 1
2 12 5 16.1247 7.8434 1
-2 12 -5 13.2111 5.1111 2
3 12 5 21.4107 7.9271 1
-3 12 -5 39.4152 8.2112 2
4 12 5 3.67136 6.2978 1
-4 12 -5 16.2374 5.5136 2
5 12 5 15.4144 7.7179 1
-5 12 -5 5.30343 4.65475 2
6 12 5 -0.0307 6.8966 1
-6 12 -5 1.13673 4.67666 2
-7 12 -5 1.95027 4.16855 2
7 12 5 2.58633 6.83481 1
-8 12 -5 12.7555 5.9296 2
8 12 5 7.19392 8.67579 1
-7 13 5 0.18716 4.09112 2
6 -13 -5 9.2708 5.46824 1
-6 13 5 8.01534 4.65543 2
6 13 -5 5.25012 6.22709 1
5 -13 -5 3.10104 4.91231 1
-5 13 5 2.7602 4.30466 2
5 13 -5 19.7319 8.1237 1
4 -13 -5 1.06468 3.95337 1
4 13 -5 0.75277 5.21687 1
3 -13 -5 2.91845 4.52599 1
3 13 -5 4.28385 5.6033 1
2 -13 -5 16.9854 6.0947 1
2 13 -5 15.3116 5.5638 2
2 13 -5 29.7628 8.9585 1
1 -13 -5 2.35604 4.42338 1
1 13 -5 7.03566 4.64782 2
1 13 -5 -5.1506 4.6155 1
0 -13 -5 -0.4582 4.1484 1
0 13 -5 0.0862 5.34475 1
0 13 -5 -0.5064 4.2865 2
-1 -13 -5 6.37272 4.81602 1
-1 13 -5 -2.665 3.9987 2
-1 13 -5 4.63458 4.82287 1
-2 -13 -5 6.86509 5.13422 1
-2 13 -5 16.1558 5.5703 2
2 13 5 13.6715 7.6082 1
3 13 5 23.2082 9.0841 1
-3 13 -5 42.109 8.5979 2
4 13 5 7.29875 6.74562 1
-4 13 -5 0.70659 4.181 2
-21 0 6 0.5166 4.20226 3
-20 0 6 36.1173 7.8129 3
19 0 -6 -3.5688 4.7414 1
-19 0 6 0.273 3.58196 3
18 0 -6 46.8692 9.3928 1
-18 0 6 34.5333 6.9146 3
-17 0 6 1.72309 2.86427 3
17 0 -6 1.65407 4.23874 1
-16 0 6 -0.4354 2.3494 3
16 0 -6 0.49131 3.84786 1
15 0 -6 2.50189 3.77676 1
-15 0 6 0.11965 2.38506 3
-14 0 6 219.741 13.612 3
14 0 -6 212.71 15.494 1
13 0 -6 -3.0244 3.0782 1
-13 0 6 -0.2902 2.0938 3
-12 0 6 0.29154 1.95974 3
12 0 -6 2.13773 3.25538 1
-11 0 6 2.7641 2.19541 3
11 0 -6 -0.3167 2.614 1
-10 0 6 50.206 5.8067 3
10 0 -6 57.7397 7.7656 1
-9 0 6 -0.5853 1.4099 3
9 0 -6 1.51681 2.37395 1
-8 0 6 1827.94 65.26 3
8 0 -6 1801.33 70.05 1
-7 0 6 -0.2884 1.3555 3
7 0 -6 0.36076 2.2088 1
-6 0 6 3972.22 136.04 3
6 0 -6 3958.63 144.26 1
5 0 -6 -0.5178 1.5373 1
4 0 -6 1.44053 1.61065 1
3 0 -6 -0.5355 1.4063 1
2 0 -6 4874.22 175.48 1
2 0 -6 4966.11 167.63 2
1 0 -6 -1.0383 1.0869 1
1 0 -6 -0.5955 1.0772 2
0 0 -6 -1.5389 0.9582 1
0 0 -6 -2.0097 0.8048 2
-1 0 -6 -0.5487 1.0391 2
-1 0 -6 0.547 1.0924 1
-2 0 -6 16.4054 2.0931 1
-2 0 -6 17.3407 3.1311 2
-3 0 -6 0.73528 1.35621 2
-3 0 -6 1.23789 0.94537 1
-4 0 -6 609.103 23.163 1
-4 0 -6 676.034 26.001 2
-5 0 -6 1.61406 1.73995 2
-6 0 -6 150.457 9.386 2
-7 0 -6 -0.1222 1.8453 2
-8 0 -6 0.10247 2.01605 2
-9 0 -6 1.04002 2.17669 2
-10 0 -6 212.832 12.815 3
-10 0 -6 221.854 12.951 2
-11 0 -6 4.42659 3.06461 2
-11 0 -6 -2.0524 2.3744 3
-12 0 -6 215.233 14.082 3
-12 0 -6 243.676 13.996 2
-13 0 -6 -3.402 2.9564 3
-14 0 -6 2.91861 3.5746 3
-15 0 -6 -0.7323 3.215 3
-16 0 -6 11.16 4.8882 3
-17 0 -6 -2.8613 3.5447 3
-18 0 -6 10.1003 5.5312 3
-21 -1 6 8.52197 4.76786 3
-21 1 6 5.79659 4.80353 3
-20 -1 6 3.82589 3.93989 3
-20 1 6 -0.8845 3.678 3
-19 -1 6 3.86064 3.58263 3
-19 1 6 5.19441 4.3097 3
19 1 -6 1.58236 5.38448 1
18 -1 -6 -0.6066 4.8944 1
-18 -1 6 2.73132 2.90825 3
18 1 -6 5.15265 5.52492 1
-18 1 6 4.15992 3.60475 3
17 -1 -6 0.28622 4.21973 1
-17 -1 6 -1.8337 2.465 3
17 1 -6 -4.6216 3.7809 1
-17 1 6 2.65911 3.31374 3
-16 -1 6 40.2468 6.7171 3
16 -1 -6 21.2256 6.5838 1
-16 1 6 27.9443 5.7258 3
16 1 -6 7.86735 5.30458 1
15 -1 -6 2.48858 4.21658 1
-15 -1 6 1.15663 2.67715 3
-15 1 6 10.8675 3.9576 3
15 1 -6 1.57063 4.20417 1
14 -1 -6 1.27249 3.14887 1
-14 -1 6 -2.8296 1.6548 3
-14 1 6 3.54909 2.87722 3
14 1 -6 -4.5622 2.939 1
-13 -1 6 13.429 3.6512 3
13 -1 -6 11.9079 4.6086 1
-13 1 6 7.87297 3.39442 3
13 1 -6 21.4344 5.593 1
-12 -1 6 30.6492 5.1483 3
12 -1 -6 31.9794 6.537 1
-12 1 6 32.6167 5.3263 3
12 1 -6 44.5135 7.4992 1
11 -1 -6 42.107 6.9763 1
-11 -1 6 38.7844 5.4748 3
11 1 -6 36.3237 6.3205 1
-11 1 6 38.2397 5.4432 3
10 -1 -6 1.07442 2.50725 1
-10 -1 6 1.19954 1.74648 3
-10 1 6 1.49994 1.70803 3
10 1 -6 -0.513 2.2426 1
9 -1 -6 1.53686 2.31801 1
-9 -1 6 0.47591 1.64308 3
9 1 -6 -1.5076 1.9357 1
-9 1 6 1.31449 1.90964 3
9 1 -6 -0.0325 0.8892 2
8 -1 -6 2906.64 107.13 1
-8 -1 6 2797.31 100.37 3
8 1 -6 2905.95 97.77 2
8 1 -6 2906.9 107.45 1
-8 1 6 2845.39 100.44 3
-7 -1 6 547.355 21.855 3
7 -1 -6 511.091 23.874 1
7 1 -6 522.358 24.241 1
-7 1 6 533.205 21.69 3
7 1 -6 531.429 19.729 2
6 -1 -6 3918.32 145.13 1
-6 -1 6 3976.18 136.97 3
6 1 -6 3919.04 145.3 1
6 1 -6 4101.35 135.74 2
-6 1 6 4043.18 137.08 3
5 -1 -6 3.64008 2.14427 1
5 1 -6 -0.5207 1.6326 1
5 1 -6 1.90086 1.17794 2
4 -1 -6 769.838 30.671 1
4 1 -6 723.204 27.66 2
4 1 -6 758.84 30.595 1
3 -1 -6 1.75499 1.64898 1
3 1 -6 8.63221 2.54146 1
3 1 -6 6.08726 1.75245 2
2 -1 -6 -1.0066 1.1651 1
2 1 -6 -0.1491 1.1886 2
2 1 -6 0.0484 1.39435 1
1 -1 -6 355.58 15.566 1
1 1 -6 364.731 15.352 1
1 1 -6 349.761 15.223 2
0 -1 -6 239.238 11.405 1
0 1 -6 267.263 12.011 2
0 1 -6 249.875 11.068 1
-1 -1 -6 410.52 16.512 1
-1 1 -6 409.448 17.6 2
-1 1 -6 412.211 16.25 1
-2 -1 -6 7.04664 2.22933 2
-2 -1 -6 7.69909 1.54752 1
-2 1 -6 2.94597 1.80885 2
-2 1 -6 6.51498 1.27455 1
-3 -1 -6 650.902 26.461 2
-3 -1 -6 677.226 25.121 1
-3 1 -6 667.302 26.893 2
-4 -1 -6 97.8103 6.6114 2
-4 -1 -6 88.5502 4.779 1
-4 1 -6 86.1463 6.5935 2
-5 -1 -6 86.6071 6.6143 2
5 1 6 88.4719 5.5809 1
-5 1 -6 91.3092 6.9818 2
-6 -1 -6 1.38574 1.82867 2
-6 1 -6 0.14471 1.66231 2
6 1 6 3.15811 1.5935 1
-7 -1 -6 33.8941 4.8392 2
-7 1 -6 37.4698 5.2503 2
7 1 6 29.0488 3.7437 1
-8 -1 -6 184.491 10.862 2
-8 1 -6 175.572 11.016 2
-9 -1 -6 11.2932 3.3491 2
-9 1 -6 32.9731 5.4131 2
-10 -1 -6 75.4445 7.8262 2
-10 -1 -6 74.0595 7.9313 3
-10 1 -6 75.3354 8.0453 3
-10 1 -6 70.4816 8.0461 2
-11 -1 -6 3.42778 2.62443 2
-11 -1 -6 0.17255 2.40174 3
-11 1 -6 -4.5461 2.2923 2
-11 1 -6 -0.6642 2.3617 3
-12 -1 -6 33.5933 6.1833 3
-12 1 -6 38.216 6.4953 3
-12 1 -6 34.8272 6.193 2
-13 -1 -6 45.0938 7.1512 3
-13 1 -6 40.783 7.1328 3
-14 -1 -6 0.09092 2.8161 3
-14 1 -6 -0.685 3.0339 3
-15 -1 -6 3.93147 3.58788 3
-15 1 -6 1.45047 3.5832 3
-16 -1 -6 43.1292 8.1702 3
-16 1 -6 46.9382 8.2174 3
-17 -1 -6 0.81398 3.66226 3
-17 1 -6 1.4365 4.24761 3
-18 -1 -6 23.2107 6.9225 3
-18 1 -6 21.3632 6.7224 3
-21 -2 6 -1.8655 3.3341 3
-21 2 6 0.98449 4.3538 3
-20 -2 6 11.6331 5.1562 3
-20 2 6 14.1174 5.6699 3
20 2 -6 12.8644 7.6305 1
-19 -2 6 15.7094 5.6341 3
-19 2 6 14.9637 5.6617 3
19 2 -6 10.7748 6.8218 1
18 -2 -6 13.8977 6.4047 1
-18 -2 6 1.60204 3.10109 3
18 2 -6 13.0288 6.2369 1
-18 2 6 11.3627 4.7008 3
17 -2 -6 4.5324 5.22042 1
-17 -2 6 9.73256 4.31043 3
17 2 -6 10.359 5.7064 1
-17 2 6 7.03854 4.21069 3
16 -2 -6 17.5341 5.8942 1
-16 -2 6 12.7956 4.3561 3
-16 2 6 14.4074 4.6414 3
16 2 -6 15.0892 6.0504 1
15 -2 -6 0.02793 3.85553 1
-15 -2 6 2.9087 2.57136 3
15 2 -6 -0.8646 4.1287 1
-15 2 6 3.51503 2.98874 3
-14 -2 6 3.86884 2.77803 3
14 -2 -6 4.5629 4.09113 1
-14 2 6 4.51425 2.79472 3
14 2 -6 -1.386 3.852 1
-13 -2 6 9.81638 3.40084 3
13 -2 -6 17.3469 5.1351 1
-13 2 6 4.42619 2.97793 3
13 2 -6 20.7102 5.5847 1
-12 -2 6 287.934 15.039 3
12 -2 -6 257.577 16.554 1
12 2 -6 265.91 17.216 1
-12 2 6 269.941 14.68 3
-11 -2 6 1.9641 2.15803 3
11 -2 -6 -4.2177 2.4553 1
-11 2 6 -0.4274 1.6358 3
11 2 -6 -1.1939 2.528 1
-10 -2 6 0.45854 1.67977 3
10 -2 -6 0.8159 2.80249 1
10 2 -6 1.30335 2.77009 1
-10 2 6 2.06877 2.05118 3
-9 -2 6 11.4005 2.9538 3
9 -2 -6 10.1559 3.7568 1
-9 2 6 10.1605 2.9124 3
9 2 -6 23.8478 5.1458 1
8 -2 -6 46.223 6.5631 1
-8 -2 6 46.2116 5.1417 3
-8 2 6 40.0363 4.8859 3
8 2 -6 44.5382 2.7881 2
8 2 -6 42.9551 6.574 1
-7 -2 6 179.653 9.593 3
7 -2 -6 186.132 11.509 1
7 2 -6 184.352 7.823 2
-7 2 6 167.283 9.432 3
7 2 -6 182.661 11.806 1
-6 -2 6 4.57632 1.87495 3
6 -2 -6 11.7158 3.2152 1
6 2 -6 7.40597 2.92422 1
6 2 -6 3.65766 1.43426 2
5 -2 -6 54.4097 6.3274 1
5 2 -6 75.2608 4.6393 2
5 2 -6 68.4402 7.1365 1
4 -2 -6 284.971 13.948 1
4 2 -6 258.496 13.705 1
4 2 -6 267.644 11.765 2
3 -2 -6 189.681 10.402 1
3 2 -6 187.217 10.406 1
2 -2 -6 37.9318 4.6336 1
2 2 -6 32.2509 3.8919 2
2 2 -6 41.1159 4.6188 1
1 -2 -6 683.562 26.936 1
1 2 -6 701.781 26.689 2
1 2 -6 663.959 27.086 1
0 -2 -6 170.882 8.71 1
0 2 -6 187.468 9.736 2
0 2 -6 187.38 9.037 1
-1 -2 -6 324.003 13.214 1
-1 2 -6 285.528 12.706 1
-1 2 -6 297.487 14.045 2
-2 -2 -6 530.917 20.73 1
-2 2 -6 511.432 21.776 2
-2 2 -6 516.546 19.913 1
-3 -2 -6 3.14751 1.42214 1
3 2 6 2.47464 1.80345 1
-3 2 -6 4.28521 2.06375 2
-4 -2 -6 240.558 12.365 2
-4 2 -6 249.289 12.978 2
4 2 6 249.673 12.3 1
-5 -2 -6 773.725 30.465 2
-5 2 -6 773.711 31.187 2
5 2 6 753.651 30.719 1
-6 -2 -6 840.931 33.116 2
6 2 6 884.426 33.698 1
-6 2 -6 787.682 33.658 2
-7 -2 -6 4.08684 2.20407 2
-7 2 -6 0.11902 2.27531 2
7 2 6 2.24136 2.31954 1
-8 -2 -6 15.9387 3.6337 2
-8 2 -6 5.19789 3.00602 2
-9 -2 -6 48.0424 6.0495 2
-9 2 -6 45.2413 6.2096 2
-10 -2 -6 -0.2267 2.1852 2
-10 -2 -6 2.93792 2.66742 3
-10 2 -6 -0.6729 1.8957 3
-10 2 -6 0.30417 2.6388 2
-11 -2 -6 12.6423 4.1876 3
-11 -2 -6 9.83814 3.62239 2
-11 2 -6 6.41288 3.22716 3
-11 2 -6 14.6189 4.427 2
-12 -2 -6 173.558 12.125 3
-12 2 -6 163.371 11.889 3
-12 2 -6 176.021 11.914 2
-13 -2 -6 15.601 4.8771 3
-13 2 -6 7.94351 3.91679 2
-13 2 -6 10.6252 4.2474 3
-14 -2 -6 2.10934 3.30851 3
-14 2 -6 15.2456 4.9514 3
-15 -2 -6 14.6107 4.8856 3
-15 2 -6 15.6487 5.4456 3
-16 -2 -6 -1.1309 2.8743 3
-16 2 -6 0.21411 2.98621 3
-17 -2 -6 -1.4788 3.8079 3
-17 2 -6 -3.1384 3.7069 3
-18 -2 -6 1.13689 4.0818 3
-18 2 -6 6.05295 4.98651 3
-20 -3 6 2.87943 4.16706 3
20 3 -6 8.29406 6.68229 1
-20 3 6 0.89087 3.86831 3
-19 -3 6 23.4621 6.1699 3
19 3 -6 5.29997 6.23555 1
-19 3 6 18.8165 5.9322 3
-18 -3 6 19.1183 5.7887 3
18 3 -6 13.7813 6.8097 1
-18 3 6 15.136 5.2503 3
-17 -3 6 -0.44 2.8375 3
17 -3 -6 -0.2375 4.2817 1
17 3 -6 1.38304 4.70781 1
-17 3 6 2.66759 3.35838 3
16 -3 -6 4.19319 4.18754 1
-16 -3 6 1.99762 2.78078 3
-16 3 6 -1.1703 2.7867 3
16 3 -6 -1.6633 3.6321 1
-15 -3 6 -0.4939 2.5157 3
15 -3 -6 -0.5981 3.9482 1
-15 3 6 -3.0104 2.4228 3
15 3 -6 -0.6425 3.9393 1
14 -3 -6 4.34024 4.1316 1
-14 -3 6 7.05869 3.1642 3
14 3 -6 12.7236 5.5854 1
-14 3 6 11.4895 4.0003 3
-13 -3 6 146.53 10.098 3
13 -3 -6 117.436 12.457 1
13 3 -6 149.889 15.113 1
-13 3 6 122.963 9.49 3
12 -3 -6 7.34109 4.4798 1
-12 -3 6 8.89983 3.34404 3
-12 3 6 13.4035 3.2948 2
-12 3 6 11.3856 3.5325 3
12 3 -6 11.5816 4.6572 1
11 -3 -6 28.3551 6.1404 1
-11 -3 6 23.2951 4.3671 3
-11 3 6 24.6813 4.3764 3
11 3 -6 29.2101 6.5333 1
-11 3 6 19.664 3.6847 2
10 -3 -6 327.168 18.104 1
-10 -3 6 290.535 15.269 3
-10 3 6 327.084 14.555 2
-10 3 6 328.109 15.689 3
10 3 -6 306.459 18.681 1
9 -3 -6 84.3993 8.9959 1
-9 -3 6 73.2668 6.9622 3
9 3 -6 71.3825 9.2626 1
-9 3 6 72.5635 5.4885 2
-9 3 6 66.0121 6.5666 3
-8 -3 6 314.839 15.301 3
8 -3 -6 376.952 18.447 1
8 3 -6 336.923 18.59 1
-8 3 6 325.661 15.357 3
-7 -3 6 71.5425 6.3077 3
7 -3 -6 78.6852 8.3787 1
7 3 -6 75.7384 4.1488 2
7 3 -6 72.4098 8.6426 1
-7 3 6 61.8256 5.8506 3
6 -3 -6 14.7087 3.6248 1
-6 -3 6 22.216 3.2779 3
6 3 -6 19.6235 2.5653 2
6 3 -6 16.311 4.1703 1
5 -3 -6 49.9243 6.2805 1
5 3 -6 65.0642 7.2615 1
5 3 -6 64.6734 4.3853 2
4 -3 -6 123.864 8.383 1
4 3 -6 113.713 6.618 2
4 3 -6 116.211 8.464 1
3 -3 -6 14.774 3.2205 1
3 3 -6 10.8549 3.0816 1
2 -3 -6 46.9203 5.0348 1
2 3 -6 56.1339 5.9251 1
2 3 -6 49.8982 5.0168 2
1 -3 -6 93.3365 6.2772 1
1 3 -6 104.877 7.011 1
1 3 -6 100.345 6.602 2
0 -3 -6 1703.56 62.22 1
0 3 -6 1651.46 62.29 1
0 3 -6 1681.21 60.64 2
-1 -3 -6 271.069 12.436 1
-1 3 -6 260.958 13.162 2
-1 3 -6 264.946 12.273 1
-2 -3 -6 862.019 33.018 1
-2 3 -6 842.208 33.458 2
2 3 6 856.936 34.804 1
-2 3 -6 847.792 32.469 1
3 3 6 3.46474 2.14931 1
-3 3 -6 7.52277 2.52739 2
-3 3 -6 2.55089 1.43649 1
-4 3 -6 362.454 17.31 2
5 3 6 355.506 17.801 1
-5 3 -6 397.111 18.175 2
-6 -3 -6 102.678 7.416 2
-6 3 -6 84.2208 8.5141 2
6 3 6 106.168 7.965 1
-7 -3 -6 365.692 17.798 2
7 3 6 388.952 18.772 1
-7 3 -6 397.206 19.048 2
-8 -3 -6 4.9736 2.5746 2
-8 3 -6 3.88474 2.77769 2
8 3 6 -0.775 2.3921 1
-9 -3 -6 60.2918 6.8302 2
-9 3 -6 46.8584 6.1287 3
-9 3 -6 53.1254 7.0442 2
-10 -3 -6 27.6317 4.7751 2
-10 -3 -6 26.617 4.8544 3
-10 3 -6 30.3799 5.0047 3
-10 3 -6 35.178 5.8501 2
-11 -3 -6 134.727 9.802 3
-11 3 -6 103.179 10.079 3
-11 3 -6 109.491 10.612 2
-12 -3 -6 12.3206 4.4887 3
-12 3 -6 24.3387 5.6246 2
-12 3 -6 12.6383 4.0819 3
-13 -3 -6 -1.2799 3.0584 3
-13 3 -6 -1.7396 2.9078 3
-13 3 -6 0.15895 2.80507 2
-14 -3 -6 4.07694 3.32651 3
-14 3 -6 0.21145 2.97224 2
-14 3 -6 -0.8523 2.852 3
-15 -3 -6 4.89685 3.65242 3
-15 3 -6 -1.9784 3.1441 3
-16 -3 -6 -2.6412 3.0586 3
-16 3 -6 -1.5894 3.7179 3
-17 -3 -6 -4.2011 3.1018 3
-17 3 -6 0.55262 3.38708 3
-18 -3 -6 11.1026 5.382 3
-18 3 -6 -0.9204 4.4417 3
-20 -4 6 12.8444 5.5075 3
-20 4 6 12.1502 5.6897 3
20 4 -6 19.1316 9.5964 1
-19 -4 6 5.0205 4.30055 3
19 4 -6 1.43027 6.38511 1
-19 4 6 8.77092 4.74119 3
-18 -4 6 0.73928 3.4371 3
18 4 -6 -2.0307 5.5018 1
-18 4 6 2.39154 3.92853 3
17 -4 -6 5.61067 5.19416 1
-17 -4 6 9.37198 4.30711 3
-17 4 6 3.17519 3.34929 3
17 4 -6 8.09728 5.47372 1
16 -4 -6 -0.5718 4.031 1
-16 -4 6 4.18913 3.14721 3
16 4 -6 3.80763 4.54536 1
-16 4 6 1.09588 3.01121 3
15 -4 -6 18.2432 6.0586 1
-15 -4 6 7.82153 3.86183 3
-15 4 6 6.2255 3.39917 3
15 4 -6 12.3667 5.747 1
14 -4 -6 61.438 9.2948 1
-14 -4 6 61.4394 7.7355 3
-14 4 6 43.8322 6.7677 3
14 4 -6 51.9914 9.5606 1
13 -4 -6 30.5284 6.4506 1
-13 -4 6 16.6264 4.1847 3
13 4 -6 33.4563 7.4364 1
-13 4 6 18.816 4.0146 2
-13 4 6 23.1719 4.8255 3
-12 -4 6 86.0813 8.7186 3
12 -4 -6 81.8428 10.2603 1
-12 4 6 96.3773 8.9364 3
-12 4 6 100.204 7.467 2
12 4 -6 101.959 12.373 1
-11 -4 6 -0.9556 2.2528 3
11 -4 -6 3.4066 3.61171 1
-11 4 6 0.15394 2.23262 3
-11 4 6 -0.873 1.9845 2
11 4 -6 -1.6811 2.6863 1
10 -4 -6 6.47289 3.7001 1
-10 -4 6 7.2897 2.77129 3
-10 4 6 2.50681 2.15409 2
-10 4 6 4.49685 2.55679 3
10 4 -6 11.6845 4.9388 1
9 -4 -6 9.67216 4.10248 1
-9 -4 6 17.7265 3.4938 3
9 4 -6 14.9413 4.99 1
-9 4 6 18.8763 3.5639 2
-9 4 6 13.4617 3.1989 3
8 -4 -6 1.8551 2.72284 1
-8 -4 6 -1.8677 1.3728 3
-8 4 6 5.30816 2.13942 3
8 4 -6 -2.3071 2.2575 1
-8 4 6 -0.7978 1.4542 2
7 -4 -6 39.4465 6.3134 1
-7 -4 6 48.2827 5.063 3
7 4 -6 44.632 3.2449 2
7 4 -6 33.2614 6.2684 1
-7 4 6 44.8411 5.0729 2
6 -4 -6 24.5252 4.8236 1
6 4 -6 28.4544 3.1547 2
6 4 -6 22.1194 5.0156 1
5 -4 -6 31.5888 5.3568 1
5 4 -6 36.6999 3.9367 2
5 4 -6 49.6034 6.5966 1
4 -4 -6 191.426 11.266 1
4 4 -6 217.506 12.712 1
4 4 -6 207.185 9.957 2
3 -4 -6 1.99867 1.80904 1
3 4 -6 0.85615 2.03164 1
3 4 -6 -0.6597 1.3267 2
2 -4 -6 282.575 13.738 1
2 4 -6 288.129 13.336 2
2 4 -6 272.674 14.564 1
1 -4 -6 215.712 11.591 1
1 4 -6 232.544 11.852 2
1 4 -6 248.707 12.7 1
0 -4 -6 -1.6102 1.0225 1
0 4 -6 -1.6276 1.6985 2
0 4 -6 -0.5929 1.767 1
-1 -4 -6 119.92 7.446 1
-1 4 -6 131.117 8.307 2
-1 4 -6 102.718 7.3 1
-2 4 -6 51.7506 6.0727 2
2 4 6 46.4248 6.4118 1
-2 4 -6 54.5927 5.3616 1
3 4 6 501.692 22.662 1
-3 4 -6 466.188 21.276 2
-3 4 -6 459.421 19.736 1
-4 4 -6 819.184 31.468 1
4 4 6 834.5 34.889 1
-4 4 -6 793.836 33.223 2
5 4 6 180.754 11.777 1
-5 4 -6 187.61 11.436 2
6 4 6 203.843 12.769 1
-7 -4 -6 53.4664 6.4367 2
-7 4 -6 53.5624 7.058 2
-8 -4 -6 50.4567 6.2955 2
-8 4 -6 51.2878 6.847 2
8 4 6 54.4879 7.5096 1
-9 -4 -6 306.347 15.166 2
9 4 6 281.49 16.643 1
-9 4 -6 277.619 15.977 2
-9 4 -6 267.438 14.615 3
-10 -4 -6 5.48603 3.03039 3
-10 4 -6 -0.0859 2.6545 2
-10 4 -6 0.06115 2.5474 3
-11 -4 -6 20.898 4.7317 3
-11 4 -6 23.7679 5.0393 3
-11 4 -6 29.1612 5.7399 2
-12 -4 -6 -4.2092 2.3004 3
-12 4 -6 -1.985 2.6429 2
-12 4 -6 -3.0539 2.6688 3
-13 -4 -6 59.161 8.7068 3
-13 4 -6 79.8045 9.1341 3
-13 4 -6 70.4287 9.1394 2
-14 -4 -6 10.852 4.4859 3
-14 4 -6 15.3243 5.0739 3
-14 4 -6 9.25354 4.75139 2
-15 -4 -6 5.79943 3.25531 3
-15 4 -6 13.4314 4.784 3
-16 -4 -6 2.81403 3.9754 3
-16 4 -6 -2.6005 3.5761 3
-17 -4 -6 5.46803 4.3164 3
-17 4 -6 -1.2496 4.0846 3
-19 -5 6 3.78622 4.05814 3
-19 5 6 -2.758 3.6699 3
19 5 -6 -1.9582 6.1772 1
-18 -5 6 2.93577 3.45918 3
18 5 -6 8.60961 6.39168 1
-18 5 6 3.68064 4.11082 3
-17 -5 6 5.50788 3.63049 3
17 5 -6 7.29566 5.94458 1
-17 5 6 -0.3432 3.5972 3
-16 -5 6 79.821 9.4537 3
16 -5 -6 57.7616 10.0648 1
16 5 -6 83.2734 13.4759 1
-16 5 6 87.56 10.0531 3
-15 -5 6 36.3208 6.4791 3
15 -5 -6 49.0846 9.0128 1
-15 5 6 37.6498 6.5912 3
15 5 -6 22.8758 7.7917 1
-14 -5 6 25.5822 5.2603 3
14 -5 -6 24.5145 6.8002 1
-14 5 6 21.517 4.9862 3
14 5 -6 19.4344 6.5502 1
13 -5 -6 4.39907 4.24031 1
-13 -5 6 3.31965 2.93128 3
-13 5 6 0.66164 2.54443 3
-13 5 6 4.23442 2.79512 2
13 5 -6 7.88387 5.24194 1
12 -5 -6 43.6114 7.6925 1
-12 -5 6 45.5773 6.3363 3
12 5 -6 50.4148 9.478 1
-12 5 6 53.0597 6.6682 2
-12 5 6 48.8227 6.408 3
11 -5 -6 -1.6456 2.8797 1
-11 -5 6 0.24152 2.48494 3
-11 5 6 0.46012 2.37717 2
11 5 -6 -1.7061 3.586 1
-11 5 6 0.45646 2.47767 3
-10 -5 6 167.408 10.27 3
10 -5 -6 174.349 12.893 1
-10 5 6 152.901 9.94 3
-10 5 6 173.967 10.474 2
10 5 -6 179.596 16.775 1
9 -5 -6 -3.108 2.5294 1
-9 -5 6 -1.6456 1.6092 3
-9 5 6 -0.4515 2.0083 2
9 5 -6 -2.2466 2.5728 1
-9 5 6 -0.5892 1.9867 3
8 -5 -6 346.443 18.819 1
-8 -5 6 312.617 15.111 3
-8 5 6 328.204 15.914 2
8 5 -6 324.115 19.627 1
7 -5 -6 13.0588 4.2258 1
-7 -5 6 10.0947 2.6276 3
7 5 -6 4.39169 3.5321 1
7 5 -6 7.01635 2.00371 2
-7 5 6 6.9137 2.74069 2
6 -5 -6 25.952 5.2744 1
6 5 -6 30.9716 5.9387 1
6 5 -6 26.7917 3.3556 2
-6 5 6 24.9803 4.0757 2
5 -5 -6 27.3762 4.5492 1
5 5 -6 20.3825 3.1947 2
5 5 -6 28.7012 5.4799 1
-5 5 6 20.1179 3.7429 2
4 -5 -6 98.0676 7.4643 1
4 5 -6 118.901 11.078 1
4 5 -6 91.4211 6.2045 2
3 -5 -6 61.1284 6.4159 1
3 5 -6 57.7024 5.6914 2
3 5 -6 59.4504 7.3905 1
2 -5 -6 82.0049 6.5063 1
2 5 -6 77.5376 8.4376 1
2 5 -6 83.9908 6.2309 2
1 -5 -6 10.0718 2.8796 1
1 5 -6 8.40527 2.67807 2
1 5 -6 14.6621 3.762 1
0 -5 -6 309.178 15.558 1
0 5 -6 335 15.663 2
0 5 -6 327.237 16.552 1
-1 5 -6 0.10509 1.65716 2
-1 5 -6 2.09443 2.14884 1
1 5 6 0.44057 2.38174 1
-2 5 -6 -0.541 1.6962 2
-2 5 -6 4.69684 2.35625 1
2 5 6 3.5227 2.78866 1
-3 5 -6 43.3191 5.8684 2
3 5 6 42.2081 6.7933 1
-3 5 -6 44.6954 5.4833 1
-4 5 -6 11.299 3.0827 1
4 5 6 23.0689 5.2792 1
-4 5 -6 12.0753 3.4992 2
5 5 6 -2.6377 2.365 1
-5 5 -6 3.08112 2.62089 2
-6 5 -6 27.0809 4.9774 2
6 5 6 27.8743 5.8155 1
-7 5 -6 43.0202 6.4606 2
7 5 6 28.2433 5.8523 1
-8 5 -6 95.9446 8.4353 3
-8 5 -6 94.8974 9.8654 2
8 5 6 118.574 12.047 1
-9 -5 -6 42.0839 6.1411 2
-9 -5 -6 33.5565 5.382 3
-9 5 -6 34.7369 5.3453 3
-9 5 -6 21.7719 5.2079 2
9 5 6 23.197 6.2044 1
-10 -5 -6 132.291 9.866 3
-10 5 -6 133.858 9.62 3
-10 5 -6 131.013 12.082 2
-11 -5 -6 -0.1802 2.6502 3
-11 5 -6 1.161 3.21964 2
-11 5 -6 0.99344 2.94524 3
-12 -5 -6 99.6824 10.4855 3
-12 5 -6 89.0038 9.486 3
-12 5 -6 85.5784 10.0607 2
-13 -5 -6 16.5054 4.8149 3
-13 5 -6 9.43635 4.22745 3
-13 5 -6 10.4852 4.3995 2
-14 -5 -6 1.64955 3.59809 3
-14 5 -6 2.69821 3.55912 2
-14 5 -6 7.84464 4.29827 3
-15 -5 -6 5.56902 4.16784 3
-15 5 -6 9.37443 4.61404 3
-15 5 -6 16.9555 5.7642 2
-16 -5 -6 16.8737 6.278 3
-16 5 -6 8.57942 4.8954 3
-17 -5 -6 -3.3278 3.885 3
-17 5 -6 -3.0647 4.1964 3
-19 -6 6 -1.9286 3.5683 3
19 6 -6 12.5635 8.8639 1
-18 -6 6 4.53839 3.86741 3
18 6 -6 2.16827 5.85789 1
-17 -6 6 4.06222 3.6131 3
-17 6 6 1.56412 3.83831 3
17 6 -6 5.32936 6.36197 1
16 -6 -6 -4.1433 4.6377 1
-16 -6 6 -0.4137 2.8422 3
16 6 -6 2.66409 4.90362 1
-16 6 6 1.21266 3.42407 3
-15 -6 6 17.1969 4.4932 3
15 -6 -6 35.304 8.1372 1
15 6 -6 31.6565 9.0736 1
-15 6 6 44.4791 6.9387 3
14 -6 -6 15.3612 5.8467 1
-14 -6 6 -0.0427 2.6339 3
-14 6 6 11.1488 4.0691 2
14 6 -6 8.03633 5.64857 1
-14 6 6 13.8204 4.3835 3
-13 -6 6 18.0327 4.4234 3
13 -6 -6 28.3918 6.8496 1
13 6 -6 23.6305 7.3409 1
-13 6 6 18.8809 4.5824 3
-13 6 6 25.7277 5.3 2
12 -6 -6 37.1233 7.752 1
-12 -6 6 57.902 7.1617 3
-12 6 6 50.7481 6.6787 3
-12 6 6 44.9702 6.6498 2
12 6 -6 43.1752 9.3909 1
-11 -6 6 111.518 8.261 3
11 -6 -6 93.117 11.4817 1
11 6 -6 103.542 13.357 1
-11 6 6 90.3128 8.5095 3
-11 6 6 72.9463 8.1724 2
-10 -6 6 111.357 8.321 3
10 -6 -6 153.893 14.136 1
10 6 -6 147.516 15.442 1
-10 6 6 117.781 10.399 2
9 -6 -6 -0.1486 2.9239 1
-9 -6 6 4.04761 2.35994 3
9 6 -6 -0.3856 3.2583 1
-9 6 6 2.52589 2.12111 2
-8 -6 6 43.1226 5.1386 3
8 -6 -6 40.576 7.3614 1
8 6 -6 22.4581 6.1809 1
-8 6 6 42.0008 5.9155 2
7 -6 -6 132.09 12.511 1
7 6 -6 126.698 13.435 1
-7 6 6 137.597 9.355 2
6 -6 -6 85.6537 9.0413 1
6 6 -6 91.1729 10.8425 1
-6 6 6 104.13 9.11 2
6 6 -6 94.1131 6.2838 2
5 -6 -6 3.41115 2.45273 1
5 6 -6 0.24221 1.54091 2
5 6 -6 4.09601 3.01785 1
-5 6 6 -1.3555 1.681 2
4 -6 -6 61.733 7.1224 1
4 6 -6 64.7405 8.6276 1
3 -6 -6 250.271 13.838 1
3 6 -6 252.533 15.456 1
3 6 -6 250.711 12.708 2
2 -6 -6 159.299 10.057 1
2 6 -6 146.66 11.032 1
2 6 -6 138.911 8.991 2
1 -6 -6 383.97 18.343 1
1 6 -6 391.925 19.76 1
1 6 -6 352.481 17.411 2
0 -6 -6 55.1347 6.3804 1
0 6 -6 55.3159 7.3064 1
0 6 -6 59.5319 6.6139 2
-1 6 -6 34.2924 5.7437 1
-1 6 -6 43.1495 5.8224 2
1 6 6 33.2498 6.4735 1
-2 6 -6 84.2927 8.2691 1
2 6 6 75.5037 9.4197 1
-2 6 -6 69.4927 7.7527 2
-3 6 -6 29.5158 5.05 1
3 6 6 38.1942 6.9345 1
-3 6 -6 36.2181 5.6484 2
-4 6 -6 171.411 11.508 2
4 6 6 185.37 13.115 1
-4 6 -6 163.723 10.729 1
-5 6 -6 35.9748 5.8966 2
5 6 6 53.6397 8.1997 1
6 6 6 750.345 35.091 1
-7 6 -6 35.0377 6.264 2
7 6 6 30.8619 7.1009 1
-8 -6 -6 45.0969 6.0623 3
8 6 6 50.5657 8.4908 1
-8 6 -6 46.119 7.257 2
-9 -6 -6 8.07007 3.0577 3
9 6 6 11.5898 5.0746 1
-9 6 -6 3.69807 3.12781 2
-10 -6 -6 22.1227 4.8853 3
-10 6 -6 22.1379 5.3662 2
10 6 6 23.9496 6.7775 1
-11 -6 -6 4.48952 3.20032 3
-11 6 -6 4.87065 3.85131 2
-12 -6 -6 15.7098 4.6757 3
-12 6 -6 19.4933 5.5938 2
-13 -6 -6 -2.1344 2.62 3
-13 6 -6 3.4932 3.87071 2
-14 -6 -6 -1.0763 3.22 3
-14 6 -6 -3.4209 3.1825 2
-15 -6 -6 0.70578 4.03203 3
-15 6 -6 1.45878 4.43731 2
-16 -6 -6 4.22754 4.30072 3
18 7 -6 12.0021 8.057 1
17 7 -6 6.56771 6.83953 1
16 7 -6 6.7614 6.43336 1
15 -7 -6 0.0841 4.96288 1
15 7 -6 0.38905 5.26698 1
14 -7 -6 52.954 9.752 1
-14 7 6 58.5249 8.0803 2
14 7 -6 63.4252 12.1689 1
13 -7 -6 37.2901 8.3448 1
-13 7 6 44.9498 6.857 2
13 7 -6 35.1408 9.4996 1
12 -7 -6 8.34069 5.13368 1
-12 7 6 13.0587 4.5538 2
12 7 -6 12.9072 6.5858 1
11 -7 -6 13.6722 5.6882 1
-11 7 6 8.65906 3.73004 2
11 7 -6 8.23765 5.63011 1
10 -7 -6 6.21382 5.13131 1
10 7 -6 11.3359 5.4268 1
-10 7 6 8.61183 3.72233 2
9 -7 -6 0.96529 3.44565 1
-9 7 6 0.20905 2.46686 2
9 7 -6 -3.9258 3.1536 1
8 -7 -6 20.6513 5.7504 1
-8 7 6 26.1084 4.9656 2
8 7 -6 7.50064 4.71986 1
7 -7 -6 14.2383 4.6437 1
7 7 -6 9.05464 4.64136 1
-7 7 6 13.1492 3.6883 2
6 -7 -6 4.96721 2.87996 1
6 7 -6 6.18869 2.48377 2
6 7 -6 7.38452 4.4243 1
-6 7 6 4.34052 2.65166 2
5 -7 -6 4.34193 2.95582 1
-5 7 6 2.03915 2.17061 2
5 7 -6 6.25061 2.55518 2
5 7 -6 0.36239 2.80038 1
4 -7 -6 -0.766 2.0396 1
4 7 -6 -1.1556 2.4553 1
-4 7 6 3.0273 2.23827 2
4 7 -6 1.8675 2.08804 2
3 -7 -6 66.9992 7.7799 1
3 7 -6 82.1678 7.5567 2
3 7 -6 60.4333 8.8273 1
2 -7 -6 44.9465 6.3066 1
2 7 -6 28.075 5.9719 1
2 7 -6 32.6037 4.9699 2
1 -7 -6 127.521 9.834 1
1 7 -6 182.118 12.451 1
1 7 -6 163.369 10.171 2
0 -7 -6 119.464 8.908 1
0 7 -6 116.623 8.601 2
0 7 -6 108.007 11.11 1
1 7 6 33.8962 7.0683 1
-1 7 -6 26.8122 5.5586 1
-1 7 -6 14.6859 3.8412 2
-2 7 -6 17.9039 4.3664 2
2 7 6 12.3665 4.6608 1
-2 7 -6 25.009 5.1194 1
3 7 6 7.56845 4.34379 1
-3 7 -6 12.0816 4.3256 1
-3 7 -6 15.4903 4.4038 2
-4 7 -6 119.373 11.196 2
4 7 6 142.465 14.184 1
5 7 6 17.1452 5.9674 1
-5 7 -6 16.273 4.6211 2
-6 7 -6 10.677 4.1734 2
6 7 6 10.7779 5.0547 1
-7 -7 -6 16.6704 3.7591 3
-7 7 -6 8.03901 3.87587 2
7 7 6 4.22921 4.62259 1
-8 -7 -6 2.66146 2.64481 3
8 7 6 8.6742 4.8759 1
-8 7 -6 4.92726 3.57447 2
-9 -7 -6 4.91352 3.02075 3
9 7 6 8.3501 5.47337 1
-9 7 -6 3.21268 3.41373 2
-10 -7 -6 39.2626 6.2734 3
-10 7 -6 44.0474 7.3768 2
10 7 6 34.6682 8.6351 1
-11 -7 -6 0.54363 3.011 3
-11 7 -6 1.09863 3.73422 2
-12 -7 -6 2.67614 3.25746 3
-12 7 -6 -0.236 3.5346 2
-13 -7 -6 -4.5846 2.9845 3
-13 7 -6 0.58131 3.53935 2
-14 -7 -6 30.4482 6.8127 3
-14 7 -6 25.1098 6.523 2
-15 -7 -6 -4.7004 3.0644 3
-15 7 -6 -1.1698 4.0873 2
17 8 -6 -4.1612 6.6972 1
16 8 -6 7.01441 7.69399 1
-15 8 6 3.77195 3.61012 2
15 8 -6 0.47477 5.55448 1
14 -8 -6 20.5922 7.2257 1
14 8 -6 24.4308 8.9704 1
-14 8 6 17.6387 5.5215 2
13 -8 -6 2.83515 4.79105 1
13 8 -6 -1.5611 4.5963 1
-13 8 6 -1.9466 2.5549 2
12 -8 -6 52.7102 9.6335 1
-12 8 6 53.565 7.8599 2
12 8 -6 43.2933 9.9534 1
11 -8 -6 64.6228 10.0909 1
-11 8 6 57.0986 7.9118 2
11 8 -6 44.8525 9.8866 1
10 -8 -6 305.261 19.407 1
-10 8 6 261.684 15.731 2
10 8 -6 228.249 22.095 1
9 -8 -6 11.4584 5.2575 1
-9 8 6 12.0513 3.9164 2
9 8 -6 5.31299 4.70296 1
8 -8 -6 12.0119 5.0842 1
8 8 -6 11.4612 5.5308 1
-8 8 6 11.6944 4.1147 2
7 -8 -6 160.384 12.118 1
7 8 -6 158.168 16.711 1
-7 8 6 160.998 11.198 2
6 -8 -6 29.0948 5.8307 1
-6 8 6 26.9178 5.4488 2
6 8 -6 30.5122 7.5006 1
5 -8 -6 14.5244 4.5211 1
-5 8 6 8.37085 3.25655 2
5 8 -6 1.64064 1.99409 2
5 8 -6 5.74377 4.38289 1
4 -8 -6 38.8125 6.3969 1
4 8 -6 48.0893 8.6788 1
4 8 -6 43.9309 5.8605 2
-4 8 6 47.4207 6.6287 2
3 -8 -6 34.3047 6.1218 1
3 8 -6 43.0464 7.633 1
3 8 -6 29.9915 5.1736 2
2 -8 -6 27.9758 5.4309 1
2 8 -6 20.8843 5.99 1
2 8 -6 16.8685 4.4111 2
1 -8 -6 40.9583 6.6257 1
1 8 -6 38.4275 7.4128 1
1 8 -6 36.3358 5.7868 2
0 -8 -6 -3.8975 1.755 1
0 8 -6 -3.0765 2.2217 2
0 8 -6 5.09727 3.81451 1
-1 8 -6 6.29476 3.21189 2
-1 8 -6 1.63218 3.47444 1
1 8 6 -0.9667 3.6182 1
2 8 6 71.1739 10.7623 1
-2 8 -6 61.8196 8.0664 2
-2 8 -6 83.6944 9.86 1
3 8 6 -2.4662 3.6959 1
-3 8 -6 13.7096 4.9016 1
-3 8 -6 1.38606 2.91084 2
-4 8 -6 48.9408 7.5854 2
4 8 6 65.6896 10.4894 1
-5 8 -6 145.277 13.177 2
5 8 6 144.589 15.577 1
6 8 6 30.3202 7.7674 1
-6 8 -6 31.8315 6.3696 2
-7 8 -6 29.1903 6.0544 2
7 8 6 16.7702 6.6636 1
-8 8 -6 7.77419 4.11963 2
8 8 6 0.64447 4.78033 1
9 8 6 11.2079 5.7514 1
-9 8 -6 5.24233 3.89065 2
-10 8 -6 54.1128 8.8625 2
10 8 6 43.9498 9.7686 1
-11 8 -6 2.5169 3.8753 2
11 8 6 -2.2405 4.664 1
-12 8 -6 1.4771 4.07845 2
-13 8 -6 4.04878 4.58295 2
-14 8 -6 35.6652 8.2482 2
16 9 -6 26.7331 10.2612 1
-15 9 6 2.73922 3.76695 2
15 9 -6 5.76827 7.57133 1
14 -9 -6 5.13534 5.77248 1
14 9 -6 -1.6616 6.2151 1
-14 9 6 10.3088 4.72 2
13 -9 -6 2.70773 5.10792 1
-13 9 6 -1.4393 3.0119 2
13 9 -6 0.27567 6.06183 1
12 -9 -6 5.59488 5.3632 1
-12 9 6 0.75936 3.4532 2
12 9 -6 0.05765 5.1402 1
11 -9 -6 7.63224 5.33106 1
-11 9 6 4.85966 3.77533 2
11 9 -6 19.6959 7.3139 1
10 -9 -6 24.2316 7.244 1
-10 9 6 4.23176 3.31848 2
10 9 -6 11.8418 6.6743 1
9 -9 -6 98.6558 12.7748 1
9 9 -6 114.912 15.207 1
-9 9 6 118.182 11.586 2
8 -9 -6 1.42785 3.5881 1
-8 9 6 0.47934 2.8264 2
8 9 -6 3.97808 4.78115 1
7 -9 -6 234.591 15.557 1
-7 9 6 248.01 15.088 2
7 9 -6 218.573 17.839 1
6 -9 -6 55.7753 7.9306 1
-6 9 6 30.7785 5.915 2
6 9 -6 26.3631 7.1903 1
5 -9 -6 61.0677 8.3901 1
5 9 -6 56.626 10.0059 1
-5 9 6 61.7668 8.0964 2
4 -9 -6 6.26582 3.65202 1
4 9 -6 7.25621 4.57687 1
-4 9 6 10.3811 3.8417 2
4 9 -6 7.60169 3.43847 2
3 -9 -6 0.90531 2.5875 1
3 9 -6 3.06294 3.64706 1
3 9 -6 0.05698 2.42052 2
2 -9 -6 1.25531 3.05173 1
2 9 -6 -0.6491 2.7971 2
2 9 -6 7.97947 4.93763 1
1 -9 -6 17.9617 4.8676 1
1 9 -6 16.7996 5.6562 1
1 9 -6 15.7176 4.6853 2
0 -9 -6 120.013 11.505 1
0 9 -6 115.571 10.965 2
0 9 -6 75.5046 10.6826 1
-1 9 -6 0.54948 3.06545 2
-1 9 -6 -0.2633 3.1684 1
1 9 6 -4.64 3.554 1
2 9 6 15.4783 5.6041 1
-2 9 -6 3.40509 3.77285 1
-2 9 -6 11.1132 4.4161 2
-3 9 -6 3.41936 3.32896 2
3 9 6 5.37422 4.80497 1
-4 9 -6 1.89866 3.55223 2
4 9 6 15.6704 5.9719 1
5 9 6 -5.8731 4.1543 1
-5 9 -6 -3.4461 2.4386 2
-6 9 -6 19.8949 5.4322 2
6 9 6 11.6858 5.9289 1
7 9 6 4.88952 4.9108 1
-7 9 -6 1.70722 3.70417 2
8 9 6 1.04399 5.267 1
-8 9 -6 0.02112 3.54767 2
-9 9 -6 17.4446 5.7622 2
9 9 6 1.61261 5.50362 1
-10 9 -6 30.2066 7.3207 2
10 9 6 28.852 8.877 1
11 9 6 -1.1503 5.9703 1
-11 9 -6 7.25414 5.16372 2
-12 9 -6 21.226 6.6672 2
-13 9 -6 4.1513 5.1379 2
-14 10 6 3.59379 4.20136 2
14 10 -6 1.31155 6.94323 1
13 -10 -6 16.5958 7.1499 1
13 10 -6 20.0951 8.1842 1
-13 10 6 7.44716 4.74804 2
12 -10 -6 2.65197 5.2896 1
-12 10 6 -0.4262 3.4615 2
12 10 -6 16.6425 7.8695 1
11 -10 -6 5.64377 5.68962 1
-11 10 6 1.27319 3.08328 2
11 10 -6 1.69504 4.74114 1
10 -10 -6 -1.7218 4.5522 1
-10 10 6 -0.7577 2.8266 2
10 10 -6 -2.7441 4.1776 1
9 -10 -6 5.39665 4.8704 1
-9 10 6 6.79401 3.5025 2
9 10 -6 2.34289 4.33045 1
8 -10 -6 3.32159 4.18937 1
8 10 -6 3.03199 4.93502 1
-8 10 6 9.93238 4.35032 2
7 -10 -6 19.311 5.507 1
7 10 -6 10.135 5.3071 1
-7 10 6 17.4513 5.0339 2
6 -10 -6 54.0084 8.35 1
-6 10 6 43.2078 7.3191 2
6 10 -6 28.5917 7.8252 1
5 -10 -6 3.3752 3.84391 1
-5 10 6 5.06275 3.07743 2
5 10 -6 1.94071 4.52952 1
4 -10 -6 23.0231 5.7996 1
4 10 -6 33.473 5.7852 2
4 10 -6 14.82 6.1615 1
-4 10 6 26.1898 5.8917 2
3 -10 -6 12.7744 4.5411 1
3 10 -6 20.2552 5.0181 2
3 10 -6 14.4234 5.9967 1
2 -10 -6 19.2532 5.1755 1
2 10 -6 15.0781 4.6407 2
2 10 -6 11.9112 5.6552 1
1 -10 -6 21.0992 5.7607 1
1 10 -6 12.2565 5.7383 1
1 10 -6 28.9136 5.7186 2
0 -10 -6 3.52202 3.71303 1
0 10 -6 8.60571 3.99513 2
0 10 -6 3.58712 4.38901 1
-1 -10 -6 40.6058 7.4 1
-1 10 -6 65.6704 8.7327 2
1 10 6 31.6577 8.4983 1
-1 10 -6 42.7306 8.5627 1
2 10 6 -5.6846 3.4361 1
-2 10 -6 -0.1451 4.0374 1
-2 10 -6 2.42857 3.14736 2
-3 10 -6 2.61948 3.63135 2
3 10 6 14.6857 7.0066 1
-4 10 -6 122.54 12.969 2
4 10 6 101.029 14.409 1
-5 10 -6 -2.6932 2.9105 2
5 10 6 -0.9014 5.0626 1
6 10 6 59.2828 11.4063 1
-6 10 -6 57.6046 9.4682 2
-7 10 -6 13.6304 5.4995 2
7 10 6 12.4815 7.3168 1
-8 10 -6 1.47552 3.33241 2
8 10 6 -1.3077 5.9577 1
-9 10 -6 9.83925 5.14849 2
9 10 6 15.3133 8.2042 1
-10 10 -6 6.63403 5.04208 2
10 10 6 -6.3181 5.7028 1
11 10 6 0.04389 6.71115 1
-11 10 -6 9.98258 5.01061 2
-12 10 -6 13.6538 5.065 2
12 -11 -6 -1.4608 6.0771 1
-12 11 6 -0.3188 3.635 2
12 11 -6 3.3055 6.0859 1
11 -11 -6 18.5534 7.6543 1
-11 11 6 13.8712 5.6184 2
11 11 -6 24.6425 8.9286 1
10 -11 -6 13.7715 6.5097 1
10 11 -6 26.7552 8.839 1
-10 11 6 4.55561 4.12885 2
9 -11 -6 1.41041 5.16089 1
-9 11 6 9.96432 4.53584 2
9 11 -6 3.40867 5.58225 1
8 -11 -6 51.5447 9.2808 1
-8 11 6 44.879 7.7357 2
8 11 -6 53.0312 10.906 1
7 -11 -6 30.6161 7.2886 1
-7 11 6 23.0267 5.9324 2
7 11 -6 29.5634 8.2941 1
6 -11 -6 -1.8538 2.889 1
-6 11 6 -2.5175 2.9696 2
6 11 -6 -1.8169 4.1943 1
5 -11 -6 2.02964 3.66804 1
-5 11 6 6.23635 3.92633 2
5 11 -6 2.43161 4.72804 1
4 -11 -6 8.05703 4.05425 1
4 11 -6 7.0534 5.43143 1
3 -11 -6 1.55714 3.60985 1
3 11 -6 -2.9933 4.3114 1
3 11 -6 7.11466 3.75751 2
2 -11 -6 -3.1773 3.0136 1
2 11 -6 -0.7316 4.6056 1
2 11 -6 -0.6021 3.052 2
1 -11 -6 33.8355 7.0881 1
1 11 -6 13.1276 6.1041 1
1 11 -6 17.1571 4.991 2
0 -11 -6 21.9609 6.0237 1
0 11 -6 23.127 6.9097 1
0 11 -6 27.901 6.3638 2
-1 -11 -6 7.73155 4.20522 1
-1 11 -6 14.7812 6.0027 1
-1 11 -6 9.32331 4.24524 2
-2 11 -6 42.6481 7.5485 2
2 11 6 10.1584 7.1483 1
3 11 6 15.1297 6.8983 1
-3 11 -6 3.66619 4.01043 2
4 11 6 4.20415 5.50126 1
-4 11 -6 1.42453 3.64261 2
5 11 6 -2.7977 5.1659 1
-5 11 -6 2.07681 4.42803 2
6 11 6 6.94503 6.73509 1
-6 11 -6 0.86679 3.60346 2
7 11 6 11.2863 7.4468 1
-7 11 -6 13.3937 5.4191 2
8 11 6 14.4384 8.465 1
-8 11 -6 18.6738 6.3158 2
9 11 6 0.30816 7.03079 1
-9 11 -6 7.3962 5.06218 2
-10 11 -6 17.6266 6.82 2
10 -12 -6 6.52711 6.47813 1
-10 12 6 4.80286 3.83998 2
10 12 -6 3.34372 5.99311 1
9 -12 -6 -5.9722 4.6672 1
-9 12 6 0.03534 3.78438 2
9 12 -6 -4.6832 4.8241 1
8 -12 -6 0.16111 4.77244 1
-8 12 6 0.09895 2.90039 2
8 12 -6 4.31815 5.58488 1
7 -12 -6 11.5276 5.5626 1
7 12 -6 19.1368 7.8722 1
-7 12 6 6.89775 4.08378 2
6 -12 -6 23.8412 6.6646 1
-6 12 6 19.155 5.9315 2
6 12 -6 14.224 6.9428 1
5 -12 -6 42.3045 8.1939 1
5 12 -6 15.7233 6.7662 1
4 -12 -6 12.3038 5.5105 1
4 12 -6 15.9871 7.0453 1
3 -12 -6 2.54703 4.23747 1
3 12 -6 0.28502 4.30928 1
2 -12 -6 5.70109 3.99566 1
2 12 -6 -1.5996 5.0344 1
2 12 -6 2.08877 3.65417 2
1 -12 -6 -3.8009 3.4726 1
1 12 -6 -1.444 4.6077 1
1 12 -6 -2.311 3.7052 2
0 -12 -6 14.7553 5.3772 1
0 12 -6 6.32893 4.37018 2
0 12 -6 12.1927 6.244 1
-1 -12 -6 11.1608 5.2797 1
-1 12 -6 19.1746 5.8896 2
-2 -12 -6 8.38055 4.86609 1
-2 12 -6 0.71804 3.81462 2
2 12 6 2.2124 5.65612 1
-3 12 -6 -2.6879 3.0426 2
3 12 6 3.19842 6.7022 1
-4 12 -6 13.1624 5.7816 2
4 12 6 15.9328 7.5768 1
5 12 6 4.33261 6.92851 1
-5 12 -6 24.6225 6.9643 2
-6 12 -6 4.44851 4.83531 2
6 12 6 -4.6373 6.044 1
-7 12 -6 18.8793 6.634 2
7 12 6 23.5853 9.37 1
5 -13 -6 3.14818 5.08979 1
5 13 -6 -0.292 5.2917 1
4 -13 -6 -0.8264 4.301 1
4 13 -6 -1.3817 5.5237 1
3 -13 -6 -0.7542 4.4061 1
3 13 -6 -1.4666 5.4188 1
2 -13 -6 19.5661 6.5151 1
2 13 -6 29.6664 8.7099 1
2 13 -6 20.1417 5.8967 2
1 -13 -6 11.4438 5.4056 1
1 13 -6 18.5461 6.2918 2
1 13 -6 21.8537 8.1451 1
0 -13 -6 19.6476 6.3751 1
0 13 -6 25.3185 6.9109 2
0 13 -6 6.0006 5.83195 1
-1 -13 -6 27.9274 7.3897 1
-1 13 -6 33.9988 7.8702 2
-2 -13 -6 20.2091 6.4746 1
-2 13 -6 26.2024 7.2313 2
3 13 6 1.20606 6.76081 1
-3 13 -6 2.13593 4.64317 2
-21 0 7 0.53183 4.5232 3
20 0 -7 0.94814 5.67683 1
-20 0 7 1.71816 3.78567 3
-19 0 7 1.33723 3.72687 3
19 0 -7 -1.8814 4.9832 1
18 0 -7 2.01123 4.75065 1
-18 0 7 5.01534 4.09166 3
17 0 -7 2.58298 4.56349 1
-17 0 7 -1.1403 2.8205 3
-16 0 7 29.544 5.9694 3
16 0 -7 39.6096 8.463 1
15 0 -7 2.24286 3.87119 1
-15 0 7 1.5623 2.6097 3
-14 0 7 -0.3863 2.4654 3
14 0 -7 1.56154 3.73373 1
13 0 -7 -0.9521 3.1367 1
-13 0 7 -0.5058 2.0267 3
12 0 -7 1.53872 3.45742 1
-12 0 7 5.32267 2.72947 3
-11 0 7 1.4838 2.09712 3
11 0 -7 1.27075 2.84507 1
10 0 -7 42.9987 6.9895 1
-10 0 7 50.6497 6.0921 3
9 0 -7 1.05074 2.41508 1
-9 0 7 0.09815 1.63576 3
8 0 -7 60.4364 7.5132 1
-8 0 7 50.0991 5.5923 3
7 0 -7 -2.4579 1.6532 1
-7 0 7 1.60624 1.8797 3
6 0 -7 178.979 11.157 1
5 0 -7 0.28421 1.73135 1
4 0 -7 643.32 27.09 1
3 0 -7 0.64594 1.36394 2
3 0 -7 -0.891 1.3899 1
2 0 -7 446.82 19.244 1
2 0 -7 442.778 18.472 2
1 0 -7 -0.7824 1.2806 1
1 0 -7 -1.0046 1.0084 2
0 0 -7 285.328 13.499 2
0 0 -7 295.475 12.979 1
-1 0 -7 -0.7994 1.1819 2
-1 0 -7 -0.9522 1.0502 1
-2 0 -7 202.768 9.017 1
-2 0 -7 194.673 10.678 2
-3 0 -7 -0.077 1.0157 1
-3 0 -7 -0.1831 1.4618 2
-4 0 -7 52.8169 3.2256 1
-4 0 -7 47.6335 5.6696 2
-5 0 -7 -1.0382 1.7761 2
-6 0 -7 62.8164 6.8803 2
-7 0 -7 2.59456 2.23327 2
-8 0 -7 402.662 19.528 2
-9 0 -7 1.39606 2.42685 2
-10 0 -7 165.38 11.138 2
-11 0 -7 -3.4215 2.3499 2
-11 0 -7 -1.837 2.1846 3
-12 0 -7 308.318 17.27 2
-12 0 -7 325.401 17.929 3
-13 0 -7 -0.4823 3.0516 3
-14 0 -7 10.8119 4.7313 3
-15 0 -7 -1.5804 3.1584 3
-16 0 -7 26.565 6.741 3
-17 0 -7 5.19202 4.53842 3
-18 0 -7 5.7974 4.8543 3
-21 -1 7 11.3734 5.4809 3
-21 1 7 14.8689 5.4078 3
-20 -1 7 8.72631 5.08747 3
20 1 -7 19.2909 7.5667 1
-20 1 7 14.302 5.5838 3
-19 -1 7 -1.8517 3.0047 3
19 -1 -7 -5.4815 4.597 1
19 1 -7 6.25908 6.07881 1
-19 1 7 2.8344 4.04649 3
18 -1 -7 4.28172 4.75569 1
-18 -1 7 1.61372 2.92815 3
-18 1 7 3.11461 3.54516 3
18 1 -7 2.06835 5.1821 1
17 -1 -7 2.61295 4.38739 1
-17 -1 7 1.396 2.65783 3
-17 1 7 1.59529 2.86861 3
17 1 -7 -2.3815 4.3256 1
-16 -1 7 58.2518 8.2539 3
16 -1 -7 81.2693 11.2776 1
-16 1 7 72.7944 9.1172 3
16 1 -7 75.0164 10.9694 1
-15 -1 7 57.0289 7.6205 3
15 -1 -7 63.2748 9.6806 1
15 1 -7 68.2384 10.3935 1
-15 1 7 54.2559 7.6424 3
14 -1 -7 20.1858 5.9478 1
-14 -1 7 20.9462 4.7018 3
-14 1 7 26.1399 5.2269 3
14 1 -7 22.5051 5.8626 1
13 -1 -7 -0.8506 2.9891 1
-13 -1 7 0.37708 2.32474 3
-13 1 7 -0.1887 2.2568 3
13 1 -7 2.10624 3.37754 1
-12 -1 7 8.12616 3.04189 3
12 -1 -7 6.68689 4.14064 1
12 1 -7 11.7868 4.3516 1
-12 1 7 9.65593 3.29776 3
-11 -1 7 101.185 8.989 3
11 -1 -7 100.878 11.206 1
11 1 -7 95.4224 10.8542 1
-11 1 7 108.851 9.466 3
10 -1 -7 34.1344 6.3647 1
-10 -1 7 33.3516 4.9608 3
-10 1 7 42.7352 5.6046 3
10 1 -7 31.4336 6.2032 1
-9 -1 7 75.0084 7.1672 3
9 -1 -7 75.2002 8.7332 1
9 1 -7 54.9314 7.7764 1
9 1 -7 81.4811 4.609 2
-9 1 7 81.3223 7.4386 3
8 -1 -7 10.7047 3.6775 1
-8 -1 7 6.52296 2.44363 3
-8 1 7 6.04789 2.41332 3
8 1 -7 8.31055 1.83836 2
8 1 -7 13.3728 3.9058 1
7 -1 -7 267.471 15.112 1
-7 -1 7 263.848 13.206 3
7 1 -7 295.76 15.685 1
7 1 -7 282.955 11.83 2
6 -1 -7 463.407 21.332 1
6 1 -7 432.046 21.008 1
6 1 -7 452.298 17.814 2
5 -1 -7 486.313 22.781 1
5 1 -7 493.542 22.891 1
5 1 -7 549.192 20.298 2
4 -1 -7 132.184 8.55 1
4 1 -7 137.966 8.795 1
3 -1 -7 83.6556 6.1188 1
3 1 -7 68.4651 6.487 1
3 1 -7 66.3452 5.0567 2
2 -1 -7 1565.19 59.59 1
2 1 -7 1598.34 59.42 1
2 1 -7 1604.86 57.06 2
1 -1 -7 25.1475 3.6062 1
1 1 -7 26.3885 3.7416 2
1 1 -7 31.3097 3.7704 1
0 -1 -7 45.6273 4.6191 1
0 1 -7 44.3996 4.1698 1
0 1 -7 32.6824 4.2993 2
-1 -1 -7 46.5735 4.4334 1
-1 -1 -7 42.2231 5.0359 2
-1 1 -7 47.02 5.1778 2
-1 1 -7 45.913 3.9239 1
-2 -1 -7 1126.48 42 2
-2 -1 -7 1128.74 41.26 1
-2 1 -7 1092.07 42.08 2
-2 1 -7 1101.47 40.6 1
-3 -1 -7 0.65561 1.03429 1
-3 -1 -7 0.2222 1.53583 2
-3 1 -7 -0.335 1.6012 2
-4 -1 -7 37.3387 3.2012 1
-4 -1 -7 22.7776 4.0744 2
-4 1 -7 29.397 4.6609 2
-5 -1 -7 741.082 30.562 2
-5 -1 -7 768.332 28.259 1
-5 1 -7 745.309 30.998 2
-6 -1 -7 6.08803 1.64591 1
-6 -1 -7 9.73486 2.86754 2
-6 1 -7 10.9997 3.287 2
-7 -1 -7 12.5277 3.3209 2
-7 1 -7 9.91622 3.34593 2
-8 -1 -7 14.4902 3.7766 2
-8 1 -7 26.6712 4.9486 2
-9 -1 -7 2.28807 2.73176 2
-9 1 -7 2.2592 2.848 2
-10 -1 -7 174.344 11.623 2
-10 1 -7 186.48 12.179 2
-11 -1 -7 0.98185 2.71513 2
-11 -1 -7 2.43085 2.83428 3
-11 1 -7 1.64126 2.85948 3
-11 1 -7 3.20216 3.29786 2
-12 -1 -7 264.29 16.224 3
-12 1 -7 275.873 16.331 3
-12 1 -7 292.948 16.252 2
-13 -1 -7 0.50682 2.67779 3
-13 1 -7 -1.1948 3.0187 2
-13 1 -7 -1.4339 3.0351 3
-14 -1 -7 1.60982 3.4224 3
-14 1 -7 7.18571 4.01997 3
-15 -1 -7 3.77313 3.66866 3
-15 1 -7 1.54447 3.40207 3
-16 -1 -7 6.85717 4.86831 3
-16 1 -7 1.86317 4.07504 3
-17 -1 -7 -2.9881 3.4933 3
-17 1 -7 9.8202 5.17339 3
-21 -2 7 2.93494 4.54249 3
-21 2 7 -3.1963 4.0158 3
-20 -2 7 39.5563 7.7548 3
20 2 -7 14.9719 7.8654 1
-20 2 7 33.9921 7.521 3
19 -2 -7 8.09928 6.20376 1
-19 -2 7 1.52674 3.63981 3
19 2 -7 8.6266 6.75348 1
-19 2 7 3.85477 4.09776 3
-18 -2 7 40.9598 7.4456 3
18 -2 -7 24.6349 7.4447 1
18 2 -7 24.9621 7.6558 1
-18 2 7 18.3397 5.5943 3
-17 -2 7 2.3141 3.0464 3
17 -2 -7 -2.2138 3.9998 1
-17 2 7 0.52221 3.2936 3
17 2 -7 -1.682 4.3174 1
16 -2 -7 3.23449 4.36864 1
-16 -2 7 4.04276 3.24792 3
-16 2 7 2.37602 3.2194 3
16 2 -7 2.21669 4.02376 1
15 -2 -7 11.5332 5.0543 1
-15 -2 7 15.0573 4.3236 3
-15 2 7 15.1756 4.6972 3
15 2 -7 7.48843 4.88274 1
-14 -2 7 15.6548 4.3166 3
14 -2 -7 23.925 6.2849 1
14 2 -7 17.3287 5.8354 1
-14 2 7 20.4014 4.7184 3
13 -2 -7 15.7118 5.5361 1
-13 -2 7 24.667 4.8162 3
-13 2 7 22.6307 4.7848 3
13 2 -7 27.1415 6.5222 1
-12 -2 7 78.2734 8.3509 3
12 -2 -7 119.317 12.297 1
12 2 -7 89.9425 10.7429 1
-12 2 7 87.451 8.6898 3
-11 -2 7 3.68002 2.5051 3
11 -2 -7 8.35312 3.97943 1
11 2 -7 8.54541 4.25363 1
-11 2 7 12.6709 3.5959 3
-10 -2 7 212.075 12.05 3
10 -2 -7 208.84 13.958 1
-10 2 7 219.645 12.141 3
10 2 -7 219.648 14.796 1
9 -2 -7 1.75793 2.8635 1
-9 -2 7 4.3305 2.32161 3
-9 2 7 -0.0148 1.478 3
9 2 -7 2.15017 2.73955 1
-8 -2 7 30.6065 4.1917 3
8 -2 -7 21.5089 4.7236 1
8 2 -7 32.9246 3.1902 2
-8 2 7 25.1403 3.956 3
8 2 -7 26.8746 5.2915 1
7 -2 -7 2.02416 2.15178 1
-7 -2 7 1.49837 1.53142 3
7 2 -7 0.7106 1.25606 2
7 2 -7 -1.3327 1.9585 1
6 -2 -7 44.0086 6.0546 1
6 2 -7 50.3974 6.6713 1
6 2 -7 61.3121 4.3152 2
5 -2 -7 103.258 7.949 1
5 2 -7 104.841 6.239 2
5 2 -7 104.614 7.971 1
4 -2 -7 20.6429 3.8939 1
4 2 -7 14.6376 2.7158 2
4 2 -7 27.1219 4.4524 1
3 -2 -7 48.0502 5.686 1
3 2 -7 35.6639 4.919 1
3 2 -7 45.0337 4.7349 2
2 -2 -7 15.038 3.2093 1
2 2 -7 12.4041 2.8338 1
2 2 -7 9.75226 2.62235 2
1 -2 -7 203.064 11.036 1
1 2 -7 235.851 11.412 2
1 2 -7 214.049 10.847 1
0 -2 -7 774.708 29.669 1
0 2 -7 772.576 30.104 2
0 2 -7 729.113 29.493 1
-1 -2 -7 367.674 15.015 1
-1 2 -7 327.848 14.483 1
-1 2 -7 343.378 16.188 2
-2 -2 -7 94.5392 5.7588 1
-2 2 -7 94.7846 5.2611 1
-2 2 -7 96.3047 7.1133 2
-3 -2 -7 80.2445 7.2589 2
-3 -2 -7 68.5737 4.7011 1
-3 2 -7 77.4746 7.5036 2
-4 -2 -7 44.8829 4.2205 1
-4 -2 -7 47.8046 5.8503 2
-4 2 -7 50.0241 6.0216 2
-5 -2 -7 75.0599 7.4064 2
5 2 7 88.3657 6.4901 1
-5 2 -7 71.3584 7.5905 2
-6 -2 -7 298.486 15.172 2
-6 2 -7 301.775 15.814 2
6 2 7 301.684 14.547 1
-7 -2 -7 76.5127 7.8232 2
-7 2 -7 83.6358 8.7014 2
-8 -2 -7 311.399 15.84 2
-8 2 -7 290.242 16.027 2
-9 -2 -7 4.33827 2.70165 2
-9 2 -7 3.75387 3.22453 2
-10 -2 -7 33.9963 5.6559 2
-10 2 -7 31.7519 5.7209 2
-11 -2 -7 6.89261 3.13148 3
-11 -2 -7 0.28407 2.77314 2
-11 2 -7 4.39752 3.32425 3
-11 2 -7 1.39433 3.26733 2
-12 -2 -7 3.37963 2.99087 3
-12 2 -7 3.42697 3.44889 2
-12 2 -7 5.35666 3.43341 3
-13 -2 -7 11.5489 4.7051 3
-13 2 -7 16.7827 5.2072 3
-13 2 -7 15.0413 4.7267 2
-14 -2 -7 6.86587 3.96619 3
-14 2 -7 -0.9378 2.9344 3
-15 -2 -7 0.49101 3.34652 3
-15 2 -7 4.36619 3.84 3
-16 -2 -7 35.4535 7.6255 3
-16 2 -7 27.8444 7.0329 3
-17 -2 -7 5.73982 3.93063 3
-17 2 -7 3.32057 4.42439 3
-20 -3 7 4.12468 4.03709 3
20 3 -7 -2.8279 5.7994 1
-20 3 7 5.99786 4.46315 3
-19 -3 7 2.44181 3.73123 3
-19 3 7 -1.2079 3.901 3
19 3 -7 2.58842 5.95586 1
18 -3 -7 15.1756 6.3764 1
-18 -3 7 6.45953 4.03613 3
18 3 -7 15.9133 7.2958 1
-18 3 7 14.4434 4.9397 3
17 -3 -7 -0.0096 4.4766 1
-17 -3 7 1.33901 2.9776 3
17 3 -7 2.62049 5.11304 1
-17 3 7 -1.3029 2.9875 3
16 -3 -7 39.5883 8.5908 1
-16 -3 7 56.324 8.0895 3
16 3 -7 49.3295 9.8334 1
-16 3 7 57.4004 8.2648 3
15 -3 -7 6.63053 4.98274 1
-15 -3 7 2.08856 2.93338 3
-15 3 7 -1.6748 2.6303 3
15 3 -7 8.51379 5.03817 1
-14 -3 7 66.8654 8.0937 3
14 -3 -7 48.8161 8.7922 1
-14 3 7 55.7325 7.4565 3
14 3 -7 61.1779 9.9726 1
13 -3 -7 17.5886 5.4681 1
-13 -3 7 6.20038 3.07546 3
13 3 -7 15.0601 5.401 1
-13 3 7 7.97684 3.44515 3
12 -3 -7 161.319 12.678 1
-12 -3 7 150.047 10.414 3
12 3 -7 158.569 15.149 1
-12 3 7 158.43 10.522 3
11 -3 -7 24.8952 5.7024 1
-11 -3 7 27.7782 4.852 3
-11 3 7 26.5574 4.8084 3
11 3 -7 36.6824 7.163 1
-10 -3 7 82.5603 7.9315 3
10 -3 -7 75.5283 9.5572 1
-10 3 7 84.2616 7.8973 3
10 3 -7 84.9568 10.5367 1
-9 -3 7 3.56369 2.14239 3
9 -3 -7 5.4117 3.38786 1
9 3 -7 4.97782 3.21957 1
-9 3 7 2.69168 2.09953 3
-8 -3 7 199.738 10.998 3
8 -3 -7 209.593 13.342 1
8 3 -7 207.768 13.754 1
-7 -3 7 43.8207 4.994 3
7 -3 -7 42.3458 6.2929 1
7 3 -7 38.3318 6.5412 1
7 3 -7 44.4206 3.9191 2
6 -3 -7 349.255 17.859 1
6 3 -7 347.083 14.263 2
6 3 -7 313.743 17.554 1
5 -3 -7 -1.0159 1.9444 1
5 3 -7 -0.8168 2.0767 1
5 3 -7 -0.8749 1.3547 2
4 -3 -7 292.412 15.401 1
4 3 -7 283.483 15.256 1
4 3 -7 297.309 13.248 2
3 -3 -7 53.825 6.2222 1
3 3 -7 65.9208 7.0445 1
3 3 -7 54.3047 5.3924 2
2 -3 -7 1.0608 1.36246 1
2 3 -7 1.42603 1.7955 2
2 3 -7 1.27751 1.84513 1
1 -3 -7 869.605 34.313 1
1 3 -7 862.544 33.871 2
1 3 -7 890.398 34.905 1
0 -3 -7 216.914 10.66 1
0 3 -7 197.67 11.125 2
0 3 -7 201.522 10.624 1
-1 -3 -7 345.84 15.328 1
-1 3 -7 335.951 15.049 1
-1 3 -7 340.35 16.231 2
-2 -3 -7 120.196 7.199 1
-2 3 -7 125.105 8.513 2
-2 3 -7 124.665 6.937 1
-3 -3 -7 696.557 26.862 1
-3 3 -7 660.749 28.047 2
-3 3 -7 650.514 25.477 1
4 3 7 122.818 8.495 1
-4 3 -7 96.834 9.1098 2
-5 -3 -7 417.352 19.832 2
-5 3 -7 451.609 20.858 2
5 3 7 446.18 20.442 1
-6 -3 -7 1.11735 1.7244 2
-6 3 -7 2.72537 2.50809 2
6 3 7 3.3265 2.44887 1
-7 -3 -7 -0.1786 2.1768 2
-7 3 -7 0.74482 2.23928 2
7 3 7 -1.019 2.1986 1
-8 -3 -7 0.74076 2.34334 2
-8 3 -7 5.64548 3.20103 2
-9 -3 -7 91.4273 8.865 2
-9 3 -7 79.6543 8.9716 2
-10 -3 -7 41.3082 6.0667 2
-10 3 -7 22.4366 4.7091 3
-10 3 -7 33.9743 5.9604 2
-11 -3 -7 131.134 11.744 3
-11 3 -7 146.427 11.071 2
-11 3 -7 150.123 10.753 3
-12 -3 -7 60.7192 8.1216 3
-12 3 -7 41.1596 6.9236 2
-12 3 -7 60.1308 7.9844 3
-13 -3 -7 1.95725 3.30005 3
-13 3 -7 7.635 4.08271 3
-13 3 -7 8.06586 3.9721 2
-14 -3 -7 -2.8902 3.1226 3
-14 3 -7 2.50845 3.71527 3
-14 3 -7 12.0795 4.6971 2
-15 -3 -7 8.64002 4.43468 3
-15 3 -7 -2.1895 3.4061 3
-16 -3 -7 -0.0757 3.7696 3
-16 3 -7 1.54576 4.03961 3
-17 -3 -7 3.26808 4.25623 3
-17 3 -7 -3.5154 3.9703 3
-20 -4 7 9.47314 4.61887 3
20 4 -7 3.87534 7.30369 1
-20 4 7 0.96839 4.5334 3
-19 -4 7 10.9025 4.6281 3
19 4 -7 9.44349 6.87166 1
-19 4 7 8.27262 4.9226 3
18 -4 -7 22.7664 7.4507 1
-18 -4 7 21.8467 6.007 3
18 4 -7 36.306 9.8095 1
-18 4 7 25.4127 6.5534 3
-17 -4 7 5.82246 3.647 3
17 -4 -7 3.94207 4.88092 1
17 4 -7 -5.7841 4.0466 1
-17 4 7 3.04123 3.26668 3
16 -4 -7 72.2561 11.1053 1
-16 -4 7 60.4668 8.6172 3
16 4 -7 82.0168 12.4848 1
-16 4 7 77.6358 9.4609 3
-15 -4 7 109.377 10.937 3
15 -4 -7 124.145 13.733 1
-15 4 7 97.6434 10.477 3
15 4 -7 97.5732 13.3573 1
14 -4 -7 1.55975 3.72659 1
-14 -4 7 -0.7891 2.3229 3
14 4 -7 7.25543 4.8369 1
-14 4 7 -0.5029 2.6365 3
13 -4 -7 -2.9653 3.2398 1
-13 -4 7 2.17181 2.90978 3
-13 4 7 0.76417 2.46426 3
13 4 -7 4.25599 4.33281 1
-13 4 7 0.12384 2.50349 2
12 -4 -7 257.26 16.904 1
-12 -4 7 238.887 14.05 3
-12 4 7 258.16 13.317 2
12 4 -7 262.407 17.996 1
-12 4 7 252.203 14.269 3
-11 -4 7 221.869 12.464 3
11 -4 -7 201.595 14.407 1
11 4 -7 186.92 14.854 1
-11 4 7 213.477 12.289 3
10 -4 -7 922.537 40.089 1
-10 -4 7 858.934 35.493 3
-10 4 7 912.992 35.705 3
10 4 -7 891.741 41.026 1
9 -4 -7 26.326 5.9398 1
-9 -4 7 20.2203 3.9204 3
9 4 -7 19.2214 5.553 1
8 -4 -7 100.677 10.56 1
-8 -4 7 105.408 7.244 3
8 4 -7 99.2532 10.9546 1
7 -4 -7 8.36029 3.60998 1
7 4 -7 16.4696 2.547 2
7 4 -7 5.72762 3.24365 1
6 -4 -7 71.3324 8.3195 1
6 4 -7 70.1535 4.9897 2
6 4 -7 77.6905 8.939 1
5 -4 -7 187.272 11.95 1
5 4 -7 174.944 12.052 1
5 4 -7 190.759 9.512 2
4 -4 -7 23.6813 4.3069 1
4 4 -7 14.1711 2.7958 2
4 4 -7 37.1115 5.7183 1
3 -4 -7 4.80104 2.2342 1
3 4 -7 0.49568 1.64952 2
3 4 -7 0.86537 2.14739 1
2 -4 -7 6.39251 2.24995 1
2 4 -7 10.2811 2.9017 2
2 4 -7 10.8053 3.0123 1
1 -4 -7 88.4886 6.591 1
1 4 -7 87.7758 8.0665 1
1 4 -7 93.1034 6.8677 2
0 -4 -7 -0.0927 1.4339 1
0 4 -7 3.64304 1.99615 2
0 4 -7 2.26283 2.08805 1
-1 -4 -7 331.321 15.556 1
-1 4 -7 338.2 15.694 1
-1 4 -7 325.678 16.122 2
-2 -4 -7 2.27302 1.93752 1
-2 4 -7 2.92206 2.15527 1
-2 4 -7 4.00677 2.33919 2
3 4 7 268.747 15.37 1
-3 4 -7 284.329 14.966 2
-3 4 -7 280.103 12.87 1
-4 4 -7 24.4874 4.9119 2
4 4 7 27.3077 5.0889 1
5 4 7 2.24518 2.49013 1
-5 4 -7 -2.736 2.066 2
-6 4 -7 71.6255 8.1691 2
-7 -4 -7 158.008 10.666 2
7 4 7 185.463 12.159 1
-7 4 -7 168.984 11.687 2
-8 -4 -7 13.3255 3.8137 2
8 4 7 10.3004 4.3538 1
-8 4 -7 11.7332 4.1224 2
-9 -4 -7 6.94 3.10687 2
-9 4 -7 2.42327 2.55952 3
-9 4 -7 1.31464 2.69028 2
-10 4 -7 0.9645 3.16763 2
-10 4 -7 1.08899 2.7633 3
-11 -4 -7 34.5673 6.1481 3
-11 4 -7 45.8001 6.6936 3
-11 4 -7 46.7451 7.2681 2
-12 -4 -7 3.70356 3.40232 3
-12 4 -7 13.8026 4.439 3
-12 4 -7 17.5434 4.8007 2
-13 -4 -7 -0.5982 3.1565 3
-13 4 -7 1.28726 3.3006 2
-13 4 -7 4.75628 3.67419 3
-14 -4 -7 1.2006 3.53912 3
-14 4 -7 3.68552 3.86892 2
-14 4 -7 4.17665 3.81932 3
-15 -4 -7 3.2585 3.86829 3
-15 4 -7 -3.7845 2.7943 3
-16 -4 -7 -2.2886 3.164 3
-16 4 -7 4.37343 4.30535 3
-17 -4 -7 -5.1785 3.8727 3
-17 4 -7 1.62743 4.63232 3
-19 -5 7 8.59117 4.79218 3
-19 5 7 1.63629 4.70146 3
19 5 -7 4.08773 7.40449 1
-18 -5 7 2.55061 3.77227 3
18 5 -7 -0.9759 5.9233 1
-18 5 7 -0.0879 3.7848 3
17 -5 -7 9.84954 5.868 1
-17 -5 7 2.46371 3.18442 3
17 5 -7 -0.6936 5.426 1
-17 5 7 -0.1492 3.4753 3
-16 -5 7 11.508 4.1156 3
16 -5 -7 15.175 6.2681 1
16 5 -7 36.4408 9.0901 1
-16 5 7 8.80969 4.19687 3
15 -5 -7 23.2969 7.1307 1
-15 -5 7 17.6614 4.8731 3
-15 5 7 14.1281 4.6488 3
15 5 -7 29.5689 8.2462 1
-14 -5 7 4.28874 3.04196 3
14 -5 -7 7.13008 5.17847 1
14 5 -7 8.67389 5.34627 1
-14 5 7 7.87135 3.71345 3
-13 -5 7 87.4805 9.0676 3
13 -5 -7 86.7347 11.2896 1
13 5 -7 99.7023 13.354 1
-13 5 7 85.2149 8.6137 2
-13 5 7 96.3979 9.48 3
12 -5 -7 8.12584 4.88956 1
-12 -5 7 11.5409 3.4312 3
-12 5 7 17.1105 4.1167 2
-12 5 7 5.57333 3.13796 3
12 5 -7 15.0576 5.8342 1
11 -5 -7 45.6857 7.9438 1
-11 -5 7 39.1233 5.7964 3
-11 5 7 55.8603 6.4304 2
-11 5 7 36.1 5.4772 3
11 5 -7 35.8937 7.8889 1
10 -5 -7 44.9782 7.6962 1
-10 -5 7 43.6098 5.6651 3
10 5 -7 28.795 7.021 1
-10 5 7 52.193 6.2277 2
-9 -5 7 48.3829 5.6863 3
9 -5 -7 33.9019 6.6679 1
9 5 -7 40.699 7.9888 1
-9 5 7 38.0527 5.3935 2
-8 -5 7 6.65665 2.58613 3
8 -5 -7 -1.0872 3.0022 1
8 5 -7 7.43854 4.15382 1
7 -5 -7 128.934 12.34 1
7 5 -7 146.949 13.743 1
6 -5 -7 9.78994 3.76414 1
6 5 -7 8.56192 4.07836 1
6 5 -7 9.43626 2.37009 2
5 -5 -7 0.22737 2.17631 1
5 5 -7 2.71551 1.81712 2
5 5 -7 0.88642 2.5209 1
4 -5 -7 162.565 10.144 1
4 5 -7 150.462 11.098 1
3 -5 -7 218.328 12.148 1
3 5 -7 216.837 11.249 2
3 5 -7 200.12 13.021 1
2 -5 -7 189.039 11.032 1
2 5 -7 190.575 12.115 1
2 5 -7 191.624 10.722 2
1 -5 -7 37.4282 5.1159 1
1 5 -7 38.9828 5.6635 1
1 5 -7 29.2362 4.6985 2
0 -5 -7 74.8216 7.3408 1
0 5 -7 83.2721 8.1336 1
0 5 -7 74.1864 7.5694 2
-1 -5 -7 25.2166 4.2665 1
-1 5 -7 27.446 4.5694 1
-1 5 -7 28.1594 4.7212 2
-2 -5 -7 277.52 14.365 1
-2 5 -7 277.875 15.169 2
2 5 7 287.912 16.75 1
-2 5 -7 303.599 14.775 1
-3 5 -7 179.819 10.536 1
3 5 7 191.301 13.095 1
-3 5 -7 202.666 12.106 2
-4 5 -7 245.105 13.94 2
4 5 7 221.97 14.519 1
-5 5 -7 4.02034 2.63648 2
5 5 7 1.12351 3.1057 1
6 5 7 -1.538 2.7556 1
-6 5 -7 -1.5897 2.0734 2
7 5 7 24.6452 5.937 1
-7 5 -7 26.6871 5.5221 2
-8 -5 -7 26.2234 5.1388 2
-8 5 -7 17.0166 4.6718 2
-9 -5 -7 -1.2821 2.703 2
-9 5 -7 -0.2551 2.2772 3
-9 5 -7 3.61432 3.05882 2
-10 -5 -7 -0.8083 2.2867 3
-10 5 -7 -1.0898 2.8526 2
-10 5 -7 0.78039 2.71017 3
-11 -5 -7 56.2944 7.8066 3
-11 5 -7 69.0567 8.2581 3
-11 5 -7 69.9592 9.4295 2
-12 -5 -7 41.3007 6.8396 3
-12 5 -7 33.7112 6.6922 2
-12 5 -7 25.3602 5.6262 3
-13 -5 -7 -1.6852 2.9484 3
-13 5 -7 9.47942 4.29687 3
-13 5 -7 13.2047 4.9448 2
-14 -5 -7 1.08294 3.29799 3
-14 5 -7 7.31083 4.38676 2
-14 5 -7 2.94912 3.74062 3
-15 -5 -7 10.8237 5.0295 3
-15 5 -7 3.54995 4.67196 2
-15 5 -7 14.0073 5.0559 3
-16 -5 -7 -1.6955 3.5066 3
-16 5 -7 -3.3607 3.8699 3
-19 -6 7 4.90504 4.43146 3
19 6 -7 -4.0015 6.3566 1
-18 -6 7 9.09307 4.74986 3
18 6 -7 8.05269 6.95409 1
-17 -6 7 -0.4097 3.1535 3
-17 6 7 9.6984 4.80448 3
17 6 -7 1.04409 6.43244 1
16 -6 -7 29.2176 8.163 1
-16 -6 7 22.8296 5.6084 3
-16 6 7 35.6342 6.7386 3
16 6 -7 20.8223 7.8835 1
15 -6 -7 23.3417 7.2224 1
-15 -6 7 26.237 5.4836 3
15 6 -7 17.9444 7.6758 1
-15 6 7 11.9012 4.3117 3
-14 -6 7 56.9923 7.6381 3
14 -6 -7 50.5232 9.4735 1
-14 6 7 56.0574 7.6282 3
14 6 -7 52.4755 10.815 1
-14 6 7 48.8684 7.1996 2
-13 -6 7 5.64017 3.25135 3
13 -6 -7 -0.6218 4.1693 1
13 6 -7 5.27976 4.6109 1
-13 6 7 10.9543 3.9674 3
-13 6 7 2.15303 2.98076 2
-12 -6 7 321.58 16.107 3
12 -6 -7 301.316 19.1 1
-12 6 7 250.678 14.973 3
-12 6 7 279.966 15.459 2
12 6 -7 241.863 19.178 1
-11 -6 7 59.5 7.155 3
11 -6 -7 85.8431 10.8508 1
11 6 -7 44.6537 8.9398 1
-11 6 7 60.5914 7.6014 2
-10 -6 7 25.8021 4.6322 3
10 -6 -7 11.2616 4.8815 1
10 6 -7 12.7336 5.6542 1
-10 6 7 13.9418 3.9656 2
-9 -6 7 95.6199 8.3273 3
9 -6 -7 105.791 11.776 1
9 6 -7 112.094 12.981 1
-9 6 7 97.9915 9.2024 2
8 -6 -7 121.75 12.877 1
8 6 -7 140.337 14.58 1
-8 6 7 147.993 9.642 2
7 -6 -7 147.119 13.891 1
7 6 -7 171.964 15.674 1
-7 6 7 145.913 9.767 2
6 -6 -7 91.0586 10.1053 1
6 6 -7 96.3948 11.1966 1
6 6 -7 96.4806 6.5101 2
5 -6 -7 80.2782 8.5201 1
5 6 -7 82.007 10.0681 1
5 6 -7 90.3389 6.4143 2
4 -6 -7 33.9368 5.4493 1
4 6 -7 32.0702 4.5311 2
4 6 -7 31.2693 6.0854 1
3 -6 -7 47.2414 6.2196 1
3 6 -7 43.3131 7.1574 1
3 6 -7 56.269 6.1326 2
2 -6 -7 9.0656 3.03567 1
2 6 -7 11.6723 4.0863 1
2 6 -7 19.7355 3.911 2
1 -6 -7 36.8003 5.4489 1
1 6 -7 45.5389 5.9212 2
1 6 -7 42.6935 6.6159 1
0 -6 -7 138.973 9.669 1
0 6 -7 147.204 10.036 2
0 6 -7 165.21 11.006 1
-1 -6 -7 28.0169 4.9011 1
-1 6 -7 31.8274 5.3741 2
-1 6 -7 20.8595 4.5937 1
2 6 7 44.3812 7.8097 1
-2 6 -7 45.0415 6.234 1
-2 6 -7 57.3907 7.1463 2
-3 6 -7 0.7492 2.57627 2
-3 6 -7 4.31393 2.91279 1
3 6 7 9.52401 4.24582 1
-4 6 -7 8.74287 3.65758 2
4 6 7 20.9029 5.6296 1
5 6 7 2.36408 3.88013 1
-5 6 -7 3.03565 2.94605 2
-6 6 -7 206.291 13.5 2
6 6 7 180.558 14.098 1
-7 6 -7 65.3358 8.5394 2
7 6 7 51.278 8.7402 1
-8 6 -7 39.485 6.9932 2
8 6 7 31.519 7.0385 1
-9 -6 -7 11.1787 3.8059 3
-9 6 -7 12.8313 4.5169 2
9 6 7 9.35931 5.14486 1
-10 -6 -7 57.6837 7.5085 3
-10 6 -7 56.1814 8.5531 2
-11 -6 -7 4.88617 3.5712 3
-11 6 -7 -3.6473 2.7142 2
-12 -6 -7 35.8186 6.4924 3
-12 6 -7 38.8963 7.5044 2
-13 -6 -7 7.00783 4.00462 3
-13 6 -7 5.58932 4.40139 2
-14 -6 -7 33.7715 6.847 3
-14 6 -7 20.2689 6.3003 2
-15 -6 -7 -0.988 3.6599 3
-15 6 -7 -3.6536 3.6467 2
18 7 -7 2.23696 7.34468 1
17 7 -7 66.8179 13.1651 1
16 -7 -7 25.3002 7.7747 1
16 7 -7 19.6676 8.7667 1
15 -7 -7 20.4002 7.4073 1
15 7 -7 28.4226 9.2041 1
14 -7 -7 45.3639 9.2715 1
14 7 -7 56.4906 11.3963 1
-14 7 7 55.3524 7.987 2
13 -7 -7 3.67598 4.34416 1
-13 7 7 -0.0007 2.5592 2
13 7 -7 2.81102 5.00649 1
12 -7 -7 15.3962 6.1219 1
-12 7 7 17.3961 4.829 2
12 7 -7 24.0716 7.5771 1
11 -7 -7 -2.711 3.3744 1
11 7 -7 1.75766 3.90952 1
-11 7 7 1.83655 2.77894 2
10 -7 -7 291.782 18.754 1
10 7 -7 267.973 19.505 1
-10 7 7 270.687 15.542 2
9 -7 -7 28.7288 6.9428 1
9 7 -7 17.8721 5.8102 1
-9 7 7 26.099 5.1015 2
8 -7 -7 184.161 13.886 1
-8 7 7 178.89 11.62 2
8 7 -7 154.667 16.222 1
7 -7 -7 2.03843 2.70576 1
-7 7 7 0.24849 2.26066 2
7 7 -7 0.02658 3.36009 1
6 -7 -7 346.512 19.083 1
6 7 -7 358.642 21.636 1
6 7 -7 362.27 16.478 2
5 -7 -7 16.9917 4.4664 1
5 7 -7 23.3646 4.0738 2
5 7 -7 9.5788 4.75736 1
4 -7 -7 8.16456 3.26706 1
4 7 -7 3.65995 2.66951 2
4 7 -7 5.54584 3.628 1
3 -7 -7 3.467 2.37008 1
3 7 -7 3.61072 2.39906 2
3 7 -7 5.82831 3.5162 1
2 -7 -7 120.076 9.448 1
2 7 -7 135.468 9.243 2
2 7 -7 149.383 11.696 1
1 -7 -7 3.91597 2.66081 1
1 7 -7 0.54422 3.07633 1
1 7 -7 2.01546 2.45265 2
0 -7 -7 15.1093 4.0144 1
0 7 -7 13.9015 3.7559 2
0 7 -7 2.02827 3.19703 1
-1 -7 -7 12.1071 3.8107 1
-1 7 -7 9.45903 3.58198 2
-1 7 -7 9.10101 4.19701 1
2 7 7 473.57 26.288 1
-2 7 -7 497.63 23.648 2
-2 7 -7 502.522 24.079 1
3 7 7 98.0428 11.967 1
-3 7 -7 110.515 10.676 2
-4 7 -7 393.021 20.268 2
4 7 7 355.669 21.899 1
-5 7 -7 27.2492 5.8982 2
5 7 7 60.6629 9.6118 1
-6 7 -7 80.7516 9.9003 2
6 7 7 66.4277 10.1349 1
7 7 7 58.8208 9.7221 1
-7 7 -7 61.5978 8.8024 2
-8 -7 -7 5.62053 3.1555 3
-8 7 -7 10.6311 4.3687 2
8 7 7 7.76092 5.10051 1
-9 -7 -7 1.6882 2.84189 3
9 7 7 0.48439 4.2548 1
-9 7 -7 -0.8768 3.0644 2
-10 -7 -7 12.5024 4.2194 3
-10 7 -7 9.4557 4.54918 2
-11 -7 -7 6.78473 3.99886 3
-11 7 -7 15.9981 5.3028 2
-12 -7 -7 10.3661 4.4178 3
-12 7 -7 3.14342 4.14917 2
-13 -7 -7 2.89518 3.74353 3
-13 7 -7 11.8172 5.1059 2
-14 -7 -7 17.6547 5.5804 3
-14 7 -7 27.1983 7.0395 2
-15 -7 -7 0.27479 4.1243 3
-15 7 -7 -3.6154 4.4233 2
17 8 -7 2.30377 7.39661 1
16 8 -7 9.22349 7.79057 1
15 -8 -7 7.51398 5.82032 1
15 8 -7 19.9038 8.3399 1
-15 8 7 12.023 4.564 2
14 -8 -7 -0.6888 4.8396 1
-14 8 7 -3.0916 2.688 2
14 8 -7 2.92501 6.06348 1
13 -8 -7 1.51629 5.03772 1
13 8 -7 2.43493 5.53316 1
-13 8 7 -1.193 2.6124 2
12 -8 -7 15.3298 6.4744 1
12 8 -7 16.2542 6.6654 1
-12 8 7 11.9158 4.1575 2
11 -8 -7 7.80111 4.92241 1
11 8 -7 1.92865 4.8493 1
-11 8 7 1.43064 2.81286 2
10 -8 -7 -1.1538 4.0579 1
-10 8 7 -2.1504 2.1581 2
10 8 -7 4.97988 4.64848 1
9 -8 -7 37.3155 8.1498 1
-9 8 7 27.9957 5.635 2
9 8 -7 27.5255 7.6988 1
8 -8 -7 89.9678 11.6353 1
-8 8 7 64.3849 8.2647 2
8 8 -7 88.6141 12.3478 1
7 -8 -7 22.6465 5.4512 1
-7 8 7 15.3989 4.1041 2
7 8 -7 26.1944 7.1316 1
6 -8 -7 7.36053 3.77376 1
6 8 -7 8.1706 5.20012 1
5 -8 -7 1.48091 2.85966 1
5 8 -7 -0.3627 1.7853 2
5 8 -7 -1.2523 2.7924 1
4 -8 -7 -1.2543 2.3052 1
4 8 -7 8.19549 4.48418 1
4 8 -7 4.63772 3.01564 2
3 -8 -7 27.2455 5.455 1
3 8 -7 25.3884 4.8744 2
3 8 -7 29.8376 6.7173 1
2 -8 -7 512.28 24.588 1
2 8 -7 518.161 26.613 1
2 8 -7 459.51 22.614 2
1 -8 -7 2.38759 2.79111 1
1 8 -7 5.98681 3.92558 1
1 8 -7 5.60678 3.15507 2
0 -8 -7 391.523 20.744 1
0 8 -7 381.87 21.92 1
0 8 -7 422.169 20.367 2
-1 -8 -7 -2.6635 2.5916 1
-1 8 -7 3.17488 3.63536 1
-1 8 -7 1.23027 2.48259 2
2 8 7 -0.5799 3.127 1
-2 8 -7 -0.4275 2.5272 2
-2 8 -7 1.83516 3.29876 1
3 8 7 -0.6488 4.3501 1
-3 8 -7 1.53965 2.90964 2
-4 8 -7 40.6124 6.9895 2
4 8 7 50.7305 9.5455 1
5 8 7 3.65384 4.41276 1
-5 8 -7 -1.2664 2.6586 2
-6 8 -7 45.4636 7.5368 2
6 8 7 33.4249 7.9301 1
-7 8 -7 -3.6703 2.7774 2
7 8 7 2.08693 4.70271 1
-8 8 -7 25.4768 6.5213 2
8 8 7 24.3618 7.8668 1
9 8 7 4.24141 5.45634 1
-9 8 -7 2.10837 3.44511 2
-10 8 -7 16.9793 5.636 2
10 8 7 18.1389 7.2205 1
-11 8 -7 18.326 6.0503 2
-12 8 -7 3.21247 4.15094 2
-13 8 -7 12.8778 5.586 2
-14 8 -7 19.4966 6.7291 2
15 -9 -7 6.20808 6.61948 1
15 9 -7 0.85746 7.42188 1
-15 9 7 3.9629 3.98372 2
14 -9 -7 -0.2067 5.5318 1
-14 9 7 2.28091 3.49258 2
14 9 -7 6.05849 6.76598 1
13 -9 -7 1.19776 5.04332 1
13 9 -7 -4.6852 5.1052 1
-13 9 7 -0.9464 2.8993 2
12 -9 -7 36.396 9.1169 1
-12 9 7 49.5324 7.9975 2
12 9 -7 41.2296 10.454 1
11 -9 -7 32.1745 8.0561 1
-11 9 7 23.4167 5.7468 2
11 9 -7 21.7703 7.4349 1
10 -9 -7 5.2922 5.44941 1
-10 9 7 12.1822 4.3043 2
10 9 -7 0.85516 5.0324 1
9 -9 -7 4.24555 4.76698 1
9 9 -7 3.03175 5.1191 1
-9 9 7 0.45774 2.75747 2
8 -9 -7 41.8674 8.2293 1
-8 9 7 57.0974 7.9095 2
8 9 -7 26.6143 8.0202 1
7 -9 -7 9.76354 4.39963 1
7 9 -7 11.9125 5.5764 1
-7 9 7 10.8595 4.3285 2
6 -9 -7 42.1724 7.4519 1
6 9 -7 43.0554 9.0024 1
5 -9 -7 24.597 5.8136 1
5 9 -7 20.2404 6.4852 1
4 -9 -7 20.6474 5.4326 1
4 9 -7 12.3355 4.0653 2
4 9 -7 18.2706 6.0987 1
3 -9 -7 105.908 11.351 1
3 9 -7 123.914 13.889 1
3 9 -7 124.515 10.895 2
2 -9 -7 13.439 4.6449 1
2 9 -7 16.1423 5.9988 1
2 9 -7 10.8514 4.0763 2
1 -9 -7 97.9245 10.6451 1
1 9 -7 70.9216 8.7644 2
1 9 -7 101.188 12.333 1
0 -9 -7 2.51127 3.25438 1
0 9 -7 1.85003 3.14331 2
0 9 -7 2.64682 3.75211 1
-1 -9 -7 1.54227 2.93433 1
-1 9 -7 -2.0997 2.5015 2
-1 9 -7 2.15272 3.5764 1
2 9 7 142.521 16.129 1
-2 9 -7 110.432 11.438 2
3 9 7 45.3922 9.1858 1
-3 9 -7 33.0904 6.4184 2
4 9 7 192.521 19.033 1
-4 9 -7 178.36 13.48 2
-5 9 -7 5.46154 3.75947 2
5 9 7 0.69054 4.51501 1
-6 9 -7 18.3622 5.8739 2
6 9 7 4.54567 5.49948 1
7 9 7 10.3008 6.2863 1
-7 9 -7 9.38225 4.75671 2
8 9 7 34.5601 9.3046 1
-8 9 -7 29.6823 6.9455 2
-9 9 -7 0.96284 3.56819 2
9 9 7 3.72524 5.6039 1
-10 9 -7 8.62766 4.79107 2
10 9 7 1.79916 6.28295 1
-11 9 -7 4.94777 4.61207 2
-12 9 -7 -0.2998 4.4933 2
14 -10 -7 2.18021 5.7181 1
14 10 -7 8.65223 7.48359 1
-14 10 7 3.224 4.31686 2
13 -10 -7 4.23504 6.07973 1
13 10 -7 11.077 7.2257 1
-13 10 7 3.25774 4.1459 2
12 -10 -7 10.4785 6.3229 1
12 10 -7 5.74121 5.41391 1
-12 10 7 4.72809 4.07075 2
11 -10 -7 7.69727 6.31616 1
-11 10 7 7.65152 4.44122 2
11 10 -7 8.06124 5.74691 1
10 -10 -7 8.15366 5.92907 1
-10 10 7 11.3078 4.7373 2
10 10 -7 11.3746 6.5139 1
9 -10 -7 47.9969 9.4536 1
-9 10 7 49.0643 7.8876 2
9 10 -7 24.0375 8.131 1
8 -10 -7 62.2691 9.8301 1
-8 10 7 24.9488 5.8966 2
8 10 -7 47.6209 10.3441 1
7 -10 -7 2.14636 3.4241 1
-7 10 7 1.86539 2.81348 2
7 10 -7 4.68567 5.1544 1
6 -10 -7 37.5185 7.2211 1
6 10 -7 41.8391 9.3515 1
5 -10 -7 3.10567 3.89357 1
5 10 -7 2.80506 4.57058 1
4 -10 -7 13.6438 4.8225 1
4 10 -7 9.41798 5.36579 1
4 10 -7 9.1803 3.82133 2
3 -10 -7 0.51872 3.0184 1
3 10 -7 -0.8891 2.6261 2
3 10 -7 0.56007 4.0192 1
2 -10 -7 33.7622 6.7348 1
2 10 -7 41.757 6.7635 2
2 10 -7 46.2652 8.7028 1
1 -10 -7 128.855 12.793 1
1 10 -7 126.925 14.506 1
1 10 -7 119.952 11.83 2
0 -10 -7 0.1961 3.22781 1
0 10 -7 -2.2421 2.6012 2
0 10 -7 1.01707 4.00722 1
-1 -10 -7 12.3383 5.0151 1
-1 10 -7 21.6584 5.7724 2
-1 10 -7 2.70947 4.38429 1
-2 -10 -7 -0.8822 3.4718 1
2 10 7 -2.2108 3.6257 1
-2 10 -7 -0.5547 3.0783 2
3 10 7 17.5182 7.0381 1
-3 10 -7 23.9029 6.1563 2
4 10 7 4.88344 4.87973 1
-4 10 -7 -1.3729 3.1431 2
-5 10 -7 -0.2928 3.3495 2
5 10 7 4.25506 5.44883 1
6 10 7 -3.7742 4.7266 1
-6 10 -7 0.79936 3.73305 2
7 10 7 25.4238 8.6255 1
-7 10 -7 14.3893 5.8496 2
8 10 7 -3.1248 5.2853 1
-8 10 -7 -3.7941 3.5957 2
-9 10 -7 5.80349 4.67736 2
9 10 7 -3.3442 5.7576 1
-10 10 -7 6.41489 4.98364 2
10 10 7 -2.0276 6.4483 1
-11 10 -7 -2.337 4.3404 2
12 -11 -7 6.77309 6.75795 1
12 11 -7 10.5141 7.0446 1
-12 11 7 8.727 4.25567 2
11 -11 -7 -0.1039 5.7209 1
-11 11 7 3.63189 4.01676 2
11 11 -7 -0.7171 5.3288 1
10 -11 -7 -1.5295 5.891 1
10 11 -7 -2.0064 5.2916 1
-10 11 7 -0.368 3.2579 2
9 -11 -7 -1.155 4.6431 1
-9 11 7 -1.41 3.1814 2
9 11 -7 -1.6345 5.4932 1
8 -11 -7 8.66194 5.37902 1
8 11 -7 6.04537 5.57598 1
-8 11 7 3.8547 3.69207 2
7 -11 -7 1.71591 4.0218 1
7 11 -7 -1.065 4.5274 1
6 -11 -7 95.2916 11.7 1
6 11 -7 89.5122 13.8011 1
5 -11 -7 1.71296 4.01126 1
5 11 -7 -2.655 4.2351 1
4 -11 -7 38.7124 7.53 1
4 11 -7 26.0508 7.9206 1
3 -11 -7 8.18361 4.59251 1
3 11 -7 9.30907 5.67113 1
3 11 -7 11.6198 4.7985 2
2 -11 -7 -0.1498 3.1332 1
2 11 -7 -1.2125 4.2415 1
2 11 -7 -2.3848 2.9952 2
1 -11 -7 7.67369 4.12122 1
1 11 -7 6.36394 4.68487 1
1 11 -7 3.58847 3.93386 2
0 -11 -7 15.2177 5.3731 1
0 11 -7 14.3835 5.0247 2
0 11 -7 5.36562 4.95796 1
-1 -11 -7 34.8773 7.5142 1
-1 11 -7 39.9172 7.5156 2
-2 -11 -7 -4.0269 3.2594 1
-2 11 -7 3.75865 3.95539 2
-3 -11 -7 3.63964 4.06787 1
-3 11 -7 5.36528 4.21954 2
3 11 7 -2.3078 5.1014 1
4 11 7 -2.002 5.607 1
-4 11 -7 -0.6934 3.3011 2
-5 11 -7 1.77056 4.22106 2
5 11 7 0.12999 5.1836 1
6 11 7 -3.6286 5.4205 1
-6 11 -7 -0.1175 3.7069 2
7 11 7 21.6789 8.6988 1
-7 11 -7 15.4479 5.8021 2
-8 11 -7 -3.4859 3.8685 2
8 11 7 -4.8223 6.6902 1
-9 11 -7 0.7023 4.17612 2
9 11 7 -4.4743 6.6857 1
-10 12 7 -1.5053 3.6772 2
9 -12 -7 -0.7322 5.2242 1
9 12 -7 -0.7269 5.6326 1
8 -12 -7 3.00108 5.57891 1
8 12 -7 -0.9532 5.0944 1
7 -12 -7 5.04109 4.67965 1
7 12 -7 3.56002 5.79171 1
6 -12 -7 0.21147 4.05084 1
6 12 -7 1.46097 5.55254 1
5 -12 -7 5.53822 4.56401 1
5 12 -7 -2.9924 3.6565 1
4 -12 -7 5.31498 4.57773 1
4 12 -7 3.05614 5.7823 1
3 -12 -7 3.1917 4.17682 1
3 12 -7 -6.8461 3.9428 1
2 -12 -7 -0.5137 3.8028 1
2 12 -7 -1.1734 3.5983 2
2 12 -7 -2.3023 4.4325 1
1 -12 -7 2.15401 4.15353 1
1 12 -7 -0.1906 4.6043 1
1 12 -7 0.97368 3.91822 2
0 -12 -7 33.6153 7.4464 1
0 12 -7 32.3675 7.3533 2
-1 -12 -7 7.44946 4.78274 1
-1 12 -7 10.1233 5.0549 2
-2 -12 -7 47.5285 9.004 1
-2 12 -7 69.1153 10.0902 2
-3 -12 -7 1.61539 4.22363 1
-3 12 -7 9.84566 5.12286 2
-4 -12 -7 -4.0511 3.8015 1
-4 12 -7 10.9011 5.5657 2
4 12 7 -2.4789 6.1004 1
5 12 7 41.6459 11.0036 1
-5 12 -7 29.4306 7.487 2
-6 12 -7 44.1259 9.1583 2
6 12 7 46.4764 11.6908 1
4 -13 -7 2.55118 4.56059 1
4 13 -7 6.54069 6.59699 1
3 -13 -7 7.82928 5.47921 1
3 13 -7 5.00999 6.15295 1
2 -13 -7 1.78187 4.56659 1
2 13 -7 1.24838 5.67564 1
1 -13 -7 -2.7415 3.931 1
1 13 -7 3.95888 4.5057 2
1 13 -7 -0.7504 5.86 1
0 -13 -7 26.6699 7.3781 1
0 13 -7 29.8034 7.4676 2
-1 -13 -7 30.2781 7.8235 1
-1 13 -7 32.0648 8.0036 2
-2 13 -7 4.5695 5.36818 2
-21 0 8 1.15057 4.1515 3
-20 0 8 17.3304 6.2422 3
20 0 -8 29.206 8.6375 1
-19 0 8 -3.8404 3.2522 3
19 0 -8 -2.1141 5.2982 1
-18 0 8 1.41708 3.17981 3
18 0 -8 2.96226 5.31201 1
17 0 -8 1.42663 4.54957 1
-17 0 8 -1.2512 3.0986 3
-16 0 8 21.2916 5.4605 3
16 0 -8 23.597 7.2401 1
-15 0 8 -1.6485 2.5119 3
15 0 -8 0.17361 3.89826 1
-14 0 8 130.877 11.772 3
14 0 -8 134.873 14.276 1
-13 0 8 -1.3881 1.948 3
13 0 -8 2.43912 3.56032 1
-12 0 8 26.2977 5.0902 3
12 0 -8 17.7701 5.2481 1
-11 0 8 -1.5099 1.7337 3
11 0 -8 -3.3776 2.6807 1
-10 0 8 8.08465 2.91209 3
10 0 -8 8.48742 4.23958 1
-9 0 8 5.15414 2.13851 3
9 0 -8 0.77253 2.96328 1
8 0 -8 85.8928 9.2397 1
7 0 -8 -0.0986 1.9753 1
6 0 -8 893.252 37.298 1
5 0 -8 -0.9807 1.6197 1
4 0 -8 1286.42 50.66 1
4 0 -8 1318.52 47.63 2
3 0 -8 0.03975 1.45374 2
3 0 -8 -2.2635 1.3896 1
2 0 -8 909.957 35.29 2
2 0 -8 943.608 36.65 1
1 0 -8 2.28319 1.74009 2
1 0 -8 0.05845 1.33832 1
0 0 -8 893.356 34.534 1
-1 0 -8 0.90125 1.38656 1
-1 0 -8 0.01035 1.47508 2
-2 0 -8 932.214 36.241 2
-2 0 -8 915.767 34.727 1
-3 0 -8 -0.2318 1.7231 2
-3 0 -8 -1.165 1.1611 1
-4 0 -8 80.7274 7.7932 2
-4 0 -8 81.6945 4.5351 1
-5 0 -8 -0.6624 1.6837 2
-6 0 -8 379.732 18.665 2
-7 0 -8 4.45799 2.71581 2
-8 0 -8 -1.9204 2.2909 2
-9 0 -8 1.50228 2.72196 2
-10 0 -8 208.569 13.211 2
-11 0 -8 0.05108 2.98521 2
-12 0 -8 10.7231 4.4621 2
-12 0 -8 17.5412 4.8527 3
-13 0 -8 -2.2104 2.3928 3
-14 0 -8 17.8993 5.7668 3
-15 0 -8 0.37291 3.73892 3
-16 0 -8 2.16222 4.15419 3
-17 0 -8 -0.6164 4.2235 3
-21 -1 8 4.034 4.4835 3
21 1 -8 8.72833 7.64348 1
-21 1 8 5.54863 5.01863 3
-20 -1 8 22.1631 6.3724 3
20 -1 -8 7.91787 6.64069 1
20 1 -8 25.5418 8.5229 1
-20 1 8 13.4892 5.6568 3
19 -1 -8 8.83541 5.98775 1
-19 -1 8 11.615 4.9471 3
-19 1 8 4.00749 4.54728 3
19 1 -8 13.314 6.7977 1
-18 -1 8 -1.1131 3.0619 3
18 -1 -8 -2.8996 4.2227 1
18 1 -8 -1.5809 4.9506 1
-18 1 8 0.60027 3.5095 3
-17 -1 8 0.28296 3.12195 3
17 -1 -8 8.90427 5.82507 1
-17 1 8 11.0178 4.2953 3
17 1 -8 3.19021 4.66226 1
-16 -1 8 20.2761 5.0773 3
16 -1 -8 23.7496 6.7352 1
16 1 -8 15.4614 6.1819 1
-16 1 8 18.3082 5.3632 3
15 -1 -8 7.30071 4.59744 1
-15 -1 8 4.60605 3.09669 3
-15 1 8 -1.2377 2.5249 3
15 1 -8 -0.6309 3.5311 1
-14 -1 8 4.64184 2.73212 3
14 -1 -8 5.91693 4.24574 1
-14 1 8 4.70232 3.09064 3
14 1 -8 3.27377 4.29288 1
13 -1 -8 19.5895 5.6782 1
-13 -1 8 14.209 3.8867 3
-13 1 8 11.4401 3.944 3
13 1 -8 9.63056 4.53044 1
-12 -1 8 80.7429 8.4372 3
12 -1 -8 53.8587 8.4649 1
12 1 -8 70.4531 9.7557 1
-12 1 8 67.0798 7.6797 3
-11 -1 8 9.911 3.22587 3
11 -1 -8 2.48257 3.57313 1
11 1 -8 8.14972 4.22543 1
-11 1 8 10.5296 3.3883 3
10 -1 -8 958.367 41.581 1
-10 -1 8 930.358 37.538 3
-10 1 8 960.957 37.775 3
10 1 -8 957.868 41.794 1
-9 -1 8 1.77083 1.83783 3
9 -1 -8 -1.1557 2.5678 1
-9 1 8 1.15337 1.97971 3
9 1 -8 1.92886 3.06466 1
9 1 -8 0.73779 1.51874 2
8 -1 -8 389.174 20.181 1
8 1 -8 397.14 16.1 2
8 1 -8 392.491 20.368 1
7 -1 -8 -0.4936 1.7843 1
7 1 -8 -0.6121 1.3564 2
7 1 -8 -0.6067 1.9783 1
6 -1 -8 17.1497 4.1689 1
6 1 -8 22.2797 4.4951 1
6 1 -8 18.1754 3.0198 2
5 -1 -8 62.4975 6.97 1
5 1 -8 59.3863 6.8179 1
5 1 -8 41.8593 4.6645 2
4 -1 -8 423.579 19.551 1
4 1 -8 410.609 17.645 2
3 -1 -8 72.2956 7.0911 1
3 1 -8 71.4155 6.4166 2
3 1 -8 82.9003 6.4236 1
2 -1 -8 57.99 6.0528 1
2 1 -8 58.6501 5.9151 2
2 1 -8 68.2329 6.2886 1
1 -1 -8 400.19 18.043 1
1 1 -8 408.806 17.763 1
1 1 -8 412.74 18.062 2
0 -1 -8 8.22852 2.55259 2
0 -1 -8 3.46297 1.98766 1
0 1 -8 4.84542 2.1207 2
0 1 -8 6.69926 2.10455 1
-1 -1 -8 35.4103 4.848 2
-1 -1 -8 46.4558 4.7427 1
-1 1 -8 39.8276 3.9722 1
-1 1 -8 39.4222 5.1413 2
-2 -1 -8 221.333 10.533 1
-2 -1 -8 216.981 11.739 2
-2 1 -8 206.465 9.507 1
-2 1 -8 226.214 12.17 2
-3 -1 -8 24.07 4.2084 2
-3 -1 -8 22.5389 2.9894 1
-3 1 -8 26.9982 4.6123 2
-3 1 -8 25.4571 2.3379 1
-4 -1 -8 52.556 3.7825 1
-4 -1 -8 56.3951 6.5987 2
-4 1 -8 41.1692 5.8302 2
-5 -1 -8 7.96151 3.06947 2
-5 -1 -8 5.31697 1.56955 1
-5 1 -8 11.0185 3.4117 2
-6 -1 -8 178.018 11.31 2
-6 1 -8 195.863 11.925 2
-7 -1 -8 -0.5223 1.8956 2
-7 1 -8 4.70531 3.03736 2
-8 -1 -8 28.0838 5.2156 2
-8 1 -8 28.599 5.419 2
-9 -1 -8 4.31739 2.84846 2
-9 1 -8 0.45489 2.56356 2
-10 -1 -8 100.22 9.898 2
-10 1 -8 87.5293 9.6028 2
-11 -1 -8 1.09159 2.77803 2
-11 1 -8 0.69857 3.05859 2
-12 -1 -8 7.61729 3.91208 3
-12 1 -8 18.6778 5.0778 3
-12 1 -8 18.0514 4.8728 2
-13 -1 -8 48.7688 7.9895 3
-13 1 -8 48.7596 7.5324 2
-13 1 -8 41.6264 7.3004 3
-14 -1 -8 19.3673 5.6648 3
-14 1 -8 20.8341 5.8057 3
-15 -1 -8 -3.4548 3.359 3
-15 1 -8 -0.8218 3.5854 3
-16 -1 -8 6.17874 4.21182 3
-16 1 -8 6.9144 4.55863 3
-17 -1 -8 4.0857 4.4118 3
-17 1 -8 4.55328 4.82093 3
21 2 -8 3.87785 7.16488 1
-20 -2 8 1.32188 3.55235 3
-20 2 8 3.99069 4.36293 3
20 2 -8 1.67465 6.11198 1
-19 -2 8 1.62804 3.5641 3
19 -2 -8 4.73058 5.52093 1
-19 2 8 0.88425 3.69479 3
19 2 -8 7.76477 6.51334 1
18 -2 -8 1.05924 4.66427 1
-18 -2 8 5.56955 3.86582 3
-18 2 8 -0.9665 3.6432 3
18 2 -8 -0.9241 5.0055 1
17 -2 -8 0.29703 4.44455 1
-17 -2 8 5.38275 3.66248 3
17 2 -8 10.4412 5.6621 1
-17 2 8 12.6686 4.636 3
-16 -2 8 8.71909 4.00701 3
16 -2 -8 7.87747 5.12934 1
-16 2 8 12.6171 4.6114 3
16 2 -8 16.7893 6.2126 1
-15 -2 8 48.447 7.2412 3
15 -2 -8 28.2177 7.3077 1
-15 2 8 31.9881 6.0434 3
15 2 -8 27.3969 7.2039 1
-14 -2 8 6.26226 3.00346 3
14 -2 -8 11.1606 5.3524 1
-14 2 8 16.4008 4.7449 3
14 2 -8 16.7561 5.6227 1
-13 -2 8 27.9124 5.1707 3
13 -2 -8 27.0268 6.4767 1
13 2 -8 24.1884 6.6138 1
-13 2 8 24.4254 4.9551 3
12 -2 -8 5.08227 3.87901 1
-12 -2 8 -2.1167 2.0032 3
12 2 -8 1.75352 3.30068 1
-12 2 8 0.20249 2.0328 3
-11 -2 8 357.466 17.889 3
11 -2 -8 377.458 20.712 1
-11 2 8 371.685 17.926 3
11 2 -8 337.009 20.426 1
-10 -2 8 10.0249 3.2888 3
10 -2 -8 6.57482 3.82204 1
-10 2 8 3.71631 2.42167 3
10 2 -8 5.65532 3.75804 1
9 -2 -8 4.5147 3.14252 1
-9 -2 8 1.10757 1.92017 3
9 2 -8 5.06856 3.50391 1
8 -2 -8 55.4251 7.7255 1
8 2 -8 65.18 8.399 1
8 2 -8 71.6478 4.7887 2
7 -2 -8 25.7258 5.0926 1
7 2 -8 28.3497 3.5538 2
7 2 -8 14.2639 4.0876 1
6 -2 -8 523.1 24.525 1
6 2 -8 541.437 21.237 2
6 2 -8 516.44 24.525 1
5 -2 -8 67.4992 7.3492 1
5 2 -8 53.2164 5.3047 2
5 2 -8 67.9221 7.3683 1
4 -2 -8 486.667 20.98 1
4 2 -8 482.24 20.8 1
4 2 -8 361.998 17.893 2
3 -2 -8 2.20589 1.90586 1
3 2 -8 5.04963 2.43221 1
3 2 -8 1.22538 1.55033 2
2 -2 -8 551.198 24.3 1
2 2 -8 586.532 23.454 2
2 2 -8 547.463 23.881 1
1 -2 -8 159.868 9.433 1
1 2 -8 153.44 9.305 2
1 2 -8 150.145 8.874 1
0 -2 -8 1129.63 44.46 1
0 2 -8 1171.5 43.85 1
0 2 -8 1169.69 44.04 2
-1 -2 -8 4.1849 1.67134 1
-1 2 -8 0.97225 1.59888 1
-1 2 -8 3.36133 2.23048 2
-2 -2 -8 447.397 18.921 1
-2 2 -8 467.811 21 2
-2 2 -8 467.288 18.324 1
-3 -2 -8 12.7244 2.3936 1
-3 -2 -8 13.3158 3.3919 2
-3 2 -8 15.9474 3.6548 2
-4 -2 -8 24.828 4.4814 2
-4 -2 -8 26.3788 3.273 1
-4 2 -8 14.9436 3.754 2
-5 -2 -8 1.43706 1.99747 2
-5 -2 -8 0.73579 1.47565 1
-5 2 -8 -0.9145 1.9059 2
-6 -2 -8 0.60539 2.23055 2
-6 -2 -8 0.0386 1.47745 1
-6 2 -8 0.7019 2.18219 2
-7 -2 -8 52.0565 6.6182 2
-7 2 -8 40.8527 6.161 2
-8 -2 -8 27.3114 5.0774 2
-8 2 -8 29.534 5.5587 2
-9 -2 -8 20.7038 4.5178 2
-9 2 -8 10.0006 3.6844 2
-10 -2 -8 187.356 12.393 2
-10 2 -8 190.109 12.934 2
-11 -2 -8 11.2469 4.1102 2
-11 2 -8 11.388 4.1615 2
-11 2 -8 16.8884 4.5566 3
-12 -2 -8 72.375 9.0591 3
-12 2 -8 50.1158 7.5472 3
-12 2 -8 64.3402 8.6817 2
-13 -2 -8 27.077 6.0579 3
-13 2 -8 19.8171 5.1671 3
-13 2 -8 16.2391 5.12 2
-14 -2 -8 -1.164 3.0864 3
-14 2 -8 -0.0442 3.6073 3
-15 -2 -8 2.13344 3.95071 3
-15 2 -8 2.84154 3.80706 3
-16 -2 -8 1.30909 4.1033 3
-16 2 -8 0.30505 4.11571 3
-17 -2 -8 -2.7891 3.5344 3
-17 2 -8 -1.028 4.3631 3
-20 -3 8 30.9829 7.3362 3
20 3 -8 46.7327 10.9677 1
-20 3 8 32.4311 7.7822 3
-19 -3 8 -1.7608 3.271 3
19 -3 -8 1.12728 5.48073 1
19 3 -8 -2.9999 5.2027 1
-19 3 8 6.24398 4.50932 3
-18 -3 8 8.93464 4.3625 3
18 -3 -8 18.4033 6.7929 1
-18 3 8 8.95353 4.58549 3
18 3 -8 17.3777 7.3733 1
17 -3 -8 49.8581 9.664 1
-17 -3 8 69.1022 9.2122 3
-17 3 8 40.4513 7.3966 3
17 3 -8 46.0412 9.8435 1
-16 -3 8 1.00735 2.96921 3
16 -3 -8 0.84852 4.03061 1
-16 3 8 -1.0681 2.9017 3
16 3 -8 7.38637 5.40737 1
15 -3 -8 69.6417 10.6918 1
-15 -3 8 65.6077 8.3361 3
15 3 -8 72.3391 11.3245 1
-15 3 8 60.0552 8.0892 3
14 -3 -8 113.749 13.16 1
-14 -3 8 104.006 10.357 3
14 3 -8 108.1 13.39 1
-14 3 8 88.5344 9.6006 3
13 -3 -8 14.8629 5.2527 1
-13 -3 8 15.3724 4.1805 3
13 3 -8 20.9378 6.1912 1
-13 3 8 10.0155 3.67 3
12 -3 -8 7.17883 4.30359 1
-12 -3 8 -1.0733 2.1881 3
-12 3 8 7.67191 3.24103 3
12 3 -8 2.39494 3.92109 1
-11 -3 8 24.1319 4.7046 3
11 -3 -8 32.1497 6.3479 1
11 3 -8 20.006 5.9077 1
-11 3 8 20.5534 4.3621 3
10 -3 -8 161.808 12.401 1
-10 -3 8 164.433 10.132 3
-10 3 8 154.374 10.059 3
10 3 -8 126.349 13.48 1
-9 -3 8 73.0438 7.21 3
9 -3 -8 69.4087 8.9721 1
9 3 -8 86.2417 10.2157 1
8 -3 -8 2.60562 2.76288 1
8 3 -8 -0.3339 2.3449 1
7 -3 -8 7.12603 3.23286 1
7 3 -8 6.26027 2.20949 2
7 3 -8 7.36817 3.33286 1
6 -3 -8 103.126 9.884 1
6 3 -8 90.655 6.1533 2
6 3 -8 100.323 10.092 1
5 -3 -8 79.5953 8.4959 1
5 3 -8 95.2307 6.3444 2
5 3 -8 94.3759 9.3279 1
4 -3 -8 76.7886 8.0615 1
4 3 -8 66.199 7.447 1
3 -3 -8 7.09083 2.7829 1
3 3 -8 4.33133 2.14768 2
3 3 -8 4.46421 2.43448 1
2 -3 -8 85.7691 8.1913 1
2 3 -8 93.0594 7.2732 1
2 3 -8 89.811 7.8451 2
1 -3 -8 585.811 24.995 1
1 3 -8 607.242 25.452 1
1 3 -8 605.755 25.141 2
0 -3 -8 150.176 8.744 1
0 3 -8 159.431 9.848 2
0 3 -8 161.387 9.144 1
-1 -3 -8 62.1895 5.8944 1
-1 3 -8 66.2343 7.1954 2
-1 3 -8 75.5879 5.4953 1
-2 -3 -8 26.7081 3.7057 1
-2 3 -8 23.3099 3.2397 1
-2 3 -8 25.6151 4.8171 2
-3 -3 -8 42.6878 4.6248 1
-3 3 -8 36.4849 5.5616 2
-3 3 -8 34.575 3.4129 1
-4 -3 -8 13.0948 2.7024 1
-4 3 -8 16.812 4.0779 2
-5 -3 -8 4.63589 2.71585 2
-5 -3 -8 6.6244 2.20688 1
-5 3 -8 3.73364 2.89616 2
-6 -3 -8 96.2821 9.2695 2
-6 3 -8 98.263 9.8202 2
6 3 8 96.1306 9.0111 1
-7 -3 -8 31.1111 5.2935 2
-7 3 -8 23.7641 4.992 2
-8 -3 -8 91.9342 9.1903 2
-8 3 -8 79.527 9.2443 2
-9 -3 -8 45.1397 6.5333 2
-9 3 -8 42.8223 6.9678 2
-10 -3 -8 0.09899 2.81525 2
-10 3 -8 5.56939 3.58072 2
-11 3 -8 -1.0439 2.5757 3
-11 3 -8 4.46955 3.63168 2
-12 -3 -8 25.8414 5.8367 3
-12 3 -8 16.99 4.9534 3
-12 3 -8 19.3479 5.4391 2
-13 -3 -8 10.2325 4.1356 3
-13 3 -8 13.6778 4.6888 3
-13 3 -8 7.68684 4.17691 2
-14 -3 -8 24.5502 6.3158 3
-14 3 -8 24.9673 5.8658 3
-14 3 -8 15.5717 5.4218 2
-15 -3 -8 -2.2765 3.2623 3
-15 3 -8 -4.2802 2.7094 3
-16 -3 -8 3.7976 3.87175 3
-16 3 -8 3.57774 4.07678 3
-20 -4 8 4.36118 4.37464 3
20 4 -8 10.3739 7.4803 1
-20 4 8 6.13819 4.85503 3
-19 -4 8 -0.188 3.7447 3
-19 4 8 3.8774 4.7016 3
19 4 -8 4.99365 6.68721 1
-18 -4 8 6.89014 4.23709 3
18 -4 -8 3.15161 5.18163 1
-18 4 8 2.82619 4.12433 3
18 4 -8 -0.9878 5.4347 1
-17 -4 8 -0.3865 2.9074 3
17 -4 -8 5.79208 5.29983 1
-17 4 8 0.43917 3.43683 3
17 4 -8 23.7178 7.7305 1
16 -4 -8 63.8571 10.5608 1
-16 -4 8 45.1334 7.4059 3
16 4 -8 44.4034 9.6639 1
-16 4 8 43.1788 7.4572 3
-15 -4 8 2.94438 2.87936 3
15 -4 -8 -0.2056 4.0723 1
15 4 -8 3.08361 4.46443 1
-15 4 8 3.23529 3.00074 3
14 -4 -8 64.8974 10.0775 1
-14 -4 8 67.9742 8.3718 3
-14 4 8 72.3159 8.5207 3
14 4 -8 40.3657 9.0447 1
-13 -4 8 133.204 10.097 3
13 -4 -8 127.976 13.756 1
13 4 -8 143.284 15.436 1
-13 4 8 121.747 11.031 3
-12 -4 8 35.7358 5.84 3
12 -4 -8 29.0851 6.6133 1
12 4 -8 40.2902 8.1922 1
-12 4 8 45.9669 6.4322 3
-11 -4 8 7.00152 3.21796 3
11 -4 -8 -1.4656 3.0449 1
-11 4 8 3.59045 2.7755 3
11 4 -8 2.51754 3.85383 1
-10 -4 8 342.105 17.078 3
10 -4 -8 358.977 20.174 1
10 4 -8 328.712 20.547 1
-9 -4 8 17.9264 3.8504 3
9 -4 -8 24.5181 5.6329 1
9 4 -8 28.0858 6.3111 1
8 -4 -8 1.85843 3.07057 1
8 4 -8 6.31532 3.39787 1
7 -4 -8 54.7625 7.9957 1
7 4 -8 72.951 9.1667 1
7 4 -8 63.1371 5.4132 2
6 -4 -8 7.13795 3.45161 1
6 4 -8 9.1442 2.481 2
6 4 -8 5.05843 3.44273 1
5 -4 -8 4.13677 2.63623 1
5 4 -8 2.29879 1.91457 2
5 4 -8 6.75207 3.33751 1
4 -4 -8 9.36867 3.21803 1
4 4 -8 2.4858 1.647 2
4 4 -8 4.92922 2.82589 1
3 -4 -8 26.4119 4.59 1
3 4 -8 21.5707 4.6161 1
3 4 -8 14.4825 3.4487 2
2 -4 -8 60.1317 6.296 1
2 4 -8 57.6066 6.3206 2
2 4 -8 45.8632 6.1855 1
1 -4 -8 856.165 34.751 1
1 4 -8 855.124 35.317 1
1 4 -8 873.292 34.438 2
0 -4 -8 69.167 6.7366 1
0 4 -8 72.1827 7.0171 1
0 4 -8 87.0435 8.0743 2
-1 -4 -8 190.941 10.748 1
-1 4 -8 188.813 11.733 2
-1 4 -8 217.745 11.236 1
-2 -4 -8 40.1187 5.0037 1
-2 4 -8 39.4426 5.9625 2
-2 4 -8 40.097 4.6965 1
-3 -4 -8 851.51 34.428 1
-3 4 -8 870.477 35.464 2
-4 -4 -8 9.60281 2.8743 1
4 4 8 18.7498 4.4811 1
-4 4 -8 13.0376 3.753 2
-5 4 -8 28.4458 5.2684 2
-6 -4 -8 257.702 14.281 2
-6 4 -8 253.089 14.877 2
6 4 8 220.694 14.258 1
-7 -4 -8 221.674 13.199 2
-7 4 -8 191.203 13.187 2
7 4 8 220.241 13.759 1
-8 -4 -8 294.273 16.131 2
-8 4 -8 289.919 16.967 2
-9 -4 -8 1.42791 2.82086 2
-9 4 -8 0.1423 2.50278 2
-10 -4 -8 -0.6382 2.8789 2
-10 4 -8 1.35045 2.53815 3
-10 4 -8 2.35754 3.50317 2
-11 -4 -8 170.194 11.886 3
-11 4 -8 145.369 13.514 2
-11 4 -8 155.295 11.28 3
-12 -4 -8 6.11259 3.51276 3
-12 4 -8 4.431 3.26116 3
-12 4 -8 5.4627 3.977 2
-13 -4 -8 0.42514 3.02559 3
-13 4 -8 0.23754 3.21761 2
-13 4 -8 -1.1013 3.2108 3
-14 -4 -8 0.33078 3.43079 3
-14 4 -8 -3.5642 3.1589 3
-14 4 -8 -0.3984 3.7894 2
-15 -4 -8 1.36889 3.92711 3
-15 4 -8 4.5657 4.0191 3
-16 -4 -8 6.68449 5.00573 3
-16 4 -8 1.15222 4.30881 3
-19 -5 8 -3.4394 3.3211 3
19 5 -8 10.0679 7.777 1
-19 5 8 0.95595 3.91676 3
18 -5 -8 10.2874 6.7532 1
-18 -5 8 23.8061 6.1395 3
18 5 -8 22.2488 8.7563 1
-18 5 8 25.9575 6.5758 3
-17 -5 8 -0.9731 2.9934 3
17 -5 -8 1.54068 4.66006 1
-17 5 8 -4.2719 3.2496 3
17 5 -8 1.97786 5.6899 1
-16 -5 8 15.7317 4.7918 3
16 -5 -8 26.7953 7.5471 1
16 5 -8 10.3911 6.4377 1
-16 5 8 25.0958 5.8981 3
-15 -5 8 -2.1736 2.4803 3
15 -5 -8 6.65121 5.06386 1
15 5 -8 1.87165 5.14048 1
-15 5 8 -0.222 2.6992 3
14 -5 -8 0.29368 4.55625 1
-14 -5 8 1.28752 2.52986 3
-14 5 8 3.8838 3.31867 3
14 5 -8 2.18027 4.03854 1
-13 -5 8 12.9592 3.9806 3
13 -5 -8 12.0511 5.4938 1
-13 5 8 17.0572 4.3957 3
13 5 -8 12.3921 6.1613 1
-12 -5 8 63.0155 7.608 3
12 -5 -8 75.6096 10.5549 1
12 5 -8 51.5317 9.7824 1
11 -5 -8 23.3236 6.265 1
-11 -5 8 27.3533 4.9441 3
11 5 -8 24.9496 6.9198 1
10 -5 -8 10.6818 4.728 1
-10 -5 8 18.9083 4.0475 3
10 5 -8 18.1586 5.9308 1
9 -5 -8 5.46164 3.99027 1
9 5 -8 7.24566 4.11724 1
8 -5 -8 0.66591 2.79196 1
8 5 -8 0.59311 2.80168 1
7 -5 -8 5.85503 3.62693 1
7 5 -8 11.4949 4.7226 1
6 -5 -8 50.563 7.4982 1
6 5 -8 42.4524 4.8571 2
6 5 -8 35.8109 6.535 1
5 -5 -8 45.8518 6.7897 1
5 5 -8 35.6276 6.4904 1
5 5 -8 36.8268 4.7197 2
4 -5 -8 13.588 3.5545 1
4 5 -8 19.3079 3.689 2
4 5 -8 14.8572 4.1407 1
3 -5 -8 49.4334 6.0634 1
3 5 -8 43.7997 6.5508 1
3 5 -8 46.7536 5.7465 2
2 -5 -8 63.4278 6.8505 1
2 5 -8 77.7882 8.5056 1
2 5 -8 63.4837 6.8046 2
1 -5 -8 3.04567 2.12929 1
1 5 -8 1.20432 2.37528 1
1 5 -8 4.16595 2.72186 2
0 -5 -8 3.68487 2.31046 1
0 5 -8 2.49799 2.59849 1
0 5 -8 1.3823 2.22968 2
-1 -5 -8 96.5355 7.3778 1
-1 5 -8 99.7957 9.3542 2
-1 5 -8 108.37 7.985 1
-2 -5 -8 191.927 11.28 1
-2 5 -8 194.428 11.077 1
-2 5 -8 195.317 12.197 2
-3 -5 -8 55.7915 6.3229 1
-3 5 -8 56.8536 7.2522 2
-4 5 -8 1.17523 2.58351 2
4 5 8 4.35038 3.40905 1
5 5 8 145.739 11.585 1
-5 5 -8 160.937 11.441 2
6 5 8 -1.2513 2.9829 1
-6 5 -8 0.3002 2.17932 2
7 5 8 0.86108 3.2088 1
-7 5 -8 1.67264 3.10462 2
-8 -5 -8 136.187 10.377 2
-8 5 -8 143.384 12.951 2
-9 -5 -8 76.1067 8.7339 2
-9 5 -8 81.5024 8.0642 3
-9 5 -8 56.1587 8.2394 2
-10 5 -8 52.3603 6.8957 3
-10 5 -8 49.1158 7.778 2
-11 -5 -8 6.99603 3.56112 3
-11 5 -8 4.38509 3.48355 3
-11 5 -8 9.45526 4.53292 2
-12 -5 -8 2.96838 3.54801 3
-12 5 -8 5.97729 3.95817 3
-12 5 -8 1.54181 3.18648 2
-13 -5 -8 6.93212 4.53899 3
-13 5 -8 24.263 6.0313 3
-13 5 -8 13.296 5.1421 2
-14 -5 -8 5.92665 4.70109 3
-14 5 -8 7.07161 4.29886 3
-14 5 -8 4.13362 4.17786 2
-15 -5 -8 -1.4899 3.8631 3
-15 5 -8 -2.0244 3.5993 3
-15 5 -8 7.78535 4.74941 2
-19 -6 8 -4.5342 3.8745 3
19 6 -8 3.19104 6.89445 1
-18 -6 8 -0.0302 3.9305 3
18 6 -8 -2.6708 6.5577 1
-18 6 8 0.66253 3.85067 3
-17 -6 8 -0.9704 3.4185 3
17 -6 -8 2.70701 5.25924 1
-17 6 8 -1.1939 3.6423 3
17 6 -8 3.34654 6.73849 1
-16 -6 8 1.77709 3.12436 3
16 -6 -8 1.63053 4.9133 1
-16 6 8 0.75052 3.72116 3
16 6 -8 -0.1047 5.5448 1
15 -6 -8 9.61256 5.94178 1
-15 -6 8 13.0255 4.4543 3
-15 6 8 13.6027 4.6527 3
15 6 -8 24.7218 7.8294 1
-14 -6 8 2.28101 3.03115 3
14 -6 -8 6.09649 5.06241 1
-14 6 8 -1.9172 2.6575 3
14 6 -8 4.92908 5.50883 1
-13 -6 8 9.2202 3.74031 3
13 -6 -8 6.35761 5.0226 1
13 6 -8 4.25607 4.80714 1
12 -6 -8 5.44954 4.32882 1
-12 -6 8 2.9933 2.92757 3
12 6 -8 7.92051 5.54581 1
11 -6 -8 3.77853 4.5575 1
-11 -6 8 5.42933 2.90732 3
11 6 -8 0.92907 4.18009 1
10 -6 -8 84.8098 10.7528 1
10 6 -8 40.4016 8.7489 1
9 -6 -8 3.56151 3.99381 1
9 6 -8 -3.6913 3.2894 1
8 -6 -8 386.202 22.208 1
8 6 -8 407.322 23.363 1
7 -6 -8 196.063 14.352 1
7 6 -8 206.67 15 1
6 -6 -8 104.275 11.399 1
6 6 -8 141.37 8.32 2
6 6 -8 117.583 12.739 1
5 -6 -8 0.17803 2.10033 1
5 6 -8 0.38055 2.00197 2
5 6 -8 2.37075 3.15555 1
4 -6 -8 2.82557 2.58147 1
4 6 -8 1.0326 1.9487 2
4 6 -8 3.04624 3.42492 1
3 -6 -8 152.11 10.235 1
3 6 -8 152.874 11.62 1
3 6 -8 135.338 9.296 2
2 -6 -8 26.4342 4.9608 1
2 6 -8 23.9556 5.2626 1
2 6 -8 27.4805 4.8765 2
1 -6 -8 13.0521 3.6666 1
1 6 -8 17.0198 4.1506 2
1 6 -8 6.70478 3.37603 1
0 -6 -8 128.53 9.141 1
0 6 -8 107.607 10.459 1
0 6 -8 111.327 10.053 2
-1 -6 -8 111.649 9.914 1
-1 6 -8 103.02 9.781 1
-1 6 -8 96.9026 9.6292 2
-2 -6 -8 284.62 15.54 1
-2 6 -8 290.993 16.141 2
-2 6 -8 311.408 16.101 1
-3 -6 -8 202.598 11.828 1
-3 6 -8 203.558 12.834 2
3 6 8 162.132 13.529 1
-4 6 -8 19.0825 4.5235 2
4 6 8 4.79158 4.00478 1
5 6 8 17.2936 5.606 1
-5 6 -8 23.4275 5.138 2
6 6 8 69.4936 9.9171 1
-6 6 -8 79.4174 9.4491 2
-7 6 -8 62.9345 8.9655 2
7 6 8 74.7879 10.0952 1
-8 6 -8 76.9784 10.0371 2
8 6 8 87.5292 11.113 1
-9 6 -8 5.27336 3.80609 2
-10 -6 -8 22.2876 4.8013 3
-10 6 -8 15.4819 4.9702 2
-11 -6 -8 -0.4868 2.9626 3
-11 6 -8 7.01372 4.46643 2
-12 -6 -8 1.27563 3.50982 3
-12 6 -8 1.39391 3.53736 2
-13 -6 -8 9.92692 4.37717 3
-13 6 -8 9.67787 4.84738 2
-14 -6 -8 3.78222 4.30967 3
-14 6 -8 2.6278 4.66776 2
-15 -6 -8 0.33972 4.3739 3
-15 6 -8 3.2747 4.20419 2
18 7 -8 28.955 9.9395 1
17 -7 -8 8.99618 6.40643 1
17 7 -8 -0.4711 6.6885 1
16 -7 -8 4.37884 5.44263 1
16 7 -8 1.28191 6.68009 1
15 -7 -8 -0.0571 4.8999 1
15 7 -8 -5.9788 4.2797 1
14 -7 -8 17.6593 6.5005 1
14 7 -8 30.5778 9.2433 1
13 -7 -8 7.83543 5.26437 1
-13 7 8 1.66698 2.79037 2
13 7 -8 -2.1551 4.1362 1
12 -7 -8 146.875 15.514 1
12 7 -8 139.61 16.837 1
11 -7 -8 -2.6789 3.5649 1
11 7 -8 1.0388 3.94841 1
10 -7 -8 -1.5343 3.5127 1
10 7 -8 2.26948 4.36988 1
9 -7 -8 39.1419 7.5267 1
9 7 -8 45.0019 8.8698 1
8 -7 -8 30.8042 6.9947 1
8 7 -8 20.4457 5.9067 1
7 -7 -8 52.2593 8.4676 1
7 7 -8 37.5242 7.9903 1
6 -7 -8 9.35302 4.11138 1
6 7 -8 18.4662 5.7308 1
5 -7 -8 54.983 7.4675 1
5 7 -8 45.972 8.2597 1
4 -7 -8 0.93144 2.22028 1
4 7 -8 1.17638 2.30195 2
4 7 -8 -0.0787 3.3709 1
3 -7 -8 132.771 10.046 1
3 7 -8 142.194 9.585 2
3 7 -8 117.773 12.678 1
2 7 -8 383.554 21.123 1
2 7 -8 369.553 18.533 2
1 -7 -8 22.7937 5.023 1
1 7 -8 26.1192 5.8212 1
1 7 -8 24.9816 5.1219 2
0 -7 -8 155.367 10.944 1
0 7 -8 142.908 10.609 2
0 7 -8 167.468 12.165 1
-1 -7 -8 -0.6256 2.5045 1
-1 7 -8 0.22345 2.4807 2
-1 7 -8 3.41609 3.35295 1
-2 -7 -8 8.09865 3.63185 1
-2 7 -8 10.3789 3.9596 2
-3 -7 -8 5.74785 3.32297 1
3 7 8 0.67536 3.64575 1
-3 7 -8 9.32581 4.18704 2
-4 7 -8 3.75215 3.17535 2
4 7 8 8.30639 4.98003 1
5 7 8 42.7485 8.2751 1
-5 7 -8 47.7586 7.3768 2
6 7 8 30.3561 7.4846 1
-6 7 -8 20.4045 5.378 2
7 7 8 3.69552 4.46772 1
-7 7 -8 3.34527 3.1556 2
8 7 8 134.456 14.948 1
-8 7 -8 166.977 14.89 2
-9 -7 -8 1.24138 2.85168 3
-9 7 -8 2.95742 3.68025 2
-10 -7 -8 19.3259 4.9414 3
-10 7 -8 20.1551 5.9009 2
-11 -7 -8 0.43009 3.3876 3
-11 7 -8 1.6833 3.71262 2
-12 -7 -8 82.0596 10.0873 3
-12 7 -8 67.953 10.3275 2
-13 -7 -8 2.55756 4.35361 3
-13 7 -8 2.34781 4.28614 2
-14 -7 -8 14.9296 5.3912 3
-14 7 -8 5.02205 4.84953 2
17 8 -8 2.86492 7.36888 1
16 -8 -8 10.945 6.9215 1
16 8 -8 35.9483 10.9096 1
15 -8 -8 1.50768 5.35232 1
15 8 -8 18.4066 8.3118 1
14 -8 -8 1.73561 5.82949 1
14 8 -8 1.33856 5.96879 1
-14 8 8 11.5902 4.6331 2
13 -8 -8 -4.1284 4.2423 1
-13 8 8 5.07132 3.49856 2
13 8 -8 -0.6388 5.018 1
12 -8 -8 39.3206 8.8845 1
-12 8 8 34.7185 6.3989 2
12 8 -8 36.6017 9.2387 1
11 -8 -8 22.7026 6.9156 1
11 8 -8 25.1767 7.5415 1
-11 8 8 32.2896 6.1139 2
10 -8 -8 -0.3332 3.6761 1
10 8 -8 2.6054 4.76218 1
9 -8 -8 -4.4147 3.689 1
9 8 -8 4.09741 4.70412 1
8 -8 -8 217.125 16.158 1
8 8 -8 179.49 18.445 1
7 -8 -8 76.3847 10.2625 1
7 8 -8 64.2946 10.6051 1
6 -8 -8 35.7008 6.5727 1
6 8 -8 32.1104 7.5863 1
5 -8 -8 2.01892 2.79 1
5 8 -8 0.11065 2.16342 2
5 8 -8 -2.4963 3.0621 1
4 -8 -8 8.63217 3.53992 1
4 8 -8 -4.3977 2.8078 1
4 8 -8 9.22043 3.37488 2
3 -8 -8 77.9541 9.3008 1
3 8 -8 86.1925 11.2392 1
3 8 -8 75.6329 8.106 2
2 -8 -8 -0.0108 2.4943 1
2 8 -8 -1.5856 2.5122 2
2 8 -8 2.87668 3.76747 1
1 -8 -8 3.69675 2.95326 1
1 8 -8 7.21111 3.24858 2
1 8 -8 1.60558 3.85019 1
0 -8 -8 169.645 12.217 1
0 8 -8 201.386 12.613 2
0 8 -8 151.465 14.635 1
-1 -8 -8 203.09 13.188 1
-1 8 -8 183.962 13.063 2
-1 8 -8 190.025 13.691 1
-2 -8 -8 7.58498 3.72946 1
-2 8 -8 10.8171 4.4196 2
-3 -8 -8 32.1973 6.028 1
3 8 8 38.7629 8.2724 1
-3 8 -8 30.3441 6.153 2
4 8 8 47.2973 8.9973 1
-4 8 -8 53.5166 8.0611 2
-5 8 -8 -0.5571 3.1199 2
5 8 8 -6.5781 3.5177 1
-6 8 -8 28.4921 6.5265 2
6 8 8 33.7552 8.3952 1
7 8 8 2.11961 4.92989 1
-7 8 -8 0.29638 3.04591 2
-8 8 -8 32.7245 7.1503 2
8 8 8 50.6945 10.0537 1
-9 8 -8 1.23567 3.69238 2
9 8 8 4.0005 5.84163 1
-10 8 -8 3.41396 4.16373 2
-11 8 -8 2.72562 4.01382 2
-12 8 -8 45.9019 8.9846 2
-13 8 -8 -1.1361 4.3133 2
15 -9 -8 6.89826 6.58788 1
15 9 -8 9.51037 7.82572 1
14 -9 -8 14.7745 6.8645 1
-14 9 8 30.7333 6.872 2
14 9 -8 3.75832 7.41517 1
13 -9 -8 16.022 6.7897 1
13 9 -8 16.1268 8.1417 1
-13 9 8 29.1846 6.5599 2
12 -9 -8 27.0319 8.0557 1
-12 9 8 19.8961 5.2826 2
12 9 -8 19.7634 8.1413 1
11 -9 -8 7.6794 5.76415 1
11 9 -8 13.9422 6.9128 1
10 -9 -8 8.77052 5.44733 1
10 9 -8 8.93126 5.63656 1
9 -9 -8 126.017 14.975 1
9 9 -8 122.495 15.678 1
8 -9 -8 4.20885 4.9226 1
8 9 -8 12.6996 6.2921 1
7 -9 -8 3.13786 3.96447 1
7 9 -8 -3.0103 3.9657 1
6 -9 -8 7.6951 4.2456 1
6 9 -8 1.65514 4.35774 1
5 -9 -8 2.05912 3.12849 1
5 9 -8 3.99601 4.38257 1
4 -9 -8 7.25717 4.05501 1
4 9 -8 -3.4592 3.4126 1
4 9 -8 -0.6103 2.6743 2
3 -9 -8 23.0529 5.6653 1
3 9 -8 17.5027 6.3111 1
3 9 -8 28.8243 6.0311 2
2 -9 -8 122.541 12.508 1
2 9 -8 141.019 10.748 2
2 9 -8 140.485 14.694 1
1 -9 -8 171.597 12.512 1
1 9 -8 152.863 11.469 2
1 9 -8 139.432 14.819 1
0 -9 -8 20.2078 5.749 1
0 9 -8 21.1211 5.3067 2
0 9 -8 19.7566 6.2499 1
-1 -9 -8 7.54294 3.82055 1
-1 9 -8 8.39542 4.11964 2
-2 -9 -8 12.2725 4.3774 1
-2 9 -8 8.19073 4.16392 2
-3 -9 -8 -1.7069 2.9818 1
3 9 8 3.5708 4.68927 1
-3 9 -8 3.23799 3.5214 2
4 9 8 16.3005 6.7199 1
-4 9 -8 11.5676 4.5203 2
5 9 8 2.84668 4.72086 1
-5 9 -8 -2.4714 2.8906 2
-6 9 -8 33.2379 6.8471 2
6 9 8 47.9327 10.2615 1
7 9 8 -0.9516 4.9831 1
-7 9 -8 4.36234 3.84911 2
-8 9 -8 7.34689 4.85813 2
8 9 8 8.25818 6.31546 1
-9 9 -8 2.19122 4.07708 2
9 9 8 2.53607 5.61232 1
-10 9 -8 0.53125 3.97533 2
-11 9 -8 1.25161 4.50732 2
-12 9 -8 28.8191 7.7083 2
14 -10 -8 4.99583 6.53228 1
14 10 -8 -0.711 6.1079 1
13 -10 -8 5.12713 6.10292 1
13 10 -8 0.90726 5.79615 1
12 -10 -8 -2.7485 4.6614 1
12 10 -8 -1.3876 5.183 1
11 -10 -8 2.64508 4.8866 1
11 10 -8 3.77357 5.83234 1
10 -10 -8 7.37906 5.90417 1
10 10 -8 16.0485 7.4331 1
9 -10 -8 60.1505 10.6334 1
9 10 -8 60.6934 11.4771 1
8 -10 -8 1.30267 4.56118 1
8 10 -8 1.31521 4.49076 1
7 -10 -8 7.85374 4.75133 1
7 10 -8 16.5397 6.7769 1
6 -10 -8 2.88664 3.84916 1
6 10 -8 10.4662 6.3184 1
5 -10 -8 66.6676 9.4861 1
5 10 -8 69.2989 11.3582 1
4 -10 -8 -0.7078 3.0174 1
4 10 -8 1.85277 3.19255 2
4 10 -8 -5.4477 3.5282 1
3 -10 -8 77.9342 10.244 1
3 10 -8 66.5095 10.9789 1
3 10 -8 89.8001 9.7717 2
2 -10 -8 -3.874 2.5469 1
2 10 -8 1.93249 3.31953 2
2 10 -8 -1.3028 3.4075 1
1 -10 -8 44.8539 7.9372 1
1 10 -8 42.1938 8.7263 1
1 10 -8 34.397 6.7917 2
0 -10 -8 3.70586 3.91446 1
0 10 -8 3.7568 4.51484 1
0 10 -8 3.61168 4.03652 2
-1 -10 -8 6.63331 4.30224 1
-1 10 -8 10.2428 4.4036 2
-2 -10 -8 6.20137 4.4456 1
-2 10 -8 11.2757 4.7904 2
-3 -10 -8 1.55941 3.37821 1
-3 10 -8 3.80043 4.22793 2
-4 10 -8 6.82902 4.14473 2
4 10 8 14.7174 6.905 1
-5 10 -8 4.84245 4.45314 2
5 10 8 0.86634 5.25969 1
-6 10 -8 1.8664 3.89957 2
6 10 8 2.07762 5.21649 1
-7 10 -8 19.1922 6.2122 2
7 10 8 25.7095 8.779 1
8 10 8 6.63002 6.83642 1
-8 10 -8 2.72545 4.30877 2
-9 10 -8 12.1069 5.4261 2
9 10 8 0.29683 6.10879 1
-10 10 -8 0.04259 4.65972 2
12 -11 -8 -0.2272 6.2182 1
12 11 -8 1.0866 6.44977 1
11 -11 -8 8.26773 6.3026 1
11 11 -8 3.13297 5.80971 1
10 -11 -8 -9.1214 4.7305 1
10 11 -8 5.05856 5.51771 1
9 -11 -8 12.2491 6.7113 1
9 11 -8 12.3125 6.7867 1
8 -11 -8 -2.6765 4.3684 1
8 11 -8 3.45293 5.44899 1
7 -11 -8 -0.626 3.902 1
7 11 -8 2.52237 4.84029 1
6 -11 -8 10.2539 5.3534 1
6 11 -8 10.4835 6.5129 1
5 -11 -8 1.72512 4.30793 1
5 11 -8 4.10938 5.45712 1
4 -11 -8 26.594 6.7975 1
4 11 -8 37.8114 9.2338 1
3 -11 -8 5.33731 4.07964 1
3 11 -8 0.75656 4.44081 1
3 11 -8 2.86551 3.69105 2
2 -11 -8 1.77418 4.10081 1
2 11 -8 -1.0577 3.7058 2
2 11 -8 3.11977 4.94024 1
1 -11 -8 0.16603 3.45186 1
1 11 -8 -1.6179 3.7063 1
1 11 -8 0.8684 3.33779 2
0 -11 -8 5.983 4.45705 1
0 11 -8 10.1566 4.827 2
-1 -11 -8 17.4827 5.6634 1
-1 11 -8 24.8421 6.5174 2
-2 -11 -8 6.71803 4.43178 1
-2 11 -8 12.0125 5.409 2
-3 -11 -8 0.78541 3.7233 1
-3 11 -8 5.22522 4.45278 2
-4 -11 -8 5.32748 4.55047 1
4 11 8 5.20635 6.25125 1
-4 11 -8 2.08705 4.17657 2
-5 11 -8 24.7476 7.239 2
5 11 8 12.11 7.211 1
6 11 8 10.2014 7.391 1
-6 11 -8 -1.6539 4.3261 2
-7 11 -8 5.66042 5.37974 2
7 11 8 12.6499 8.2943 1
8 11 8 -3.6726 6.7212 1
-8 11 -8 -1.4193 4.0613 2
9 -12 -8 2.66586 5.87584 1
9 12 -8 -1.7088 5.2844 1
8 -12 -8 12.21 6.808 1
8 12 -8 8.27091 6.34079 1
7 -12 -8 1.74354 4.92103 1
7 12 -8 -6.9029 4.6594 1
6 -12 -8 24.1945 7.3118 1
6 12 -8 12.943 7.1877 1
5 -12 -8 15.6906 5.6529 1
5 12 -8 24.5719 7.9705 1
4 -12 -8 6.44986 4.92213 1
4 12 -8 2.44678 5.17238 1
3 -12 -8 9.16653 4.87839 1
3 12 -8 13.0653 6.5715 1
2 -12 -8 24.1327 6.6617 1
2 12 -8 20.2526 5.8696 2
2 12 -8 23.0449 7.3889 1
1 -12 -8 -1.7195 3.4978 1
1 12 -8 2.13957 4.43902 2
0 -12 -8 56.8706 9.7441 1
0 12 -8 73.1229 10.1208 2
-1 -12 -8 5.23848 5.05618 1
-1 12 -8 12.111 5.4233 2
-2 -12 -8 -1.0515 3.6936 1
-2 12 -8 3.3758 4.51877 2
-3 -12 -8 8.29719 5.46845 1
-3 12 -8 15.4312 6.3136 2
-4 -12 -8 3.13641 5.41165 1
-4 12 -8 5.67268 5.1932 2
-5 -12 -8 0.22281 4.47459 1
5 12 8 3.16698 7.0828 1
-5 12 -8 -0.3803 3.9253 2
1 13 -8 0.7813 4.46165 2
21 0 -9 -1.1186 6.295 1
-21 0 9 3.21995 4.59475 3
-20 0 9 -3.899 3.6388 3
20 0 -9 -1.2133 5.3293 1
19 0 -9 2.71169 5.52739 1
-19 0 9 0.99717 3.70124 3
-18 0 9 26.1498 6.707 3
18 0 -9 40.1874 9.2511 1
-17 0 9 1.28934 3.04994 3
17 0 -9 0.48638 4.2999 1
16 0 -9 6.13856 4.8242 1
-16 0 9 4.4578 3.27305 3
-15 0 9 0.44029 2.83167 3
15 0 -9 -3.8834 3.7224 1
14 0 -9 -1.1507 3.5515 1
-14 0 9 -2.0316 2.3399 3
13 0 -9 -4.199 3.2159 1
-13 0 9 -0.868 2.0239 3
-12 0 9 34.609 5.6118 3
12 0 -9 23.9888 6.1261 1
11 0 -9 2.17236 3.06991 1
-11 0 9 0.0369 1.8742 3
10 0 -9 201.889 14.062 1
-10 0 9 205.671 12.049 3
9 0 -9 -1.224 2.5042 1
8 0 -9 885.814 38.579 1
7 0 -9 1.5914 2.41291 1
6 0 -9 585.816 26.721 1
5 0 -9 -1.7374 1.3167 2
5 0 -9 -3.8255 1.5717 1
4 0 -9 917.959 35.317 2
4 0 -9 923.079 37.702 1
3 0 -9 4.26221 2.20919 1
3 0 -9 1.20993 1.59067 2
2 0 -9 781.811 31.321 2
2 0 -9 801.616 32.28 1
1 0 -9 -1.4667 1.4886 2
1 0 -9 2.37202 1.94181 1
0 0 -9 306.779 15.4 2
0 0 -9 326.361 14.735 1
-1 0 -9 1.72743 1.84742 2
-1 0 -9 -0.9953 1.3411 1
-2 0 -9 2.5369 2.02874 2
-2 0 -9 2.99202 1.70479 1
-3 0 -9 1.41917 1.41941 1
-3 0 -9 3.4938 2.54151 2
-4 0 -9 1064.28 42.09 2
-5 0 -9 -2.5436 1.5376 2
-6 0 -9 596.507 26.882 2
-7 0 -9 1.37115 2.47267 2
-8 0 -9 110.463 10.58 2
-9 0 -9 -2.9575 2.3797 2
-10 0 -9 0.98178 2.8777 2
-11 0 -9 -2.3097 2.7313 2
-12 0 -9 3.85498 3.69236 2
-12 0 -9 -0.7561 2.5771 3
-13 0 -9 -0.9899 2.9723 3
-14 0 -9 33.3427 7.2626 3
-15 0 -9 5.56116 4.66229 3
-16 0 -9 -4.1377 3.9704 3
-21 -1 9 4.07433 4.38734 3
21 -1 -9 -8.7132 5.7042 1
21 1 -9 11.1059 7.1395 1
-21 1 9 4.97073 4.98352 3
-20 -1 9 -2.5252 3.5241 3
20 -1 -9 -5.4081 4.7913 1
-20 1 9 -1.0368 3.9478 3
20 1 -9 -3.5505 5.3665 1
19 -1 -9 1.62178 5.11869 1
-19 -1 9 -0.4124 3.2646 3
19 1 -9 -1.9414 5.0584 1
-19 1 9 5.60846 4.79262 3
18 -1 -9 32.2672 7.9683 1
-18 -1 9 28.6731 6.6838 3
18 1 -9 31.4549 8.7917 1
-18 1 9 43.1737 8.1283 3
-17 -1 9 4.77156 3.86129 3
17 -1 -9 6.96923 5.51829 1
-17 1 9 12.7965 4.3386 3
17 1 -9 8.88499 5.69374 1
-16 -1 9 11.3203 4.4977 3
16 -1 -9 10.4342 5.7386 1
16 1 -9 14.0171 5.8495 1
-16 1 9 21.1952 5.4503 3
15 -1 -9 18.1895 6.0949 1
-15 -1 9 24.7485 5.7319 3
-15 1 9 26.2674 5.6222 3
15 1 -9 19.3139 6.4532 1
-14 -1 9 1.99893 2.65837 3
14 -1 -9 4.8 4.21964 1
14 1 -9 3.72102 3.90152 1
-14 1 9 -0.7894 2.3976 3
-13 -1 9 11.0397 3.5818 3
13 -1 -9 14.7135 5.6296 1
-13 1 9 9.32747 3.47985 3
13 1 -9 13.8263 5.4232 1
-12 -1 9 301.773 16.072 3
12 -1 -9 281.03 18.087 1
12 1 -9 309.202 18.967 1
-12 1 9 279.004 15.755 3
-11 -1 9 36.5195 5.717 3
11 -1 -9 62.9989 9.1674 1
-11 1 9 49.091 6.3354 3
11 1 -9 37.1501 7.1725 1
-10 -1 9 19.8032 4.1287 3
10 -1 -9 29.1573 6.1981 1
10 1 -9 35.5471 6.7203 1
9 -1 -9 52.9398 7.6957 1
9 1 -9 41.5151 4.4846 2
9 1 -9 48.1238 7.3681 1
8 -1 -9 87.1141 9.5642 1
8 1 -9 77.9241 5.5692 2
8 1 -9 92.3181 9.9528 1
7 -1 -9 1.98506 2.53555 1
7 1 -9 -1.6988 1.3245 2
7 1 -9 0.98888 2.65525 1
6 -1 -9 2.37605 2.43057 1
6 1 -9 2.44001 1.64296 2
6 1 -9 5.38311 2.93498 1
5 -1 -9 17.7158 4.222 1
5 1 -9 18.1104 4.1588 1
5 1 -9 12.4144 2.8259 2
4 -1 -9 350.404 17.986 1
4 1 -9 381.913 16.73 2
4 1 -9 372.94 18.07 1
3 -1 -9 -0.0691 1.8394 1
3 1 -9 4.82027 2.54812 1
3 1 -9 0.68973 1.60661 2
2 -1 -9 59.0455 6.3785 1
2 1 -9 48.3896 5.6886 2
2 1 -9 57.6765 6.0065 1
1 -1 -9 35.0397 4.8214 1
1 -1 -9 43.8588 5.3996 2
1 1 -9 44.0496 5.4124 2
1 1 -9 36.4059 4.5852 1
0 -1 -9 126.624 8.024 1
0 -1 -9 135.981 8.761 2
0 1 -9 126.238 7.613 1
0 1 -9 145.374 9.021 2
-1 -1 -9 220.659 12.288 2
-1 -1 -9 222.519 11.295 1
-1 1 -9 216.604 12.338 2
-1 1 -9 228.237 10.69 1
-2 -1 -9 509.008 22.414 2
-2 -1 -9 485.551 20.809 1
-2 1 -9 507.427 19.97 1
-2 1 -9 503.78 22.573 2
-3 -1 -9 4.80766 2.09677 1
-3 -1 -9 6.09018 2.49013 2
-3 1 -9 13.6576 3.6304 2
-3 1 -9 4.76326 1.55363 1
-4 -1 -9 6.70875 2.983 2
-4 -1 -9 9.25515 2.29457 1
-4 1 -9 13.1369 3.6019 2
-5 -1 -9 19.8547 4.3147 2
-5 1 -9 24.4909 4.7858 2
-6 -1 -9 7.84726 3.10369 2
-6 1 -9 8.85915 3.63393 2
-7 -1 -9 -1.0316 2.0816 2
-7 1 -9 -2.9203 2.0696 2
-8 -1 -9 107.711 10.402 2
-8 1 -9 93.3102 9.8555 2
-9 -1 -9 -2.3272 2.463 2
-9 1 -9 1.09446 2.99261 2
-10 -1 -9 190.452 13.38 2
-10 1 -9 241.839 14.622 2
-11 -1 -9 5.95618 3.57303 2
-11 1 -9 2.47903 3.31444 2
-12 -1 -9 34.8754 6.7234 2
-12 -1 -9 43.0419 7.2037 3
-12 1 -9 31.7021 6.6261 2
-12 1 -9 35.2301 6.4418 3
-13 -1 -9 23.807 5.6502 3
-13 1 -9 11.7432 4.9554 2
-13 1 -9 13.77 4.8818 3
-14 -1 -9 15.0418 5.3173 3
-14 1 -9 18.3346 5.5575 3
-15 -1 -9 -0.8888 3.6297 3
-15 1 -9 -3.7652 3.5857 3
-16 -1 -9 2.71967 4.5334 3
-16 1 -9 4.58919 4.95107 3
-20 -2 9 25.7482 6.86 3
20 -2 -9 19.7696 8.0376 1
20 2 -9 22.4761 8.4497 1
-20 2 9 29.3561 7.4406 3
19 -2 -9 5.04795 5.68976 1
-19 -2 9 7.78074 4.5963 3
-19 2 9 6.21532 4.41061 3
19 2 -9 2.08957 6.23742 1
18 -2 -9 0.16066 4.67658 1
-18 -2 9 1.73169 2.99213 3
-18 2 9 3.68666 4.02632 3
18 2 -9 -1.284 4.7575 1
-17 -2 9 52.9271 8.3017 3
17 -2 -9 40.9241 8.9546 1
17 2 -9 43.6741 9.6211 1
-17 2 9 62.0594 8.8778 3
-16 -2 9 112.979 11.66 3
16 -2 -9 94.5508 12.6696 1
-16 2 9 102.394 11.179 3
16 2 -9 107.955 14.062 1
-15 -2 9 4.23966 2.97468 3
15 -2 -9 1.33977 4.09878 1
-15 2 9 2.65522 3.2366 3
15 2 -9 0.23227 4.15555 1
-14 -2 9 46.0066 6.9689 3
14 -2 -9 45.2061 8.5635 1
-14 2 9 62.5443 8.0535 3
14 2 -9 22.4078 6.4943 1
-13 -2 9 20.9811 4.7714 3
13 -2 -9 15.6395 5.2114 1
-13 2 9 8.57795 3.62489 3
13 2 -9 8.58961 4.5413 1
12 -2 -9 0.24061 3.09447 1
-12 -2 9 3.83207 2.59888 3
12 2 -9 2.99835 3.41624 1
-12 2 9 3.03738 2.64819 3
-11 -2 9 87.2637 8.9131 3
11 -2 -9 92.9939 10.889 1
-11 2 9 102.811 9.481 3
11 2 -9 90.479 11.2559 1
-10 -2 9 36.7961 5.4424 3
10 -2 -9 19.0769 5.6357 1
10 2 -9 41.0348 7.5752 1
9 -2 -9 39.0941 6.7221 1
9 2 -9 23.41 5.5035 1
8 -2 -9 57.7022 8.0709 1
8 2 -9 55.8709 7.8553 1
8 2 -9 60.9874 5.4875 2
7 -2 -9 1.09647 2.30212 1
7 2 -9 3.29036 1.88021 2
7 2 -9 2.56021 2.66614 1
6 -2 -9 492.268 24.081 1
6 2 -9 501.39 24.206 1
6 2 -9 528.133 21.21 2
5 -2 -9 5.53448 2.68363 1
5 2 -9 -0.2913 1.2577 2
5 2 -9 3.03482 2.37053 1
4 -2 -9 320.746 17.208 1
4 2 -9 357.615 16.041 2
4 2 -9 355.169 17.531 1
3 -2 -9 250.916 13.907 1
3 2 -9 256.454 13.638 1
3 2 -9 254.523 12.966 2
2 -2 -9 35.5221 5.106 1
2 2 -9 37.9255 5.0318 1
2 2 -9 33.8733 4.7816 2
1 -2 -9 51.4814 6.0968 1
1 2 -9 63.3598 6.7746 2
1 2 -9 52.8088 5.6828 1
0 -2 -9 53.2446 5.9268 1
0 2 -9 37.6287 5.3877 2
0 2 -9 55.4791 5.3725 1
-1 -2 -9 1.73635 1.62509 1
-1 2 -9 -2.1282 1.4102 1
-1 2 -9 -0.2089 1.9008 2
-2 -2 -9 31.6325 4.0529 1
-2 -2 -9 33.8887 5.2876 2
-2 2 -9 31.1535 3.442 1
-2 2 -9 33.4371 5.4984 2
-3 -2 -9 81.4122 5.4943 1
-3 -2 -9 75.5168 7.8477 2
-3 2 -9 67.571 7.6596 2
-4 -2 -9 162.778 10.712 2
-4 -2 -9 170.487 8.654 1
-4 2 -9 163.602 11.036 2
-5 -2 -9 12.5281 3.7118 2
-5 -2 -9 15.4232 2.7035 1
-5 2 -9 8.02322 3.30432 2
-6 -2 -9 36.0866 5.7774 2
-6 2 -9 47.2619 6.8136 2
-7 -2 -9 4.65482 2.8345 2
-7 2 -9 -0.7405 2.5404 2
-8 -2 -9 42.5272 6.5703 2
-8 2 -9 36.1538 6.143 2
-9 -2 -9 19.638 4.731 2
-9 2 -9 9.85209 4.04287 2
-10 -2 -9 1.91249 2.90779 2
-10 2 -9 3.1244 3.17799 2
-11 -2 -9 20.8356 5.1468 2
-11 2 -9 21.6547 5.4973 2
-12 -2 -9 5.19283 3.45476 3
-12 2 -9 0.15251 3.02181 2
-12 2 -9 11.5166 4.1503 3
-13 -2 -9 7.51804 3.73007 3
-13 2 -9 9.39289 4.52864 3
-13 2 -9 1.17294 3.49734 2
-14 -2 -9 65.4348 9.5844 3
-14 2 -9 49.0655 8.3519 3
-15 -2 -9 0.96228 3.76727 3
-15 2 -9 7.3454 4.70844 3
-16 -2 -9 7.92532 5.05606 3
-16 2 -9 3.72273 4.64276 3
20 -3 -9 26.4451 8.9183 1
-20 -3 9 17.626 6.2126 3
-20 3 9 1.38026 4.00725 3
20 3 -9 17.9858 8.5696 1
19 -3 -9 2.60642 5.4392 1
-19 -3 9 -4.4256 3.0558 3
-19 3 9 -2.3191 3.2767 3
19 3 -9 -3.2954 5.2703 1
-18 -3 9 47.2074 8.296 3
18 -3 -9 56.7608 10.5314 1
18 3 -9 60.3195 11.4343 1
-18 3 9 44.5266 8.1306 3
17 -3 -9 9.13758 5.52925 1
-17 -3 9 9.68946 4.33131 3
17 3 -9 16.6251 6.6876 1
-17 3 9 21.6232 5.625 3
-16 -3 9 45.0364 7.4122 3
-16 3 9 54.1835 8.1075 3
16 3 -9 42.9886 9.0807 1
-15 -3 9 1.36783 3.00687 3
15 -3 -9 9.20285 5.16122 1
15 3 -9 10.1597 5.6458 1
-15 3 9 3.71553 3.56157 3
-14 -3 9 2.48024 2.99384 3
14 -3 -9 0.12471 3.51927 1
14 3 -9 10.8766 5.1663 1
-14 3 9 3.63582 3.0683 3
13 -3 -9 18.3211 6.0592 1
-13 -3 9 14.6351 4.3119 3
-13 3 9 12.9551 4.1051 3
13 3 -9 20.2875 6.7002 1
12 -3 -9 6.78945 4.20698 1
-12 -3 9 3.38908 2.83915 3
-12 3 9 5.61966 3.02418 3
12 3 -9 1.60417 3.70721 1
-11 -3 9 -1.8581 1.8264 3
11 -3 -9 -4.4491 2.7916 1
11 3 -9 -2.0628 3.053 1
-10 -3 9 78.2891 8.1606 3
10 -3 -9 82.1268 10.273 1
10 3 -9 77.0973 10.2509 1
9 -3 -9 178.281 13.204 1
9 3 -9 172.94 13.008 1
8 -3 -9 141.808 11.496 1
8 3 -9 167.824 12.287 1
7 -3 -9 98.9665 10.2149 1
7 3 -9 68.2973 8.9385 1
7 3 -9 85.3443 5.9837 2
6 -3 -9 1.25327 2.1737 1
6 3 -9 -1.7475 2.0397 1
6 3 -9 -0.7311 1.5937 2
5 -3 -9 37 6.0523 1
5 3 -9 29.3632 4.1702 2
5 3 -9 22.9343 4.7048 1
4 -3 -9 5.55448 2.80828 1
4 3 -9 6.09252 2.28434 2
4 3 -9 6.28588 2.89839 1
3 -3 -9 106.858 8.692 1
3 3 -9 122.322 8.054 2
3 3 -9 119.511 8.716 1
2 -3 -9 54.5399 6.7139 1
2 3 -9 50.5908 5.9571 2
2 3 -9 40.34 5.6024 1
1 -3 -9 403.335 19.723 1
1 3 -9 442.461 19.824 2
1 3 -9 441.017 19.67 1
0 -3 -9 60.2147 5.9964 1
0 3 -9 40.4937 5.7109 2
0 3 -9 50.6765 5.5743 1
-1 -3 -9 455.802 19.874 1
-1 3 -9 477.454 19.778 1
-1 3 -9 431.526 20.916 2
-2 -3 -9 106.118 6.954 1
-2 3 -9 96.3358 6.2396 1
-2 3 -9 95.1223 9.1802 2
-3 -3 -9 33.5175 4.2986 1
-3 3 -9 32.2689 5.6876 2
-4 -3 -9 96.6288 9.4912 2
-4 -3 -9 101.166 6.663 1
-4 3 -9 81.1804 8.9648 2
-5 -3 -9 240.448 13.99 2
-5 -3 -9 253.971 11.984 1
-5 3 -9 209.553 13.847 2
-6 -3 -9 -0.8909 1.8756 2
-6 -3 -9 -1.2823 1.8367 1
-6 3 -9 2.16106 2.89966 2
-7 -3 -9 229.552 13.76 2
-7 3 -9 219.836 14.138 2
-8 -3 -9 188.692 12.828 2
-8 3 -9 221.637 14.069 2
-9 -3 -9 53.4014 7.3231 2
-9 3 -9 42.2759 7.027 2
-10 -3 -9 83.5814 9.4663 2
-10 3 -9 91.8907 10.3336 2
-11 3 -9 29.4513 6.2097 2
-11 3 -9 25.9613 5.6047 3
-12 -3 -9 2.31573 2.93671 3
-12 3 -9 3.97554 3.78986 2
-12 3 -9 2.22492 3.25421 3
-13 -3 -9 25.5108 6.0797 3
-13 3 -9 26.93 6.5189 2
-13 3 -9 22.7081 5.8207 3
-14 -3 -9 10.2987 4.5601 3
-14 3 -9 14.5027 5.063 3
-14 3 -9 14.6989 5.192 2
-15 -3 -9 0.55482 3.96523 3
-15 3 -9 3.28822 3.48498 3
-16 -3 -9 -0.0439 4.1266 3
-16 3 -9 0.91592 3.98604 3
-20 -4 9 2.89939 4.20436 3
20 4 -9 -3.2538 6.5132 1
-20 4 9 4.91094 4.5608 3
19 -4 -9 2.09111 5.53416 1
-19 -4 9 7.47043 4.50585 3
-19 4 9 2.14388 4.42492 3
19 4 -9 3.18311 6.73838 1
18 -4 -9 1.63024 5.85436 1
-18 -4 9 2.10301 3.67559 3
-18 4 9 -4.4429 2.7854 3
18 4 -9 1.4253 5.43205 1
-17 -4 9 34.4885 6.7702 3
17 -4 -9 42.8724 9.5642 1
-17 4 9 37.2194 6.9403 3
17 4 -9 36.3428 9.2681 1
-16 -4 9 1.93978 2.86581 3
16 -4 -9 3.21442 4.5588 1
16 4 -9 -2.4048 4.1014 1
-16 4 9 -4.4861 2.6091 3
-15 -4 9 15.1771 4.5979 3
15 -4 -9 8.46634 5.18051 1
15 4 -9 7.49939 5.49902 1
-15 4 9 11.1742 4.1976 3
14 -4 -9 102.432 12.824 1
-14 -4 9 103.291 10.498 3
-14 4 9 113.554 10.853 3
14 4 -9 120.34 14.618 1
13 -4 -9 -0.1352 3.4061 1
-13 -4 9 0.45585 2.50076 3
13 4 -9 0.26883 3.86881 1
-13 4 9 -2.0168 2.3767 3
-12 -4 9 6.28503 3.15045 3
12 -4 -9 6.23418 3.96792 1
12 4 -9 5.65521 4.14655 1
-11 -4 9 85.1573 8.5941 3
11 -4 -9 82.2008 10.8041 1
11 4 -9 76.7503 11.1456 1
10 -4 -9 41.4628 7.4373 1
10 4 -9 80.9027 10.7176 1
9 -4 -9 138.804 13.51 1
9 4 -9 157.526 15.056 1
8 -4 -9 1.18339 3.07346 1
8 4 -9 -1.0484 2.4962 1
7 -4 -9 -0.3929 2.5949 1
7 4 -9 -3.4784 1.4599 2
7 4 -9 -0.5754 2.383 1
6 -4 -9 174.887 12.52 1
6 4 -9 179.225 12.81 1
6 4 -9 188.187 10.006 2
5 -4 -9 24.1624 5.2483 1
5 4 -9 28.2665 5.746 1
5 4 -9 31.4613 4.522 2
4 -4 -9 -0.0993 2.1164 1
4 4 -9 1.99694 2.06194 2
4 4 -9 1.10038 2.45072 1
3 -4 -9 57.6895 7.3697 1
3 4 -9 55.9305 7.1951 1
3 4 -9 63.2805 6.6847 2
2 -4 -9 23.008 4.1798 1
2 4 -9 12.7348 3.6354 2
2 4 -9 13.0799 3.7379 1
1 -4 -9 3.1568 1.95472 1
1 4 -9 4.73292 2.68797 1
1 4 -9 4.22546 2.46295 2
0 -4 -9 45.7786 5.4921 1
0 4 -9 34.8201 4.9803 1
0 4 -9 33.9192 5.3418 2
-1 -4 -9 148.537 9.053 1
-1 4 -9 146.163 8.941 1
-1 4 -9 125.782 9.605 2
-2 -4 -9 29.12 4.4863 1
-2 4 -9 34.344 5.8684 2
-3 -4 -9 44.1185 5.2862 1
-3 4 -9 35.2011 5.9365 2
-4 -4 -9 128.052 8.369 1
-4 4 -9 135.167 10.121 2
-5 -4 -9 68.6396 6.805 1
-5 4 -9 63.9323 8.2224 2
-6 -4 -9 39.7831 5.1594 1
-6 -4 -9 43.589 6.6321 2
-6 4 -9 31.2146 5.9126 2
-7 -4 -9 0.12218 2.49778 2
-7 4 -9 1.94016 3.03958 2
-8 -4 -9 81.8115 9.237 2
-8 4 -9 91.1434 10.5545 2
-9 -4 -9 66.0782 8.3338 2
-9 4 -9 67.4207 9.0219 2
-10 -4 -9 5.0449 3.36086 2
-10 4 -9 1.32266 3.34896 2
-11 4 -9 18.1359 5.7081 2
-11 4 -9 17.4507 4.8937 3
-12 -4 -9 10.7429 4.2122 3
-12 4 -9 11.7646 4.9596 2
-12 4 -9 12.1724 4.748 3
-13 -4 -9 3.46133 3.03906 3
-13 4 -9 -0.641 3.1793 2
-13 4 -9 4.44638 3.86393 3
-14 -4 -9 6.82184 4.29233 3
-14 4 -9 8.51578 4.6591 3
-14 4 -9 13.2282 5.3042 2
-15 -4 -9 3.55196 4.58683 3
-15 4 -9 0.20795 3.84885 3
-19 -5 9 4.0734 4.05512 3
19 -5 -9 6.78104 6.6928 1
-19 5 9 18.6407 6.2372 3
19 5 -9 3.65567 7.85786 1
18 -5 -9 3.59304 5.80539 1
-18 -5 9 4.63184 4.07588 3
-18 5 9 6.00607 4.41516 3
18 5 -9 13.8954 7.3143 1
17 -5 -9 -2.8652 4.924 1
-17 -5 9 1.99631 3.33705 3
-17 5 9 0.83023 3.6839 3
17 5 -9 2.00567 5.99362 1
16 -5 -9 7.69289 5.76374 1
-16 -5 9 9.29507 4.26412 3
-16 5 9 5.5317 3.70981 3
16 5 -9 17.0767 6.8734 1
15 -5 -9 6.21475 5.46868 1
-15 -5 9 12.4963 3.9954 3
-15 5 9 7.3067 4.00769 3
15 5 -9 16.185 6.7074 1
-14 -5 9 6.16906 3.21947 3
14 -5 -9 5.94004 4.988 1
14 5 -9 2.67442 4.67925 1
13 -5 -9 -3.3294 3.5451 1
-13 -5 9 4.38613 3.03227 3
13 5 -9 5.15682 4.96924 1
12 -5 -9 5.22811 4.53746 1
-12 -5 9 1.34574 2.5568 3
12 5 -9 5.62258 4.86491 1
-11 -5 9 -0.2224 2.1125 3
11 -5 -9 2.10233 4.06624 1
11 5 -9 -0.6218 3.8661 1
10 -5 -9 609.716 31.276 1
10 5 -9 653.123 32.936 1
9 -5 -9 45.3122 8.0419 1
9 5 -9 30.646 6.9305 1
8 -5 -9 272.963 17.08 1
8 5 -9 232.86 16.54 1
7 -5 -9 34.7527 6.613 1
7 5 -9 43.2891 7.7726 1
6 -5 -9 37.7667 6.938 1
6 5 -9 32.319 6.4596 1
6 5 -9 33.4796 4.7135 2
5 -5 -9 -0.3073 2.1571 1
5 5 -9 0.57381 1.9499 2
5 5 -9 -2.7465 2.8049 1
4 -5 -9 12.3865 4.1668 1
4 5 -9 16.1196 4.7092 1
4 5 -9 13.0144 3.4918 2
3 -5 -9 2.08485 2.10597 1
3 5 -9 -1.2271 1.9072 2
3 5 -9 -0.3556 2.5769 1
2 -5 -9 5.06959 2.61364 1
2 5 -9 7.03996 2.9418 2
2 5 -9 6.83114 3.36121 1
1 -5 -9 -2.5686 1.5923 1
1 5 -9 2.45602 2.68287 1
1 5 -9 1.75346 2.33054 2
0 -5 -9 -0.5592 1.6356 1
0 5 -9 3.13207 2.40603 1
0 5 -9 1.17307 2.40504 2
-1 -5 -9 86.3889 8.2738 1
-1 5 -9 80.2095 8.7871 2
-1 5 -9 98.7843 8.7228 1
-2 -5 -9 81.8087 8.1921 1
-2 5 -9 108.444 10.443 2
-3 -5 -9 117.322 8.444 1
-3 5 -9 132.124 11.811 2
-4 -5 -9 77.3429 7.7926 1
-4 5 -9 63.1087 8.2704 2
-5 -5 -9 30.3306 4.9346 1
-5 5 -9 29.6522 5.9912 2
-7 -5 -9 30.184 5.8116 2
-7 5 -9 25.5857 5.7579 2
-8 -5 -9 136.628 12.397 2
-8 5 -9 119.557 12.113 2
-9 -5 -9 24.26 5.4408 2
-9 5 -9 28.5427 6.5226 2
-10 5 -9 -2.2326 2.9262 2
-10 5 -9 1.29484 2.75514 3
-11 -5 -9 2.54655 3.14535 3
-11 5 -9 1.73899 3.82724 2
-11 5 -9 -1.582 2.6647 3
-12 -5 -9 6.30569 3.74684 3
-12 5 -9 -0.5091 3.4612 3
-12 5 -9 0.21841 3.57307 2
-13 -5 -9 5.84068 3.92274 3
-13 5 -9 3.44979 4.14392 2
-13 5 -9 1.63548 3.33964 3
-14 -5 -9 1.16982 4.25645 3
-14 5 -9 -1.5227 3.5159 3
-14 5 -9 1.91714 4.08504 2
-15 -5 -9 -1.6597 3.8985 3
-15 5 -9 7.4113 5.10222 2
-15 5 -9 3.17911 4.25853 3
-18 -6 9 48.9936 8.3903 3
18 -6 -9 43.2813 10.0919 1
-18 6 9 34.2003 7.6321 3
18 6 -9 58.3174 13.1795 1
-17 -6 9 -5.1088 2.7315 3
17 -6 -9 -4.7944 5.2351 1
17 6 -9 3.52645 5.76312 1
-17 6 9 1.96914 3.71813 3
-16 -6 9 -2.588 2.6738 3
16 -6 -9 2.14135 4.93793 1
16 6 -9 1.69713 6.05807 1
15 -6 -9 22.9267 7.4852 1
-15 -6 9 20.7941 5.1892 3
15 6 -9 15.1561 7.2 1
-14 -6 9 7.6247 3.85602 3
14 -6 -9 8.92087 5.83163 1
14 6 -9 11.0705 6.2434 1
-13 -6 9 19.877 4.7654 3
13 -6 -9 26.2749 7.1564 1
13 6 -9 18.1748 6.9886 1
12 -6 -9 41.8655 8.7979 1
-12 -6 9 40.2746 6.3559 3
12 6 -9 18.3866 6.7441 1
11 -6 -9 57.2986 9.5399 1
11 6 -9 40.6976 8.9831 1
10 -6 -9 108.037 12.663 1
10 6 -9 94.9432 12.7283 1
9 -6 -9 4.98473 4.20677 1
9 6 -9 21.1009 6.852 1
8 -6 -9 4.86626 3.67909 1
8 6 -9 -3.1918 3.3858 1
7 -6 -9 15.0463 4.9613 1
7 6 -9 25.9318 6.5598 1
6 -6 -9 8.10733 3.84741 1
6 6 -9 2.089 3.12529 1
6 6 -9 10.4854 3.0854 2
5 -6 -9 36.7665 6.7283 1
5 6 -9 42.144 7.4103 1
4 -6 -9 160.133 10.763 1
4 6 -9 150.799 11.755 1
4 6 -9 108.05 8.498 2
3 -6 -9 54.7932 7.0155 1
3 6 -9 47.5475 6.2901 2
3 6 -9 63.9676 8.4616 1
2 -6 -9 69.794 7.8661 1
2 6 -9 68.7509 7.663 2
2 6 -9 69.3445 8.8827 1
1 -6 -9 1.04989 2.1569 1
1 6 -9 0.91164 2.45335 2
1 6 -9 1.42692 2.89356 1
0 -6 -9 113.449 8.747 1
0 6 -9 98.1157 9.7161 2
0 6 -9 93.6425 9.7593 1
-1 -6 -9 11.6495 3.5786 1
-1 6 -9 10.44 3.8265 2
-1 6 -9 16.8091 4.5835 1
-2 -6 -9 118.407 9.049 1
-2 6 -9 110.68 10.877 2
-3 -6 -9 104.333 9.732 1
-3 6 -9 94.7327 10.0051 2
-4 -6 -9 11.9964 3.6574 1
-4 6 -9 17.619 4.7698 2
-5 -6 -9 181.04 11.321 1
5 6 9 165.502 15.294 1
-5 6 -9 152.862 11.971 2
6 6 9 59.9226 9.144 1
-6 6 -9 58.4016 8.2995 2
7 6 9 10.6241 4.9761 1
-7 6 -9 13.9345 4.7275 2
-8 -6 -9 -3.0848 2.4984 2
-8 6 -9 -1.9474 2.5797 2
-9 6 -9 30.525 6.4842 2
-10 6 -9 23.0758 6.1372 2
-11 -6 -9 1.05365 3.34327 3
-11 6 -9 4.27775 4.02197 2
-12 -6 -9 82.2613 10.0253 3
-12 6 -9 69.6535 10.2963 2
-13 -6 -9 -1.6888 3.6156 3
-13 6 -9 -1.6647 4.2474 2
-14 -6 -9 2.12714 4.31408 3
-14 6 -9 2.66453 4.37897 2
17 -7 -9 28.3134 8.4837 1
17 7 -9 21.8799 9.1797 1
16 -7 -9 -6.3905 4.7184 1
16 7 -9 11.9793 6.918 1
15 -7 -9 30.9747 8.5917 1
15 7 -9 21.6122 8.6725 1
14 -7 -9 9.23127 5.57663 1
14 7 -9 16.8679 6.9243 1
13 -7 -9 19.3942 6.851 1
13 7 -9 35.463 8.7844 1
12 -7 -9 13.9646 5.6168 1
12 7 -9 7.80254 5.24229 1
11 -7 -9 -1.5407 3.4701 1
11 7 -9 -2.2239 3.7793 1
10 -7 -9 79.4111 11.2937 1
10 7 -9 55.6693 10.3091 1
9 -7 -9 56.6425 9.5586 1
9 7 -9 30.6689 7.6896 1
8 -7 -9 252.443 18.116 1
8 7 -9 271.702 18.851 1
7 -7 -9 12.3784 4.9413 1
7 7 -9 4.42223 4.28784 1
6 -7 -9 20.0114 5.6699 1
6 7 -9 22.9519 6.2584 1
5 -7 -9 -0.5338 2.6994 1
5 7 -9 -1.0506 1.947 2
5 7 -9 1.52525 3.29586 1
4 -7 -9 33.153 6.2422 1
4 7 -9 37.6146 7.4455 1
4 7 -9 47.5569 6.2802 2
3 -7 -9 10.1575 4.0741 1
3 7 -9 6.64923 4.61387 1
3 7 -9 7.85336 3.32707 2
2 -7 -9 148.813 11.041 1
2 7 -9 173.082 12.92 1
2 7 -9 153.928 10.896 2
1 -7 -9 65.7751 8.0974 1
1 7 -9 77.1193 8.5219 2
1 7 -9 51.0456 8.1193 1
0 -7 -9 134.898 10.289 1
0 7 -9 128.582 11.639 2
0 7 -9 124.219 12.145 1
-1 -7 -9 10.5527 3.6785 1
-1 7 -9 19.1987 5.1209 2
-2 -7 -9 246.129 14.568 1
-2 7 -9 230.455 14.887 2
-3 -7 -9 5.84262 3.24717 1
-3 7 -9 6.27347 3.5209 2
-4 -7 -9 4.51677 3.14792 1
-4 7 -9 3.94654 3.50136 2
-5 7 -9 20.5441 5.4343 2
5 7 9 12.4065 5.6297 1
-6 7 -9 55.9697 8.5443 2
6 7 9 79.1039 11.0598 1
-7 7 -9 -1.9163 3.0164 2
7 7 9 5.00814 4.71271 1
-8 7 -9 30.4795 6.6404 2
-9 7 -9 20.698 5.8265 2
-10 -7 -9 -2.4675 2.7955 3
-10 7 -9 3.8139 3.80119 2
-11 -7 -9 0.78396 3.53278 3
-11 7 -9 2.58097 3.55746 2
-12 -7 -9 13.82 5.0164 3
-12 7 -9 13.9465 5.7477 2
-13 -7 -9 2.64063 4.24895 3
-13 7 -9 13.9937 5.6448 2
16 -8 -9 4.52938 6.59564 1
16 8 -9 -8.5025 5.7566 1
15 -8 -9 -1.0976 5.4722 1
15 8 -9 -0.9881 5.8885 1
14 -8 -9 14.1039 7.1006 1
14 8 -9 8.04914 6.5632 1
13 -8 -9 -0.975 4.7154 1
13 8 -9 1.18121 4.99924 1
12 -8 -9 1.06812 4.84358 1
12 8 -9 4.41023 5.43603 1
11 -8 -9 0.76363 4.07127 1
11 8 -9 -0.0092 4.507 1
10 -8 -9 22.6568 6.6532 1
10 8 -9 12.9576 6.2188 1
9 -8 -9 -0.1095 3.9189 1
9 8 -9 1.38605 3.7544 1
8 -8 -9 0.9729 3.4591 1
8 8 -9 3.37699 4.0043 1
7 -8 -9 26.406 6.8384 1
7 8 -9 45.9219 9.3021 1
6 -8 -9 48.5372 8.0135 1
6 8 -9 12.4103 6.0945 1
5 -8 -9 13.9552 4.6378 1
5 8 -9 30.3508 7.292 1
5 8 -9 27.3335 5.063 2
4 -8 -9 292.582 17.498 1
4 8 -9 283.59 15.7 2
4 8 -9 315.289 19.857 1
3 -8 -9 39.5716 6.7651 1
3 8 -9 51.6469 8.9893 1
3 8 -9 50.612 6.7708 2
2 -8 -9 625.17 29.393 1
2 8 -9 600.612 27.87 2
2 8 -9 617.052 30.946 1
1 -8 -9 7.25922 3.66179 1
1 8 -9 5.98196 3.74346 2
1 8 -9 9.71151 5.26113 1
0 -8 -9 8.87203 3.75251 1
0 8 -9 11.082 4.7419 1
0 8 -9 16.9035 4.7576 2
-1 -8 -9 15.2814 4.8138 1
-1 8 -9 22.0657 5.4726 2
-2 -8 -9 16.4282 4.8319 1
-2 8 -9 20.7416 5.3449 2
-3 -8 -9 3.32563 3.24389 1
-3 8 -9 3.22261 3.56588 2
-4 -8 -9 8.50563 3.86386 1
-4 8 -9 12.4932 4.9511 2
5 8 9 29.9052 7.9274 1
-5 8 -9 26.2436 6.2513 2
6 8 9 4.55198 4.96353 1
-6 8 -9 6.43252 4.19205 2
-7 8 -9 1.40427 3.5849 2
7 8 9 1.1974 4.76622 1
8 8 9 -5.7171 4.8084 1
-8 8 -9 -1.2188 3.0999 2
-9 8 -9 -2.3228 3.2972 2
-10 8 -9 36.411 7.8485 2
-11 8 -9 17.668 6.1592 2
-12 8 -9 33.9143 7.8077 2
15 -9 -9 9.61579 6.90167 1
15 9 -9 7.59549 7.18213 1
14 -9 -9 2.04582 5.58805 1
14 9 -9 -1.7891 5.5188 1
13 -9 -9 7.85829 6.09202 1
13 9 -9 4.27149 6.21975 1
12 -9 -9 5.36206 5.72614 1
12 9 -9 -2.0279 4.5028 1
11 -9 -9 -0.9813 5.0156 1
11 9 -9 5.83835 5.68297 1
10 -9 -9 8.72626 6.05934 1
10 9 -9 36.4488 9.2146 1
9 -9 -9 45.8159 9.4926 1
9 9 -9 35.1234 8.6952 1
8 -9 -9 84.7848 12.1422 1
8 9 -9 49.06 9.9774 1
7 -9 -9 3.89 4.46227 1
7 9 -9 3.21692 4.80771 1
6 -9 -9 0.63556 3.28541 1
6 9 -9 -4.181 3.3346 1
5 -9 -9 37.2885 7.0879 1
5 9 -9 37.6379 8.5623 1
4 -9 -9 50.1063 7.9272 1
4 9 -9 42.5024 6.6884 2
4 9 -9 47.6078 9.0453 1
3 -9 -9 55.3399 8.4724 1
3 9 -9 70.0506 10.8349 1
3 9 -9 89.0914 9.3676 2
2 -9 -9 25.2137 5.8756 1
2 9 -9 17.7428 4.8946 2
2 9 -9 12.8211 5.4304 1
1 -9 -9 29.4983 6.3671 1
1 9 -9 21.0706 6.5162 1
1 9 -9 40.5087 6.8057 2
0 -9 -9 79.4136 9.9841 1
0 9 -9 75.186 9.2534 2
-1 -9 -9 14.4678 4.7081 1
-1 9 -9 9.07114 4.1831 2
-2 -9 -9 30.8158 6.7859 1
-2 9 -9 40.8649 7.2082 2
-3 -9 -9 5.0733 3.87662 1
-3 9 -9 1.23684 2.88807 2
-4 -9 -9 3.22511 3.53307 1
-4 9 -9 3.07954 3.37218 2
-5 -9 -9 2.35138 3.48687 1
5 9 9 0.80331 5.1223 1
-5 9 -9 0.93964 3.22787 2
-6 9 -9 46.3115 8.3043 2
6 9 9 33.6625 9.0912 1
-7 9 -9 -1.4008 3.2124 2
7 9 9 2.87396 5.48669 1
8 9 9 7.08117 6.30837 1
-8 9 -9 12.5012 4.9719 2
-9 9 -9 20.7688 6.4734 2
-10 9 -9 1.70317 4.49788 2
-11 9 -9 1.69851 4.4576 2
13 -10 -9 2.24148 6.45154 1
13 10 -9 5.63359 6.74973 1
12 -10 -9 -0.5517 5.6213 1
12 10 -9 6.14242 5.99749 1
11 -10 -9 18.3701 7.227 1
11 10 -9 13.4329 7.391 1
10 -10 -9 12.2605 6.145 1
10 10 -9 -0.4771 5.2209 1
9 -10 -9 0.58197 5.23026 1
9 10 -9 21.9734 7.5768 1
8 -10 -9 -1.9825 3.9359 1
8 10 -9 -2.7431 4.3955 1
7 -10 -9 4.731 4.9431 1
7 10 -9 8.52075 5.8075 1
6 -10 -9 32.313 7.3071 1
6 10 -9 27.2524 8.0758 1
5 -10 -9 34.169 7.1243 1
5 10 -9 35.4812 8.5106 1
4 -10 -9 48.778 8.3429 1
4 10 -9 49.394 9.591 1
3 -10 -9 -1.8199 3.0907 1
3 10 -9 9.36927 5.25752 1
3 10 -9 5.57159 4.17335 2
2 -10 -9 -0.4078 3.3919 1
2 10 -9 -0.4393 4.3473 1
2 10 -9 5.82049 3.9023 2
1 -10 -9 12.8174 4.9328 1
1 10 -9 -2.5576 4.4151 1
1 10 -9 5.03891 4.043 2
0 -10 -9 4.98462 3.87917 1
0 10 -9 5.44091 3.95714 2
-1 -10 -9 18.7257 5.4139 1
-1 10 -9 27.0095 6.0705 2
-2 -10 -9 24.8167 6.2763 1
-2 10 -9 16.2268 5.0887 2
-3 -10 -9 31.5461 7.2469 1
-3 10 -9 37.3279 7.4411 2
-4 -10 -9 23.4776 6.3311 1
-4 10 -9 43.857 8.3 2
-5 -10 -9 27.7082 6.5928 1
-5 10 -9 47.4843 9.004 2
-6 -10 -9 10.4327 5.1431 1
-6 10 -9 1.95203 4.03076 2
6 10 9 -2.0549 5.6006 1
-7 10 -9 3.68339 4.53497 2
7 10 9 -1.1296 6.1248 1
-8 10 -9 12.4812 5.6455 2
8 10 9 20.8534 7.9564 1
-9 10 -9 -2.3956 3.6845 2
11 -11 -9 -1.173 5.8912 1
11 11 -9 4.96331 6.31819 1
10 -11 -9 12.1024 7.6424 1
10 11 -9 23.1687 8.4985 1
9 -11 -9 39.9727 9.5426 1
9 11 -9 37.0864 9.8291 1
8 -11 -9 4.36057 5.20311 1
8 11 -9 -3.0193 5.088 1
7 -11 -9 4.58799 5.11873 1
7 11 -9 3.01848 5.30044 1
6 -11 -9 -1.924 3.9923 1
6 11 -9 1.42554 4.94214 1
5 -11 -9 10.5696 5.2003 1
5 11 -9 17.3366 7.3227 1
4 -11 -9 6.19193 4.8007 1
4 11 -9 7.63282 5.39 1
3 -11 -9 -0.56 3.6631 1
3 11 -9 -0.2534 3.4484 2
3 11 -9 -2.3744 4.173 1
2 -11 -9 22.4443 6.1806 1
2 11 -9 37.9373 9.2885 1
2 11 -9 22.5516 6.2438 2
1 -11 -9 41.1315 8.0936 1
1 11 -9 26.8705 6.6526 2
0 -11 -9 8.42565 4.8167 1
0 11 -9 14.8761 5.5466 2
-1 -11 -9 1.81531 3.93301 1
-1 11 -9 12.1646 5.0613 2
-2 -11 -9 1.0654 3.56673 1
-2 11 -9 3.44587 4.30787 2
-3 -11 -9 25.461 6.6992 1
-3 11 -9 31.0701 7.6714 2
-4 -11 -9 6.89224 5.39138 1
-4 11 -9 8.59268 5.06397 2
-5 -11 -9 4.64594 5.01479 1
-5 11 -9 6.58844 5.09868 2
-6 -11 -9 1.99887 4.60588 1
-6 11 -9 1.1669 4.1576 2
6 11 9 -1.6925 6.595 1
-7 -11 -9 0.67139 4.62687 1
-7 11 -9 1.57913 4.43118 2
7 11 9 -10.239 5.476 1
8 -12 -9 1.84221 5.84547 1
8 12 -9 7.91503 7.29455 1
7 -12 -9 2.94115 5.48132 1
7 12 -9 3.80785 6.1079 1
6 -12 -9 1.2784 4.68977 1
6 12 -9 -4.4474 5.3797 1
5 -12 -9 2.94963 4.60813 1
5 12 -9 9.91088 6.6128 1
4 -12 -9 4.53522 4.87201 1
4 12 -9 7.28265 6.05197 1
3 -12 -9 0.86 4.25942 1
3 12 -9 2.72633 5.43403 1
2 -12 -9 2.41211 4.19411 1
2 12 -9 4.15929 4.3042 2
1 -12 -9 15.6925 6.0999 1
1 12 -9 17.2399 5.9728 2
0 -12 -9 22.3462 6.7511 1
0 12 -9 5.88646 4.64764 2
-1 -12 -9 13.862 5.6162 1
-1 12 -9 10.9854 5.6052 2
-2 -12 -9 -4.0908 3.9759 1
-2 12 -9 4.44156 4.22958 2
-3 -12 -9 24.6207 7.0648 1
-3 12 -9 37.3345 8.5333 2
-4 -12 -9 13.6642 6.4337 1
-4 12 -9 47.6564 9.3962 2
-20 0 10 -5.1097 3.0521 3
20 0 -10 5.32926 6.27905 1
19 0 -10 2.10207 5.70834 1
-19 0 10 -1.374 3.4823 3
18 0 -10 48.1835 10.2403 1
-18 0 10 39.9316 7.9696 3
17 0 -10 -6.1086 4.0255 1
-17 0 10 3.97108 3.44813 3
16 0 -10 15.2481 6.2478 1
-16 0 10 16.3452 4.9078 3
-15 0 10 0.43857 2.59567 3
15 0 -10 1.90948 3.76229 1
-14 0 10 86.4877 9.5471 3
14 0 -10 83.8768 11.5608 1
13 0 -10 2.36133 3.69272 1
-13 0 10 4.98748 2.8152 3
-12 0 10 131.089 10.015 3
12 0 -10 126.667 13.588 1
11 0 -10 1.08472 3.0784 1
10 0 -10 14.8152 5.0736 1
9 0 -10 2.61153 2.96089 1
8 0 -10 295.54 17.459 1
7 0 -10 3.12963 2.55574 1
6 0 -10 985.789 38.005 2
6 0 -10 1000.46 41.71 1
5 0 -10 -1.9574 1.9528 1
5 0 -10 0.87351 1.9568 2
4 0 -10 99.5595 7.3014 2
4 0 -10 108.366 8.306 1
3 0 -10 1.05618 1.92008 1
3 0 -10 -1.6055 1.6086 2
2 0 -10 448.148 20.137 1
2 0 -10 425.795 19.717 2
1 0 -10 1.73781 1.90997 1
1 0 -10 0.53714 1.71675 2
0 0 -10 117.501 8.477 2
0 0 -10 112.14 7.513 1
-1 0 -10 1.64197 1.99757 2
-1 0 -10 -0.3502 1.6345 1
-2 0 -10 123.188 7.318 1
-2 0 -10 129.938 9.303 2
-3 0 -10 1.56211 2.07167 2
-4 0 -10 111.95 10.163 2
-5 0 -10 -1.3039 1.9049 2
-6 0 -10 460.606 22.689 2
-7 0 -10 -0.8742 2.1736 2
-8 0 -10 178.532 12.631 2
-9 0 -10 -0.1839 2.6712 2
-10 0 -10 9.58164 3.96877 2
-11 0 -10 1.22017 3.46578 2
-12 0 -10 278.159 17.406 2
-13 0 -10 -1.54 3.1578 3
-14 0 -10 -1.3477 3.3504 3
-15 0 -10 -3.39 3.7917 3
-16 0 -10 -5.2884 4.1413 3
-20 -1 10 -0.1108 3.8416 3
20 -1 -10 12.4644 6.8566 1
-20 1 10 -0.9663 4.1351 3
20 1 -10 4.32163 5.86593 1
-19 -1 10 3.26077 3.61993 3
19 -1 -10 4.43978 5.89624 1
-19 1 10 5.45502 4.381 3
19 1 -10 -7.752 4.5815 1
-18 -1 10 32.4004 6.9437 3
18 -1 -10 21.208 7.1885 1
-18 1 10 17.672 5.5988 3
18 1 -10 27.2029 8.2745 1
17 -1 -10 2.28242 4.29838 1
-17 -1 10 -2.3203 2.6873 3
17 1 -10 5.55467 5.04904 1
-17 1 10 1.29814 3.19266 3
-16 -1 10 -1.846 2.5225 3
16 -1 -10 -1.7388 3.8472 1
16 1 -10 5.07661 4.41023 1
-16 1 10 0.45191 3.3442 3
-15 -1 10 15.205 4.4929 3
15 -1 -10 35.036 8.0704 1
15 1 -10 6.49437 5.29875 1
-15 1 10 18.204 5.1237 3
14 -1 -10 -0.1282 3.7146 1
-14 -1 10 0.6289 2.66405 3
-14 1 10 0.48259 2.81989 3
14 1 -10 1.77858 3.80262 1
-13 -1 10 2.80972 2.78431 3
13 -1 -10 6.18736 3.94913 1
13 1 -10 2.64917 4.02818 1
-13 1 10 0.80454 2.67112 3
12 -1 -10 537.286 28.625 1
-12 -1 10 541.257 25.168 3
12 1 -10 535.918 28.662 1
-12 1 10 565.84 25.45 3
11 -1 -10 101.162 11.981 1
11 1 -10 140.082 13.78 1
10 -1 -10 456.647 24.044 1
10 1 -10 431.108 23.812 1
9 -1 -10 274.349 16.8 1
9 1 -10 262.081 12.622 2
8 -1 -10 143.148 11.401 1
8 1 -10 174.629 9.395 2
8 1 -10 181.568 12.65 1
7 -1 -10 150.937 11.187 1
7 1 -10 163.685 9.104 2
7 1 -10 141.723 11.085 1
6 -1 -10 2.78534 2.50083 1
6 1 -10 -2.5549 1.9642 1
6 1 -10 0.58046 1.4948 2
5 -1 -10 119.524 9.439 1
5 1 -10 145.353 9.953 1
5 1 -10 120.707 8.085 2
4 -1 -10 88.4082 8.6003 1
4 1 -10 72.04 7.8581 1
4 1 -10 80.3044 7.475 2
3 -1 -10 746.674 31.328 1
3 1 -10 707.54 30.779 1
3 1 -10 744.366 29.9 2
2 -1 -10 59.6567 6.707 1
2 1 -10 63.5374 6.9761 2
2 1 -10 70.9069 7.0047 1
1 -1 -10 32.6743 5.0848 2
1 -1 -10 34.8795 4.9278 1
1 1 -10 46.1767 5.2662 1
1 1 -10 35.8841 5.2214 2
0 -1 -10 14.5423 3.6027 2
0 -1 -10 25.3147 4.0614 1
0 1 -10 30.3436 4.0859 1
0 1 -10 21.6283 4.0889 2
-1 -1 -10 6.67325 2.8601 2
-1 -1 -10 3.60143 2.21838 1
-1 1 -10 3.5468 2.20582 1
-1 1 -10 5.78069 2.69052 2
-2 -1 -10 126.43 7.893 1
-2 -1 -10 124.878 9.147 2
-2 1 -10 132.342 7.306 1
-2 1 -10 133.575 9.476 2
-3 -1 -10 28.1916 5.1678 2
-3 -1 -10 38.6538 4.4559 1
-3 1 -10 48.4797 6.4563 2
-4 -1 -10 78.3329 8.6169 2
-4 1 -10 78.4535 8.8309 2
-5 -1 -10 23.2358 4.8791 2
-5 1 -10 18.2813 4.2406 2
-6 -1 -10 63.8955 8.0478 2
-6 1 -10 54.562 7.6591 2
-7 -1 -10 1.97 2.97424 2
-7 1 -10 1.01757 2.88906 2
-8 -1 -10 161.44 11.725 2
-8 1 -10 150.395 11.523 2
-9 -1 -10 13.9402 4.4173 2
-9 1 -10 12.9034 4.52 2
-10 -1 -10 6.69559 3.98118 2
-10 1 -10 2.64112 3.54992 2
-11 -1 -10 7.09705 3.92219 2
-11 1 -10 16.728 5.1926 2
-12 -1 -10 8.18537 4.03255 2
-12 1 -10 9.71744 4.83124 2
-13 -1 -10 -4.2972 2.7103 3
-13 1 -10 0.5969 4.11043 2
-13 1 -10 -0.3691 3.404 3
-14 -1 -10 13.6793 5.479 3
-14 1 -10 6.81807 4.13246 3
-15 -1 -10 6.07768 4.50801 3
-15 1 -10 6.99081 5.00468 3
-16 -1 -10 3.6548 4.37062 3
-16 1 -10 0.85308 4.7999 3
-20 -2 10 -1.7877 3.8272 3
20 -2 -10 -0.5544 5.7512 1
-20 2 10 -0.7966 3.9001 3
20 2 -10 4.85777 6.90673 1
-19 -2 10 3.77141 4.05951 3
19 -2 -10 -3.4087 5.3729 1
19 2 -10 1.13718 5.67709 1
-19 2 10 0.55575 3.88021 3
-18 -2 10 22.7387 6.155 3
18 -2 -10 25.0541 8.0695 1
18 2 -10 47.0453 10.6755 1
-18 2 10 46.5387 8.0933 3
17 -2 -10 2.56687 4.55134 1
-17 -2 10 -1.032 2.9372 3
-17 2 10 -0.1532 2.942 3
17 2 -10 -4.2201 4.4007 1
16 -2 -10 5.25863 5.11035 1
-16 -2 10 -0.0694 3.261 3
16 2 -10 3.55045 4.71383 1
-16 2 10 -2.3392 2.9084 3
15 -2 -10 -2.2058 3.8917 1
-15 -2 10 -1.6677 2.2281 3
-15 2 10 -0.3765 2.6241 3
15 2 -10 2.4452 4.31086 1
-14 -2 10 75.2424 9.0352 3
14 -2 -10 60.5357 10.2413 1
14 2 -10 60.1525 9.9491 1
-14 2 10 57.4462 7.779 3
-13 -2 10 77.8602 8.7551 3
13 -2 -10 58.9724 9.7398 1
-13 2 10 58.1912 7.7971 3
13 2 -10 71.7708 10.6485 1
-12 -2 10 109.866 10.36 3
12 -2 -10 109.721 12.44 1
12 2 -10 103.95 12.491 1
11 -2 -10 68.0734 9.6388 1
11 2 -10 64.0417 9.6523 1
10 -2 -10 67.4578 9.2073 1
10 2 -10 76.3046 10.0174 1
9 -2 -10 -0.745 2.8642 1
9 2 -10 2.62451 3.09336 1
8 -2 -10 141.028 10.969 1
8 2 -10 136.654 12.928 1
8 2 -10 134.506 8.133 2
7 -2 -10 152.978 11.367 1
7 2 -10 162.336 11.742 1
7 2 -10 142.609 8.759 2
6 -2 -10 2.29833 2.46212 1
6 2 -10 -0.536 1.5161 2
6 2 -10 4.71984 2.80314 1
5 -2 -10 39.5448 6.1074 1
5 2 -10 40.1699 5.2517 2
5 2 -10 35.2221 5.7877 1
4 -2 -10 479.54 22.594 1
4 2 -10 467.609 22.303 1
4 2 -10 460.698 20.67 2
3 -2 -10 4.17701 2.73453 1
3 2 -10 1.61546 2.09926 2
3 2 -10 -0.2166 2.048 1
2 -2 -10 1190.47 47.6 1
2 2 -10 1168.98 45.82 2
2 2 -10 1222.47 47.06 1
1 -2 -10 9.90826 2.983 1
1 2 -10 13.5997 3.5336 2
1 2 -10 9.68453 3.01082 1
0 -2 -10 98.5821 7.6921 1
0 2 -10 111.299 8.335 2
0 2 -10 101.989 7.102 1
-1 -2 -10 984.701 39.028 2
-1 2 -10 919.958 38.809 2
-1 2 -10 991.084 37.389 1
-2 -2 -10 50.7092 5.6276 1
-2 -2 -10 37.9346 5.869 2
-2 2 -10 48.4373 6.6159 2
-3 -2 -10 0.66421 2.07687 2
-3 -2 -10 2.01313 1.94329 1
-3 2 -10 -0.8239 1.976 2
-4 -2 -10 4.29021 2.57083 2
-4 -2 -10 0.62383 1.78224 1
-4 2 -10 8.19069 3.17587 2
-5 -2 -10 78.3084 8.8473 2
-5 2 -10 71.203 8.4373 2
-6 -2 -10 -1.2229 2.1047 2
-6 2 -10 -2.6783 2.2331 2
-7 -2 -10 15.1455 4.2333 2
-7 2 -10 7.95184 3.83792 2
-8 -2 -10 77.7899 8.9687 2
-8 2 -10 84.978 9.7629 2
-9 -2 -10 15.7405 4.4864 2
-9 2 -10 4.88474 3.87784 2
-10 -2 -10 12.6537 4.4672 2
-10 2 -10 18.6923 5.3207 2
-11 -2 -10 0.22873 3.41356 2
-11 2 -10 0.0549 3.3036 2
-12 2 -10 44.3448 7.6349 2
-12 2 -10 22.3884 5.453 3
-13 -2 -10 11.5124 4.5103 3
-13 2 -10 0.94013 3.98219 2
-13 2 -10 3.96546 3.36964 3
-14 -2 -10 7.25447 4.48399 3
-14 2 -10 17.1514 5.4985 3
-15 -2 -10 18.6449 6.0691 3
-15 2 -10 7.35294 4.39244 3
-16 -2 -10 3.68035 5.0447 3
-16 2 -10 0.59772 4.2172 3
-20 -3 10 -0.3875 3.9115 3
20 -3 -10 -0.2571 6.0261 1
20 3 -10 8.78591 7.14488 1
-20 3 10 -4.2237 3.8239 3
19 -3 -10 31.3603 8.8157 1
-19 -3 10 16.1196 5.7869 3
-19 3 10 26.2916 6.8397 3
19 3 -10 12.6485 7.9683 1
-18 -3 10 4.58075 3.66976 3
18 -3 -10 2.03137 4.93094 1
-18 3 10 0.27308 3.80874 3
18 3 -10 12.9221 6.7452 1
-17 -3 10 7.71443 4.30338 3
17 -3 -10 7.66555 5.29061 1
-17 3 10 1.89732 3.65912 3
17 3 -10 7.04378 5.61758 1
-16 -3 10 6.96018 3.95442 3
16 -3 -10 7.27073 5.41339 1
-16 3 10 12.7771 4.7812 3
16 3 -10 5.5543 5.40613 1
15 -3 -10 4.37342 4.11618 1
-15 -3 10 0.85335 2.63488 3
-15 3 10 3.45505 3.37075 3
15 3 -10 4.05092 4.16531 1
-14 -3 10 50.3832 7.3413 3
14 -3 -10 33.5062 7.9416 1
14 3 -10 38.1577 8.7297 1
-14 3 10 44.0594 6.9885 3
-13 -3 10 -0.9347 2.3413 3
13 -3 -10 -1.2693 3.3972 1
13 3 -10 7.64264 5.0555 1
-12 -3 10 53.3404 7.1492 3
12 -3 -10 80.1586 10.8434 1
12 3 -10 74.1077 11.0826 1
11 -3 -10 278.315 18.22 1
11 3 -10 289.473 18.786 1
10 -3 -10 173.616 13.35 1
10 3 -10 147.882 14.58 1
9 -3 -10 3.72829 3.35948 1
9 3 -10 2.2199 3.07471 1
8 -3 -10 146.458 11.962 1
8 3 -10 179.121 12.942 1
7 -3 -10 8.00316 3.63237 1
7 3 -10 13.871 3.1754 2
7 3 -10 11.2967 4.1357 1
6 -3 -10 204.076 12.969 1
6 3 -10 175.101 10.2 2
6 3 -10 170.863 12.202 1
5 -3 -10 172.855 11.795 1
5 3 -10 159.081 11.373 1
4 -3 -10 10.4515 3.7727 1
4 3 -10 8.45879 2.90901 2
4 3 -10 14.6532 3.8527 1
3 -3 -10 293.68 15.806 1
3 3 -10 287.348 14.642 2
3 3 -10 258.198 14.895 1
2 -3 -10 7.09781 3.21164 1
2 3 -10 6.7693 2.92048 1
2 3 -10 2.35564 2.40479 2
1 -3 -10 18.987 4.4103 1
1 3 -10 31.2051 4.7728 1
1 3 -10 32.1048 5.2158 2
0 -3 -10 250.919 13.878 1
0 3 -10 263.659 14.396 2
0 3 -10 264.451 13.282 1
-1 -3 -10 2.31255 2.23514 1
-1 3 -10 3.4919 2.66702 2
-1 3 -10 0.0412 1.93784 1
-2 -3 -10 184.984 10.258 1
-2 3 -10 193.925 12.324 2
-3 -3 -10 273.602 15.537 2
-3 -3 -10 292.309 13.804 1
-3 3 -10 279.788 15.934 2
-4 -3 -10 21.1259 3.6867 1
-4 -3 -10 23.4862 5.0432 2
-4 3 -10 15.2141 4.1709 2
-5 -3 -10 86.7402 6.3547 1
-5 -3 -10 77.5629 8.8835 2
-5 3 -10 79.3029 9.199 2
-6 -3 -10 10.2902 3.9025 2
-6 3 -10 8.04335 3.67359 2
-7 -3 -10 31.6388 5.944 2
-7 3 -10 27.3205 5.9162 2
-8 -3 -10 133.785 12.162 2
-8 3 -10 138.999 12.897 2
-9 -3 -10 -0.2879 2.9138 2
-9 3 -10 0.33489 3.17893 2
-10 -3 -10 11.071 4.2932 2
-10 3 -10 15.9591 5.2048 2
-11 3 -10 99.657 11.6044 2
-12 3 -10 -0.6407 3.3645 3
-12 3 -10 -0.6574 3.2509 2
-13 -3 -10 7.33321 4.11373 3
-13 3 -10 5.46277 4.10319 2
-13 3 -10 1.77022 3.88119 3
-14 -3 -10 3.53074 4.13211 3
-14 3 -10 0.82292 3.60336 3
-14 3 -10 0.81792 3.93473 2
-15 -3 -10 -0.9187 3.9577 3
-15 3 -10 2.50603 4.46499 3
19 -4 -10 2.53624 5.64128 1
-19 -4 10 -0.1305 3.3212 3
-19 4 10 -1.9671 3.5853 3
19 4 -10 -1.3247 6.2478 1
18 -4 -10 2.88373 5.77086 1
-18 -4 10 -0.2137 3.5433 3
18 4 -10 2.82457 5.80168 1
-18 4 10 -0.8798 3.472 3
-17 -4 10 3.38471 3.82384 3
17 -4 -10 16.4117 6.8672 1
-17 4 10 10.9842 4.6876 3
17 4 -10 5.83741 6.20907 1
16 -4 -10 0.19754 4.82152 1
-16 -4 10 -0.6614 2.5095 3
-16 4 10 -0.0701 2.9577 3
16 4 -10 1.54305 4.95537 1
-15 -4 10 3.01266 2.23564 3
15 -4 -10 0.20873 4.11688 1
15 4 -10 5.80626 5.15816 1
-14 -4 10 15.9478 4.6359 3
14 -4 -10 23.6504 7.0071 1
14 4 -10 23.9368 7.3358 1
-13 -4 10 49.7546 7.0787 3
13 -4 -10 42.1022 8.4599 1
13 4 -10 62.299 10.5171 1
12 -4 -10 -3.6727 2.8476 1
12 4 -10 1.53697 3.91334 1
11 -4 -10 16.734 5.6986 1
11 4 -10 23.6989 6.8687 1
10 -4 -10 17.7504 5.8766 1
10 4 -10 13.5111 5.4435 1
9 -4 -10 28.0471 6.5984 1
9 4 -10 16.745 5.6508 1
8 -4 -10 -1.5455 2.3648 1
8 4 -10 1.16305 3.28184 1
7 -4 -10 49.8203 7.8481 1
7 4 -10 39.8679 7.3598 1
7 4 -10 54.0422 5.8914 2
6 -4 -10 231.818 15.224 1
6 4 -10 272.25 16.272 1
6 4 -10 243.164 12.818 2
5 -4 -10 23.5807 5.1209 1
5 4 -10 -0.7404 1.4406 2
5 4 -10 8.93812 3.50931 1
4 4 -10 361.592 17.173 2
4 4 -10 334.718 18.686 1
3 -4 -10 66.4032 8.2547 1
3 4 -10 93.5887 8.6016 2
3 4 -10 94.4945 9.3722 1
2 -4 -10 50.3752 6.7877 1
2 4 -10 57.2393 6.9413 2
2 4 -10 54.4964 6.9412 1
1 -4 -10 0.56904 1.8791 1
1 4 -10 1.6302 2.31575 1
1 4 -10 -2.2113 2.1381 2
0 -4 -10 76.5857 7.616 1
0 4 -10 83.3776 7.9905 1
0 4 -10 99.1983 9.5568 2
-1 -4 -10 356.829 17.111 1
-1 4 -10 359.689 18.637 2
-1 4 -10 353.429 16.951 1
-2 -4 -10 4.11626 2.33198 1
-2 4 -10 -1.2356 2.2911 2
-3 -4 -10 14.7957 3.3643 1
-3 4 -10 13.0424 4.0724 2
-4 -4 -10 118.988 8.411 1
-4 4 -10 141.681 10.649 2
-5 -4 -10 211.563 13.476 2
-5 -4 -10 205.801 11.451 1
-5 4 -10 187.64 13.325 2
-6 -4 -10 27.2064 5.7261 2
-6 4 -10 11.8044 4.3725 2
-7 -4 -10 1.92398 2.67193 2
-7 4 -10 1.09568 2.86408 2
-8 -4 -10 1.25862 2.73985 2
-8 4 -10 2.63151 3.29039 2
-9 -4 -10 181.796 13.081 2
-9 4 -10 190.176 13.869 2
-10 -4 -10 7.21912 4.11753 2
-10 4 -10 4.00504 4.01173 2
-11 4 -10 2.17424 3.31525 2
-11 4 -10 0.57702 2.83562 3
-12 -4 -10 4.74302 3.31062 3
-12 4 -10 1.58985 3.4607 3
-12 4 -10 2.61703 3.91097 2
-13 -4 -10 0.91055 3.53391 3
-13 4 -10 -1.5002 3.3026 3
-13 4 -10 -1.299 3.6623 2
-14 -4 -10 -4.3673 3.3735 3
-14 4 -10 5.25709 4.41516 3
-14 4 -10 -1.8974 3.7935 2
-15 -4 -10 10.5401 5.599 3
-15 4 -10 5.20846 5.01341 3
-19 -5 10 9.26876 5.09564 3
19 -5 -10 9.03981 7.03968 1
19 5 -10 6.29496 7.49479 1
-19 5 10 15.5317 5.8703 3
18 -5 -10 3.42546 5.71513 1
-18 -5 10 1.7181 3.94102 3
-18 5 10 0.18693 3.60919 3
18 5 -10 2.11528 6.36124 1
17 -5 -10 3.94376 5.13082 1
-17 -5 10 6.08704 4.15467 3
17 5 -10 4.3692 5.84176 1
-16 -5 10 5.08861 4.08496 3
16 -5 -10 18.7025 6.9481 1
16 5 -10 22.7927 7.9713 1
15 -5 -10 30.0112 7.8627 1
-15 -5 10 22.2397 5.2148 3
15 5 -10 13.0239 6.2142 1
14 -5 -10 24.0243 6.9612 1
-14 -5 10 35.205 6.0946 3
14 5 -10 37.8686 8.9604 1
13 -5 -10 3.05836 4.39113 1
13 5 -10 5.78534 5.05361 1
12 -5 -10 23.4189 6.7935 1
12 5 -10 9.58709 5.61243 1
11 -5 -10 -0.939 3.7504 1
11 5 -10 7.58466 4.75955 1
10 -5 -10 453.964 25.501 1
10 5 -10 466.846 26.599 1
9 -5 -10 52.3445 8.7002 1
9 5 -10 54.3287 9.3246 1
8 -5 -10 453.569 25.607 1
8 5 -10 540.057 27.423 1
7 -5 -10 2.78326 3.13907 1
7 5 -10 -0.3357 3.1959 1
6 -5 -10 52.9142 8.1507 1
6 5 -10 53.8768 6.1794 2
6 5 -10 72.15 9.5091 1
5 -5 -10 0.88506 2.83526 1
5 5 -10 2.31891 2.95427 1
5 5 -10 -0.3442 1.6538 2
4 -5 -10 112.18 11.476 1
4 5 -10 125.703 8.943 2
4 5 -10 141.351 11.005 1
3 -5 -10 68.0333 8.2336 1
3 5 -10 52.0549 6.6362 2
3 5 -10 71.5171 8.7551 1
2 -5 -10 33.6594 5.5488 1
2 5 -10 40.8315 6.4101 1
2 5 -10 38.108 5.7787 2
1 -5 -10 49.1193 6.3611 1
1 5 -10 51.56 7.0292 1
1 5 -10 44.6312 6.4228 2
0 -5 -10 195.542 12.173 1
0 5 -10 220.01 12.911 1
0 5 -10 228.676 13.627 2
-1 -5 -10 0.3565 1.97882 1
-1 5 -10 1.30038 2.346 2
-2 -5 -10 3.29774 2.50324 1
-2 5 -10 3.6556 2.75635 2
-3 -5 -10 92.2808 8.7232 1
-3 5 -10 109.538 10.873 2
-4 -5 -10 49.4541 6.2269 1
-4 5 -10 39.4631 6.9707 2
-5 -5 -10 182.91 11.3 1
-5 5 -10 195.759 13.591 2
-6 -5 -10 7.73481 3.6813 2
-6 -5 -10 17.9789 4.2293 1
-6 5 -10 15.3249 5.0293 2
-7 -5 -10 1.73753 2.68037 2
-7 5 -10 0.13326 3.08031 2
-8 -5 -10 4.46182 3.64923 2
-8 5 -10 6.24753 4.01637 2
-9 -5 -10 7.68725 4.09518 2
-9 5 -10 2.96358 3.48113 2
-10 5 -10 145.232 14.193 2
-11 5 -10 17.5136 5.1219 3
-11 5 -10 9.53401 4.75945 2
-12 -5 -10 10.6956 4.555 3
-12 5 -10 15.222 5.3602 2
-12 5 -10 -1.2824 3.5546 3
-13 -5 -10 0.4746 3.58086 3
-13 5 -10 -0.9366 3.8451 2
-13 5 -10 0.32948 3.5193 3
-14 -5 -10 -3.2129 3.6764 3
-14 5 -10 -4.4402 3.3439 2
-14 5 -10 0.98655 4.23918 3
18 -6 -10 -4.1894 5.9497 1
-18 -6 10 9.52492 4.59365 3
18 6 -10 13.049 8.153 1
17 -6 -10 -2.2764 5.035 1
-17 -6 10 -3.6853 3.0042 3
17 6 -10 -2.4309 6.513 1
-16 -6 10 11.3192 4.2702 3
16 -6 -10 10.2791 6.7368 1
16 6 -10 3.36654 6.02494 1
-15 -6 10 2.9808 3.1832 3
15 -6 -10 0.22524 4.24579 1
15 6 -10 -1.8536 4.713 1
14 -6 -10 13.7568 6.0311 1
14 6 -10 14.5673 7.203 1
13 -6 -10 11.057 5.3784 1
13 6 -10 4.01029 4.78091 1
12 -6 -10 -3.2698 3.7772 1
12 6 -10 1.87244 4.89051 1
11 -6 -10 -1.7135 3.933 1
11 6 -10 -1.1483 3.8331 1
10 -6 -10 0.26247 3.66259 1
10 6 -10 -0.8877 3.7108 1
9 -6 -10 6.20759 4.27299 1
9 6 -10 5.91933 4.72249 1
8 -6 -10 5.11943 4.20588 1
8 6 -10 16.3053 5.9383 1
7 -6 -10 1.64992 3.27918 1
7 6 -10 -2.6183 3.2222 1
6 -6 -10 28.2846 6.7385 1
6 6 -10 34.2702 7.1216 1
6 6 -10 41.2572 5.6695 2
5 -6 -10 -0.3676 3.0835 1
5 6 -10 6.73722 4.19417 1
5 6 -10 2.84689 2.07685 2
4 -6 -10 17.8334 4.8677 1
4 6 -10 17.5668 4.1539 2
4 6 -10 12.5555 4.7849 1
3 -6 -10 0.71524 2.12957 1
3 6 -10 1.05824 3.17431 1
3 6 -10 -1.8164 2.4074 2
2 -6 -10 24.5103 4.9812 1
2 6 -10 28.7145 5.1983 2
2 6 -10 25.5481 5.608 1
1 -6 -10 42.8191 6.2851 1
1 6 -10 37.4106 6.1885 2
1 6 -10 31.1578 6.1176 1
0 -6 -10 92.144 9.2644 1
0 6 -10 101.065 10.122 1
0 6 -10 97.536 9.9439 2
-1 -6 -10 65.7259 7.7317 1
-1 6 -10 83.3945 9.2549 2
-2 -6 -10 174.342 11.567 1
-2 6 -10 182.173 12.726 2
-3 -6 -10 9.69359 3.63098 1
-3 6 -10 13.1811 4.3569 2
-4 -6 -10 49.7384 6.6824 1
-4 6 -10 37.873 6.8019 2
-5 -6 -10 13.2395 4.0792 1
-5 6 -10 8.74543 4.29448 2
-6 -6 -10 58.701 7.4879 1
-6 6 -10 76.6362 9.8073 2
-7 6 -10 36.58 7.2402 2
-8 -6 -10 33.2312 6.6266 2
-8 6 -10 28.535 6.7009 2
-9 6 -10 13.6417 5.0178 2
-10 6 -10 1.6955 4.18371 2
-11 -6 -10 8.01354 3.87544 3
-11 6 -10 2.16489 4.30875 2
-12 -6 -10 0.22557 3.42549 3
-12 6 -10 7.22297 4.6452 2
-13 -6 -10 -1.4985 3.5959 3
-13 6 -10 4.20943 4.75406 2
-14 6 -10 23.4994 7.2787 2
17 -7 -10 -1.5984 5.9193 1
17 7 -10 1.93364 6.76933 1
16 -7 -10 28.0066 8.0842 1
16 7 -10 26.3513 9.6 1
15 -7 -10 6.33685 5.58818 1
15 7 -10 6.06603 6.67141 1
14 -7 -10 52.0768 10.2843 1
14 7 -10 29.6352 9.1766 1
13 -7 -10 8.22033 5.43018 1
13 7 -10 17.2393 6.9568 1
12 -7 -10 21.1046 7.1205 1
12 7 -10 22.6956 7.5499 1
11 -7 -10 -2.7886 3.7432 1
11 7 -10 2.00021 4.24383 1
10 -7 -10 20.6149 6.4031 1
10 7 -10 29.1387 7.7705 1
9 -7 -10 34.282 7.7267 1
9 7 -10 36.0878 8.2178 1
8 -7 -10 8.18317 5.06638 1
8 7 -10 3.61038 4.54546 1
7 -7 -10 23.4182 6.3226 1
7 7 -10 34.1186 7.6453 1
6 -7 -10 30.0304 7.0947 1
6 7 -10 12.6483 5.1216 1
5 -7 -10 0.74033 3.22534 1
5 7 -10 1.19972 2.7987 2
5 7 -10 -0.7022 3.216 1
4 -7 -10 261.386 16.365 1
4 7 -10 274.625 15.235 2
4 7 -10 292.662 18.382 1
3 -7 -10 3.45313 3.21312 1
3 7 -10 4.36107 3.04273 2
3 7 -10 -1.3871 3.3531 1
2 -7 -10 143.79 11.145 1
2 7 -10 176.926 12.944 1
2 7 -10 140.081 10.751 2
1 -7 -10 58.6086 7.9891 1
1 7 -10 49.9723 7.376 2
1 7 -10 68.02 9.1606 1
0 -7 -10 71.8386 8.8024 1
0 7 -10 73.5208 8.9404 2
-1 -7 -10 4.81149 3.26499 1
-1 7 -10 2.84734 2.94725 2
-2 -7 -10 10.6712 3.9309 1
-2 7 -10 15.2309 4.6566 2
-3 -7 -10 -0.7724 2.5966 1
-3 7 -10 -2.8189 2.3627 2
-4 -7 -10 33.7164 5.9408 1
-4 7 -10 26.2171 6.0008 2
-5 -7 -10 2.24315 3.38938 1
-5 7 -10 5.78656 4.18532 2
-6 -7 -10 23.3205 5.2984 1
-6 7 -10 23.7458 6.1523 2
-7 -7 -10 2.35683 3.17065 1
-7 7 -10 3.38636 3.54949 2
-8 7 -10 1.98414 3.64401 2
-9 7 -10 2.39518 3.87168 2
-10 -7 -10 91.9272 10.3969 3
-10 7 -10 96.548 12.363 2
-11 -7 -10 -0.5359 3.0401 3
-11 7 -10 0.45529 4.078 2
-12 -7 -10 21.004 6.1302 3
-12 7 -10 22.7903 6.8567 2
-13 -7 -10 -1.4957 3.9035 3
-13 7 -10 -1.3986 4.6373 2
16 -8 -10 33.6709 9.5927 1
16 8 -10 34.2701 10.0986 1
15 -8 -10 1.58805 5.61096 1
15 8 -10 1.79664 5.50256 1
14 -8 -10 53.4082 10.6276 1
14 8 -10 22.2268 8.9245 1
13 -8 -10 32.6239 8.7026 1
13 8 -10 22.6 8.19 1
12 -8 -10 4.89723 4.96158 1
12 8 -10 4.6413 5.73298 1
11 -8 -10 5.12273 5.01079 1
11 8 -10 5.11357 4.95598 1
10 -8 -10 32.2717 8.1879 1
10 8 -10 59.148 10.755 1
9 -8 -10 4.76923 4.68406 1
9 8 -10 -2.7433 3.8232 1
8 -8 -10 1.07101 3.65891 1
8 8 -10 -1.0571 3.8939 1
7 -8 -10 57.8112 9.9297 1
7 8 -10 56.8794 9.9749 1
6 -8 -10 43.98 8.1231 1
6 8 -10 43.1089 8.5162 1
5 -8 -10 1.89716 3.57268 1
5 8 -10 -0.8364 2.4556 2
5 8 -10 -3.0622 3.8046 1
4 -8 -10 46.7735 7.6807 1
4 8 -10 27.7263 6.9141 1
4 8 -10 35.3919 5.8494 2
3 -8 -10 68.6819 9.2379 1
3 8 -10 83.9225 11.1835 1
3 8 -10 75.3449 8.6681 2
2 -8 -10 114.717 11.873 1
2 8 -10 102.444 10.599 2
2 8 -10 138.327 14.033 1
1 -8 -10 98.5227 10.7878 1
1 8 -10 108.522 12.34 1
1 8 -10 109.269 11.096 2
0 -8 -10 0.11626 3.03668 1
0 8 -10 13.4286 4.4684 2
-1 -8 -10 -0.1056 2.8656 1
-1 8 -10 -3.0594 2.6425 2
-2 -8 -10 21.0133 5.4119 1
-2 8 -10 10.7828 4.4779 2
-3 -8 -10 6.85001 3.82086 1
-3 8 -10 5.35225 3.89743 2
-4 -8 -10 29.203 6.3575 1
-4 8 -10 34.3232 7.1054 2
-5 -8 -10 -1.2718 3.2221 1
-5 8 -10 -2.1034 3.2298 2
-6 -8 -10 18.8869 5.2023 1
-6 8 -10 4.82595 4.09027 2
-7 -8 -10 -1.5646 3.1209 1
-7 8 -10 5.22149 4.13679 2
7 8 10 2.14614 5.17747 1
-8 8 -10 -0.4462 3.5454 2
-9 8 -10 8.008 4.98758 2
-10 8 -10 9.39159 5.34724 2
-11 8 -10 12.5175 5.7659 2
-12 8 -10 -2.3549 4.4458 2
15 -9 -10 8.04657 7.35218 1
15 9 -10 2.19228 6.30607 1
14 -9 -10 0.04173 6.20034 1
14 9 -10 -0.1344 5.5516 1
13 -9 -10 1.30213 5.28962 1
13 9 -10 7.52352 6.47255 1
12 -9 -10 6.76119 6.00323 1
12 9 -10 6.51125 5.93501 1
11 -9 -10 59.2566 11.1385 1
11 9 -10 35.9033 9.4696 1
10 -9 -10 16.0481 6.6193 1
10 9 -10 15.2895 6.9722 1
9 -9 -10 2.94402 4.68176 1
9 9 -10 5.10422 4.97258 1
8 -9 -10 6.00166 5.42955 1
8 9 -10 13.326 6.7177 1
7 -9 -10 10.8374 5.4404 1
7 9 -10 9.35959 5.85312 1
6 -9 -10 16.214 5.7362 1
6 9 -10 15.3042 6.2525 1
5 -9 -10 0.59743 3.49178 1
5 9 -10 1.54279 4.35131 1
4 -9 -10 31.4268 6.6585 1
4 9 -10 19.3353 5.0374 2
4 9 -10 20.1323 6.7494 1
3 -9 -10 64.4772 9.4411 1
3 9 -10 54.623 9.4489 1
3 9 -10 77.8576 8.9558 2
2 -9 -10 22.0466 5.6316 1
2 9 -10 29.5421 7.387 1
2 9 -10 32.539 6.3029 2
1 -9 -10 4.92833 3.84104 1
1 9 -10 10.3923 4.1783 2
0 -9 -10 11.2784 4.7637 1
0 9 -10 6.0087 4.13387 2
-1 -9 -10 3.03274 3.50626 1
-1 9 -10 7.34089 3.90082 2
-2 -9 -10 -0.9698 2.7436 1
-2 9 -10 -4.5606 3.089 2
-3 -9 -10 14.3967 5.0043 1
-3 9 -10 19.925 6.2373 2
-4 -9 -10 0.12907 3.37578 1
-4 9 -10 -1.9519 3.2454 2
-5 -9 -10 21.446 6.2186 1
-5 9 -10 18.1902 5.8793 2
-6 -9 -10 9.45935 4.13328 1
-6 9 -10 9.40592 4.77001 2
-7 -9 -10 -0.5201 3.445 1
-7 9 -10 1.08802 3.80159 2
-8 -9 -10 3.85423 4.17389 1
-8 9 -10 -1.772 3.304 2
-9 9 -10 -0.6942 4.1729 2
-10 9 -10 48.9478 9.3845 2
13 -10 -10 12.9202 7.6793 1
13 10 -10 23.116 9.074 1
12 -10 -10 -0.9829 5.5867 1
12 10 -10 4.15276 5.8396 1
11 -10 -10 -0.0986 5.3057 1
11 10 -10 2.78957 5.11378 1
10 -10 -10 54.4709 11.1091 1
10 10 -10 39.8389 10.1934 1
9 -10 -10 16.9689 6.9056 1
9 10 -10 1.83162 5.48791 1
8 -10 -10 5.19829 5.419 1
8 10 -10 -5.0466 4.3488 1
7 -10 -10 44.3747 9.535 1
7 10 -10 39.9232 9.6468 1
6 -10 -10 30.2547 7.4819 1
6 10 -10 21.6119 7.5087 1
5 -10 -10 -1.659 3.2277 1
5 10 -10 -3.3017 4.6351 1
4 -10 -10 42.5368 7.8039 1
4 10 -10 25.159 7.472 1
3 -10 -10 60.7928 9.386 1
3 10 -10 46.3235 7.5667 2
3 10 -10 53.6554 9.7781 1
2 -10 -10 12.3444 5.0695 1
2 10 -10 6.97531 5.36065 1
2 10 -10 11.1711 4.8362 2
1 -10 -10 40.301 7.8154 1
1 10 -10 49.5054 8.0873 2
0 -10 -10 14.2033 5.1761 1
0 10 -10 15.6255 5.3905 2
-1 -10 -10 8.27774 4.3635 1
-1 10 -10 7.82054 4.53648 2
-2 -10 -10 0.10047 3.47767 1
-2 10 -10 2.98364 3.813 2
-3 -10 -10 -0.9767 3.8297 1
-3 10 -10 2.239 4.17875 2
-4 -10 -10 25.9975 6.8073 1
-4 10 -10 26.6696 6.7181 2
-5 -10 -10 -4.8122 3.4853 1
-5 10 -10 -0.1542 4.0113 2
-6 -10 -10 3.18954 4.58628 1
-6 10 -10 7.11457 5.11083 2
-7 -10 -10 23.2187 6.9511 1
-7 10 -10 18.1212 6.0599 2
-8 -10 -10 1.95971 4.58717 1
-8 10 -10 1.00268 4.0923 2
-9 10 -10 30.0783 8.0348 2
11 11 -10 25.9212 8.9426 1
10 -11 -10 12.0428 6.8851 1
10 11 -10 21.716 8.4988 1
9 -11 -10 8.35708 6.42644 1
9 11 -10 -0.6028 5.6092 1
8 -11 -10 15.3167 7.1748 1
8 11 -10 9.53661 7.16725 1
7 -11 -10 -6.6374 3.9759 1
7 11 -10 -1.0777 5.1217 1
6 -11 -10 -1.3189 4.2146 1
6 11 -10 1.68733 5.46704 1
5 -11 -10 9.74804 5.37329 1
5 11 -10 7.45002 5.36152 1
4 -11 -10 -1.3344 4.2268 1
4 11 -10 6.94461 6.1408 1
3 -11 -10 -1.7982 3.6107 1
3 11 -10 4.13882 3.91959 2
3 11 -10 -0.5561 4.5721 1
2 -11 -10 5.98197 4.50615 1
2 11 -10 13.6589 5.1049 2
1 -11 -10 16.5268 5.6438 1
1 11 -10 33.9928 7.4262 2
0 -11 -10 19.4039 6.2617 1
0 11 -10 30.6396 7.3238 2
-1 -11 -10 -2.453 3.9711 1
-1 11 -10 3.58186 4.10647 2
-2 -11 -10 22.584 6.7758 1
-2 11 -10 22.8862 6.6905 2
-3 -11 -10 -2.344 4.1109 1
-3 11 -10 8.22191 4.93407 2
-4 -11 -10 11.8921 5.6183 1
-4 11 -10 12.8924 6.3133 2
-5 -11 -10 -1.7016 4.5206 1
-5 11 -10 4.60585 4.8863 2
-6 -11 -10 2.06908 4.93864 1
-6 11 -10 5.32921 5.02616 2
7 12 -10 16.6483 7.9894 1
6 -12 -10 4.44123 5.64143 1
6 12 -10 0.83093 5.47137 1
5 -12 -10 1.69562 4.08276 1
5 12 -10 -0.1701 4.8688 1
4 -12 -10 12.1474 5.5404 1
4 12 -10 19.2714 7.6244 1
3 -12 -10 4.29706 4.2526 1
2 -12 -10 34.5459 7.8391 1
2 12 -10 36.1309 7.6104 2
1 -12 -10 4.88453 4.88392 1
1 12 -10 8.08651 5.00278 2
0 -12 -10 16.6512 5.891 1
0 12 -10 2.26046 4.60428 2
-1 -12 -10 20.4588 6.9258 1
-1 12 -10 17.6151 6.6949 2
-2 -12 -10 1.99126 4.71224 1
-2 12 -10 14.4219 6.0526 2
-3 12 -10 -0.7371 4.7419 2
-20 0 11 15.6643 5.8893 3
20 0 -11 9.5731 6.98424 1
19 0 -11 0.59763 5.63855 1
-19 0 11 -4.4047 3.5324 3
-18 0 11 7.04244 4.40524 3
18 0 -11 -2.2581 4.4394 1
-17 0 11 -1.0238 3.0239 3
17 0 -11 4.24871 5.24459 1
16 0 -11 5.0047 4.95974 1
-16 0 11 -1.8325 2.5087 3
15 0 -11 -2.5024 4.0444 1
-15 0 11 -0.0949 2.4575 3
14 0 -11 52.3857 9.4263 1
-14 0 11 80.893 9.4955 3
13 0 -11 0.38813 3.56837 1
12 0 -11 11.3957 4.8345 1
11 0 -11 4.30388 3.81197 1
10 0 -11 202.735 14.668 1
9 0 -11 0.99116 3.26217 1
9 0 -11 -0.604 2.0353 2
8 0 -11 1264.97 47.81 2
8 0 -11 1289.22 53.39 1
7 0 -11 -1.6565 1.5311 2
7 0 -11 0.5362 2.85452 1
6 0 -11 12.1651 4.135 1
6 0 -11 7.02937 2.80709 2
5 0 -11 0.11955 2.34713 1
5 0 -11 -1.2373 1.7603 2
4 0 -11 1146.35 46.12 1
4 0 -11 1120.11 43.61 2
3 0 -11 -1.9061 1.8206 2
3 0 -11 -2.8377 1.691 1
2 0 -11 118.929 8.458 1
2 0 -11 102.345 7.997 2
1 0 -11 -0.9175 1.9624 1
1 0 -11 0.09217 1.85076 2
0 0 -11 3.66078 2.10862 1
0 0 -11 -0.243 2.0376 2
-1 0 -11 -0.6684 1.8961 2
-1 0 -11 0.37844 1.81824 1
-2 0 -11 397.316 17.196 1
-2 0 -11 377.778 19.441 2
-3 0 -11 0.98752 2.09936 2
-4 0 -11 20.7901 4.7233 2
-5 0 -11 -0.5776 2.2068 2
-6 0 -11 8.60469 3.82819 2
-7 0 -11 -2.1816 2.2288 2
-8 0 -11 2.36545 3.181 2
-9 0 -11 -0.4034 2.8123 2
-10 0 -11 3.63012 3.60685 2
-11 0 -11 2.01536 3.42342 2
-12 0 -11 45.7735 8.0426 2
-13 0 -11 3.63556 3.54757 3
-14 0 -11 -0.5882 4.1196 3
-15 0 -11 1.73829 4.10696 3
-20 -1 11 14.1644 5.6831 3
20 -1 -11 10.408 7.5987 1
20 1 -11 12.1105 7.279 1
-20 1 11 1.96796 4.4009 3
-19 -1 11 -0.0657 3.3838 3
19 -1 -11 -7.7717 4.5114 1
19 1 -11 1.34673 5.67182 1
-19 1 11 -1.9886 3.8758 3
-18 -1 11 9.93772 4.99975 3
18 -1 -11 12.3046 6.1965 1
18 1 -11 11.5882 5.9133 1
-18 1 11 10.1223 4.8664 3
17 -1 -11 3.69326 4.40772 1
-17 -1 11 0.29548 3.36952 3
-17 1 11 0.6676 3.60185 3
17 1 -11 -0.7924 4.5241 1
-16 -1 11 15.2951 4.9902 3
16 -1 -11 16.0969 6.0651 1
16 1 -11 16.6127 6.6919 1
-16 1 11 16.0672 5.2089 3
-15 -1 11 -1.709 2.0694 3
15 -1 -11 -2.8285 3.7524 1
15 1 -11 -0.7173 3.5478 1
-15 1 11 -0.8402 2.8147 3
14 -1 -11 29.8226 7.7039 1
-14 -1 11 64.7574 8.2724 3
14 1 -11 47.2317 8.9526 1
13 -1 -11 2.56479 4.11254 1
13 1 -11 0.51061 3.71221 1
12 -1 -11 -2.0014 3.1637 1
12 1 -11 3.73458 3.9188 1
11 -1 -11 2.43628 3.29953 1
11 1 -11 1.87141 3.74034 1
10 -1 -11 124.397 13.006 1
10 1 -11 121.846 12.83 1
9 -1 -11 -1.1814 2.7009 1
9 1 -11 2.43363 3.54168 1
9 1 -11 1.84257 2.10938 2
8 -1 -11 35.5808 6.5957 1
8 1 -11 44.3435 5.4054 2
8 1 -11 47.7401 7.4987 1
7 -1 -11 45.5963 7.1718 1
7 1 -11 58.628 8.0497 1
7 1 -11 52.2429 5.9222 2
6 -1 -11 92.8611 9.6303 1
6 1 -11 75.5994 7.3391 2
6 1 -11 75.4272 8.7873 1
5 -1 -11 116.785 10.741 1
5 1 -11 108.262 10.376 1
5 1 -11 104.466 7.763 2
4 -1 -11 65.8294 7.7103 1
4 1 -11 83.0785 7.8077 2
4 1 -11 56.8779 7.1873 1
3 -1 -11 -0.5978 2.1597 1
3 -1 -11 -1.1978 1.8435 2
3 1 -11 10.0208 3.3277 1
3 1 -11 3.942 2.45193 2
2 -1 -11 151.108 10.239 1
2 -1 -11 179.656 11.037 2
2 1 -11 154.259 10.273 2
2 1 -11 177.716 10.601 1
1 -1 -11 353.203 17.642 2
1 -1 -11 352.564 17.198 1
1 1 -11 354.013 16.79 1
1 1 -11 339.817 17.46 2
0 -1 -11 323.409 15.761 1
0 -1 -11 328.128 16.714 2
0 1 -11 317.389 15.127 1
0 1 -11 291.715 16.241 2
-1 -1 -11 311.886 16.798 2
-1 -1 -11 341.158 15.79 1
-1 1 -11 334.448 15.029 1
-1 1 -11 301.69 16.827 2
-2 -1 -11 0.40913 1.8078 2
-2 -1 -11 0.37858 1.99732 1
-2 1 -11 1.90998 2.41875 2
-3 -1 -11 -2.0339 2.2564 2
-3 1 -11 3.33549 2.69463 2
-4 -1 -11 6.96852 3.23879 2
-4 1 -11 17.5341 4.5922 2
-5 -1 -11 24.8186 5.4699 2
-5 1 -11 27.039 5.4523 2
-6 -1 -11 594.605 28.318 2
-6 1 -11 641.927 29.257 2
-7 -1 -11 73.6298 9.3438 2
-7 1 -11 82.454 9.5274 2
-8 -1 -11 139.488 12.952 2
-8 1 -11 137.542 12.848 2
-9 -1 -11 3.18831 3.37522 2
-9 1 -11 -2.1867 2.6461 2
-10 -1 -11 77.8839 9.7875 2
-10 1 -11 85.5845 10.1895 2
-11 -1 -11 23.5556 6.1248 2
-11 1 -11 19.4806 5.7557 2
-12 -1 -11 56.0818 8.6445 2
-12 1 -11 72.7785 9.8033 2
-13 -1 -11 16.836 5.0252 3
-13 1 -11 8.60958 4.25884 3
-13 1 -11 4.4436 4.35537 2
-14 -1 -11 5.6942 4.57853 3
-14 1 -11 -1.5001 3.7646 3
-15 -1 -11 -3.025 3.5299 3
-15 1 -11 7.00607 4.62151 3
20 -2 -11 28.6333 9.2604 1
-20 -2 11 21.1267 6.6727 3
-20 2 11 30.2848 7.5021 3
20 2 -11 20.8235 8.8371 1
19 -2 -11 8.16902 6.56696 1
-19 -2 11 6.34228 4.21001 3
19 2 -11 8.23904 7.13843 1
-19 2 11 14.1479 5.7836 3
-18 -2 11 27.1078 6.8685 3
18 -2 -11 37.8724 9.5959 1
-18 2 11 48.0787 8.4699 3
18 2 -11 25.5395 7.8702 1
-17 -2 11 7.1733 4.19641 3
17 -2 -11 -1.8944 3.7856 1
-17 2 11 7.76034 4.0471 3
17 2 -11 6.79209 5.77032 1
16 -2 -11 23.9021 7.187 1
-16 -2 11 27.8907 6.2294 3
16 2 -11 25.9542 7.8168 1
-16 2 11 24.7915 5.8671 3
15 -2 -11 1.36486 4.2919 1
-15 -2 11 -2.4681 2.3389 3
15 2 -11 4.2824 4.33879 1
14 -2 -11 4.41712 4.80903 1
-14 -2 11 -2.3296 1.9968 3
14 2 -11 11.0385 5.5177 1
13 -2 -11 9.79544 5.04159 1
13 2 -11 6.82454 4.81646 1
12 -2 -11 21.9279 6.1452 1
12 2 -11 12.3036 5.0381 1
11 -2 -11 59.3931 9.6255 1
11 2 -11 73.9554 10.5717 1
10 -2 -11 62.389 9.0969 1
10 2 -11 51.2712 8.5952 1
9 -2 -11 202.849 14.383 1
9 2 -11 215.163 14.854 1
8 -2 -11 34.6642 6.9268 1
8 2 -11 54.8415 6.0009 2
8 2 -11 40.441 7.4775 1
7 -2 -11 0.90918 2.38906 1
7 2 -11 -0.2629 2.7093 1
7 2 -11 1.79427 2.10561 2
6 -2 -11 4.81044 3.00589 1
6 2 -11 6.70986 3.3091 1
6 2 -11 0.52291 1.79938 2
5 -2 -11 396.252 20.227 1
5 2 -11 385.6 18.134 2
5 2 -11 368.869 19.782 1
4 -2 -11 99.4474 9.8639 1
4 2 -11 98.0298 8.9236 2
4 2 -11 96.4724 9.4559 1
3 -2 -11 164.623 11.207 1
3 2 -11 183.794 11.256 1
3 2 -11 158.44 10.484 2
2 -2 -11 0.31414 2.24738 1
2 2 -11 0.44851 2.04314 1
2 2 -11 -1.2762 1.6224 2
1 -2 -11 30.2438 5.0756 1
1 2 -11 33.3379 4.8719 1
1 2 -11 23.6827 4.8235 2
0 -2 -11 37.4277 5.4155 1
0 -2 -11 23.6408 4.7689 2
0 2 -11 31.192 4.4846 1
0 2 -11 36.8028 5.875 2
-1 -2 -11 23.4301 4.2919 1
-1 -2 -11 30.3342 5.297 2
-1 2 -11 16.9845 3.4154 1
-1 2 -11 19.4323 4.5858 2
-2 -2 -11 138.857 8.845 1
-2 -2 -11 111.33 10.649 2
-2 2 -11 117.997 11.1 2
-3 -2 -11 62.3645 7.8192 2
-3 -2 -11 56.4473 6.1999 1
-3 2 -11 49.6111 7.2507 2
-4 -2 -11 208.231 13.074 2
-4 2 -11 190.893 12.937 2
-5 -2 -11 3.33294 2.8212 2
-5 2 -11 -0.4866 2.5288 2
-6 -2 -11 132.757 12.337 2
-6 2 -11 149.778 13.209 2
-7 -2 -11 22.2142 5.2173 2
-7 2 -11 15.6057 4.867 2
-8 -2 -11 5.8416 3.79 2
-8 2 -11 9.94876 4.41056 2
-9 -2 -11 1.48861 3.30365 2
-9 2 -11 2.66624 3.57031 2
-10 -2 -11 2.36429 3.45239 2
-10 2 -11 2.1126 3.43152 2
-11 -2 -11 8.70593 4.08718 2
-11 2 -11 -2.1192 3.3333 2
-12 2 -11 11.8783 5.2096 2
-13 -2 -11 7.58218 4.4223 3
-13 2 -11 6.74739 4.22929 3
-13 2 -11 5.06917 4.4595 2
-14 -2 -11 -1.2012 3.4054 3
-14 2 -11 0.03995 3.77493 3
-15 -2 -11 -2.6006 3.5019 3
-15 2 -11 0.84095 4.63119 3
-20 -3 11 31.7796 7.3936 3
20 -3 -11 21.8277 8.8633 1
-20 3 11 23.3907 6.9272 3
20 3 -11 10.5838 8.2179 1
-19 -3 11 4.81656 4.04873 3
19 -3 -11 4.04538 6.10966 1
19 3 -11 12.5738 6.9138 1
-19 3 11 -0.9002 3.645 3
-18 -3 11 6.20532 4.0877 3
18 -3 -11 7.42611 5.93693 1
-18 3 11 6.01348 4.36531 3
18 3 -11 10.7209 6.9318 1
17 -3 -11 13.4881 7.2629 1
-17 -3 11 10.2795 4.4763 3
-17 3 11 8.85343 4.61559 3
17 3 -11 8.77156 6.37485 1
16 -3 -11 -4.6484 4.3865 1
-16 -3 11 0.82058 3.51899 3
16 3 -11 4.74531 4.72252 1
15 -3 -11 15.9265 6.2192 1
-15 -3 11 19.5061 5.1273 3
15 3 -11 20.9435 7.4133 1
14 -3 -11 77.0396 11.49 1
-14 -3 11 74.058 9.0618 3
14 3 -11 74.0458 11.6412 1
13 -3 -11 6.27405 4.44548 1
13 3 -11 2.76179 4.3716 1
12 -3 -11 94.1089 12.0369 1
12 3 -11 93.2121 12.414 1
11 -3 -11 42.9686 8.0262 1
11 3 -11 56.7781 9.5059 1
10 -3 -11 37.2687 7.4254 1
10 3 -11 43.7251 8.2063 1
9 -3 -11 24.9848 6.2994 1
9 3 -11 61.8029 9.1638 1
8 -3 -11 122.442 12.89 1
8 3 -11 162.431 12.314 1
7 -3 -11 188.744 13.495 1
7 3 -11 173.126 12.81 1
7 3 -11 188.052 10.779 2
6 -3 -11 18.8909 4.9903 1
6 3 -11 18.2599 5.1395 1
6 3 -11 12.9324 3.3723 2
5 -3 -11 0.17283 2.07177 1
5 3 -11 -3.4934 1.8241 2
5 3 -11 1.74052 2.6571 1
4 -3 -11 -0.5914 2.4482 1
4 3 -11 -0.2448 2.4711 1
4 3 -11 0.37522 2.40125 2
3 -3 -11 1.18819 2.59952 1
3 3 -11 2.90674 2.52746 2
3 3 -11 2.74081 2.78744 1
2 -3 -11 0.40207 2.22878 1
2 3 -11 2.09569 2.47048 1
2 3 -11 1.0064 2.28515 2
1 -3 -11 332.003 17.263 1
1 3 -11 296.044 16.559 2
1 3 -11 325.89 16.253 1
0 -3 -11 -0.2868 2.3161 1
0 3 -11 -2.7505 2.2032 2
0 3 -11 0.53512 2.3627 1
-1 -3 -11 290.462 15.398 1
-1 3 -11 292.426 16.245 2
-2 -3 -11 9.55603 3.09622 1
-2 3 -11 22.8071 5.09 2
-3 -3 -11 90.8679 9.9082 2
-3 -3 -11 97.6847 6.9853 1
-3 3 -11 80.997 9.3179 2
-4 -3 -11 7.88933 2.7395 1
-4 -3 -11 10.4717 4.0116 2
-4 3 -11 4.99063 3.15848 2
-5 -3 -11 35.4954 6.2975 2
-5 3 -11 31.8778 5.9873 2
-6 -3 -11 -1.0302 2.511 2
-6 3 -11 -1.5375 2.8836 2
-7 -3 -11 109.023 11.362 2
-7 3 -11 93.495 10.9264 2
-8 -3 -11 0.69172 2.86888 2
-8 3 -11 -3.5633 3.0564 2
-9 -3 -11 34.2735 6.7636 2
-9 3 -11 19.6393 5.5425 2
-10 -3 -11 43.9678 7.611 2
-10 3 -11 43.2932 7.7484 2
-11 3 -11 10.7186 5.0458 2
-12 3 -11 23.7631 5.7508 3
-12 3 -11 18.79 6.4741 2
-13 -3 -11 15.7942 5.3288 3
-13 3 -11 6.11629 4.94848 2
-13 3 -11 9.37279 4.47478 3
-14 -3 -11 2.17301 4.03189 3
-14 3 -11 2.98646 4.55792 2
-14 3 -11 2.84692 4.40762 3
19 -4 -11 11.3176 7.165 1
-19 -4 11 5.6234 4.34772 3
19 4 -11 10.6146 7.5628 1
18 -4 -11 9.17186 6.70901 1
-18 -4 11 45.1351 7.9841 3
18 4 -11 40.1239 10.1626 1
17 -4 -11 1.99568 5.27178 1
-17 -4 11 0.65384 3.08629 3
17 4 -11 3.38314 5.54263 1
-16 -4 11 23.9598 5.7796 3
16 -4 -11 23.554 7.5597 1
16 4 -11 7.55629 5.97212 1
-15 -4 11 6.37277 3.74832 3
15 -4 -11 6.7004 5.14152 1
15 4 -11 19.6665 7.2341 1
14 -4 -11 58.6404 10.3097 1
14 4 -11 45.5392 9.7473 1
13 -4 -11 51.1845 9.369 1
13 4 -11 59.036 10.4504 1
12 -4 -11 1.71217 3.89683 1
12 4 -11 2.42338 3.90133 1
11 -4 -11 54.6895 9.3582 1
11 4 -11 38.639 8.2504 1
10 -4 -11 47.6542 8.5274 1
10 4 -11 56.4364 9.6308 1
9 -4 -11 3.10168 3.61192 1
9 4 -11 3.73874 4.34011 1
8 -4 -11 169.031 13.554 1
8 4 -11 215.913 15.103 1
7 -4 -11 25.4854 5.877 1
7 4 -11 23.4101 4.2216 2
7 4 -11 16.0922 5.3375 1
6 -4 -11 164.105 12.345 1
6 4 -11 140.815 9.539 2
6 4 -11 139.945 13.334 1
5 -4 -11 7.53007 3.83249 1
5 4 -11 9.5289 4.06559 1
5 4 -11 4.30356 2.6783 2
4 -4 -11 17.6313 4.8237 1
4 4 -11 15.1533 4.5349 1
4 4 -11 13.6561 3.941 2
3 -4 -11 54.1021 7.5349 1
3 4 -11 39.428 5.9514 2
3 4 -11 39.9236 6.5122 1
2 -4 -11 197.932 13.276 1
2 4 -11 202.833 12.649 2
2 4 -11 208.793 12.846 1
1 -4 -11 288.662 15.886 1
1 4 -11 279.888 15.088 1
1 4 -11 249.756 15.096 2
0 -4 -11 35.2714 5.4939 1
0 4 -11 36.3007 6.1939 2
0 4 -11 41.0436 5.6179 1
-1 -4 -11 148.836 9.624 1
-1 4 -11 123.726 11.552 2
-2 -4 -11 54.0294 6.2835 1
-2 4 -11 60.4518 8.0047 2
-3 -4 -11 21.2876 4.032 1
-3 4 -11 14.8649 4.7573 2
-4 -4 -11 -0.6208 2.7294 2
-4 -4 -11 -0.052 2.3503 1
-4 4 -11 2.89072 3.28081 2
-5 -4 -11 186.255 12.825 2
-5 4 -11 173.414 12.886 2
-6 -4 -11 42.9749 7.2578 2
-6 4 -11 48.2494 7.864 2
-7 -4 -11 149.971 13.56 2
-7 4 -11 166.919 14.688 2
-8 -4 -11 -2.4092 2.9621 2
-8 4 -11 3.54583 4.16475 2
-9 -4 -11 14.8644 5.1889 2
-9 4 -11 13.1475 5.0247 2
-10 -4 -11 74.4337 9.7068 2
-10 4 -11 64.6817 9.7538 2
-11 4 -11 21.7973 6.3995 2
-12 4 -11 1.19471 3.41524 3
-12 4 -11 6.58136 4.31427 2
-13 -4 -11 5.57724 4.31526 3
-13 4 -11 3.25621 4.00082 3
-13 4 -11 2.43443 4.05701 2
-14 -4 -11 -0.1331 4.2199 3
-14 4 -11 0.17096 4.39429 2
-14 4 -11 4.52495 4.71436 3
-19 -5 11 3.72139 4.12297 3
19 -5 -11 1.10567 6.54647 1
19 5 -11 6.7543 6.35413 1
-18 -5 11 4.89755 4.02313 3
18 -5 -11 -2.8661 5.1082 1
18 5 -11 -2.4588 5.2546 1
17 -5 -11 0.54815 5.38305 1
-17 -5 11 0.30666 3.88008 3
17 5 -11 8.21474 6.59608 1
16 -5 -11 18.8156 7.3565 1
-16 -5 11 15.6671 5.2211 3
16 5 -11 32.8651 9.4636 1
15 -5 -11 -1.1762 4.3884 1
15 5 -11 3.99905 5.19843 1
14 -5 -11 3.56507 4.94605 1
14 5 -11 18.2967 6.8116 1
13 -5 -11 9.07677 4.97449 1
13 5 -11 4.39759 5.15611 1
12 -5 -11 69.8679 10.6782 1
12 5 -11 45.5151 9.3954 1
11 -5 -11 47.5644 8.7576 1
11 5 -11 20.7141 6.9235 1
10 -5 -11 43.5757 8.5811 1
10 5 -11 33.1212 7.9311 1
9 -5 -11 378.425 22.981 1
9 5 -11 419.757 24.238 1
8 -5 -11 156.444 15.142 1
8 5 -11 142.2 15.04 1
7 -5 -11 130.296 13.419 1
7 5 -11 134.336 13.94 1
6 -5 -11 61.5794 8.9669 1
6 5 -11 34.8618 7.246 1
6 5 -11 48.8419 6.3555 2
5 -5 -11 3.41886 3.58508 1
5 5 -11 0.95999 2.89979 1
5 5 -11 0.90852 2.40886 2
4 -5 -11 9.34807 4.15268 1
4 5 -11 21.611 4.6398 2
4 5 -11 15.2263 4.799 1
3 -5 -11 18.2368 5.2556 1
3 5 -11 30.1641 5.4079 2
3 5 -11 34.9185 6.306 1
2 -5 -11 22.4588 5.0821 1
2 5 -11 15.0043 4.1443 2
2 5 -11 27.2968 5.4558 1
1 -5 -11 41.2498 6.1111 1
1 5 -11 39.8772 6.3695 2
1 5 -11 42.8378 6.3844 1
0 -5 -11 166.85 11.132 1
0 5 -11 187.52 12.294 2
-1 -5 -11 26.3785 4.8657 1
-1 5 -11 44.5606 6.9491 2
-2 -5 -11 92.9574 8.8097 1
-2 5 -11 58.3968 8.298 2
-3 -5 -11 32.2097 5.3387 1
-3 5 -11 40.0382 6.9309 2
-4 -5 -11 202.338 11.985 1
-4 5 -11 185.97 13.66 2
-5 -5 -11 0.95179 2.71796 1
-5 5 -11 3.18144 3.40716 2
-6 -5 -11 3.10408 3.31493 2
-6 5 -11 7.1203 3.90464 2
-7 -5 -11 17.1641 4.9897 2
-7 5 -11 6.88228 4.14254 2
-8 -5 -11 202.801 14.238 2
-8 5 -11 181.517 16.339 2
-9 -5 -11 55.7653 8.5119 2
-9 5 -11 58.0041 9.2721 2
-10 5 -11 38.3116 7.6929 2
-11 5 -11 6.59709 3.90528 3
-11 5 -11 8.03874 4.93933 2
-12 -5 -11 3.40591 3.59623 3
-12 5 -11 -4.826 3.1196 2
-12 5 -11 8.79235 4.37913 3
-13 -5 -11 0.07542 3.558 3
-13 5 -11 1.05485 4.14034 3
-13 5 -11 2.86822 4.7281 2
-14 5 -11 21.9052 6.8255 2
-18 -6 11 4.57851 4.19181 3
18 -6 -11 -1.8346 5.6882 1
18 6 -11 -4.2476 5.736 1
17 -6 -11 -3.8652 5.3895 1
17 6 -11 2.40067 6.45955 1
16 -6 -11 29.0878 8.3314 1
16 6 -11 39.3405 10.2615 1
15 -6 -11 4.99537 5.53069 1
15 6 -11 9.93914 6.54463 1
14 -6 -11 6.48257 5.00902 1
14 6 -11 4.48228 5.19275 1
13 -6 -11 2.47269 4.86925 1
13 6 -11 10.6462 5.959 1
12 -6 -11 36.9924 8.4441 1
12 6 -11 23.663 7.5125 1
11 -6 -11 2.69589 3.93978 1
11 6 -11 -1.7866 3.7467 1
10 -6 -11 93.1284 12.2366 1
10 6 -11 111.261 14.179 1
9 -6 -11 46.5657 9.102 1
9 6 -11 80.5061 11.6506 1
8 -6 -11 7.83929 4.85123 1
8 6 -11 13.9554 5.6939 1
7 -6 -11 20.156 5.9501 1
7 6 -11 4.46975 4.16357 1
6 -6 -11 117.275 13.173 1
6 6 -11 135.659 9.406 2
6 6 -11 116.306 13.081 1
5 -6 -11 -3.656 2.8845 1
5 6 -11 1.30779 2.58537 2
5 6 -11 -1.1998 3.2041 1
4 -6 -11 7.87084 4.52746 1
4 6 -11 4.33214 4.0249 1
4 6 -11 13.3047 3.9987 2
3 -6 -11 -0.0851 2.5323 1
3 6 -11 -2.7271 2.9514 1
3 6 -11 -2.4595 2.4432 2
2 -6 -11 395.238 20.441 1
2 6 -11 374.282 19.973 2
2 6 -11 416.846 21.672 1
1 -6 -11 26.7165 5.1686 1
1 6 -11 20.7223 4.9668 2
1 6 -11 26.905 5.9788 1
0 -6 -11 384.358 20.021 1
0 6 -11 407.399 21.024 2
-1 -6 -11 31.8592 5.6859 1
-1 6 -11 31.0798 6.4727 2
-2 -6 -11 23.4829 4.9359 1
-2 6 -11 18.9759 5.1259 2
-3 -6 -11 21.6501 4.9601 1
-3 6 -11 28.3184 6.188 2
-4 -6 -11 -1.2227 2.7568 1
-4 6 -11 1.49015 3.16452 2
-5 -6 -11 30.9814 5.4076 1
-5 6 -11 15.8049 5.0435 2
-6 6 -11 13.364 4.9383 2
-7 -6 -11 -0.7933 3.2283 2
-7 6 -11 -1.2157 2.7352 2
-8 -6 -11 20.1058 5.9928 2
-8 6 -11 15.0687 5.3681 2
-9 -6 -11 6.4737 4.08178 2
-9 6 -11 8.59447 4.30734 2
-10 6 -11 67.1485 9.9584 2
-11 6 -11 8.33605 5.23876 2
-12 -6 -11 -1.7465 3.3662 3
-12 6 -11 -0.7551 4.3422 2
-13 -6 -11 8.12123 4.88925 3
-13 6 -11 2.26365 4.62028 2
17 -7 -11 4.28762 6.64972 1
17 7 -11 9.97098 7.70141 1
16 -7 -11 5.33256 6.56702 1
16 7 -11 3.77536 6.63231 1
15 -7 -11 19.0778 7.8786 1
15 7 -11 19.1396 8.1972 1
14 -7 -11 7.63504 6.09663 1
14 7 -11 1.27892 5.57791 1
13 -7 -11 0.88232 4.6305 1
13 7 -11 2.89018 5.35513 1
12 -7 -11 14.9147 6.4606 1
12 7 -11 16.6202 6.363 1
11 -7 -11 27.5517 7.631 1
11 7 -11 13.9833 6.6984 1
10 -7 -11 8.42208 5.02435 1
10 7 -11 13.196 6.0443 1
9 -7 -11 0.68136 3.93247 1
9 7 -11 5.27869 4.2699 1
8 -7 -11 310.253 20.197 1
8 7 -11 258.807 19.399 1
7 -7 -11 -0.0063 3.8271 1
7 7 -11 2.96317 3.92103 1
6 -7 -11 210.721 16.072 1
6 7 -11 200.045 15.684 1
5 -7 -11 4.2485 4.10557 1
5 7 -11 6.27391 3.33247 2
5 7 -11 6.29499 4.57349 1
4 -7 -11 54.5647 8.515 1
4 7 -11 45.1465 8.4007 1
4 7 -11 47.473 6.8752 2
3 -7 -11 20.7597 5.55 1
3 7 -11 16.0484 5.3548 1
3 7 -11 19.0461 4.8857 2
2 -7 -11 57.3891 8.1565 1
2 7 -11 69.7035 9.5775 1
2 7 -11 63.294 8.134 2
1 -7 -11 61.8719 8.1267 1
1 7 -11 63.0337 8.3863 2
0 -7 -11 155.73 11.655 1
0 7 -11 171.148 12.385 2
-1 -7 -11 11.6745 4.0887 1
-1 7 -11 6.97184 4.26105 2
-2 -7 -11 8.30163 3.74096 1
-2 7 -11 15.293 4.7817 2
-3 -7 -11 -1.3709 2.6161 1
-3 7 -11 3.2419 3.37339 2
-4 -7 -11 46.2416 7.1657 1
-4 7 -11 59.6045 8.91 2
-5 -7 -11 1.55219 2.97507 1
-5 7 -11 7.89152 4.36099 2
-6 -7 -11 7.09658 3.6827 1
-6 7 -11 1.66558 3.5694 2
-7 7 -11 2.78064 3.68676 2
-8 -7 -11 51.3019 8.569 2
-8 7 -11 54.1122 8.8896 2
-9 7 -11 14.3456 5.6523 2
-10 7 -11 2.29296 4.79538 2
-11 -7 -11 3.3251 3.83916 3
-11 7 -11 6.75603 5.02651 2
-12 -7 -11 -0.3267 3.6138 3
-12 7 -11 5.22094 4.78065 2
16 -8 -11 20.4925 8.5287 1
16 8 -11 3.59138 6.31671 1
15 -8 -11 5.21878 6.25492 1
15 8 -11 7.89268 6.11356 1
14 -8 -11 18.6207 7.8606 1
14 8 -11 9.03822 6.52769 1
13 -8 -11 5.98066 5.17021 1
13 8 -11 10.8115 6.0783 1
12 -8 -11 33.2238 8.6044 1
12 8 -11 33.3524 9.0739 1
11 -8 -11 -1.1732 4.1177 1
11 8 -11 -1.8083 3.9601 1
10 -8 -11 -5.4847 3.8682 1
10 8 -11 -1.3344 4.2212 1
9 -8 -11 83.3097 12.2906 1
9 8 -11 69.0113 11.7103 1
8 -8 -11 4.3206 4.73601 1
8 8 -11 2.9057 4.72425 1
7 -8 -11 81.7542 11.9639 1
7 8 -11 83.3173 12.1183 1
6 -8 -11 71.0328 11.3261 1
6 8 -11 71.5965 11.2479 1
5 -8 -11 1.77876 3.709 1
5 8 -11 -5.003 3.09 1
4 -8 -11 2.36058 3.58396 1
4 8 -11 9.27864 4.81895 1
4 8 -11 12.8873 4.2961 2
3 -8 -11 3.27683 3.5489 1
3 8 -11 5.20045 4.77836 1
3 8 -11 7.49215 3.70469 2
2 -8 -11 72.0559 9.5594 1
2 8 -11 79.4789 9.4872 2
2 8 -11 86.0817 11.1304 1
1 -8 -11 76.9028 9.5167 1
1 8 -11 69.2956 9.1248 2
0 -8 -11 42.3107 7.1721 1
0 8 -11 51.7446 7.9424 2
-1 -8 -11 3.65497 3.32881 1
-1 8 -11 2.30203 3.95165 2
-2 -8 -11 2.09363 3.57084 1
-2 8 -11 0.78012 3.39553 2
-3 -8 -11 0.94552 3.17843 1
-3 8 -11 1.83577 3.3967 2
-4 -8 -11 9.92684 4.51591 1
-4 8 -11 16.3824 5.4124 2
-5 -8 -11 6.92124 3.67695 1
-5 8 -11 7.10988 4.63021 2
-6 -8 -11 10.7473 4.7355 1
-6 8 -11 7.61864 4.35541 2
-7 8 -11 13.4004 5.7054 2
-8 8 -11 37.6546 8.0007 2
-9 8 -11 -0.3601 4.1084 2
-10 8 -11 10.8943 5.4235 2
-11 8 -11 8.89867 5.73384 2
14 -9 -11 0.79488 6.37285 1
14 9 -11 4.40128 5.42096 1
13 -9 -11 20.4312 7.8557 1
13 9 -11 8.82945 7.0914 1
12 -9 -11 21.1975 8.3172 1
12 9 -11 5.27652 5.91892 1
11 -9 -11 -4.4652 4.6277 1
11 9 -11 4.32812 5.08339 1
10 -9 -11 37.5421 9.1613 1
10 9 -11 32.7082 9.3795 1
9 -9 -11 4.15534 5.12128 1
9 9 -11 6.77256 5.75514 1
8 -9 -11 12.2725 6.5865 1
8 9 -11 7.86931 6.01695 1
7 -9 -11 48.1541 9.8328 1
7 9 -11 57.6826 10.6794 1
6 -9 -11 82.2679 11.9768 1
6 9 -11 91.456 12.8705 1
5 -9 -11 6.8347 4.49236 1
5 9 -11 -0.9022 4.3726 1
4 -9 -11 64.7975 9.5358 1
4 9 -11 58.2141 10.1367 1
4 9 -11 50.0314 7.4652 2
3 -9 -11 11.7366 4.6317 1
3 9 -11 8.79954 5.34324 1
3 9 -11 14.1889 4.5575 2
2 -9 -11 31.1218 6.6146 1
2 9 -11 19.5042 5.2845 2
1 -9 -11 0.95769 3.49045 1
1 9 -11 -0.8226 3.2694 2
0 -9 -11 30.7957 6.7825 1
0 9 -11 31.081 6.8803 2
-1 -9 -11 0.64779 3.44846 1
-1 9 -11 5.26473 4.06071 2
-2 -9 -11 5.79275 4.24371 1
-2 9 -11 2.9939 3.66337 2
-3 -9 -11 8.00565 4.3313 1
-3 9 -11 6.74434 3.98238 2
-4 -9 -11 33.3484 7.047 1
-4 9 -11 24.5672 6.5182 2
-5 -9 -11 19.3073 5.7898 1
-5 9 -11 25.5736 6.965 2
-6 -9 -11 -0.2565 3.7962 1
-6 9 -11 -3.706 3.5306 2
-7 9 -11 24.2987 7.0392 2
-8 9 -11 14.9692 6.1614 2
-9 9 -11 9.34336 5.70363 2
12 -10 -11 -3.8657 5.0587 1
12 10 -11 0.26684 6.0086 1
11 -10 -11 8.39296 6.5397 1
11 10 -11 -1.1771 5.5547 1
10 -10 -11 34.5915 9.1894 1
10 10 -11 27.0021 8.6646 1
9 -10 -11 38.2046 9.7503 1
9 10 -11 31.4254 8.869 1
8 -10 -11 27.1723 8.6119 1
8 10 -11 20.1518 7.5226 1
7 -10 -11 -1.0613 4.3992 1
7 10 -11 7.60727 5.52003 1
6 -10 -11 9.97326 5.58267 1
6 10 -11 11.5704 6.4041 1
5 -10 -11 4.96233 4.68171 1
5 10 -11 -2.656 4.1072 1
4 -10 -11 -2.0832 3.266 1
4 10 -11 3.03998 5.11257 1
3 -10 -11 2.98361 4.0739 1
3 10 -11 7.71876 4.38205 2
3 10 -11 6.24302 5.47209 1
2 -10 -11 18.2963 6.0142 1
2 10 -11 4.87681 4.20417 2
1 -10 -11 13.6555 5.011 1
1 10 -11 16.2247 5.5304 2
0 -10 -11 13.7189 5.468 1
0 10 -11 25.5536 6.3785 2
-1 -10 -11 33.0353 7.2878 1
-1 10 -11 42.2691 7.8911 2
-2 -10 -11 0.94981 4.03435 1
-2 10 -11 -3.7158 3.6856 2
-3 -10 -11 5.13219 4.96806 1
-3 10 -11 7.46446 4.71213 2
-4 -10 -11 5.67362 4.55818 1
-4 10 -11 2.43185 4.23737 2
-5 -10 -11 5.7553 4.53305 1
-5 10 -11 5.17283 4.29297 2
-6 -10 -11 8.10703 4.99746 1
-6 10 -11 8.17197 5.45972 2
-7 -10 -11 -4.7939 4.4391 1
-7 10 -11 1.29334 4.64688 2
10 -11 -11 4.52936 6.39394 1
10 11 -11 3.60497 6.69343 1
9 -11 -11 -1.788 5.4138 1
9 11 -11 5.12509 6.70903 1
8 -11 -11 -0.6607 5.3815 1
8 11 -11 0.88181 5.0318 1
7 -11 -11 3.88254 5.71077 1
7 11 -11 7.01732 6.4576 1
6 -11 -11 3.10089 5.13117 1
6 11 -11 10.3474 6.2653 1
5 -11 -11 1.31272 4.24578 1
5 11 -11 -1.3843 5.1202 1
4 -11 -11 9.06036 5.47913 1
4 11 -11 4.12827 5.14153 1
3 -11 -11 35.3924 7.5531 1
2 -11 -11 11.9059 5.5901 1
2 11 -11 8.06459 4.89192 2
1 -11 -11 1.55224 3.92503 1
1 11 -11 0.91157 4.52798 2
0 -11 -11 1.54579 4.17601 1
0 11 -11 -0.3576 4.0743 2
-1 -11 -11 6.35334 5.0726 1
-1 11 -11 15.915 6.3651 2
-2 -11 -11 1.36506 4.54492 1
-2 11 -11 -5.4881 3.7154 2
-3 -11 -11 15.1276 5.8258 1
-3 11 -11 7.54163 4.96011 2
-4 -11 -11 0.04706 4.56185 1
-4 11 -11 2.93395 5.08639 2
-5 11 -11 1.11151 4.49948 2
5 12 -11 -7.1346 4.8367 1
4 -12 -11 7.25874 5.06403 1
3 -12 -11 -0.2942 4.3749 1
2 -12 -11 -0.0129 4.5267 1
1 -12 -11 -1.6406 4.3804 1
1 12 -11 -4.4055 4.3469 2
0 12 -11 9.26953 6.00729 2
20 0 -12 2.59537 6.81469 1
-20 0 12 5.48744 5.0478 3
19 0 -12 1.89186 6.07607 1
-19 0 12 1.67475 4.00354 3
-18 0 12 8.49706 4.70028 3
18 0 -12 4.89668 5.25574 1
17 0 -12 2.02296 4.90534 1
-17 0 12 -0.5873 3.049 3
16 0 -12 131.304 15.942 1
15 0 -12 -0.8688 3.8322 1
14 0 -12 3.79097 3.98821 1
13 0 -12 -3.3458 3.2785 1
12 0 -12 0.38976 3.60534 1
11 0 -12 -1.5167 3.5191 1
10 0 -12 183.114 14.287 1
9 0 -12 6.59001 4.1198 1
9 0 -12 0.61101 2.18586 2
7 0 -12 1.53537 2.30909 2
7 0 -12 -1.1792 2.8204 1
6 0 -12 51.8202 7.6352 1
6 0 -12 35.4041 5.3816 2
5 0 -12 -2.1676 2.0116 1
5 0 -12 -0.8041 1.9925 2
4 0 -12 81.2111 8.996 1
4 0 -12 97.2187 9.1679 2
3 0 -12 0.79123 2.00478 2
3 0 -12 5.23153 2.87821 1
2 0 -12 2.3049 2.71667 1
2 0 -12 0.51896 2.25798 2
1 0 -12 -1.0112 2.1009 1
1 0 -12 -0.8163 1.9692 2
0 0 -12 227.05 12.262 1
0 0 -12 211.335 13.277 2
-1 0 -12 2.37966 2.54463 2
-1 0 -12 -1.0977 2.0604 1
-2 0 -12 114.582 10.903 2
-3 0 -12 0.96974 2.45089 2
-4 0 -12 0.58911 2.40244 2
-5 0 -12 -3.0898 2.1553 2
-6 0 -12 74.0001 9.5674 2
-7 0 -12 -2.158 2.7025 2
-8 0 -12 35.9388 7.0224 2
-9 0 -12 -1.0578 3.2219 2
-10 0 -12 215.986 15.317 2
-11 0 -12 -1.0523 3.1709 2
-12 0 -12 8.16429 4.74745 2
-13 0 -12 1.55905 3.76654 3
-14 0 -12 20.4821 6.2568 3
20 -1 -12 5.64354 6.42684 1
-20 -1 12 12.2984 5.3979 3
-20 1 12 1.95725 4.77246 3
20 1 -12 10.2318 7.3114 1
19 -1 -12 13.3849 7.4199 1
-19 -1 12 6.01363 4.20935 3
-19 1 12 7.80451 5.13159 3
19 1 -12 -1.9126 5.2898 1
18 -1 -12 -2.2675 5.0821 1
-18 -1 12 0.89058 3.13099 3
18 1 -12 -5.9291 4.5048 1
-18 1 12 -2.206 3.6032 3
17 -1 -12 2.11041 4.74382 1
-17 -1 12 3.07565 3.80106 3
17 1 -12 -1.6631 4.692 1
16 -1 -12 9.74343 5.67839 1
16 1 -12 24.2657 7.5644 1
15 -1 -12 9.71886 5.07614 1
15 1 -12 4.71889 4.91239 1
14 -1 -12 141.885 15.378 1
14 1 -12 115.982 14.436 1
13 -1 -12 2.02626 3.86749 1
13 1 -12 1.38613 4.49833 1
12 -1 -12 -3.8241 3.461 1
12 1 -12 -0.7176 3.7671 1
11 -1 -12 5.77873 4.16677 1
11 1 -12 7.92386 4.36021 1
10 -1 -12 292.479 19.238 1
10 1 -12 334.448 20.076 1
9 1 -12 160.474 12.919 1
9 1 -12 166.79 10.085 2
8 -1 -12 15.6297 4.9691 1
8 1 -12 22.6852 4.2829 2
8 1 -12 21.9215 5.4837 1
7 -1 -12 34.4726 6.5437 1
7 1 -12 32.8348 6.2417 1
6 -1 -12 242.002 14.587 1
6 1 -12 217.131 12.413 2
6 1 -12 201.83 13.803 1
5 -1 -12 11.9387 3.9854 1
5 1 -12 5.19473 2.59829 2
5 1 -12 4.35621 3.12153 1
4 -1 -12 284.175 15.882 1
4 -1 -12 261.163 14.791 2
4 1 -12 286.808 15.765 1
4 1 -12 276.075 14.896 2
3 -1 -12 11.7749 3.5887 2
3 -1 -12 8.78906 3.49381 1
3 1 -12 11.9274 3.6315 2
3 1 -12 8.42383 3.43328 1
2 -1 -12 124.356 9.469 1
2 -1 -12 111.865 10.633 2
2 1 -12 165.456 10.091 1
2 1 -12 137.126 9.846 2
1 -1 -12 18.5248 4.2958 1
1 -1 -12 17.2484 4.5006 2
1 1 -12 28.3943 4.733 1
1 1 -12 31.5253 5.6113 2
0 -1 -12 127.819 9.957 2
0 -1 -12 154.613 9.746 1
0 1 -12 151.554 10.554 2
0 1 -12 138.402 9.081 1
-1 -1 -12 13.7355 3.5482 1
-1 -1 -12 14.6919 4.0953 2
-1 1 -12 11.6743 3.8665 2
-2 -1 -12 -1.8924 1.878 2
-2 1 -12 -1.7325 2.1412 2
-3 -1 -12 2.79158 2.5949 2
-3 1 -12 5.58996 3.21281 2
-4 -1 -12 127.939 11.84 2
-4 1 -12 100.134 10.729 2
-5 -1 -12 86.6391 9.9486 2
-5 1 -12 77.5995 9.5491 2
-6 -1 -12 139.226 13.252 2
-6 1 -12 160.922 12.219 2
-7 -1 -12 43.2798 7.3837 2
-7 1 -12 35.6511 6.9364 2
-8 -1 -12 4.26443 3.70193 2
-8 1 -12 6.10937 3.49348 2
-9 -1 -12 16.3785 5.2046 2
-9 1 -12 23.5916 6.1227 2
-10 -1 -12 2.37544 4.13307 2
-10 1 -12 2.00457 3.70382 2
-11 -1 -12 12.3609 5.0724 2
-11 1 -12 9.28179 4.7311 2
-12 -1 -12 7.35615 5.07824 2
-12 1 -12 24.5209 6.3877 2
-13 -1 -12 2.39644 4.25415 3
-13 1 -12 5.20423 4.41301 3
-13 1 -12 0.2878 4.4154 2
-14 -1 -12 10.0983 5.2629 3
-14 1 -12 -1.156 4.0991 3
-20 -2 12 -2.2911 3.5417 3
20 -2 -12 1.4663 6.83973 1
20 2 -12 -2.2082 5.9434 1
-20 2 12 -1.9683 4.4579 3
19 -2 -12 3.83929 5.99276 1
-19 -2 12 0.58971 3.06821 3
19 2 -12 7.3481 6.29319 1
-18 -2 12 0.71739 2.99027 3
18 -2 -12 -1.8291 5.1834 1
18 2 -12 -0.841 5.218 1
-17 -2 12 15.6764 5.3994 3
17 -2 -12 10.8147 6.2506 1
17 2 -12 13.7723 6.3433 1
16 -2 -12 15.817 6.4228 1
16 2 -12 23.8121 7.4494 1
15 -2 -12 60.6692 10.8465 1
15 2 -12 69.3577 11.6734 1
14 -2 -12 37.85 8.4614 1
14 2 -12 32.8314 8.0998 1
13 -2 -12 2.3457 4.0668 1
13 2 -12 1.72947 3.66908 1
12 -2 -12 7.16629 4.24463 1
12 2 -12 1.96597 4.07159 1
11 -2 -12 17.3546 5.8328 1
11 2 -12 20.7684 6.5657 1
10 -2 -12 0.75355 3.09822 1
10 2 -12 3.70976 3.94001 1
9 -2 -12 17.8864 5.3013 1
9 2 -12 22.6027 6.0058 1
8 -2 -12 54.8544 8.4178 1
8 2 -12 45.0659 5.8725 2
8 2 -12 30.6913 6.6107 1
7 -2 -12 7.21706 3.69637 1
7 2 -12 9.34935 3.36642 2
7 2 -12 8.30013 4.08083 1
6 -2 -12 318.71 18.175 1
6 2 -12 299.627 15.632 2
6 2 -12 310.48 17.934 1
5 -2 -12 18.6653 4.9765 1
5 2 -12 27.7816 5.5843 1
5 2 -12 19.7918 4.2932 2
4 -2 -12 85.6005 9.4256 1
4 2 -12 91.5169 9.5687 1
4 2 -12 94.7779 9.0146 2
3 -2 -12 25.2282 5.2057 1
3 2 -12 22.5603 4.6659 1
3 2 -12 36.1306 5.7712 2
2 -2 -12 19.1442 4.6995 1
2 2 -12 13.6916 3.8931 2
2 2 -12 20.1691 4.1458 1
1 -2 -12 385.553 18.758 1
1 -2 -12 363.67 18.865 2
1 2 -12 351.872 18.669 2
1 2 -12 355.011 17.63 1
0 -2 -12 28.8793 5.1056 1
0 -2 -12 34.2867 5.9457 2
0 2 -12 36.8436 5.1362 1
0 2 -12 29.0714 5.6117 2
-1 -2 -12 -0.1627 2.4642 1
-1 -2 -12 0.87427 2.31569 2
-1 2 -12 -0.7395 2.0438 2
-2 -2 -12 6.6255 3.05473 1
-2 -2 -12 10.86 3.6812 2
-2 2 -12 6.50786 3.30995 2
-3 -2 -12 49.6792 7.3108 2
-3 2 -12 46.8442 7.3143 2
-4 -2 -12 10.0262 3.863 2
-4 2 -12 19.0023 4.9521 2
-5 -2 -12 55.9713 7.904 2
-5 2 -12 47.4047 7.7176 2
-6 -2 -12 4.82378 3.31432 2
-6 2 -12 1.51742 2.94095 2
-7 -2 -12 59.7711 8.3938 2
-7 2 -12 42.3673 7.6765 2
-8 -2 -12 9.99831 4.2593 2
-8 2 -12 20.5291 5.5272 2
-9 -2 -12 0.94356 3.05664 2
-9 2 -12 14.3336 5.2532 2
-10 -2 -12 106.852 11.722 2
-10 2 -12 107.726 12.264 2
-11 -2 -12 1.20083 3.80127 2
-11 2 -12 10.4523 5.0626 2
-12 2 -12 -1.3947 3.6288 2
-13 -2 -12 31.7525 7.0126 3
-13 2 -12 40.6546 7.7375 3
-13 2 -12 47.4146 8.585 2
-14 -2 -12 8.69784 4.8551 3
-14 2 -12 14.1654 5.4933 3
-19 -3 12 4.11419 3.85426 3
19 -3 -12 -3.0568 5.3609 1
19 3 -12 -1.5105 6.2204 1
-18 -3 12 12.0916 5.1474 3
18 -3 -12 18.0331 7.3386 1
18 3 -12 8.10639 6.47038 1
17 -3 -12 8.79933 6.00683 1
17 3 -12 -0.5578 5.234 1
16 -3 -12 0.14501 5.29216 1
16 3 -12 2.60037 4.98983 1
15 -3 -12 -3.5441 4.221 1
15 3 -12 1.35591 4.11406 1
14 -3 -12 6.05619 4.7865 1
14 3 -12 -1.7256 3.7506 1
13 -3 -12 43.9272 8.9819 1
13 3 -12 27.605 7.4543 1
12 -3 -12 6.3174 4.57289 1
12 3 -12 4.4209 4.34675 1
11 -3 -12 5.75685 4.41555 1
11 3 -12 17.6168 5.9836 1
10 -3 -12 6.96068 4.35036 1
10 3 -12 16.3555 5.6183 1
9 -3 -12 4.62212 3.9715 1
9 3 -12 2.99911 3.82435 1
8 -3 -12 148.861 14.407 1
8 3 -12 163.463 12.789 1
7 -3 -12 76.1118 9.9357 1
7 3 -12 109.7 11.68 1
7 3 -12 107.716 9.165 2
6 -3 -12 -0.0217 2.9777 1
6 3 -12 1.86072 3.21868 1
6 3 -12 0.98171 1.98292 2
5 -3 -12 57.2995 8.1934 1
5 3 -12 45.1673 6.2489 2
5 3 -12 39.3602 6.7696 1
4 -3 -12 84.4378 9.5429 1
4 3 -12 79.0343 8.3255 2
4 3 -12 89.627 9.5836 1
3 -3 -12 286.12 16.817 1
3 3 -12 280.795 15.806 2
3 3 -12 309.868 16.564 1
2 -3 -12 228.146 13.863 1
2 3 -12 195.91 12.744 1
2 3 -12 225.923 13.474 2
1 -3 -12 25.3409 5.3475 1
1 3 -12 17.0472 4.65 2
1 3 -12 37.2642 5.6057 1
0 -3 -12 46.4702 6.6294 1
0 3 -12 48.7074 7.0732 2
-1 3 -12 273.071 15.929 2
-2 -3 -12 2.69 2.85385 1
-2 -3 -12 0.61208 2.55827 2
-2 3 -12 10.9972 3.8997 2
-3 -3 -12 8.68003 3.35268 1
-3 -3 -12 7.74976 3.80361 2
-3 3 -12 7.30603 3.59789 2
-4 -3 -12 138.001 12.545 2
-4 3 -12 90.3144 10.5937 2
-5 -3 -12 142.188 13.241 2
-5 3 -12 132.27 12.949 2
-6 -3 -12 74.3929 9.7119 2
-6 3 -12 81.435 10.0933 2
-7 -3 -12 5.88442 3.64883 2
-7 3 -12 8.23301 4.28753 2
-8 -3 -12 3.61081 3.7526 2
-8 3 -12 6.14965 3.82138 2
-9 -3 -12 20.4528 5.357 2
-9 3 -12 35.6334 7.3558 2
-10 -3 -12 13.6174 4.9635 2
-10 3 -12 12.681 5.4376 2
-11 -3 -12 10.4949 4.849 2
-11 3 -12 15.8728 5.53 2
-12 3 -12 7.95243 4.95589 2
-13 -3 -12 3.47614 3.76193 3
-13 3 -12 16.4233 5.6108 3
-13 3 -12 16.3399 6.3658 2
-14 -3 -12 4.34453 4.07274 3
-14 3 -12 1.67929 4.79394 2
-14 3 -12 -5.2705 3.5936 3
19 -4 -12 13.1725 7.7999 1
-19 -4 12 10.4938 5.2683 3
19 4 -12 12.0841 7.8554 1
18 -4 -12 13.1806 7.4898 1
18 4 -12 -2.481 6.0006 1
17 -4 -12 -1.4066 4.7899 1
17 4 -12 -1.809 5.1565 1
16 -4 -12 24.9884 7.9377 1
16 4 -12 16.0768 7.0731 1
15 -4 -12 -3.739 4.123 1
15 4 -12 -0.3456 4.7426 1
14 -4 -12 12.8651 5.9499 1
14 4 -12 13.5889 6.1453 1
13 -4 -12 5.45835 4.63962 1
13 4 -12 13.2429 6.5055 1
12 -4 -12 -6.8517 2.6208 1
12 4 -12 -0.8026 4.2575 1
11 -4 -12 75.3428 11.1176 1
11 4 -12 71.7419 11.3496 1
10 -4 -12 4.68627 4.03932 1
10 4 -12 1.68106 4.15215 1
9 -4 -12 1.47187 3.38857 1
9 4 -12 0.09116 3.85112 1
8 -4 -12 13.9241 4.8747 1
8 4 -12 17.2893 5.7331 1
7 -4 -12 7.07994 3.83112 1
7 4 -12 16.9559 4.2258 2
7 4 -12 13.8694 5.0243 1
6 -4 -12 153.368 12.302 1
6 4 -12 158.671 12.651 1
5 -4 -12 72.8848 9.5351 1
5 4 -12 49.5375 7.9666 1
5 4 -12 81.4804 8.3919 2
4 -4 -12 3.52123 3.22628 1
4 4 -12 2.77323 2.94864 2
4 4 -12 2.44363 3.08069 1
3 -4 -12 41.8007 6.8899 1
3 4 -12 33.3268 6.0675 1
3 4 -12 26.9972 5.5844 2
2 -4 -12 -0.6318 3.0591 1
2 4 -12 4.14456 3.17852 2
2 4 -12 -2.2275 2.4475 1
1 -4 -12 580.453 26.994 1
1 4 -12 578.385 25.714 1
1 4 -12 506.165 25.588 2
0 -4 -12 -0.5501 2.6266 1
0 4 -12 5.73518 3.41717 2
-1 -4 -12 0.19844 2.60303 1
-1 4 -12 -0.8077 2.3449 2
-2 -4 -12 66.2611 7.5012 1
-2 4 -12 62.7113 8.6102 2
-3 -4 -12 227.536 12.951 1
-3 4 -12 249.042 15.645 2
-4 -4 -12 79.3921 9.5853 2
-4 4 -12 50.8622 7.9453 2
-5 -4 -12 3.31083 3.26535 2
-5 4 -12 0.11426 3.25228 2
-6 -4 -12 5.73014 3.45588 2
-6 4 -12 -1.7136 2.9684 2
-7 -4 -12 21.9186 5.506 2
-7 4 -12 29.6992 6.4682 2
-8 -4 -12 39.683 7.7789 2
-8 4 -12 38.1984 7.5383 2
-9 -4 -12 -0.7486 3.2798 2
-9 4 -12 2.3073 3.74388 2
-10 -4 -12 27.117 6.5131 2
-10 4 -12 15.7602 5.9237 2
-11 4 -12 1.36767 4.19122 2
-12 4 -12 18.7958 5.3332 3
-12 4 -12 15.8328 6.1479 2
-13 -4 -12 9.7243 4.89184 3
-13 4 -12 4.65209 4.77157 3
-13 4 -12 14.9608 5.7651 2
18 -5 -12 33.9822 9.2727 1
18 5 -12 22.3922 9.0148 1
17 -5 -12 7.66002 6.2866 1
17 5 -12 0.98482 5.50222 1
16 -5 -12 4.63691 5.74401 1
16 5 -12 9.83255 6.33044 1
15 -5 -12 6.81281 5.63875 1
15 5 -12 -2.3176 4.5314 1
14 -5 -12 1.51948 5.44464 1
14 5 -12 5.4611 5.81934 1
13 -5 -12 63.7098 11.0717 1
13 5 -12 52.3018 10.4626 1
12 -5 -12 94.4559 12.8959 1
12 5 -12 106.729 14.241 1
11 -5 -12 4.99703 4.22437 1
11 5 -12 3.28967 4.83737 1
10 -5 -12 1.52791 3.74218 1
10 5 -12 1.29631 4.32766 1
9 -5 -12 144.356 14.981 1
9 5 -12 142.792 15.462 1
8 -5 -12 55.8979 9.2787 1
8 5 -12 47.9461 8.9209 1
7 -5 -12 42.8009 8.2315 1
7 5 -12 45.3642 8.5265 1
6 -5 -12 5.92421 4.13743 1
6 5 -12 -1.1591 2.049 2
6 5 -12 4.21581 4.06843 1
5 -5 -12 3.89863 3.82695 1
5 5 -12 2.78063 3.08593 2
5 5 -12 5.28951 4.13447 1
4 -5 -12 186.608 13.727 1
4 5 -12 157.303 11.219 2
4 5 -12 165.479 12.774 1
3 -5 -12 40.115 7.4191 1
3 5 -12 33.6666 6.6253 1
3 5 -12 30.4263 5.8223 2
2 -5 -12 276.475 17.35 1
2 5 -12 296.46 16.806 1
2 5 -12 279.758 16.275 2
1 -5 -12 126.474 11.655 1
1 5 -12 86.4138 9.8453 2
0 -5 -12 6.98292 3.28655 1
0 5 -12 0.99012 3.15285 2
-1 -5 -12 97.7297 9.408 1
-1 5 -12 85.2385 10.0511 2
-2 -5 -12 76.5866 8.2049 1
-2 5 -12 68.8816 8.9746 2
-3 -5 -12 4.43948 3.0296 1
-3 5 -12 7.0845 3.9095 2
-4 -5 -12 100.296 9.444 1
-4 5 -12 100.779 11.532 2
-5 -5 -12 2.32165 3.63807 2
-5 5 -12 -1.4776 3.1462 2
-6 -5 -12 72.8449 9.7458 2
-6 5 -12 57.4489 9.0754 2
-7 -5 -12 4.59559 3.96486 2
-7 5 -12 1.75577 3.71435 2
-8 -5 -12 -4.0742 2.9098 2
-8 5 -12 0.31071 3.85682 2
-9 -5 -12 4.09928 4.0001 2
-9 5 -12 2.32029 4.23562 2
-10 5 -12 -4.2722 3.3504 2
-11 5 -12 7.76329 4.08945 3
-11 5 -12 1.06863 4.14832 2
-12 5 -12 15.4606 5.3099 3
-12 5 -12 7.2581 5.35632 2
-13 -5 -12 -2.5796 3.6469 3
-13 5 -12 3.93334 4.84248 2
-13 5 -12 -5.0638 3.5841 3
17 -6 -12 -2.8329 5.5477 1
17 6 -12 5.12117 6.67327 1
16 -6 -12 12.8973 7.0468 1
16 6 -12 12.8475 7.98 1
15 -6 -12 -0.878 4.5965 1
15 6 -12 -5.8068 5.0187 1
14 -6 -12 24.2344 7.4743 1
14 6 -12 21.5324 7.7315 1
13 -6 -12 4.28335 5.16384 1
13 6 -12 7.33072 5.73328 1
12 -6 -12 75.3493 11.9345 1
12 6 -12 90.3982 13.7542 1
11 -6 -12 5.15262 5.24149 1
11 6 -12 7.8599 5.59833 1
10 -6 -12 0.95071 3.61146 1
10 6 -12 2.55483 4.49705 1
9 -6 -12 128.605 14.814 1
9 6 -12 158.79 16.925 1
8 -6 -12 400.582 23.893 1
8 6 -12 390.35 24.14 1
7 -6 -12 321.812 20.322 1
7 6 -12 280.91 19.352 1
6 -6 -12 10.0424 4.7066 1
6 6 -12 1.52613 2.10584 2
6 6 -12 9.06814 4.68571 1
5 -6 -12 14.4135 5.4573 1
5 6 -12 12.4984 4.1308 2
5 6 -12 10.692 4.8875 1
4 -6 -12 23.8241 6.1515 1
4 6 -12 16.2212 5.6732 1
4 6 -12 14.843 4.3755 2
3 -6 -12 -2.0183 2.8266 1
3 6 -12 1.79285 3.7291 1
3 6 -12 1.54725 3.00115 2
2 -6 -12 127.043 12.3 1
2 6 -12 106.992 10.973 2
2 6 -12 114.66 11.945 1
1 -6 -12 48.1912 7.1767 1
1 6 -12 46.8278 7.4194 2
0 -6 -12 68.1525 8.4354 1
0 6 -12 75.5078 9.5202 2
-1 -6 -12 5.13099 3.21881 1
-1 6 -12 9.46696 4.43144 2
-2 -6 -12 278.152 15.222 1
-2 6 -12 211.796 15.384 2
-3 -6 -12 0.2003 2.97233 1
-3 6 -12 -1.5565 2.662 2
-4 -6 -12 13.8769 4.3338 1
-4 6 -12 11.1655 5.0525 2
-5 6 -12 1.92578 3.40881 2
-6 -6 -12 25.9774 6.4567 2
-6 6 -12 21.1649 5.9602 2
-7 -6 -12 4.8086 3.76505 2
-7 6 -12 5.96389 4.3166 2
-8 -6 -12 -1.9051 3.4572 2
-8 6 -12 5.34499 4.08135 2
-9 -6 -12 4.69647 3.91588 2
-9 6 -12 3.30824 4.17798 2
-10 6 -12 1.59648 3.74225 2
-11 6 -12 5.08622 4.52418 2
-12 -6 -12 24.146 6.2239 3
-12 6 -12 19.9028 6.769 2
16 -7 -12 11.0461 7.4151 1
16 7 -12 16.1235 8.3989 1
15 -7 -12 7.69043 6.22548 1
15 7 -12 -0.9257 4.9664 1
14 -7 -12 18.3489 8.0471 1
14 7 -12 44.91 10.656 1
13 -7 -12 0.693 4.89065 1
13 7 -12 5.66737 5.76193 1
12 -7 -12 54.834 10.2483 1
12 7 -12 53.9081 10.7578 1
11 -7 -12 10.0836 5.9325 1
11 7 -12 8.2297 5.44433 1
10 -7 -12 15.8795 6.797 1
10 7 -12 21.7908 6.8005 1
9 -7 -12 0.92207 4.13069 1
9 7 -12 3.74061 4.47453 1
8 -7 -12 37.6128 8.42 1
8 7 -12 20.5321 6.5367 1
7 -7 -12 5.7973 4.69505 1
7 7 -12 1.00617 4.30234 1
6 -7 -12 0.88197 3.93231 1
6 7 -12 10.9221 4.9737 1
5 -7 -12 0.53605 3.92729 1
5 7 -12 10.3675 4.8337 1
5 7 -12 6.76827 3.65589 2
4 -7 -12 -1.1793 3.6086 1
4 7 -12 0.9451 3.16345 1
4 7 -12 0.45146 2.854 2
3 -7 -12 21.0484 5.7954 1
3 7 -12 37.393 7.4673 1
3 7 -12 41.2035 6.7997 2
2 -7 -12 124.59 12.251 1
2 7 -12 107.344 11.063 2
1 -7 -12 4.13884 3.72124 1
1 7 -12 7.23733 3.88226 2
0 -7 -12 2.3066 3.07001 1
0 7 -12 1.72006 3.44643 2
-1 -7 -12 4.62654 3.52111 1
-1 7 -12 5.75848 3.95296 2
-2 -7 -12 -0.1593 2.8101 1
-2 7 -12 0.39967 3.35319 2
-3 -7 -12 16.0081 4.6838 1
-3 7 -12 23.9141 6.0805 2
-4 -7 -12 3.03109 3.22013 1
-4 7 -12 2.70608 3.71102 2
-5 -7 -12 -0.6913 3.3654 1
-5 7 -12 -1.5434 2.9797 2
-6 7 -12 52.228 8.9418 2
-7 -7 -12 5.32794 4.33511 2
-7 7 -12 2.3365 3.6924 2
-8 -7 -12 42.3709 8.2027 2
-8 7 -12 30.2469 7.1542 2
-9 7 -12 -2.5779 3.7915 2
-10 7 -12 0.42433 4.4316 2
-11 -7 -12 0.08634 3.64306 3
-11 7 -12 -0.2832 4.567 2
15 -8 -12 0.87498 6.13763 1
15 8 -12 6.34851 6.32219 1
14 -8 -12 24.7682 8.1657 1
14 8 -12 20.9498 8.4126 1
13 -8 -12 3.1292 6.3437 1
13 8 -12 3.49125 5.70718 1
12 -8 -12 5.39315 6.19628 1
12 8 -12 12.4432 6.6082 1
11 -8 -12 -0.5931 4.9174 1
11 8 -12 4.09068 5.05647 1
10 -8 -12 2.95037 5.19291 1
10 8 -12 9.21589 5.61652 1
9 -8 -12 18.2844 6.7846 1
9 8 -12 15.5615 6.8716 1
8 -8 -12 54.1516 10.1414 1
8 8 -12 68.8918 11.3911 1
7 -8 -12 3.75627 4.53779 1
7 8 -12 9.0378 5.44515 1
6 -8 -12 1.9795 4.45556 1
6 8 -12 5.5898 4.91608 1
5 -8 -12 40.7139 8.4103 1
5 8 -12 45.1462 8.9788 1
4 -8 -12 29.7986 7.0269 1
4 8 -12 27.3883 5.7964 2
4 8 -12 17.3853 6.3326 1
3 -8 -12 6.37828 4.0358 1
3 8 -12 2.47379 3.32347 2
3 8 -12 3.16717 4.1435 1
2 -8 -12 9.3547 4.09592 1
2 8 -12 10.6926 4.6182 2
1 -8 -12 6.73034 3.9817 1
1 8 -12 5.26681 3.95633 2
0 -8 -12 4.4552 3.99598 1
0 8 -12 6.57948 4.19523 2
-1 -8 -12 4.47544 3.40418 1
-1 8 -12 2.75777 3.46861 2
-2 -8 -12 108.009 11.57 1
-2 8 -12 91.5741 11.2752 2
-3 -8 -12 1.15884 3.45538 1
-3 8 -12 7.73085 4.59585 2
-4 -8 -12 -4.6139 2.837 1
-4 8 -12 -1.4194 3.2092 2
-5 -8 -12 12.3896 4.8744 1
-5 8 -12 5.83441 4.83899 2
-6 8 -12 23.8251 6.6802 2
-7 8 -12 1.95574 4.18291 2
-8 8 -12 4.418 4.86711 2
-9 8 -12 21.1394 6.8147 2
-10 8 -12 6.11403 5.78981 2
14 -9 -12 1.40305 6.54952 1
14 9 -12 8.65462 7.5474 1
13 -9 -12 51.0573 11.2587 1
13 9 -12 38.2324 10.3625 1
12 -9 -12 16.4691 7.8502 1
12 9 -12 18.1131 7.6302 1
11 -9 -12 -3.9371 4.9097 1
11 9 -12 6.18531 5.76509 1
10 -9 -12 -6.5022 4.76 1
10 9 -12 -1.1102 4.9516 1
9 -9 -12 29.7607 8.4104 1
9 9 -12 18.9832 7.4728 1
8 -9 -12 1.57659 5.11567 1
8 9 -12 1.89945 4.84048 1
7 -9 -12 9.50594 5.7808 1
7 9 -12 11.3903 6.1313 1
6 -9 -12 0.80216 4.58412 1
6 9 -12 6.54669 4.90233 1
5 -9 -12 0.15616 3.58161 1
5 9 -12 -0.5007 4.1216 1
4 -9 -12 17.1079 5.6465 1
4 9 -12 21.6076 7.1215 1
4 9 -12 22.1412 5.628 2
3 -9 -12 0.92655 3.68562 1
3 9 -12 4.05584 3.80696 2
2 -9 -12 96.5031 11.6046 1
2 9 -12 81.564 10.4258 2
1 -9 -12 0.85767 3.4883 1
1 9 -12 -0.756 3.4995 2
0 -9 -12 -1.7302 3.1382 1
0 9 -12 3.01661 3.79321 2
-1 -9 -12 33.8275 7.1986 1
-1 9 -12 33.6859 7.5481 2
-2 -9 -12 3.1305 3.72147 1
-2 9 -12 2.73572 3.73467 2
-3 -9 -12 0.79205 3.73719 1
-3 9 -12 -2.1197 3.3339 2
-4 -9 -12 4.57616 3.93018 1
-4 9 -12 2.52786 4.22439 2
-5 -9 -12 9.23378 4.7301 1
-5 9 -12 13.0299 5.5472 2
-6 9 -12 6.59555 5.15521 2
-7 9 -12 7.94784 5.47274 2
-8 9 -12 27.675 7.7656 2
12 10 -12 -1.283 5.9264 1
11 -10 -12 12.6828 7.017 1
11 10 -12 4.61864 6.33682 1
10 -10 -12 3.26096 6.00298 1
10 10 -12 5.42289 6.1611 1
9 -10 -12 27.1284 8.7658 1
9 10 -12 15.1387 7.1749 1
8 -10 -12 -2.9399 5.352 1
8 10 -12 3.66184 5.79868 1
7 -10 -12 -0.8448 4.7506 1
7 10 -12 7.76893 5.80625 1
6 -10 -12 5.87419 5.84426 1
6 10 -12 9.0573 6.10216 1
5 -10 -12 6.2461 4.90822 1
5 10 -12 8.16673 5.72329 1
4 -10 -12 6.61509 4.54743 1
4 10 -12 1.36417 4.98021 1
3 -10 -12 -2.3927 3.204 1
3 10 -12 -0.1004 3.8911 2
2 -10 -12 -2.6838 3.3515 1
2 10 -12 1.17581 3.64799 2
1 -10 -12 5.92533 4.7573 1
1 10 -12 8.56624 5.1342 2
0 -10 -12 -3.2729 3.5811 1
0 10 -12 -2.0892 3.4741 2
-1 -10 -12 6.20657 4.32373 1
-1 10 -12 4.40331 4.09547 2
-2 -10 -12 8.08102 4.78971 1
-2 10 -12 -0.3414 4.382 2
-3 -10 -12 14.8297 5.658 1
-3 10 -12 9.42487 4.94727 2
-4 -10 -12 1.57748 4.36688 1
-4 10 -12 6.35408 4.74731 2
-5 -10 -12 8.939 5.23621 1
-5 10 -12 0.76057 4.49545 2
-6 -10 -12 3.35379 4.76935 1
-6 10 -12 9.57661 5.18465 2
9 11 -12 2.81451 6.46761 1
8 -11 -12 4.69617 5.88956 1
8 11 -12 0.20786 6.11627 1
7 -11 -12 12.8422 6.9661 1
7 11 -12 -1.0784 5.5602 1
6 -11 -12 7.9789 5.92432 1
6 11 -12 5.06674 6.22883 1
5 -11 -12 3.82876 5.10079 1
5 11 -12 -0.7693 5.207 1
4 -11 -12 -1.3792 4.153 1
3 -11 -12 -1.3439 4.0055 1
2 -11 -12 5.83109 4.52892 1
2 11 -12 1.83205 4.43255 2
1 -11 -12 5.1934 4.934 1
1 11 -12 3.10225 4.30126 2
0 -11 -12 23.841 6.8348 1
0 11 -12 19.8584 6.443 2
-1 -11 -12 35.0192 8.0762 1
-1 11 -12 41.4335 8.5092 2
-2 -11 -12 1.90008 4.58121 1
-2 11 -12 3.89211 4.7625 2
-3 -11 -12 4.14943 4.75256 1
-3 11 -12 2.26663 4.38173 2
20 0 -13 4.59653 6.61467 1
19 0 -13 1.32763 5.68561 1
18 0 -13 15.2236 6.5691 1
17 0 -13 -1.9272 5.0616 1
16 0 -13 11.9298 6.1916 1
15 0 -13 5.49826 4.95876 1
14 0 -13 5.43759 5.22573 1
13 0 -13 -1.7882 3.4155 1
12 0 -13 99.6767 12.5888 1
11 0 -13 0.84184 3.255 1
9 0 -13 0.37661 2.5885 2
9 0 -13 -3.2506 2.5353 1
8 0 -13 0.76838 3.0262 1
8 0 -13 1.94326 2.57086 2
7 0 -13 1.38366 2.52267 2
7 0 -13 0.82369 2.99306 1
6 0 -13 133.633 12.786 1
6 0 -13 145.868 10.011 2
5 0 -13 0.39592 2.25663 2
5 0 -13 -0.0656 2.7928 1
4 0 -13 21.7852 5.0049 1
4 0 -13 22.1608 4.5768 2
3 0 -13 -3.5995 1.7583 2
3 0 -13 -0.9364 2.1276 1
2 0 -13 -0.3687 2.1816 2
2 0 -13 2.68403 2.82691 1
1 0 -13 0.92043 2.45625 2
1 0 -13 -0.4418 2.5588 1
0 0 -13 159.916 11.858 2
0 0 -13 193.657 11.324 1
-1 0 -13 3.29652 2.64985 2
-2 0 -13 0.44316 2.43658 2
-3 0 -13 -0.8555 2.3575 2
-4 0 -13 141.345 13.255 2
-5 0 -13 -0.5658 2.5529 2
-6 0 -13 89.2477 10.8097 2
-7 0 -13 -2.0212 2.9554 2
-8 0 -13 9.21753 4.27847 2
-9 0 -13 -1.6057 3.0477 2
-10 0 -13 1.41924 3.31628 2
-11 0 -13 -0.0244 3.5421 2
-12 0 -13 7.06704 4.67059 2
19 -1 -13 0.65473 6.12151 1
19 1 -13 -0.7123 5.5511 1
18 -1 -13 35.1824 9.4259 1
18 1 -13 36.8025 9.7199 1
17 -1 -13 37.3778 9.3104 1
17 1 -13 13.1567 6.92 1
16 -1 -13 53.6741 10.4548 1
16 1 -13 36.3343 9.4594 1
15 -1 -13 0.58695 4.29972 1
15 1 -13 1.09602 4.52353 1
14 -1 -13 2.45871 4.19891 1
14 1 -13 -3.4879 3.7513 1
13 -1 -13 19.2693 6.2674 1
13 1 -13 17.2478 6.1738 1
12 -1 -13 151.811 15.885 1
12 1 -13 167.805 16.674 1
11 -1 -13 5.6516 4.59818 1
11 1 -13 11.46 5.204 1
10 -1 -13 3.8194 4.10913 1
10 1 -13 1.34827 3.84075 1
9 -1 -13 215.182 15.877 1
9 1 -13 252.943 13.539 2
9 1 -13 251.011 16.829 1
8 -1 -13 -1.2738 3.0234 1
8 1 -13 1.49507 2.55736 2
8 1 -13 2.31863 3.42025 1
7 -1 -13 24.4908 5.9626 1
7 1 -13 16.1229 4.9128 1
7 1 -13 21.4901 4.34 2
6 -1 -13 11.1033 3.6604 2
6 -1 -13 14.4238 4.7342 1
6 1 -13 8.4071 4.06167 1
6 1 -13 10.0893 3.4498 2
5 -1 -13 2.5029 2.53519 2
5 -1 -13 -0.946 2.513 1
5 1 -13 3.7051 2.94868 1
5 1 -13 -0.0632 2.2018 2
4 -1 -13 41.3929 6.4308 2
4 -1 -13 34.6811 6.09 1
4 1 -13 40.2742 6.0561 2
4 1 -13 51.3487 7.1586 1
3 -1 -13 7.38264 3.29403 2
3 -1 -13 15.1344 4.3511 1
3 1 -13 9.8104 3.52574 1
3 1 -13 7.33708 3.178 2
2 -1 -13 179.035 11.902 2
2 -1 -13 164.111 11.223 1
2 1 -13 178.567 11.3 1
2 1 -13 152.362 11.109 2
1 -1 -13 23.0782 4.6308 1
1 -1 -13 11.4812 3.7922 2
1 1 -13 3.5953 2.85024 2
1 1 -13 16.1631 4.0152 1
0 -1 -13 58.1913 7.8268 2
0 -1 -13 74.3938 7.7693 1
0 1 -13 76.2793 8.8261 2
-1 -1 -13 4.53026 2.99622 2
-1 1 -13 5.70628 3.39199 2
-2 -1 -13 27.2358 5.5552 2
-2 1 -13 34.0625 6.2078 2
-3 -1 -13 0.56923 2.65486 2
-3 1 -13 -0.8518 2.8363 2
-4 -1 -13 262.752 16.297 2
-4 1 -13 253.384 16.315 2
-5 -1 -13 10.4556 4.1015 2
-5 1 -13 12.0136 4.7776 2
-6 -1 -13 -2.0933 2.9363 2
-6 1 -13 2.55815 3.55684 2
-7 -1 -13 2.27299 3.25388 2
-7 1 -13 2.0516 3.56085 2
-8 -1 -13 80.2516 10.483 2
-8 1 -13 60.0837 9.0393 2
-9 -1 -13 3.1396 3.71604 2
-9 1 -13 -0.6417 3.2574 2
-10 -1 -13 43.2592 8.1012 2
-10 1 -13 34.1521 7.4028 2
-11 -1 -13 -0.4467 3.7914 2
-11 1 -13 4.88208 4.20066 2
-12 -1 -13 10.6677 5.1835 2
-12 1 -13 39.9525 8.2443 2
-13 1 -13 -0.4175 4.4298 2
19 -2 -13 13.096 7.5045 1
19 2 -13 21.7901 8.4454 1
18 -2 -13 2.44146 5.51208 1
18 2 -13 -4.1787 5.5855 1
17 -2 -13 -0.4071 5.0935 1
17 2 -13 -0.5706 5.1735 1
16 -2 -13 1.03723 4.18736 1
16 2 -13 2.24949 5.15052 1
15 -2 -13 21.6305 7.4142 1
15 2 -13 23.4809 7.4114 1
14 -2 -13 -5.059 4.092 1
14 2 -13 -0.8997 4.0941 1
13 -2 -13 -0.9831 4.0962 1
13 2 -13 -0.4302 3.1396 1
12 -2 -13 4.15613 4.44244 1
12 2 -13 0.10134 3.84262 1
11 -2 -13 21.0172 6.4657 1
11 2 -13 19.9986 6.2657 1
10 -2 -13 49.2545 8.633 1
10 2 -13 42.9622 8.3993 1
9 -2 -13 4.90134 4.13095 1
9 2 -13 1.70547 3.29679 1
8 -2 -13 258.845 16.7 1
8 2 -13 238.852 16.043 1
8 2 -13 214.093 12.893 2
7 -2 -13 55.7182 8.6151 1
7 2 -13 41.8988 7.3478 1
6 -2 -13 286.902 17.515 1
6 2 -13 297.693 17.635 1
6 2 -13 276.354 15.328 2
5 -2 -13 7.50886 3.90547 1
5 2 -13 3.54838 2.65501 2
5 2 -13 1.55973 3.27011 1
4 -2 -13 -0.5621 2.5359 1
4 2 -13 -0.2614 2.3692 2
4 2 -13 0.37169 2.77546 1
3 -2 -13 83.7549 9.3745 1
3 2 -13 89.3254 9.182 1
3 2 -13 87.8507 9.3063 2
2 -2 -13 88.4538 9.7002 2
2 -2 -13 66.9331 8.4193 1
2 2 -13 85.642 9.3146 2
2 2 -13 89.9975 8.9306 1
1 -2 -13 -3.2102 2.451 1
1 -2 -13 0.77546 2.62073 2
1 2 -13 -0.2269 2.4044 2
1 2 -13 -2.1192 2.5123 1
0 -2 -13 102.573 9.571 1
0 -2 -13 71.2891 8.9011 2
0 2 -13 87.8033 9.6392 2
-1 -2 -13 5.19334 3.28659 1
-1 -2 -13 2.31013 2.49636 2
-1 2 -13 1.9304 2.66611 2
-2 -2 -13 4.38522 3.13739 2
-2 2 -13 6.19916 3.48379 2
-3 -2 -13 25.1342 5.7769 2
-3 2 -13 30.7032 6.2146 2
-4 -2 -13 100.3 11.223 2
-4 2 -13 99.5993 11.1802 2
-5 -2 -13 5.10743 3.572 2
-5 2 -13 3.62171 3.52291 2
-6 -2 -13 21.3768 5.4545 2
-6 2 -13 31.1771 6.544 2
-7 -2 -13 32.8721 6.8488 2
-7 2 -13 30.0466 6.7041 2
-8 -2 -13 1.14588 3.55891 2
-8 2 -13 -0.2898 3.4829 2
-9 -2 -13 9.72915 4.78338 2
-9 2 -13 16.8527 5.5922 2
-10 -2 -13 5.04378 3.98263 2
-10 2 -13 2.13666 3.99759 2
-11 -2 -13 6.79476 4.59219 2
-11 2 -13 1.81322 4.2325 2
-12 2 -13 4.193 4.87693 2
-13 2 -13 2.52018 4.34008 3
-13 2 -13 -8.5151 3.6441 2
19 -3 -13 -2.0278 5.2948 1
19 3 -13 0.23361 6.22322 1
18 -3 -13 10.8321 6.9212 1
18 3 -13 9.7749 6.98853 1
17 -3 -13 4.67846 5.6544 1
17 3 -13 -1.1761 5.1821 1
16 -3 -13 8.91839 6.39344 1
16 3 -13 11.5716 6.2755 1
15 -3 -13 0.06376 4.28153 1
15 3 -13 -0.4194 4.1562 1
14 -3 -13 17.3205 7.0465 1
14 3 -13 21.7865 6.9713 1
13 -3 -13 1.31026 4.33559 1
13 3 -13 4.40707 4.86588 1
12 -3 -13 1.74843 3.48146 1
12 3 -13 -2.9531 4.0228 1
11 -3 -13 25.5816 6.996 1
11 3 -13 13.9892 6.0877 1
10 -3 -13 26.7889 6.7955 1
10 3 -13 30.667 7.5711 1
9 -3 -13 -2.2681 3.1777 1
9 3 -13 3.69788 3.5998 1
8 -3 -13 13.8984 5.2315 1
8 3 -13 7.00024 4.57332 1
7 -3 -13 331.861 19.586 1
7 3 -13 364.88 20.151 1
7 3 -13 283.305 16.167 2
6 -3 -13 64.1906 9.0899 1
6 3 -13 57.466 8.4053 1
6 3 -13 57.9218 7.3628 2
5 -3 -13 85.9479 10.1877 1
5 3 -13 80.8356 9.6305 1
5 3 -13 74.8767 8.3677 2
4 -3 -13 1.59511 3.24286 1
4 3 -13 7.10381 3.76153 1
4 3 -13 1.47802 2.78545 2
3 -3 -13 88.627 9.9039 1
3 3 -13 80.4708 9.0114 2
3 3 -13 83.0675 9.2663 1
2 -3 -13 260.382 15.657 1
2 3 -13 242.033 14.901 2
2 3 -13 257.77 14.8 1
1 -3 -13 56.5257 7.9307 1
1 3 -13 64.4969 8.43 2
0 -3 -13 267.965 15.848 1
0 3 -13 303.579 17.124 2
-1 -3 -13 157.88 10.991 1
-1 -3 -13 133.569 12.64 2
-1 3 -13 123.062 12.28 2
-2 -3 -13 4.33814 3.07053 2
-2 -3 -13 5.41673 3.40802 1
-2 3 -13 6.77971 3.51512 2
-3 -3 -13 0.8569 2.68666 2
-3 3 -13 2.54416 3.05186 2
-4 -3 -13 0.86434 3.09197 2
-4 3 -13 -0.9817 2.9194 2
-5 -3 -13 61.3129 8.8968 2
-5 3 -13 69.9807 9.5521 2
-6 -3 -13 34.2642 7.0271 2
-6 3 -13 18.5685 5.5645 2
-7 -3 -13 5.05989 3.83817 2
-7 3 -13 6.25705 4.02144 2
-8 -3 -13 38.1242 7.3071 2
-8 3 -13 39.8169 7.6078 2
-9 -3 -13 9.22063 4.68363 2
-9 3 -13 16.7507 5.9797 2
-10 -3 -13 3.78471 3.94664 2
-10 3 -13 1.94926 4.23816 2
-11 3 -13 1.12784 4.17495 2
-12 3 -13 -0.286 4.7666 2
-13 3 -13 -0.6428 4.1917 2
-13 3 -13 1.5468 4.20691 3
18 -4 -13 1.38294 6.70969 1
18 4 -13 6.525 6.46037 1
17 -4 -13 -5.3608 4.9271 1
17 4 -13 -0.5153 5.5074 1
16 -4 -13 -2.4326 4.4672 1
16 4 -13 0.76757 5.37202 1
15 -4 -13 7.97497 5.61213 1
15 4 -13 3.61536 5.64761 1
14 -4 -13 31.5398 8.4409 1
14 4 -13 37.8482 9.0477 1
13 -4 -13 11.2572 5.6807 1
13 4 -13 9.26366 5.55679 1
12 -4 -13 -7.8672 3.0731 1
12 4 -13 -3.3004 4.1298 1
11 -4 -13 15.1528 5.9385 1
11 4 -13 7.80514 5.23641 1
10 -4 -13 25.8335 6.5545 1
10 4 -13 41.0273 8.5559 1
9 -4 -13 194.91 15.245 1
9 4 -13 178.877 17.17 1
8 -4 -13 5.69071 3.97802 1
8 4 -13 1.22351 3.84754 1
7 -4 -13 239.174 16.983 1
7 4 -13 262.72 17.449 1
7 4 -13 258.644 14.475 2
6 -4 -13 331.829 19.779 1
6 4 -13 309.502 19.26 1
6 4 -13 306.627 16.683 2
5 -4 -13 140.734 13.424 1
5 4 -13 137.106 10.217 2
5 4 -13 116.606 12.539 1
4 -4 -13 66.4593 9.4396 1
4 4 -13 64.8781 8.1136 2
4 4 -13 49.0756 7.8019 1
3 -4 -13 152.51 12.299 1
3 4 -13 148.971 11.394 2
3 4 -13 205.517 12.951 1
2 -4 -13 0.88974 2.88068 1
2 4 -13 -2.0264 2.7602 1
2 4 -13 -2.2999 2.3816 2
1 -4 -13 22.0748 5.5132 1
1 4 -13 24.8242 5.3604 2
0 -4 -13 142.185 12.979 1
0 4 -13 141.749 12.827 2
-1 -4 -13 76.4464 9.2898 1
-1 4 -13 86.8943 10.1278 2
-2 -4 -13 48.3325 6.998 1
-2 4 -13 30.5072 6.4424 2
-3 -4 -13 108.592 11.798 2
-3 4 -13 103.885 11.585 2
-4 -4 -13 22.7117 5.8546 2
-4 4 -13 20.5447 5.8188 2
-5 -4 -13 87.0991 10.6114 2
-5 4 -13 91.7476 11.1712 2
-6 -4 -13 7.95777 4.41192 2
-6 4 -13 10.9387 5.1783 2
-7 -4 -13 2.58009 3.53561 2
-7 4 -13 0.44439 3.86175 2
-8 -4 -13 5.49269 4.16742 2
-8 4 -13 6.94879 4.49597 2
-9 -4 -13 -3.7258 3.2454 2
-9 4 -13 0.97351 3.88162 2
-10 -4 -13 12.5082 5.3601 2
-10 4 -13 17.435 5.7932 2
-11 4 -13 17.3899 6.0426 2
-12 4 -13 22.8789 6.0944 3
-12 4 -13 17.1959 6.414 2
-13 4 -13 2.19624 4.1764 2
18 -5 -13 9.64116 6.74315 1
18 5 -13 -0.878 6.5071 1
17 -5 -13 0.24594 5.81666 1
17 5 -13 6.10157 6.27891 1
16 -5 -13 14.1156 7.2171 1
16 5 -13 13.5963 7.2673 1
15 -5 -13 0.56783 5.23796 1
15 5 -13 3.44423 5.21799 1
14 -5 -13 28.5141 8.1976 1
14 5 -13 21.099 7.7644 1
13 -5 -13 -0.4479 4.5054 1
13 5 -13 7.81643 5.51052 1
12 -5 -13 2.21335 4.54847 1
12 5 -13 -4.269 4.3294 1
11 -5 -13 4.07845 4.20964 1
11 5 -13 -4.6346 3.7505 1
10 -5 -13 -0.6956 3.8671 1
10 5 -13 10.6337 5.7985 1
9 -5 -13 81.3708 11.5855 1
9 5 -13 102.468 13.033 1
8 -5 -13 118.952 13.609 1
8 5 -13 105.18 13.065 1
7 -5 -13 -0.1158 3.462 1
7 5 -13 4.09358 4.38967 1
6 -5 -13 81.8968 11.1114 1
6 5 -13 92.0052 9.276 2
6 5 -13 95.4312 11.7359 1
5 -5 -13 27.1334 6.9019 1
5 5 -13 29.0125 5.6635 2
5 5 -13 30.3307 6.6456 1
4 -5 -13 10.3507 4.7939 1
4 5 -13 4.93659 4.20894 1
4 5 -13 4.59106 3.44608 2
3 -5 -13 30.3659 6.7586 1
3 5 -13 14.4239 5.0337 1
3 5 -13 11.9788 4.6053 2
2 -5 -13 -2.6408 2.9175 1
2 5 -13 -1.2774 2.8135 2
1 -5 -13 51.4255 8.1744 1
1 5 -13 66.4846 8.888 2
0 5 -13 133.28 12.537 2
-1 -5 -13 61.5251 7.9183 1
-1 5 -13 53.7235 8.242 2
-2 -5 -13 134.312 10.09 1
-2 5 -13 125.246 12.851 2
-3 -5 -13 11.4416 3.7169 1
-3 5 -13 -0.9018 3.2245 2
-4 -5 -13 45.2719 7.9085 2
-4 5 -13 46.5815 8.1534 2
-5 -5 -13 34.8868 7.0998 2
-5 5 -13 46.7414 8.3087 2
-6 -5 -13 25.7196 6.5071 2
-6 5 -13 16.033 5.5492 2
-7 -5 -13 5.11774 3.90008 2
-7 5 -13 1.46735 3.98447 2
-8 -5 -13 8.32599 4.39442 2
-8 5 -13 1.10446 3.75647 2
-9 -5 -13 41.4034 8.0127 2
-9 5 -13 27.5183 7.1017 2
-10 5 -13 -2.5221 3.6288 2
-11 5 -13 -0.7344 3.746 2
-12 5 -13 -0.2074 3.9983 3
-12 5 -13 1.66961 4.90458 2
17 -6 -13 19.2016 8.349 1
17 6 -13 3.74342 6.11521 1
16 -6 -13 1.56016 5.60356 1
16 6 -13 -0.4569 4.9598 1
15 -6 -13 4.1283 5.99734 1
15 6 -13 3.71672 5.45232 1
14 -6 -13 33.617 8.9719 1
14 6 -13 33.0683 9.4049 1
13 -6 -13 17.8811 7.0938 1
13 6 -13 18.4769 7.8401 1
12 -6 -13 25.6435 7.8069 1
12 6 -13 16.0893 7.2441 1
11 -6 -13 2.34346 4.86087 1
11 6 -13 0.57386 4.21812 1
10 -6 -13 -6.2131 3.7494 1
10 6 -13 0.63758 4.69866 1
9 -6 -13 9.25932 5.47047 1
9 6 -13 5.9873 5.28708 1
8 -6 -13 12.6041 5.5263 1
8 6 -13 24.9252 6.9106 1
7 -6 -13 20.094 6.3612 1
7 6 -13 37.92 8.07 1
6 -6 -13 63.4859 10.3344 1
6 6 -13 68.0282 10.296 1
5 -6 -13 25.4214 6.5894 1
5 6 -13 16.5784 4.8082 2
5 6 -13 19.0866 5.6554 1
4 -6 -13 192.259 15.301 1
4 6 -13 225.01 15.205 1
4 6 -13 170.058 12.621 2
3 -6 -13 0.86789 3.36652 1
3 6 -13 -2.3061 2.8018 2
3 6 -13 0.71918 3.84431 1
2 -6 -13 7.57327 4.30673 1
2 6 -13 -0.4817 3.4899 2
1 -6 -13 19.1799 5.3965 1
1 6 -13 13.8848 4.7726 2
0 -6 -13 47.5647 7.284 1
0 6 -13 26.4629 6.3449 2
-1 -6 -13 0.63621 2.74944 1
-1 6 -13 -2.2934 2.7741 2
-2 -6 -13 -0.2182 2.8616 1
-2 6 -13 3.81011 3.83123 2
-3 -6 -13 11.5394 4.0192 1
-3 6 -13 9.83095 4.7201 2
-4 6 -13 1.20784 3.63871 2
-5 -6 -13 16.7046 5.2764 2
-5 6 -13 0.16021 3.40877 2
-6 -6 -13 28.6486 6.7704 2
-6 6 -13 29.6205 7.0872 2
-7 -6 -13 8.97608 4.82793 2
-7 6 -13 23.7146 6.5135 2
-8 -6 -13 5.36057 4.55486 2
-8 6 -13 17.4616 5.7924 2
-9 -6 -13 -1.904 3.7418 2
-9 6 -13 -4.0301 3.2985 2
-10 6 -13 39.7109 8.9588 2
-11 6 -13 1.27773 4.34996 2
16 -7 -13 -1.2133 5.574 1
16 7 -13 -1.0419 5.6689 1
15 -7 -13 7.47437 6.21307 1
15 7 -13 5.56997 6.84782 1
14 -7 -13 23.7263 7.845 1
14 7 -13 17.3563 8.1587 1
13 -7 -13 -0.6706 4.6308 1
13 7 -13 -5.225 4.285 1
12 -7 -13 21.1498 7.5578 1
12 7 -13 26.345 8.2755 1
11 -7 -13 7.28258 5.94549 1
11 7 -13 25.2869 7.6501 1
10 -7 -13 76.8455 12.1045 1
10 7 -13 96.4876 13.7721 1
9 -7 -13 1.11599 4.58016 1
9 7 -13 1.33207 4.32032 1
8 -7 -13 124.562 14.968 1
8 7 -13 106.769 13.884 1
7 -7 -13 5.62214 4.94587 1
7 7 -13 1.25918 3.88289 1
6 -7 -13 5.02619 4.58557 1
6 7 -13 -1.6788 3.7917 1
5 -7 -13 -1.13 3.8198 1
5 7 -13 1.12159 2.89837 2
5 7 -13 8.96801 4.73925 1
4 -7 -13 5.86304 4.86194 1
4 7 -13 6.72922 3.86548 2
4 7 -13 -0.9232 3.9883 1
3 -7 -13 3.86066 3.91733 1
3 7 -13 3.70187 3.7762 2
2 -7 -13 6.41054 3.97315 1
2 7 -13 15.061 4.6909 2
1 -7 -13 2.74985 3.25916 1
1 7 -13 2.48106 3.26661 2
0 -7 -13 43.4939 7.2967 1
0 7 -13 29.5273 6.7456 2
-1 -7 -13 3.5758 3.30423 1
-1 7 -13 -1.7953 3.5046 2
-2 -7 -13 82.1887 9.5975 1
-2 7 -13 73.8856 10.2147 2
-3 -7 -13 6.92221 3.82872 1
-3 7 -13 3.56157 4.2255 2
-4 -7 -13 29.6356 6.123 1
-4 7 -13 28.9439 7.0281 2
-5 7 -13 6.00029 4.22097 2
-6 -7 -13 50.5676 9.0979 2
-6 7 -13 65.631 10.3448 2
-7 -7 -13 1.95861 4.07167 2
-7 7 -13 -0.9114 3.3869 2
-8 -7 -13 -5.0145 3.647 2
-8 7 -13 -1.9069 3.6328 2
-9 7 -13 11.0588 5.4252 2
-10 7 -13 9.02008 5.39608 2
15 -8 -13 5.1678 6.75127 1
15 8 -13 5.61226 6.95427 1
14 -8 -13 24.0558 8.7919 1
14 8 -13 40.6157 10.5377 1
13 -8 -13 -0.8042 5.3558 1
13 8 -13 0.60999 5.8762 1
12 -8 -13 2.87141 5.72708 1
12 8 -13 10.3148 6.7328 1
11 -8 -13 16.9745 7.392 1
11 8 -13 20.6008 7.3064 1
10 -8 -13 -0.3651 4.6431 1
10 8 -13 1.70087 4.68068 1
9 -8 -13 1.22849 4.55415 1
9 8 -13 1.54347 4.64481 1
8 -8 -13 43.6074 9.4164 1
8 8 -13 38.6394 9.0343 1
7 -8 -13 29.1595 8.0514 1
7 8 -13 18.9365 6.7206 1
6 -8 -13 2.87406 4.36498 1
6 8 -13 14.8796 5.954 1
5 -8 -13 -2.6001 4.1835 1
5 8 -13 -3.6859 4.0488 1
4 -8 -13 190.286 18.344 1
4 8 -13 186.444 17.908 1
4 8 -13 183.658 13.218 2
3 -8 -13 -1.3332 3.6801 1
3 8 -13 5.96963 4.04626 2
2 -8 -13 177.09 14.058 1
2 8 -13 180.684 13.614 2
1 -8 -13 7.67797 4.24922 1
1 8 -13 7.41454 4.20447 2
0 -8 -13 -1.2547 2.9247 1
0 8 -13 5.61089 4.3644 2
-1 -8 -13 5.86459 4.02843 1
-1 8 -13 5.93092 4.29893 2
-2 -8 -13 -2.1718 3.1237 1
-2 8 -13 -3.542 3.4261 2
-3 -8 -13 0.53788 3.48008 1
-3 8 -13 -0.4159 3.2333 2
-4 -8 -13 -1.8692 3.2325 1
-4 8 -13 2.83959 4.44243 2
-5 8 -13 14.5232 5.631 2
-6 8 -13 29.5258 7.7573 2
-7 -8 -13 24.6999 6.8845 2
-7 8 -13 8.82124 5.16173 2
-8 8 -13 1.81764 4.65571 2
-9 8 -13 8.44439 5.77325 2
13 -9 -13 1.42574 6.53791 1
13 9 -13 11.5105 7.179 1
12 -9 -13 1.55104 5.77545 1
12 9 -13 3.62284 5.61427 1
11 -9 -13 1.06194 5.50012 1
11 9 -13 2.30812 4.86858 1
10 -9 -13 11.8799 6.94 1
10 9 -13 13.7006 6.8525 1
9 -9 -13 56.2659 11.2869 1
9 9 -13 51.942 11.0946 1
8 -9 -13 32.7154 8.3103 1
8 9 -13 23.4493 7.9542 1
7 -9 -13 5.55436 5.75908 1
7 9 -13 10.953 5.8972 1
6 -9 -13 -2.4204 3.9713 1
6 9 -13 7.1445 5.61237 1
5 -9 -13 14.3109 6.1157 1
5 9 -13 11.0307 5.5979 1
4 -9 -13 1.60305 4.1865 1
3 -9 -13 7.08747 4.86915 1
3 9 -13 0.41805 3.50061 2
2 -9 -13 1.44126 3.5408 1
2 9 -13 -2.6717 3.6375 2
1 -9 -13 17.8896 5.9756 1
1 9 -13 13.6408 5.0215 2
0 -9 -13 18.4667 5.9095 1
0 9 -13 17.1105 5.5482 2
-1 -9 -13 5.68542 4.06513 1
-1 9 -13 5.68921 4.61127 2
-2 -9 -13 25.2954 6.5101 1
-2 9 -13 19.5248 5.9263 2
-3 -9 -13 10.5205 5.1658 1
-3 9 -13 21.7971 6.6781 2
-4 -9 -13 2.10226 3.87918 1
-4 9 -13 9.95467 5.59489 2
-5 9 -13 21.9285 7.0235 2
-6 9 -13 47.8848 9.7496 2
-7 9 -13 -1.3278 4.3904 2
11 -10 -13 2.77549 6.56951 1
11 10 -13 13.5082 7.6665 1
10 -10 -13 16.1692 7.366 1
10 10 -13 10.6721 6.7233 1
9 -10 -13 3.62678 5.70435 1
9 10 -13 3.76378 6.77225 1
8 -10 -13 2.6538 5.91798 1
8 10 -13 9.63595 6.6586 1
7 -10 -13 4.89482 6.14808 1
7 10 -13 -4.4585 4.7548 1
6 -10 -13 7.41157 5.37008 1
6 10 -13 6.68978 5.51319 1
5 -10 -13 4.95203 5.38943 1
4 -10 -13 10.4992 5.7644 1
3 -10 -13 31.9314 7.6759 1
3 10 -13 17.6855 5.9178 2
2 -10 -13 2.35929 4.2661 1
2 10 -13 -2.0423 3.391 2
1 -10 -13 18.0351 6.0583 1
1 10 -13 10.6044 4.995 2
0 -10 -13 2.70207 4.31079 1
0 10 -13 0.45541 3.74444 2
-1 -10 -13 27.1439 7.1092 1
-1 10 -13 18.4029 6.477 2
-2 -10 -13 27.2778 7.0086 1
-2 10 -13 19.1764 6.7366 2
-3 -10 -13 5.65951 4.62154 1
-3 10 -13 1.66103 4.94134 2
-4 -10 -13 5.40068 4.84236 1
-4 10 -13 0.21941 4.59496 2
-5 -10 -13 -0.8218 4.3594 1
-5 10 -13 4.88395 4.47517 2
7 -11 -13 -1.5495 5.8859 1
7 11 -13 4.27333 6.0813 1
6 -11 -13 22.4463 7.6483 1
6 11 -13 6.10503 6.55999 1
5 -11 -13 5.08997 5.63952 1
4 -11 -13 4.2568 5.04853 1
3 -11 -13 13.7962 6.3657 1
2 -11 -13 12.9367 5.4846 1
2 11 -13 10.7589 5.6943 2
1 -11 -13 37.6079 8.3897 1
1 11 -13 47.78 9.5546 2
0 -11 -13 6.53714 5.52525 1
0 11 -13 0.55507 4.39159 2
-1 -11 -13 -1.4157 4.2035 1
-1 11 -13 4.0248 5.04848 2
19 0 -14 -2.449 6.2064 1
18 0 -14 60.376 12.0204 1
17 0 -14 -2.324 4.6534 1
16 0 -14 61.05 11.103 1
15 0 -14 -2.8798 4.6169 1
14 0 -14 2.8756 4.50301 1
13 0 -14 -2.333 3.9455 1
12 0 -14 7.8901 5.55161 1
11 0 -14 0.06847 3.77782 1
10 0 -14 413.124 24.11 1
9 0 -14 -0.4941 2.1964 2
9 0 -14 0.27902 3.18912 1
8 0 -14 3.57716 3.68925 1
8 0 -14 -0.5354 2.4208 2
7 0 -14 5.70462 3.96383 1
7 0 -14 -0.0474 2.5504 2
6 0 -14 10.3549 4.4166 1
6 0 -14 8.32762 3.47465 2
5 0 -14 -0.3253 2.3561 2
5 0 -14 4.49251 3.48529 1
4 0 -14 111.793 10.63 2
4 0 -14 118.491 11.446 1
3 0 -14 -0.1421 2.8998 1
3 0 -14 -0.5512 2.301 2
2 0 -14 140.038 10.497 1
2 0 -14 139.605 10.717 2
1 0 -14 3.0921 2.61272 2
1 0 -14 2.24184 2.82803 1
0 0 -14 -1.3052 2.2857 2
-1 0 -14 -1.0658 2.6386 2
-2 0 -14 13.6109 4.6061 2
-3 0 -14 2.07149 2.88779 2
-4 0 -14 4.31839 3.61242 2
-5 0 -14 -1.2197 3.1183 2
-6 0 -14 57.8904 8.9394 2
-7 0 -14 4.68025 3.94743 2
-8 0 -14 87.4922 11.2698 2
-9 0 -14 -1.0752 3.5354 2
-10 0 -14 2.27744 3.96118 2
-11 0 -14 -4.2106 3.6665 2
-12 0 -14 82.3639 11.767 2
19 -1 -14 11.9479 7.3599 1
19 1 -14 2.16286 5.69459 1
18 -1 -14 6.97951 6.01446 1
18 1 -14 -4.1118 4.3181 1
17 -1 -14 2.61343 5.42601 1
17 1 -14 8.55129 5.99657 1
16 -1 -14 2.99385 5.46986 1
16 1 -14 6.92234 5.53252 1
15 -1 -14 -2.4477 4.0337 1
15 1 -14 7.10073 5.11935 1
14 -1 -14 3.15444 4.86975 1
14 1 -14 2.91923 4.75385 1
13 -1 -14 40.5144 8.5783 1
13 1 -14 54.0727 9.8469 1
12 -1 -14 58.6408 10.1618 1
12 1 -14 70.2148 11.1267 1
11 -1 -14 33.1343 7.5945 1
11 1 -14 35.0735 7.9112 1
10 -1 -14 9.29296 4.86499 1
10 1 -14 5.74629 4.51485 1
9 -1 -14 1.85417 2.71696 2
9 -1 -14 3.05349 4.38316 1
9 1 -14 -2.2428 3.1783 1
8 -1 -14 79.8459 10.8747 1
8 -1 -14 92.0846 9.2026 2
8 1 -14 88.4901 10.986 1
7 -1 -14 9.92641 4.40557 1
7 -1 -14 3.49705 3.24164 2
7 1 -14 10.3341 4.3643 1
7 1 -14 6.73648 3.25616 2
6 -1 -14 1.49453 2.76821 2
6 -1 -14 0.26888 2.98789 1
6 1 -14 1.40905 2.44971 2
6 1 -14 0.32729 3.08697 1
5 -1 -14 -2.0645 2.5078 1
5 -1 -14 2.16353 2.57839 2
5 1 -14 0.63769 2.99713 1
5 1 -14 0.81727 2.50696 2
4 -1 -14 57.2008 7.5854 2
4 -1 -14 61.4621 8.1496 1
4 1 -14 62.5109 8.114 1
4 1 -14 50.0212 7.266 2
3 -1 -14 0.72642 2.59003 2
3 -1 -14 2.64116 3.19315 1
3 1 -14 0.22993 2.69448 1
3 1 -14 -3.6942 1.8747 2
2 -1 -14 -0.2076 2.4696 2
2 -1 -14 0.54011 2.79232 1
2 1 -14 2.2434 2.98275 1
2 1 -14 9.38956 3.60429 2
1 -1 -14 18.0893 4.7379 2
1 -1 -14 14.5741 4.3543 1
1 1 -14 16.4063 4.663 2
0 -1 -14 7.95682 3.7015 2
0 -1 -14 -0.9329 2.5125 1
0 1 -14 8.11592 4.02582 2
-1 -1 -14 20.5826 5.2254 2
-1 1 -14 14.5135 4.7234 2
-2 -1 -14 200.629 13.958 2
-2 1 -14 188.907 13.604 2
-3 -1 -14 3.47508 3.3696 2
-3 1 -14 7.80558 3.84278 2
-4 -1 -14 4.96544 3.961 2
-4 1 -14 14.5196 4.7476 2
-5 -1 -14 110.332 11.958 2
-5 1 -14 127.58 13.036 2
-6 -1 -14 19.8331 5.5004 2
-6 1 -14 23.0408 6.082 2
-7 -1 -14 8.76825 4.41477 2
-7 1 -14 9.00369 4.21797 2
-8 -1 -14 24.6674 6.5082 2
-8 1 -14 28.9092 6.5879 2
-9 -1 -14 -1.7317 3.5856 2
-9 1 -14 -0.8008 3.5529 2
-10 -1 -14 -3.5395 3.4839 2
-10 1 -14 0.44076 3.65905 2
-11 -1 -14 4.71031 4.63107 2
-11 1 -14 4.61988 4.6882 2
-12 -1 -14 15.2428 5.9008 2
-12 1 -14 7.03173 5.1831 2
-13 1 -14 -1.4834 4.9151 2
19 -2 -14 2.59285 6.04883 1
19 2 -14 4.99907 6.49446 1
18 -2 -14 41.1049 9.8956 1
18 2 -14 21.411 8.1205 1
17 -2 -14 12.2249 6.7929 1
17 2 -14 11.0228 6.1878 1
16 -2 -14 8.19662 5.81896 1
16 2 -14 -0.7902 4.8264 1
15 -2 -14 7.97718 5.68646 1
15 2 -14 3.08273 4.39648 1
14 -2 -14 4.09487 4.98208 1
14 2 -14 0.99107 4.62175 1
13 -2 -14 6.30843 5.18707 1
13 2 -14 14.4208 6.4356 1
12 -2 -14 7.02773 4.66954 1
12 2 -14 11.1258 5.7871 1
11 -2 -14 53.4905 9.438 1
11 2 -14 39.1533 8.3344 1
10 -2 -14 9.6327 5.08292 1
10 2 -14 27.1727 7.0143 1
9 -2 -14 30.258 7.0989 1
9 2 -14 36.9187 7.7752 1
8 -2 -14 229.757 16.323 1
8 2 -14 228.668 13.524 2
8 2 -14 219.412 15.908 1
7 -2 -14 -2.3838 3.0672 1
7 2 -14 -1.075 2.9422 1
7 2 -14 5.80826 3.08071 2
6 -2 -14 4.35239 3.86801 1
6 2 -14 0.97201 2.78505 2
6 2 -14 2.2489 3.17438 1
5 -2 -14 48.1194 7.8362 1
5 2 -14 46.6345 7.3412 1
5 2 -14 55.3238 7.2935 2
4 -2 -14 135.731 12.963 1
4 2 -14 159.334 11.073 2
4 2 -14 135.083 10.913 1
3 -2 -14 -0.2974 2.6953 1
3 -2 -14 5.27736 3.09882 2
3 2 -14 -0.0055 2.5058 2
3 2 -14 2.65057 3.1615 1
2 -2 -14 82.4305 9.9723 2
2 -2 -14 94.3743 10.1582 1
2 2 -14 102.671 10.668 2
2 2 -14 106.503 10.03 1
1 -2 -14 55.4448 8.0927 2
1 -2 -14 71.9892 8.6112 1
1 2 -14 65.8706 8.6499 2
0 -2 -14 8.37379 3.68301 2
0 -2 -14 5.48663 3.38585 1
0 2 -14 -0.6752 2.4168 2
-1 -2 -14 111.697 11.644 2
-1 2 -14 85.81 10.447 2
-2 -2 -14 3.23077 3.22997 2
-2 2 -14 5.33272 3.7282 2
-3 -2 -14 11.4657 4.5905 2
-3 2 -14 12.55 4.7251 2
-4 -2 -14 6.4964 4.04225 2
-4 2 -14 8.52804 4.3009 2
-5 -2 -14 3.72769 3.84911 2
-5 2 -14 2.78062 3.42191 2
-6 -2 -14 12.8282 4.9958 2
-6 2 -14 6.82731 4.24408 2
-7 -2 -14 15.9546 5.6298 2
-7 2 -14 10.2106 4.7387 2
-8 -2 -14 34.103 7.4577 2
-8 2 -14 23.1797 6.2956 2
-9 -2 -14 2.51587 3.77516 2
-9 2 -14 1.92764 4.31486 2
-10 -2 -14 7.85145 4.49418 2
-10 2 -14 2.64093 4.82455 2
-11 -2 -14 15.8424 5.5105 2
-11 2 -14 34.8838 7.9359 2
-12 2 -14 35.8377 8.3411 2
-13 2 -14 3.34559 4.95382 2
18 -3 -14 -0.3308 6.0289 1
18 3 -14 -1.1865 6.0534 1
17 -3 -14 -1.3209 5.7055 1
17 3 -14 6.40509 6.50722 1
16 -3 -14 25.9253 8.0353 1
16 3 -14 30.9974 8.9444 1
15 -3 -14 -4.5694 4.2709 1
15 3 -14 0.57109 4.00323 1
14 -3 -14 30.1885 8.3744 1
14 3 -14 28.7282 8.5717 1
13 -3 -14 7.63818 5.58945 1
13 3 -14 19.1004 7.2486 1
12 -3 -14 7.24594 4.92307 1
12 3 -14 11.5522 5.6763 1
11 -3 -14 37.1535 8.1262 1
11 3 -14 45.4712 8.9814 1
10 -3 -14 10.9738 5.0813 1
10 3 -14 15.3826 5.9349 1
9 -3 -14 203.961 16.027 1
9 3 -14 248.686 17.261 1
8 -3 -14 170.731 16.401 1
8 3 -14 209.099 15.373 1
7 -3 -14 24.0763 6.2949 1
7 3 -14 8.9654 3.54849 2
7 3 -14 42.8094 7.724 1
6 -3 -14 376.996 21.07 1
6 3 -14 363.622 20.518 1
6 3 -14 312.68 17.91 2
5 -3 -14 4.91473 3.94063 1
5 3 -14 8.02378 4.17258 1
5 3 -14 8.85898 3.96888 2
4 -3 -14 33.2934 6.7741 1
4 3 -14 22.9222 5.3305 2
4 3 -14 39.137 6.9246 1
3 -3 -14 -2.6945 2.7111 1
3 3 -14 -0.8851 3.0444 1
3 3 -14 0.29656 2.9531 2
2 -3 -14 3.69745 3.37369 1
2 3 -14 3.50764 3.03345 2
1 -3 -14 139.937 11.066 1
1 3 -14 127.224 12.222 2
0 -3 -14 20.672 5.3805 1
0 -3 -14 22.812 5.6063 2
0 3 -14 16.9233 5.12 2
-1 -3 -14 -4.7367 2.9147 1
-1 -3 -14 -2.3869 2.5816 2
-1 3 -14 0.29054 2.78228 2
-2 -3 -14 17.2215 5.1922 2
-2 3 -14 38.0933 7.0303 2
-3 -3 -14 1.05395 3.11484 2
-3 3 -14 3.37391 3.53594 2
-4 -3 -14 44.5517 7.8955 2
-4 3 -14 66.5095 9.3984 2
-5 -3 -14 -0.8098 3.0321 2
-5 3 -14 -3.3627 2.8104 2
-6 -3 -14 6.48366 4.01229 2
-6 3 -14 2.59475 3.38448 2
-7 -3 -14 -1.296 3.4015 2
-7 3 -14 -0.6422 2.9702 2
-8 -3 -14 -2.8264 3.2546 2
-8 3 -14 -4.4983 2.9804 2
-9 -3 -14 -2.1308 3.6755 2
-9 3 -14 0.4736 4.04373 2
-10 -3 -14 -5.168 3.4091 2
-10 3 -14 8.25468 5.00181 2
-11 -3 -14 10.4836 5.2232 2
-11 3 -14 -3.6226 4.0485 2
-12 3 -14 -2.6088 4.0872 2
18 -4 -14 -5.7251 5.0736 1
18 4 -14 -6.8619 5.2724 1
17 -4 -14 1.99934 5.99231 1
17 4 -14 3.5633 5.82788 1
16 -4 -14 9.39709 6.6576 1
16 4 -14 14.5676 7.4931 1
15 -4 -14 7.82234 6.03319 1
15 4 -14 1.15648 5.21681 1
14 -4 -14 32.8628 8.5009 1
14 4 -14 28.3123 8.5983 1
13 -4 -14 3.84887 5.06042 1
13 4 -14 0.38066 4.97396 1
12 -4 -14 31.5775 7.9488 1
12 4 -14 32.713 8.3545 1
11 -4 -14 61.7158 10.6538 1
11 4 -14 62.6855 10.7964 1
10 -4 -14 113.159 14.171 1
10 4 -14 173.875 17.038 1
9 -4 -14 5.23989 4.48399 1
9 4 -14 -2.4573 4.1907 1
8 -4 -14 22.4889 6.4934 1
8 4 -14 36.7445 7.8042 1
7 -4 -14 69.5543 10.3994 1
7 4 -14 87.3765 11.5144 1
6 -4 -14 90.2498 11.3487 1
6 4 -14 94.8676 11.3522 1
6 4 -14 81.7654 9.1398 2
5 -4 -14 0.75964 3.41362 1
5 4 -14 -1.8173 3.381 1
5 4 -14 -0.9821 2.7057 2
4 -4 -14 5.88649 3.85734 1
4 4 -14 1.82404 3.43985 1
4 4 -14 1.95783 3.19053 2
3 -4 -14 153.374 14.3 1
3 4 -14 159.487 12.083 1
3 4 -14 140.338 12.687 2
2 -4 -14 80.6647 10.1167 1
2 4 -14 85.016 9.7496 2
1 -4 -14 2.81423 3.7571 1
1 4 -14 2.99695 3.53892 2
0 -4 -14 92.5107 10.6315 1
0 4 -14 104.097 11.329 2
-1 -4 -14 178.643 13.163 1
-1 4 -14 177.122 13.486 2
-2 -4 -14 12.4286 4.6406 2
-2 4 -14 7.8806 4.31183 2
-3 -4 -14 53.3151 8.6994 2
-3 4 -14 55.6747 8.9073 2
-4 -4 -14 48.5713 8.3403 2
-4 4 -14 46.31 8.2981 2
-5 -4 -14 40.9641 7.6903 2
-5 4 -14 42.0937 8.0693 2
-6 -4 -14 -1.833 2.7151 2
-6 4 -14 -1.6619 3.5123 2
-7 -4 -14 -1.3874 3.6181 2
-7 4 -14 2.72591 3.90332 2
-8 -4 -14 -0.2512 3.8637 2
-8 4 -14 2.28491 4.12833 2
-9 -4 -14 3.4332 4.23327 2
-9 4 -14 -1.0513 4.0841 2
-10 -4 -14 -0.2219 4.0789 2
-10 4 -14 -1.6944 3.5755 2
-11 4 -14 -0.1103 4.421 2
-12 4 -14 -3.0733 4.5851 2
17 -5 -14 0.7677 5.73017 1
17 5 -14 6.04105 6.4743 1
16 -5 -14 33.284 9.6051 1
16 5 -14 53.4241 11.4841 1
15 -5 -14 1.06775 5.67315 1
15 5 -14 8.3903 6.19425 1
14 -5 -14 10.8883 6.0058 1
14 5 -14 21.3057 7.926 1
13 -5 -14 2.57804 5.14079 1
13 5 -14 -4.3584 4.4879 1
12 -5 -14 3.75264 4.60591 1
12 5 -14 4.5242 5.62943 1
11 -5 -14 4.80633 4.43176 1
11 5 -14 0.11497 4.37648 1
10 -5 -14 1.57064 3.79298 1
10 5 -14 -1.1964 4.1046 1
9 -5 -14 6.33115 5.0408 1
9 5 -14 16.2055 6.2148 1
8 -5 -14 31.3017 7.7578 1
8 5 -14 38.7508 8.4676 1
7 -5 -14 1.34257 4.21442 1
7 5 -14 10.8057 5.2682 1
6 -5 -14 33.4271 7.3329 1
6 5 -14 36.2498 6.3509 2
6 5 -14 33.4725 7.5836 1
5 -5 -14 31.2193 7.1032 1
5 5 -14 30.3101 5.9242 2
5 5 -14 34.9089 7.2489 1
4 -5 -14 39.8318 7.9293 1
4 5 -14 49.9061 7.3914 2
4 5 -14 33.4705 7.1933 1
3 -5 -14 3.50376 3.96782 1
3 5 -14 12.3082 4.6483 2
2 -5 -14 76.1416 10.2839 1
2 5 -14 49.8938 7.9181 2
1 -5 -14 137.273 13.807 1
1 5 -14 157.25 13.941 2
0 -5 -14 86.8211 10.6648 1
0 5 -14 109.507 11.877 2
-1 -5 -14 1.92515 3.74472 1
-1 5 -14 1.80588 3.31487 2
-2 -5 -14 7.44982 4.12732 1
-2 5 -14 -0.3234 3.0562 2
-3 -5 -14 38.4314 7.5625 2
-3 5 -14 40.4242 7.9887 2
-4 -5 -14 2.41488 3.51855 2
-4 5 -14 -0.1185 3.7624 2
-5 -5 -14 4.15998 4.11957 2
-5 5 -14 3.38446 3.94928 2
-6 -5 -14 0.71954 3.51903 2
-6 5 -14 -4.1169 3.1542 2
-7 -5 -14 5.64929 4.51415 2
-7 5 -14 14.4898 5.7613 2
-8 -5 -14 1.2463 4.05631 2
-8 5 -14 -0.3252 3.8324 2
-9 -5 -14 2.75537 4.278 2
-9 5 -14 -2.6127 3.7045 2
-10 5 -14 16.5513 6.4852 2
-11 5 -14 2.10243 5.05699 2
16 -6 -14 3.26933 6.30056 1
16 6 -14 -4.8031 5.4771 1
15 -6 -14 -2.8145 5.2257 1
15 6 -14 -2.2595 5.3434 1
14 -6 -14 -1.163 5.6649 1
14 6 -14 4.87722 5.68703 1
13 -6 -14 -2.9022 4.1536 1
13 6 -14 10.3363 6.3977 1
12 -6 -14 45.5109 9.5837 1
12 6 -14 23.0475 8.691 1
11 -6 -14 2.2441 4.60905 1
11 6 -14 4.46483 5.45732 1
10 -6 -14 14.1924 6.3116 1
10 6 -14 43.4181 9.6709 1
9 -6 -14 61.8718 10.6942 1
9 6 -14 72.2783 11.8687 1
8 -6 -14 0.45473 3.78224 1
8 6 -14 -2.0011 3.9735 1
7 -6 -14 1.00687 4.08477 1
7 6 -14 2.14262 4.70491 1
6 -6 -14 18.2121 6.4899 1
6 6 -14 5.3845 4.50492 1
5 -6 -14 18.6779 6.173 1
5 6 -14 22.184 5.3588 2
5 6 -14 23.5949 6.9231 1
4 -6 -14 2.74366 3.73744 1
4 6 -14 7.5742 3.96767 2
4 6 -14 3.60645 4.35052 1
3 -6 -14 63.275 10.1749 1
3 6 -14 79.0951 9.7134 2
2 -6 -14 8.1034 4.53718 1
2 6 -14 -0.6638 3.3776 2
1 -6 -14 11.0145 4.9651 1
1 6 -14 18.8112 5.4142 2
0 -6 -14 110.03 12.178 1
0 6 -14 87.6695 11.0878 2
-1 -6 -14 2.6622 3.68967 1
-1 6 -14 2.03659 3.55705 2
-2 -6 -14 5.48309 3.79625 1
-2 6 -14 8.2931 4.6397 2
-3 6 -14 -1.7104 3.7447 2
-4 6 -14 42.9883 8.6031 2
-5 -6 -14 12.0957 5.6178 2
-5 6 -14 23.8458 6.5621 2
-6 -6 -14 7.84488 4.93696 2
-6 6 -14 9.41887 5.18836 2
-7 -6 -14 1.3535 4.03202 2
-7 6 -14 0.05082 4.15004 2
-8 -6 -14 -1.6435 3.9865 2
-8 6 -14 4.53776 5.05468 2
-9 -6 -14 -1.7469 4.2364 2
-9 6 -14 -0.6106 3.4826 2
-10 6 -14 2.07839 4.67596 2
15 -7 -14 9.97059 7.38875 1
15 7 -14 3.66927 6.02047 1
14 -7 -14 44.6626 10.5422 1
14 7 -14 52.3126 11.3076 1
13 -7 -14 7.873 6.43929 1
13 7 -14 15.4314 6.7938 1
12 -7 -14 2.68795 5.1146 1
12 7 -14 6.30345 5.9719 1
11 -7 -14 0.89751 5.22941 1
11 7 -14 -0.3739 4.6321 1
10 -7 -14 0.61603 4.42456 1
10 7 -14 3.13335 5.00464 1
9 -7 -14 -0.5585 4.2499 1
9 7 -14 0.54073 3.97057 1
8 -7 -14 41.6785 9.0888 1
8 7 -14 55.8385 10.0715 1
7 -7 -14 8.92669 5.62787 1
7 7 -14 2.27969 4.68198 1
6 -7 -14 10.3746 5.139 1
6 7 -14 12.7186 6.0181 1
5 -7 -14 65.5833 10.9609 1
5 7 -14 103.171 10.596 2
5 7 -14 82.6584 11.5402 1
4 -7 -14 -3.3622 3.8601 1
4 7 -14 1.96957 3.22988 2
3 -7 -14 88.2037 12.111 1
3 7 -14 106.616 11.366 2
2 -7 -14 24.1772 6.4142 1
2 7 -14 24.0905 6.1435 2
1 -7 -14 12.1429 5.3151 1
1 7 -14 3.34008 3.86615 2
0 -7 -14 38.5179 7.3519 1
0 7 -14 19.4756 5.5718 2
-1 -7 -14 1.12815 3.28832 1
-1 7 -14 3.1493 3.67797 2
-2 -7 -14 8.56572 4.45486 1
-2 7 -14 5.99331 4.35824 2
-3 -7 -14 3.73819 3.5964 1
-3 7 -14 0.201 3.66261 2
-4 7 -14 0.31878 3.91202 2
-5 7 -14 10.3355 4.869 2
-6 -7 -14 22.0697 6.8173 2
-6 7 -14 35.8925 8.1434 2
-7 -7 -14 0.80748 4.45907 2
-7 7 -14 -2.1452 3.8564 2
-8 -7 -14 3.16938 4.21279 2
-8 7 -14 0.74591 4.21119 2
-9 7 -14 3.62963 4.92541 2
14 -8 -14 5.49335 5.67942 1
14 8 -14 -5.2096 5.2193 1
13 -8 -14 -1.0947 5.9657 1
13 8 -14 -1.2772 5.7121 1
12 -8 -14 3.21795 6.13043 1
12 8 -14 -3.5643 4.3092 1
11 -8 -14 -4.917 4.0522 1
11 8 -14 -1.9947 3.858 1
10 -8 -14 96.0963 13.9445 1
10 8 -14 60.8937 11.5517 1
9 -8 -14 12.2084 6.3862 1
9 8 -14 6.03713 5.95407 1
8 -8 -14 7.85104 6.09014 1
8 8 -14 15.1029 7.1013 1
7 -8 -14 -0.3931 4.4794 1
7 8 -14 0.93694 4.7277 1
6 -8 -14 6.16674 4.97051 1
6 8 -14 10.43 5.191 1
5 -8 -14 -2.9764 4.2379 1
5 8 -14 1.19472 4.29618 1
4 -8 -14 1.56172 4.49864 1
4 8 -14 10.3339 4.6745 2
3 -8 -14 4.58552 4.71713 1
3 8 -14 1.50031 3.61015 2
2 -8 -14 4.32152 4.78108 1
2 8 -14 -0.7948 3.2009 2
1 -8 -14 -2.1309 3.5586 1
1 8 -14 -1.6101 3.481 2
0 -8 -14 25.4818 6.6373 1
0 8 -14 43.6308 7.9565 2
-1 -8 -14 2.43929 3.73678 1
-1 8 -14 1.69324 3.79153 2
-2 -8 -14 -2.3423 3.4174 1
-2 8 -14 -1.656 3.4601 2
-3 -8 -14 16.5449 5.4981 1
-3 8 -14 24.1169 6.7213 2
-4 8 -14 27.6132 7.195 2
-5 8 -14 2.38289 4.39403 2
-6 8 -14 8.00502 5.5047 2
-7 -8 -14 4.5757 4.97536 2
-7 8 -14 3.59615 4.78878 2
-8 8 -14 8.9931 6.05445 2
12 -9 -14 3.8334 6.20814 1
12 9 -14 6.98509 7.18157 1
11 -9 -14 0.98023 6.07186 1
11 9 -14 9.84203 6.77024 1
10 -9 -14 -1.7791 5.0574 1
10 9 -14 2.08459 5.68162 1
9 -9 -14 7.39884 6.50613 1
9 9 -14 15.3651 7.0506 1
8 -9 -14 2.62758 5.28613 1
8 9 -14 6.31298 5.39648 1
7 -9 -14 24.718 7.7174 1
7 9 -14 3.81521 5.81885 1
6 -9 -14 0.53991 5.11738 1
6 9 -14 11.7773 6.1463 1
5 -9 -14 23.3145 8.1039 1
4 -9 -14 8.25009 5.49049 1
3 -9 -14 2.72281 4.78006 1
3 9 -14 -0.8172 3.6862 2
2 -9 -14 -0.1469 4.2087 1
2 9 -14 -2.4149 3.3512 2
1 -9 -14 -5.3111 3.8376 1
1 9 -14 -0.2061 3.7105 2
0 -9 -14 20.8883 6.5293 1
0 9 -14 10.0709 5.7712 2
-1 -9 -14 4.57467 4.41495 1
-1 9 -14 14.758 5.5644 2
-2 -9 -14 0.96276 4.20054 1
-2 9 -14 -0.3955 4.0117 2
-3 -9 -14 13.4126 5.2015 1
-3 9 -14 21.5625 6.6257 2
-4 9 -14 2.27231 4.4734 2
-5 9 -14 -1.3841 4.4528 2
-6 9 -14 4.44409 5.25339 2
9 -10 -14 2.73027 5.90743 1
9 10 -14 3.50072 6.54586 1
8 -10 -14 1.81882 5.33002 1
8 10 -14 1.44351 5.21626 1
7 -10 -14 4.37842 5.81194 1
7 10 -14 14.6405 6.7004 1
6 -10 -14 8.80853 6.65585 1
5 -10 -14 5.82014 5.49154 1
4 -10 -14 15.5377 7.2493 1
3 -10 -14 42.7695 9.5558 1
3 10 -14 33.2102 7.3884 2
2 -10 -14 5.60355 5.23752 1
2 10 -14 9.14443 5.38736 2
1 -10 -14 -0.4316 3.8492 1
1 10 -14 6.11008 4.60984 2
0 -10 -14 4.88862 4.59727 1
0 10 -14 14.9136 6.3714 2
-1 -10 -14 -1.6629 4.2381 1
-1 10 -14 -7.8904 3.9984 2
-2 -10 -14 1.19098 4.25829 1
-2 10 -14 -4.1888 4.4514 2
-3 -10 -14 -1.7669 4.6729 1
-3 10 -14 1.57981 5.15747 2
2 11 -14 -4.4006 4.5662 2
19 0 -15 -4.6543 5.4743 1
18 0 -15 12.7951 6.8244 1
17 0 -15 1.1964 5.41391 1
16 0 -15 0.63106 5.40465 1
15 0 -15 4.83589 5.64519 1
14 0 -15 1.59522 4.88534 1
13 0 -15 -3.3002 3.3853 1
12 0 -15 94.677 12.9192 1
11 0 -15 1.41198 3.8513 1
10 0 -15 99.4804 12.5702 1
9 0 -15 -3.8213 3.345 1
9 0 -15 3.33888 3.1683 2
8 0 -15 7.05345 3.57533 2
8 0 -15 -2.778 3.2408 1
7 0 -15 4.80001 3.74945 1
7 0 -15 -1.8444 2.3118 2
6 0 -15 128.581 11.512 2
6 0 -15 118.401 12.54 1
5 0 -15 2.51106 3.63059 1
5 0 -15 -1.6939 2.3972 2
4 0 -15 142.029 11.137 1
4 0 -15 101.996 10.715 2
3 0 -15 -1.0555 2.4348 2
3 0 -15 -1.3602 2.7502 1
2 0 -15 25.7665 5.6481 2
2 0 -15 25.441 5.4852 1
1 0 -15 1.5643 2.82027 2
0 0 -15 32.5078 6.4352 2
-1 0 -15 -1.8892 2.5514 2
-2 0 -15 153.717 14.354 2
-3 0 -15 -0.7761 2.8172 2
-4 0 -15 6.98607 4.1549 2
-5 0 -15 3.13683 3.46618 2
-6 0 -15 16.6453 5.4239 2
-7 0 -15 2.13229 3.93706 2
-8 0 -15 18.8774 5.8945 2
-9 0 -15 -1.1954 3.9516 2
-10 0 -15 2.77862 4.2419 2
-11 0 -15 -4.801 3.8832 2
-12 0 -15 10.8991 6.0966 2
19 -1 -15 15.6135 7.6232 1
19 1 -15 7.54094 7.06591 1
18 -1 -15 5.31982 6.04824 1
18 1 -15 8.21524 7.03985 1
17 -1 -15 -2.0113 5.4771 1
17 1 -15 -0.4011 5.3191 1
16 -1 -15 14.6252 6.5581 1
16 1 -15 17.1947 7.4225 1
15 -1 -15 -3.7929 4.2959 1
15 1 -15 1.13131 3.86766 1
14 -1 -15 41.261 8.8755 1
14 1 -15 50.6389 10.2002 1
13 -1 -15 3.92894 4.98762 1
13 1 -15 6.04154 4.97959 1
12 -1 -15 -5.1354 3.4275 1
12 1 -15 -1.7883 4.1941 1
11 -1 -15 6.8642 5.24996 1
11 1 -15 -0.9516 4.073 1
10 -1 -15 44.0522 6.5229 2
10 -1 -15 22.373 6.7631 1
10 1 -15 31.7139 8.0658 1
9 -1 -15 91.6457 12.1087 1
9 -1 -15 108.64 10.494 2
9 1 -15 108.703 12.916 1
8 -1 -15 15.4667 4.3563 2
8 -1 -15 20.1737 6.0204 1
8 1 -15 13.1978 4.2866 2
8 1 -15 17.7928 5.786 1
7 -1 -15 102.364 10.398 2
7 -1 -15 103.695 12.168 1
7 1 -15 106.503 12.007 1
7 1 -15 101.997 10.157 2
6 -1 -15 38.0726 7.3324 1
6 -1 -15 32.7538 6.1659 2
6 1 -15 39.8422 6.5255 2
6 1 -15 54.0867 8.4154 1
5 -1 -15 130.3 12.136 2
5 -1 -15 129.927 12.904 1
5 1 -15 131.99 11.769 2
5 1 -15 125.468 12.439 1
4 -1 -15 336.396 18.578 2
4 -1 -15 328.599 19.084 1
4 1 -15 349.209 19.097 1
4 1 -15 317.913 18.263 2
3 -1 -15 6.97304 3.29548 2
3 -1 -15 6.10022 3.78769 1
3 1 -15 8.50081 4.13452 1
3 1 -15 5.68207 3.43922 2
2 -1 -15 56.5598 7.9699 2
2 -1 -15 68.1689 8.3566 1
2 1 -15 37.4376 6.6863 2
1 -1 -15 5.14927 3.3001 2
1 -1 -15 -1.1776 2.7458 1
1 1 -15 2.85537 2.87695 2
0 -1 -15 1.3957 2.85302 2
0 1 -15 4.36679 3.5012 2
-1 -1 -15 -0.7037 3.0371 2
-1 1 -15 -0.8583 2.9611 2
-2 -1 -15 144.343 13.987 2
-2 1 -15 89.7003 11.1974 2
-3 -1 -15 2.33464 3.32893 2
-3 1 -15 7.20843 4.01465 2
-4 -1 -15 1.93227 2.9638 2
-4 1 -15 -3.5923 2.7238 2
-5 -1 -15 18.0635 5.8348 2
-5 1 -15 15.8271 5.5039 2
-6 -1 -15 18.8988 5.7049 2
-6 1 -15 29.7885 6.8991 2
-7 -1 -15 0.87865 3.87348 2
-7 1 -15 -0.7014 3.6803 2
-8 -1 -15 1.41653 3.66715 2
-8 1 -15 0.86814 3.96902 2
-9 -1 -15 0.96463 3.97384 2
-9 1 -15 1.07238 3.87313 2
-10 -1 -15 28.6021 7.1733 2
-10 1 -15 39.0016 8.3111 2
-11 -1 -15 2.02431 4.66487 2
-11 1 -15 4.10535 4.91 2
-12 -1 -15 14.1466 6.4762 2
-12 1 -15 6.88329 5.47353 2
18 -2 -15 0.67513 6.04224 1
18 2 -15 -3.9159 5.1646 1
17 -2 -15 18.6497 7.539 1
17 2 -15 12.2911 7.2291 1
16 -2 -15 -2.8073 4.2068 1
16 2 -15 4.19841 5.11247 1
15 -2 -15 6.27104 5.23452 1
15 2 -15 6.24976 5.44062 1
14 -2 -15 11.3931 6.4732 1
14 2 -15 5.96044 5.10536 1
13 -2 -15 3.9417 5.10218 1
13 2 -15 1.04491 4.78559 1
12 -2 -15 5.76037 5.10456 1
12 2 -15 -2.8665 3.873 1
11 -2 -15 4.28412 4.77223 1
11 2 -15 -0.4787 3.7365 1
10 -2 -15 35.4337 7.7236 1
10 2 -15 23.0976 6.8241 1
9 -2 -15 36.3879 7.6328 1
9 2 -15 20.3411 6.4149 1
8 -2 -15 63.0184 9.6941 1
8 2 -15 42.6659 8.1589 1
7 -2 -15 174.196 15.925 1
7 2 -15 137.163 14.111 1
7 2 -15 164.315 11.631 2
6 -2 -15 65.1916 9.609 1
6 2 -15 83.3508 9.1988 2
6 2 -15 58.805 8.7394 1
5 -2 -15 30.0549 6.7959 1
5 -2 -15 29.5083 5.9544 2
5 2 -15 43.3792 7.3871 1
5 2 -15 35.3096 6.2416 2
4 -2 -15 62.9867 8.9038 1
4 -2 -15 44.1685 7.3382 2
4 2 -15 42.7781 6.9725 2
4 2 -15 53.4069 7.897 1
3 -2 -15 1.17149 2.77798 2
3 -2 -15 2.71078 3.57099 1
3 2 -15 3.43107 3.6431 1
3 2 -15 1.0057 3.17691 2
2 -2 -15 9.95983 4.3216 1
2 -2 -15 2.37106 2.86459 2
2 2 -15 -0.3035 2.6033 2
1 -2 -15 -2.0933 2.8043 1
1 -2 -15 -3.5591 2.3421 2
1 2 -15 0.07418 2.65133 2
0 -2 -15 26.746 6.2439 2
0 2 -15 26.2141 6.1819 2
-1 -2 -15 37.9636 7.2289 2
-1 2 -15 41.0351 7.4395 2
-2 -2 -15 48.5866 8.3528 2
-2 2 -15 57.8963 8.8458 2
-3 -2 -15 17.1193 5.2809 2
-3 2 -15 16.9384 5.5196 2
-4 -2 -15 1.85262 3.66379 2
-4 2 -15 0.5732 3.07803 2
-5 -2 -15 15.7208 5.0473 2
-5 2 -15 5.39885 4.28967 2
-6 -2 -15 3.70077 3.53907 2
-6 2 -15 -0.5347 3.43 2
-7 -2 -15 -0.0234 3.7197 2
-7 2 -15 4.62576 4.1991 2
-8 -2 -15 -1.406 3.5017 2
-8 2 -15 3.84112 4.32691 2
-9 -2 -15 2.6213 4.1061 2
-9 2 -15 5.34619 4.44374 2
-10 -2 -15 9.50683 5.24911 2
-10 2 -15 -1.4751 3.7463 2
-11 -2 -15 4.48299 5.00948 2
-11 2 -15 2.36665 4.87563 2
-12 2 -15 -1.6518 4.0346 2
18 -3 -15 1.75273 5.46654 1
18 3 -15 3.80931 6.22236 1
17 -3 -15 1.86548 5.63042 1
17 3 -15 -2.5203 5.5859 1
16 -3 -15 -2.206 5.3327 1
16 3 -15 2.83994 5.34443 1
15 -3 -15 -2.4263 4.6332 1
15 3 -15 1.61851 5.47153 1
14 -3 -15 22.9417 7.7297 1
14 3 -15 26.2582 7.6923 1
13 -3 -15 34.301 8.5554 1
13 3 -15 14.0486 5.9934 1
12 -3 -15 6.80671 5.1152 1
12 3 -15 -2.5136 3.4096 1
11 -3 -15 21.7771 6.8753 1
11 3 -15 17.7093 6.3434 1
10 -3 -15 14.087 5.5534 1
10 3 -15 8.30345 5.33684 1
9 -3 -15 17.2889 6.3887 1
9 3 -15 20.0619 6.2434 1
8 -3 -15 2.08756 4.50994 1
8 3 -15 7.32225 4.72943 1
7 -3 -15 0.51061 3.55305 1
7 3 -15 3.40269 3.29204 2
7 3 -15 -0.59 3.7678 1
6 -3 -15 9.50911 5.22056 1
6 3 -15 1.38194 3.96135 1
6 3 -15 7.01916 4.07946 2
5 -3 -15 182.574 13.751 1
5 3 -15 171.179 13.152 1
5 3 -15 154.977 11.854 2
4 -3 -15 86.2676 10.7204 1
4 3 -15 105.528 11.001 1
4 3 -15 76.399 9.5713 2
3 -3 -15 25.8009 6.2361 1
3 3 -15 14.1298 4.7657 2
2 -3 -15 9.74735 4.50921 1
2 -3 -15 16.3828 4.8396 2
2 3 -15 16.0258 4.8972 2
1 -3 -15 55.6927 8.6586 2
1 -3 -15 57.1166 8.478 1
1 3 -15 62.5917 8.9458 2
0 -3 -15 28.0215 6.0643 1
0 -3 -15 27.7056 6.2906 2
0 3 -15 30.956 6.5195 2
-1 -3 -15 3.74222 3.30674 2
-1 3 -15 2.66826 3.13011 2
-2 -3 -15 3.10274 3.59606 2
-2 3 -15 7.82212 4.46162 2
-3 -3 -15 33.1596 6.9809 2
-3 3 -15 38.17 7.3849 2
-4 -3 -15 -1.5525 3.3206 2
-4 3 -15 1.17035 3.7191 2
-5 -3 -15 0.32939 3.57322 2
-5 3 -15 -2.0466 3.5677 2
-6 -3 -15 1.5789 3.62918 2
-6 3 -15 6.54396 4.77991 2
-7 -3 -15 6.11209 4.38845 2
-7 3 -15 3.7333 4.39922 2
-8 -3 -15 9.11396 4.81506 2
-8 3 -15 6.14035 4.6983 2
-9 -3 -15 -1.1322 3.8175 2
-9 3 -15 2.26325 4.58587 2
-10 -3 -15 0.49752 4.16586 2
-10 3 -15 -1.524 4.0555 2
-11 3 -15 18.0463 6.707 2
17 -4 -15 5.20089 6.87389 1
17 4 -15 8.50327 7.2086 1
16 -4 -15 54.1931 11.3885 1
16 4 -15 67.763 12.5423 1
15 -4 -15 6.17154 5.73003 1
15 4 -15 6.05901 5.91635 1
14 -4 -15 3.8301 5.16944 1
14 4 -15 12.0911 6.3098 1
13 -4 -15 1.59065 4.42247 1
13 4 -15 5.71981 5.10075 1
12 -4 -15 3.03821 4.77772 1
12 4 -15 -0.5653 4.6268 1
11 -4 -15 -1.6792 3.9632 1
11 4 -15 -2.6223 3.9243 1
10 -4 -15 25.1568 7.1677 1
10 4 -15 7.25714 4.67942 1
9 -4 -15 -0.5825 3.8476 1
9 4 -15 -1.8512 4.0436 1
8 -4 -15 1.30586 4.10517 1
8 4 -15 1.301 4.09336 1
7 -4 -15 11.1784 5.1016 1
7 4 -15 9.40534 5.06198 1
6 -4 -15 -3.869 3.0595 1
6 4 -15 -2.7683 3.0054 2
6 4 -15 2.91372 3.76227 1
5 -4 -15 -1.2133 3.1333 1
5 4 -15 -2.4596 2.6839 2
5 4 -15 2.65631 3.85873 1
4 -4 -15 1.86094 3.12911 1
4 4 -15 3.84171 3.99919 1
4 4 -15 2.14948 3.1087 2
3 -4 -15 14.2073 5.1791 1
3 4 -15 34.1246 6.3877 2
2 -4 -15 3.90757 3.76571 1
2 4 -15 0.98703 2.91138 2
1 -4 -15 81.8905 10.4373 1
1 4 -15 76.9175 9.7178 2
0 -4 -15 50.851 8.1189 1
0 4 -15 45.2824 8.005 2
-1 -4 -15 14.1741 5.3042 2
-1 4 -15 6.97756 4.22679 2
-2 -4 -15 18.5609 5.7518 2
-2 4 -15 28.2006 6.6925 2
-3 -4 -15 -2.2267 3.2871 2
-3 4 -15 9.46023 4.43949 2
-4 -4 -15 6.15119 4.27888 2
-4 4 -15 0.90792 3.5443 2
-5 -4 -15 -0.292 3.3727 2
-5 4 -15 3.42439 4.17792 2
-6 -4 -15 0.30389 3.62449 2
-6 4 -15 3.98488 4.12194 2
-7 -4 -15 -0.136 3.6025 2
-7 4 -15 -1.9722 3.5209 2
-8 -4 -15 13.4168 5.5771 2
-8 4 -15 3.14118 4.61446 2
-9 -4 -15 12.7152 5.9833 2
-9 4 -15 17.7823 6.2313 2
-10 -4 -15 5.3384 4.98412 2
-10 4 -15 0.22089 4.76456 2
-11 4 -15 10.3923 5.8208 2
17 -5 -15 10.5387 7.1194 1
17 5 -15 17.997 7.915 1
16 -5 -15 -2.3874 5.3859 1
16 5 -15 6.24818 6.28106 1
15 -5 -15 0.8696 5.66979 1
15 5 -15 11.5916 7.1255 1
14 -5 -15 5.32608 5.71037 1
14 5 -15 1.07385 5.34102 1
13 -5 -15 -3.1993 4.188 1
13 5 -15 14.8688 7.1149 1
12 -5 -15 86.4783 13.1466 1
12 5 -15 73.8696 12.7516 1
11 -5 -15 19.9572 6.8838 1
11 5 -15 13.2455 6.5783 1
10 -5 -15 -0.7043 4.5797 1
10 5 -15 -0.4851 4.3192 1
9 -5 -15 12.7194 5.7496 1
9 5 -15 32.0598 8.4587 1
8 -5 -15 26.1672 7.3381 1
8 5 -15 23.707 7.1888 1
7 -5 -15 2.97204 3.79798 1
7 5 -15 0.41452 3.90197 1
6 -5 -15 25.0431 6.6655 1
6 5 -15 21.3007 5.4499 2
6 5 -15 17.7883 5.9293 1
5 -5 -15 -0.0554 3.4142 1
5 5 -15 -1.9136 2.7624 2
5 5 -15 5.46854 4.0704 1
4 -5 -15 78.8411 10.9813 1
4 5 -15 60.3158 8.4941 2
3 -5 -15 3.64457 4.25427 1
3 5 -15 2.01713 3.59618 2
2 -5 -15 29.4643 6.6504 1
2 5 -15 10.1191 4.526 2
1 -5 -15 0.2924 3.90904 1
1 5 -15 1.3982 3.52645 2
0 -5 -15 1.44812 3.98731 1
0 5 -15 -6.2179 2.7745 2
-1 -5 -15 4.02987 4.20757 1
-1 5 -15 5.66805 4.3329 2
-2 -5 -15 75.5244 10.6506 2
-2 5 -15 68.8399 10.0868 2
-3 -5 -15 10.7734 5.2176 2
-3 5 -15 5.90383 4.6813 2
-4 -5 -15 47.9242 8.7148 2
-4 5 -15 50.9913 9.2128 2
-5 -5 -15 3.48341 4.31092 2
-5 5 -15 0.74205 3.72845 2
-6 -5 -15 -0.1074 4.0598 2
-6 5 -15 1.99482 4.38254 2
-7 -5 -15 -2.3247 3.7122 2
-7 5 -15 1.56341 3.56404 2
-8 -5 -15 4.91783 5.0446 2
-8 5 -15 3.06854 4.42733 2
-9 -5 -15 4.46659 4.34052 2
-9 5 -15 0.28694 4.30892 2
-10 5 -15 -5.8022 4.2056 2
16 -6 -15 -3.8252 5.5192 1
16 6 -15 3.79617 6.96055 1
15 -6 -15 5.10095 6.11918 1
15 6 -15 2.2936 5.40573 1
14 -6 -15 -2.2519 5.3798 1
14 6 -15 1.0113 5.67264 1
13 -6 -15 -3.3455 4.0402 1
13 6 -15 1.88466 4.87412 1
12 -6 -15 22.6448 7.9243 1
12 6 -15 14.2832 6.6289 1
11 -6 -15 5.50598 5.0617 1
11 6 -15 4.14032 5.99595 1
10 -6 -15 -0.6148 4.0532 1
10 6 -15 0.58993 5.06676 1
9 -6 -15 -3.5324 3.9781 1
9 6 -15 -6.0804 4.3298 1
8 -6 -15 26.0262 7.305 1
8 6 -15 63.9887 10.6734 1
7 -6 -15 1.50721 4.63534 1
7 6 -15 -0.5464 4.0364 1
6 -6 -15 35.9894 8.2151 1
6 6 -15 27.462 7.3964 1
5 -6 -15 -2.0914 3.6324 1
5 6 -15 1.24786 3.61378 2
5 6 -15 1.01762 4.27734 1
4 -6 -15 0.06461 4.05168 1
4 6 -15 -2.2264 2.8857 2
3 -6 -15 5.87444 4.62508 1
3 6 -15 12.748 4.6248 2
2 -6 -15 141.298 15.236 1
2 6 -15 158.023 14.399 2
1 -6 -15 12.8931 5.5463 1
1 6 -15 10.2965 4.8809 2
0 -6 -15 71.1326 10.251 1
0 6 -15 58.1599 9.0764 2
-1 -6 -15 -1.8403 3.3343 1
-1 6 -15 0.88134 3.60986 2
-2 6 -15 6.07778 4.55253 2
-3 6 -15 5.41567 4.34699 2
-4 -6 -15 14.811 5.2776 2
-4 6 -15 4.55619 4.19851 2
-5 -6 -15 -2.0811 3.5965 2
-5 6 -15 -4.9167 3.4335 2
-6 -6 -15 2.98178 4.44268 2
-6 6 -15 1.30973 3.889 2
-7 -6 -15 0.01307 4.1967 2
-7 6 -15 7.86335 5.28842 2
-8 -6 -15 2.8634 4.80275 2
-8 6 -15 7.23958 5.86641 2
-9 -6 -15 3.40364 5.35214 2
-9 6 -15 1.1992 4.6375 2
15 -7 -15 9.43538 7.1377 1
15 7 -15 8.45803 6.69084 1
14 -7 -15 -1.6143 5.5819 1
14 7 -15 -1.8454 4.6908 1
13 -7 -15 -1.5579 5.4266 1
13 7 -15 -2.334 4.5356 1
12 -7 -15 5.41314 5.82567 1
12 7 -15 4.02873 5.76741 1
11 -7 -15 3.50375 5.49541 1
11 7 -15 -1.938 4.9365 1
10 -7 -15 32.9299 9.0548 1
10 7 -15 18.1139 7.3974 1
9 -7 -15 -3.3888 3.7322 1
9 7 -15 0.09992 5.06755 1
8 -7 -15 22.7631 7.2734 1
8 7 -15 8.9319 5.74087 1
7 -7 -15 -3.5264 3.2575 1
7 7 -15 -4.9369 4.0307 1
6 -7 -15 2.14521 4.51801 1
6 7 -15 7.64491 5.41107 1
5 -7 -15 28.9357 7.7184 1
5 7 -15 29.0854 6.3583 2
4 -7 -15 6.23847 5.0768 1
4 7 -15 9.84756 4.55681 2
3 -7 -15 -0.9101 4.1258 1
3 7 -15 4.2212 3.89246 2
2 -7 -15 5.31737 4.78454 1
2 7 -15 1.99425 3.77049 2
1 -7 -15 1.38843 4.29209 1
1 7 -15 0.90702 3.75855 2
0 -7 -15 0.47937 4.37972 1
0 7 -15 -6.1816 2.868 2
-1 -7 -15 2.92932 4.34383 1
-1 7 -15 3.42274 4.15342 2
-2 7 -15 53.1077 9.1083 2
-3 7 -15 2.32505 3.7291 2
-4 7 -15 36.5137 8.2099 2
-5 -7 -15 8.95533 5.60556 2
-5 7 -15 9.75353 5.29928 2
-6 -7 -15 0.45123 4.45949 2
-6 7 -15 -1.4378 3.9231 2
-7 -7 -15 9.15378 5.48879 2
-7 7 -15 2.16314 4.45236 2
-8 -7 -15 2.09623 4.67833 2
-8 7 -15 4.56982 4.74918 2
13 -8 -15 8.81301 6.78037 1
13 8 -15 8.46655 6.74299 1
12 -8 -15 2.81011 6.37036 1
12 8 -15 4.48525 6.06815 1
11 -8 -15 4.45092 6.10993 1
11 8 -15 -3.1026 4.7043 1
10 -8 -15 8.82485 6.0061 1
10 8 -15 0.13066 5.06127 1
9 -8 -15 1.70151 4.8943 1
9 8 -15 0.63623 4.83016 1
8 -8 -15 10.3929 6.1515 1
8 8 -15 16.2616 6.577 1
7 -8 -15 32.2408 8.7901 1
7 8 -15 12.8693 6.5441 1
6 -8 -15 25.9309 8.1098 1
6 8 -15 7.49945 5.86323 1
5 -8 -15 21.6541 7.2091 1
4 -8 -15 -0.2006 4.759 1
4 8 -15 5.03824 4.10131 2
3 -8 -15 2.07014 5.2922 1
3 8 -15 2.65702 4.22577 2
2 -8 -15 0.94886 4.93506 1
2 8 -15 2.95018 3.94367 2
1 -8 -15 4.05276 4.65784 1
1 8 -15 4.37562 4.5522 2
0 -8 -15 12.462 5.5126 1
0 8 -15 -0.3662 3.4248 2
-1 -8 -15 10.966 5.2013 1
-1 8 -15 12.5357 5.2493 2
-2 -8 -15 -1.8222 3.6207 1
-2 8 -15 2.41499 4.27258 2
-3 8 -15 6.01448 4.6973 2
-4 8 -15 0.33678 3.99871 2
-5 8 -15 -3.4064 4.0232 2
-6 -8 -15 -3.8726 4.4537 2
-6 8 -15 2.15287 4.50679 2
11 -9 -15 8.72904 6.43821 1
11 9 -15 -1.418 5.5721 1
10 -9 -15 21.079 7.9096 1
10 9 -15 11.8878 7.0865 1
9 -9 -15 0.52313 5.33478 1
9 9 -15 3.18172 5.06083 1
8 -9 -15 1.84181 5.41372 1
8 9 -15 4.37138 5.91463 1
7 -9 -15 1.38601 5.15973 1
7 9 -15 -2.1175 5.2167 1
6 -9 -15 0.72808 5.51539 1
5 -9 -15 11.0522 7.056 1
4 -9 -15 -3.2469 4.8304 1
3 -9 -15 24.4528 7.7767 1
3 9 -15 27.3814 6.8012 2
2 -9 -15 -0.7358 4.859 1
2 9 -15 2.67909 4.58028 2
1 -9 -15 6.29173 5.28408 1
1 9 -15 -0.0786 4.3182 2
0 -9 -15 2.81567 5.05526 1
0 9 -15 4.07924 4.79899 2
-1 -9 -15 14.3149 5.7881 1
-1 9 -15 11.5315 5.7826 2
-2 -9 -15 20.0567 6.4283 1
-2 9 -15 10.3161 5.5146 2
-3 9 -15 19.2715 6.833 2
-4 9 -15 71.7638 11.4799 2
8 10 -15 1.73316 5.851 1
7 -10 -15 -2.9404 4.5781 1
6 -10 -15 -4.5926 5.4155 1
5 -10 -15 11.0711 7.2183 1
4 -10 -15 0.22651 5.71251 1
3 -10 -15 2.74687 5.24169 1
2 -10 -15 26.4558 8.7808 1
2 10 -15 22.2514 7.003 2
1 -10 -15 -1.4663 4.9681 1
1 10 -15 -1.3863 4.3079 2
0 -10 -15 32.3075 8.2608 1
0 10 -15 35.1042 8.3754 2
-1 10 -15 -0.9116 4.8394 2
18 0 -16 -0.7764 5.1453 1
17 0 -16 -3.4715 5.0466 1
16 0 -16 10.1544 6.5365 1
15 0 -16 4.37428 5.25608 1
14 0 -16 -1.452 4.3545 1
13 0 -16 1.72607 4.94269 1
12 0 -16 -0.7407 4.3345 1
11 0 -16 1.47226 3.9026 1
10 0 -16 40.5045 8.4694 1
9 0 -16 4.71182 3.34508 2
9 0 -16 -3.2284 3.0003 1
8 0 -16 101.788 12.331 1
8 0 -16 100.97 10.439 2
7 0 -16 0.4367 3.61467 1
7 0 -16 2.57132 2.82155 2
6 0 -16 116.841 11.757 2
6 0 -16 144.691 13.943 1
5 0 -16 2.89134 3.10533 2
5 0 -16 1.63451 3.69999 1
4 0 -16 1.18609 3.57464 1
4 0 -16 2.82779 2.95684 2
3 0 -16 0.51484 3.02026 2
3 0 -16 0.26862 3.41723 1
2 0 -16 -2.1872 2.1243 2
1 0 -16 -2.0217 2.6152 2
0 0 -16 12.7447 4.7354 2
-1 0 -16 -0.9549 2.5958 2
-2 0 -16 5.95184 4.47829 2
-3 0 -16 0.52256 3.15969 2
-4 0 -16 134.7 14.433 2
-5 0 -16 0.49809 3.60639 2
-6 0 -16 78.8391 11.2391 2
-7 0 -16 -0.1728 3.907 2
-8 0 -16 10.1663 5.1027 2
-9 0 -16 -3.1286 3.968 2
-10 0 -16 35.4163 8.1833 2
-11 0 -16 -1.8418 4.6447 2
18 -1 -16 -1.1579 5.4634 1
18 1 -16 -3.5164 5.4289 1
17 -1 -16 -0.5114 5.8735 1
17 1 -16 0.32852 5.56985 1
16 -1 -16 -0.5324 5.054 1
16 1 -16 7.5027 5.74712 1
15 -1 -16 13.8918 6.6541 1
15 1 -16 5.14149 5.51055 1
14 -1 -16 4.96236 4.84788 1
14 1 -16 4.65969 5.36217 1
13 -1 -16 0.1764 4.33007 1
13 1 -16 0.83711 4.36781 1
12 -1 -16 5.47389 5.03466 1
12 1 -16 1.20576 4.22964 1
11 -1 -16 2.17011 4.66291 1
11 1 -16 1.69156 4.4797 1
10 -1 -16 60.1666 10.1954 1
10 1 -16 72.4912 11.0761 1
9 -1 -16 10.7392 5.2686 1
9 -1 -16 4.86997 3.23926 2
9 1 -16 4.89542 4.22227 1
8 -1 -16 8.2361 4.66449 1
8 -1 -16 5.63868 3.50682 2
8 1 -16 11.249 3.9117 2
8 1 -16 1.23011 4.29189 1
7 -1 -16 25.2979 6.61 1
7 -1 -16 37.7123 6.4106 2
7 1 -16 36.3845 6.4493 2
7 1 -16 36.094 7.4916 1
6 -1 -16 0.28444 3.69366 1
6 -1 -16 -0.2352 2.8964 2
6 1 -16 -3.0766 2.2611 2
6 1 -16 0.92077 3.47035 1
5 -1 -16 23.6121 6.2153 1
5 -1 -16 15.5812 4.7167 2
5 1 -16 26.3191 5.7477 2
5 1 -16 20.0399 5.2469 1
4 -1 -16 75.0965 9.5134 2
4 -1 -16 86.4077 10.1743 1
4 1 -16 60.8694 8.5308 2
4 1 -16 78.8561 9.7905 1
3 -1 -16 -4.9426 1.9318 2
3 -1 -16 10.6281 4.6725 1
3 1 -16 2.27023 2.89735 2
3 1 -16 3.04155 3.91268 1
2 -1 -16 178.5 12.572 1
2 -1 -16 137.03 13.368 2
2 1 -16 133.804 13.004 2
1 -1 -16 2.91928 3.33516 2
1 1 -16 -0.9967 3.0346 2
0 -1 -16 126.882 13.083 2
0 1 -16 114.269 12.322 2
-1 -1 -16 -1.7755 3.2154 2
-1 1 -16 -1.428 2.8488 2
-2 -1 -16 17.636 5.7663 2
-2 1 -16 22.0064 5.8833 2
-3 -1 -16 -0.7414 2.8939 2
-3 1 -16 4.22235 3.7997 2
-4 -1 -16 8.26165 4.35835 2
-4 1 -16 10.0314 4.821 2
-5 -1 -16 6.06658 4.05703 2
-5 1 -16 1.8957 3.79787 2
-6 -1 -16 -0.1193 3.943 2
-6 1 -16 4.41702 4.44388 2
-7 -1 -16 -2.0531 3.1316 2
-7 1 -16 0.57437 3.96296 2
-8 -1 -16 6.83831 4.84003 2
-8 1 -16 -1.8829 4.0534 2
-9 -1 -16 -1.764 3.8562 2
-9 1 -16 -1.784 3.9336 2
-10 -1 -16 -1.9364 4.2737 2
-10 1 -16 -0.3307 4.4894 2
-11 -1 -16 1.01512 4.70179 2
-11 1 -16 6.96138 5.43004 2
18 -2 -16 2.14184 6.71661 1
18 2 -16 10.3856 6.7876 1
17 -2 -16 3.10072 5.6819 1
17 2 -16 -3.9876 4.8354 1
16 -2 -16 2.45372 5.53387 1
16 2 -16 -1.0781 4.5008 1
15 -2 -16 3.45206 5.50744 1
15 2 -16 7.34335 6.06995 1
14 -2 -16 5.82994 5.15373 1
14 2 -16 3.61473 5.49963 1
13 -2 -16 0.095 4.78616 1
13 2 -16 0.3618 4.52701 1
12 -2 -16 1.28547 4.60316 1
12 2 -16 -1.3844 4.3054 1
11 -2 -16 -6.8351 3.19 1
11 2 -16 0.67183 3.86456 1
10 -2 -16 9.49197 5.78702 1
10 2 -16 7.34895 4.67378 1
9 -2 -16 0.41129 4.07647 1
9 2 -16 -3.7977 3.2624 1
8 -2 -16 4.32861 4.53282 1
8 2 -16 0.69904 2.84762 2
8 2 -16 4.31753 4.23977 1
7 -2 -16 -0.7827 3.628 1
7 -2 -16 0.13175 2.82964 2
7 2 -16 -0.5129 2.949 2
7 2 -16 1.26493 3.26836 1
6 -2 -16 15.8997 4.7694 2
6 -2 -16 13.0722 4.9473 1
6 2 -16 7.4734 4.24394 1
6 2 -16 11.3668 4.4592 2
5 -2 -16 62.0379 9.4224 1
5 -2 -16 94.4751 10.4884 2
5 2 -16 75.1952 9.3438 2
5 2 -16 81.3028 10.3736 1
4 -2 -16 0.48901 3.05414 2
4 -2 -16 1.7571 3.86458 1
4 2 -16 0.22676 3.19336 2
4 2 -16 3.21562 4.14089 1
3 -2 -16 50.7775 8.0575 2
3 -2 -16 48.5368 7.9986 1
3 2 -16 52.7955 8.0116 2
2 -2 -16 27.3229 5.7797 1
2 -2 -16 8.42306 4.26396 2
2 2 -16 1.04468 3.66118 2
1 -2 -16 16.1283 5.3527 2
1 2 -16 30.6244 6.6466 2
0 -2 -16 25.7791 6.3894 2
0 2 -16 38.2749 7.5137 2
-1 -2 -16 28.0494 6.467 2
-1 2 -16 7.27916 4.32658 2
-2 -2 -16 6.62023 4.09656 2
-2 2 -16 15.5651 5.1451 2
-3 -2 -16 6.73312 4.06011 2
-3 2 -16 10.6415 5.1024 2
-4 -2 -16 9.21129 4.60323 2
-4 2 -16 8.2604 4.83718 2
-5 -2 -16 2.58128 3.99098 2
-5 2 -16 -0.083 3.312 2
-6 -2 -16 10.1331 4.598 2
-6 2 -16 -1.1183 3.3445 2
-7 -2 -16 -0.3022 3.772 2
-7 2 -16 -1.7275 3.6457 2
-8 -2 -16 -1.4416 3.9726 2
-8 2 -16 3.96039 4.67557 2
-9 -2 -16 2.82939 4.53115 2
-9 2 -16 7.54856 5.14692 2
-10 -2 -16 28.2245 7.5932 2
-10 2 -16 14.577 6.3133 2
17 -3 -16 1.22745 6.48502 1
17 3 -16 -1.024 5.6093 1
16 -3 -16 -5.6749 5.2278 1
16 3 -16 2.22882 5.53175 1
15 -3 -16 -6.5968 4.4057 1
15 3 -16 8.54216 6.01733 1
14 -3 -16 2.77957 4.62275 1
14 3 -16 3.21864 5.20206 1
13 -3 -16 -1.3023 4.7253 1
13 3 -16 2.04775 4.51274 1
12 -3 -16 12.6479 5.9287 1
12 3 -16 22.0005 7.0039 1
11 -3 -16 20.2771 6.7865 1
11 3 -16 9.50567 5.37807 1
10 -3 -16 12.358 6.1811 1
10 3 -16 8.70799 5.57415 1
9 -3 -16 3.42837 4.07386 1
9 3 -16 0.05212 3.6276 1
8 -3 -16 10.7131 5.4809 1
8 3 -16 1.68967 4.10768 1
7 -3 -16 27.4415 7.1353 1
7 3 -16 18.6939 5.2147 2
7 3 -16 40.5126 7.9655 1
6 -3 -16 64.8563 9.8833 1
6 3 -16 49.0661 7.7875 2
6 3 -16 61.66 9.3932 1
5 -3 -16 43.1904 8.1653 1
5 3 -16 31.9473 6.8781 1
5 3 -16 24.7976 5.9185 2
4 -3 -16 5.11374 4.03751 1
4 3 -16 13.3149 4.6151 2
3 -3 -16 5.35831 3.98431 1
3 -3 -16 4.33904 3.97028 2
3 3 -16 5.62556 3.58841 2
2 -3 -16 7.67148 4.19383 2
2 -3 -16 25.5593 6.3613 1
2 3 -16 12.3191 4.8551 2
1 -3 -16 0.28549 3.32713 2
1 -3 -16 -0.4388 3.075 1
1 3 -16 -0.2315 3.2692 2
0 -3 -16 12.6278 4.7572 2
0 3 -16 7.88774 4.64199 2
-1 -3 -16 19.4326 5.674 2
-1 3 -16 17.3524 5.7501 2
-2 -3 -16 2.29116 3.73221 2
-2 3 -16 1.74247 3.32302 2
-3 -3 -16 8.66096 4.7539 2
-3 3 -16 4.603 4.24077 2
-4 -3 -16 13.5284 5.1597 2
-4 3 -16 3.11383 4.31615 2
-5 -3 -16 0.33167 3.83566 2
-5 3 -16 -0.1005 3.944 2
-6 -3 -16 6.22362 4.4611 2
-6 3 -16 11.2622 5.3902 2
-7 -3 -16 2.31777 4.27584 2
-7 3 -16 -2.8045 3.6824 2
-8 -3 -16 5.16053 4.83841 2
-8 3 -16 -2.5981 3.67 2
-9 -3 -16 10.7735 5.8862 2
-9 3 -16 14.1957 6.699 2
-10 -3 -16 26.5003 7.1933 2
17 -4 -16 -2.1253 6.189 1
17 4 -16 2.73447 5.99371 1
16 -4 -16 20.6862 7.8075 1
16 4 -16 16.7037 7.7771 1
15 -4 -16 2.18844 5.86221 1
15 4 -16 3.30709 5.66574 1
14 -4 -16 30.1853 8.6278 1
14 4 -16 8.20876 6.36086 1
13 -4 -16 1.57261 5.2543 1
13 4 -16 7.30606 6.02477 1
12 -4 -16 19.2532 7.4861 1
12 4 -16 22.2942 7.6166 1
11 -4 -16 0.92415 4.34512 1
11 4 -16 4.81756 5.31503 1
10 -4 -16 0.94092 4.45627 1
10 4 -16 6.4587 5.22321 1
9 -4 -16 39.7265 8.8909 1
9 4 -16 54.119 9.9459 1
8 -4 -16 22.9366 7.1462 1
8 4 -16 30.8882 7.6635 1
7 -4 -16 22.6903 6.4954 1
7 4 -16 21.9501 6.8174 1
6 -4 -16 20.9484 6.4261 1
6 4 -16 26.435 7.1299 1
6 4 -16 16.9051 4.8226 2
5 -4 -16 18.7426 6.1288 1
5 4 -16 18.4872 5.1583 2
5 4 -16 21.5655 6.2871 1
4 -4 -16 1.70271 3.66021 1
4 4 -16 -0.9939 3.1146 2
3 -4 -16 6.86793 4.37591 1
3 4 -16 10.0697 4.5487 2
2 -4 -16 -2.9711 3.3097 1
2 4 -16 12.0817 4.7696 2
1 -4 -16 42.6553 7.7138 1
1 -4 -16 35.7957 7.3389 2
1 4 -16 46.8838 8.1842 2
0 -4 -16 2.88796 3.56514 2
0 4 -16 -3.5898 2.4522 2
-1 -4 -16 7.46532 4.496 2
-1 4 -16 16.2689 5.8111 2
-2 -4 -16 59.1301 9.7793 2
-2 4 -16 49.1098 8.9461 2
-3 -4 -16 44.2208 8.5652 2
-3 4 -16 54.1905 9.2404 2
-4 -4 -16 8.68975 4.77145 2
-4 4 -16 19.5099 6.1071 2
-5 -4 -16 4.82043 4.24844 2
-5 4 -16 6.38561 4.1586 2
-6 -4 -16 1.35358 4.34274 2
-6 4 -16 2.85488 4.20888 2
-7 -4 -16 -3.1416 4.1269 2
-7 4 -16 0.7429 4.11721 2
-8 -4 -16 8.57205 5.40373 2
-8 4 -16 2.21022 4.63706 2
-9 -4 -16 10.4341 5.6235 2
-9 4 -16 0.7712 4.52154 2
-10 4 -16 2.97447 5.02585 2
16 -5 -16 -2.0882 6.2097 1
16 5 -16 0.18986 5.53392 1
15 -5 -16 4.61811 5.6363 1
15 5 -16 5.75429 6.3201 1
14 -5 -16 -1.9329 4.7928 1
14 5 -16 -1.25 5.5718 1
13 -5 -16 11.1569 5.724 1
13 5 -16 6.97766 6.29269 1
12 -5 -16 11.8949 6.5383 1
12 5 -16 14.299 6.8912 1
11 -5 -16 3.0849 5.137 1
11 5 -16 3.38295 5.18907 1
10 -5 -16 2.2212 4.00247 1
10 5 -16 2.99933 5.30319 1
9 -5 -16 6.27577 4.56496 1
9 5 -16 -3.1772 3.9218 1
8 -5 -16 29.1396 8.0318 1
8 5 -16 26.203 7.5215 1
7 -5 -16 63.0711 10.5502 1
7 5 -16 67.5717 10.6244 1
6 -5 -16 0.09796 3.56885 1
6 5 -16 0.31323 3.33466 2
6 5 -16 0.71328 3.85412 1
5 -5 -16 -0.5352 3.9746 1
5 5 -16 3.08401 3.80022 2
4 -5 -16 17.4887 6.1032 1
4 5 -16 16.9459 5.3331 2
3 -5 -16 36.1293 7.828 1
3 5 -16 34.9758 6.9168 2
2 -5 -16 19.1223 6.1548 1
2 5 -16 23.5509 5.8699 2
1 -5 -16 29.6348 7.2199 1
1 5 -16 36.7907 7.5622 2
0 -5 -16 5.72673 4.82534 1
0 5 -16 6.54605 4.96712 2
-1 -5 -16 10.3844 4.9766 2
-1 5 -16 15.8261 6.0498 2
-2 -5 -16 1.41967 3.6078 2
-2 5 -16 -2.0795 3.2435 2
-3 -5 -16 1.08415 4.03131 2
-3 5 -16 -1.7526 3.4659 2
-4 -5 -16 5.6792 4.72914 2
-4 5 -16 -0.501 3.9899 2
-5 -5 -16 3.25436 4.07269 2
-5 5 -16 1.95671 4.01375 2
-6 -5 -16 4.12712 4.62294 2
-6 5 -16 7.28466 4.94764 2
-7 -5 -16 2.5242 4.71038 2
-7 5 -16 -1.5021 4.1577 2
-8 -5 -16 6.26869 5.26007 2
-8 5 -16 8.60535 5.81716 2
-9 -5 -16 0.17537 4.78375 2
-9 5 -16 1.85923 4.72084 2
15 -6 -16 0.62927 5.41228 1
15 6 -16 -1.7303 6.2749 1
14 -6 -16 39.3193 10.1919 1
14 6 -16 58.5651 12.5716 1
13 -6 -16 1.54756 4.91391 1
13 6 -16 6.34268 6.69363 1
12 6 -16 78.3956 13.5673 1
11 -6 -16 3.1483 5.47504 1
11 6 -16 4.55532 6.09934 1
10 -6 -16 3.14807 5.24822 1
10 6 -16 -0.2925 4.8633 1
9 -6 -16 0.73055 4.95632 1
9 6 -16 3.38388 5.7816 1
8 -6 -16 39.4577 9.1696 1
8 6 -16 34.6943 8.5501 1
7 -6 -16 15.0799 6.1772 1
7 6 -16 17.5194 6.4481 1
6 -6 -16 4.2596 5.13899 1
6 6 -16 10.9209 5.6943 1
5 -6 -16 -2.4311 4.1213 1
5 6 -16 -1.9192 3.2339 2
4 -6 -16 -0.6839 4.1518 1
4 6 -16 3.97597 3.57757 2
3 -6 -16 -1.1473 3.5577 1
3 6 -16 0.00003 3.91215 2
2 -6 -16 4.94115 4.72483 1
2 6 -16 2.70531 3.7721 2
1 -6 -16 2.95432 4.5169 1
1 6 -16 3.15442 4.05507 2
0 -6 -16 -4.1243 3.7102 1
0 6 -16 -2.6948 3.3012 2
-1 6 -16 14.0921 5.4157 2
-2 6 -16 45.5406 8.6476 2
-3 -6 -16 13.5092 6.1099 2
-3 6 -16 22.9874 6.7157 2
-4 -6 -16 2.89233 4.57513 2
-4 6 -16 -1.7957 4.0464 2
-5 -6 -16 1.97267 4.35641 2
-5 6 -16 10.2578 5.7073 2
-6 -6 -16 -1.1095 4.2981 2
-6 6 -16 -0.0953 4.4983 2
-7 -6 -16 2.34756 4.52688 2
-7 6 -16 -1.4526 4.1611 2
-8 -6 -16 1.50602 5.16905 2
-8 6 -16 -3.2387 4.7489 2
14 -7 -16 28.7303 9.494 1
14 7 -16 6.15182 6.99862 1
13 -7 -16 -0.691 5.7948 1
13 7 -16 -2.3703 5.1906 1
12 -7 -16 4.30643 5.92566 1
12 7 -16 -2.9304 4.9113 1
11 -7 -16 5.18392 5.84536 1
11 7 -16 4.52582 5.99779 1
10 -7 -16 18.8011 7.2602 1
10 7 -16 11.2818 6.5662 1
9 -7 -16 6.90826 5.94378 1
9 7 -16 6.39242 5.45617 1
8 -7 -16 9.70825 6.05615 1
8 7 -16 9.27616 5.58701 1
7 -7 -16 6.04128 5.21327 1
7 7 -16 13.0125 6.1261 1
6 -7 -16 13.1357 6.1783 1
5 -7 -16 -4.3027 4.2861 1
4 -7 -16 1.18299 4.5263 1
4 7 -16 -0.7487 3.6732 2
3 -7 -16 2.27504 4.94906 1
3 7 -16 0.52631 3.78986 2
2 -7 -16 43.261 9.3119 1
2 7 -16 32.2893 7.3067 2
1 -7 -16 18.3311 6.8864 1
1 7 -16 23.6013 6.6039 2
0 -7 -16 4.07162 4.65615 1
0 7 -16 -0.0634 4.1479 2
-1 7 -16 6.81115 4.90177 2
-2 7 -16 7.14925 4.78321 2
-3 7 -16 5.65557 4.78869 2
-4 -7 -16 6.05529 5.10695 2
-4 7 -16 0.84846 3.98273 2
-5 -7 -16 1.60649 4.35474 2
-5 7 -16 6.56378 5.44722 2
-6 -7 -16 6.16902 5.09592 2
-6 7 -16 3.02599 4.69566 2
-7 7 -16 -1.6616 4.003 2
12 -8 -16 11.0574 7.2856 1
12 8 -16 3.97658 5.98596 1
11 -8 -16 23.2311 8.1518 1
11 8 -16 2.01949 6.18087 1
10 -8 -16 1.84703 5.06411 1
10 8 -16 7.80601 5.9182 1
9 -8 -16 4.26391 5.08602 1
9 8 -16 5.30886 5.74172 1
8 -8 -16 28.5757 8.3903 1
8 8 -16 18.2693 6.8661 1
7 -8 -16 6.42757 6.03231 1
6 -8 -16 0.67711 5.41514 1
5 -8 -16 1.25545 5.08354 1
4 -8 -16 25.0714 7.9535 1
4 8 -16 13.6851 5.194 2
3 -8 -16 -1.0673 5.3295 1
3 8 -16 -3.7189 3.2024 2
2 -8 -16 8.33916 5.93132 1
2 8 -16 2.08731 4.06693 2
1 -8 -16 4.82405 5.28882 1
1 8 -16 -0.4059 4.3196 2
0 -8 -16 7.2078 5.93652 1
0 8 -16 6.1399 4.41405 2
-1 -8 -16 2.06166 5.09078 1
-1 8 -16 -3.7107 3.7935 2
-2 8 -16 69.8635 10.9808 2
-3 8 -16 15.459 6.5617 2
-4 8 -16 18.4741 6.7345 2
-5 -8 -16 5.34957 5.40819 2
-5 8 -16 -2.425 4.431 2
9 -9 -16 1.75955 5.53442 1
9 9 -16 2.16531 5.84316 1
8 -9 -16 1.87513 6.24968 1
8 9 -16 8.36928 6.24747 1
7 -9 -16 -1.8294 4.9739 1
6 -9 -16 10.5881 7.0966 1
5 -9 -16 0.54536 4.5222 1
4 -9 -16 3.86587 6.31436 1
3 -9 -16 8.07049 6.77448 1
3 9 -16 12.1959 5.6388 2
2 -9 -16 10.982 6.5859 1
2 9 -16 16.5633 6.3782 2
1 -9 -16 6.46979 6.61129 1
1 9 -16 15.0399 6.0639 2
0 -9 -16 2.9535 4.90739 1
0 9 -16 4.01935 5.16454 2
-1 -9 -16 14.6053 6.8291 1
-1 9 -16 12.9249 6.0773 2
-2 9 -16 -2.7377 4.6992 2
17 0 -17 -8.1225 4.5089 1
16 0 -17 6.68689 5.7394 1
15 0 -17 -0.8199 5.0875 1
14 0 -17 -0.4662 4.5642 1
13 0 -17 -0.1172 4.5736 1
12 0 -17 1.50684 4.70973 1
11 0 -17 0.34293 4.11863 1
10 0 -17 73.1704 11.2706 1
9 0 -17 -0.13 3.4809 2
9 0 -17 1.20075 4.12895 1
8 0 -17 1.55621 3.11647 2
8 0 -17 0.84881 4.29798 1
7 0 -17 3.70808 4.00337 1
7 0 -17 2.98238 3.30872 2
6 0 -17 22.7953 5.6925 2
6 0 -17 16.0813 5.6098 1
5 0 -17 0.34756 3.02752 2
5 0 -17 -1.2385 3.234 1
4 0 -17 11.4345 4.5904 2
4 0 -17 10.6663 4.7259 1
3 0 -17 1.76174 3.29214 2
2 0 -17 15.8188 5.0143 2
1 0 -17 4.73234 3.90438 2
0 0 -17 94.8993 11.671 2
-1 0 -17 1.29391 3.66707 2
-2 0 -17 3.53496 4.03753 2
-3 0 -17 1.42706 3.65471 2
-4 0 -17 -1.2963 3.6635 2
-5 0 -17 4.87066 4.6047 2
-6 0 -17 -2.7065 3.5405 2
-7 0 -17 1.90042 3.97172 2
-8 0 -17 5.04415 4.94025 2
-9 0 -17 -4.4395 4.2401 2
-10 0 -17 8.89976 5.63473 2
17 -1 -17 -5.8634 5.362 1
17 1 -17 -0.9301 5.6998 1
16 -1 -17 19.9001 7.3266 1
16 1 -17 20.6126 7.4911 1
15 -1 -17 4.64061 5.25099 1
15 1 -17 -2.358 4.9883 1
14 -1 -17 1.03751 4.41965 1
14 1 -17 9.10073 6.09754 1
13 -1 -17 -1.6382 4.1075 1
13 1 -17 2.51264 4.5979 1
12 -1 -17 -0.1841 4.3423 1
12 1 -17 4.43655 4.92581 1
11 -1 -17 -0.1699 4.6224 1
11 1 -17 -2.448 4.0211 1
10 -1 -17 11.9622 5.3262 1
10 1 -17 0.76007 4.61919 1
9 -1 -17 -4.0423 4.5568 1
9 -1 -17 11.1935 4.346 2
9 1 -17 1.24749 4.6413 1
8 -1 -17 22.9319 6.6509 1
8 -1 -17 21.2071 5.4367 2
8 1 -17 25.6676 5.6822 2
8 1 -17 17.1636 6.3627 1
7 -1 -17 4.66228 3.52828 2
7 -1 -17 2.22092 4.20271 1
7 1 -17 1.09138 3.91829 1
7 1 -17 5.07336 3.68626 2
6 -1 -17 -2.2364 3.4211 1
6 -1 -17 0.71599 2.92406 2
6 1 -17 0.0007 3.46132 1
6 1 -17 7.1959 3.9036 2
5 -1 -17 4.38484 4.18225 1
5 -1 -17 8.6934 4.05252 2
5 1 -17 3.82891 3.82851 1
5 1 -17 5.93953 3.58343 2
4 -1 -17 4.71278 3.41189 2
4 -1 -17 4.30635 4.11598 1
4 1 -17 4.44239 3.74525 1
4 1 -17 1.69927 3.35905 2
3 -1 -17 16.7668 4.9877 2
3 -1 -17 3.78208 4.23651 1
3 1 -17 13.9898 4.8076 2
2 -1 -17 11.0153 4.9558 2
2 1 -17 8.99489 4.42791 2
1 -1 -17 4.02117 3.51522 2
1 1 -17 8.66551 4.44452 2
0 -1 -17 15.4262 5.5972 2
0 1 -17 18.8656 5.5071 2
-1 -1 -17 -0.4406 3.1178 2
-1 1 -17 2.23911 3.92066 2
-2 -1 -17 2.72788 3.72042 2
-2 1 -17 9.00329 4.89256 2
-3 -1 -17 2.95208 4.31893 2
-3 1 -17 0.058 3.4656 2
-4 -1 -17 29.7313 7.7532 2
-4 1 -17 24.4754 6.7668 2
-5 -1 -17 2.60109 4.24701 2
-5 1 -17 4.66044 4.68537 2
-6 -1 -17 5.30446 4.81961 2
-6 1 -17 -2.7645 3.3756 2
-7 -1 -17 5.19089 4.56079 2
-7 1 -17 0.81776 4.02462 2
-8 -1 -17 7.33692 5.56293 2
-8 1 -17 9.48113 5.71441 2
-9 -1 -17 2.77049 4.77368 2
-9 1 -17 -4.8642 4.3606 2
17 -2 -17 6.14445 6.84722 1
17 2 -17 4.26173 5.94759 1
16 -2 -17 8.26217 6.21213 1
16 2 -17 22.4118 7.8017 1
15 -2 -17 -2.8476 4.857 1
15 2 -17 -1.6141 4.9074 1
14 -2 -17 1.11872 5.30603 1
14 2 -17 0.95056 4.50638 1
13 -2 -17 8.02896 6.4265 1
13 2 -17 3.66283 5.43357 1
12 -2 -17 10.3054 5.4546 1
12 2 -17 17.297 7.1547 1
11 -2 -17 13.3508 6.6004 1
11 2 -17 13.2259 6.0554 1
10 -2 -17 -2.9955 2.7541 2
10 -2 -17 5.02858 4.49559 1
10 2 -17 1.23022 4.29654 1
9 -2 -17 7.52829 3.97396 2
9 -2 -17 9.7214 5.2086 1
9 2 -17 -0.3067 3.8577 1
8 -2 -17 28.3166 6.1558 2
8 -2 -17 29.648 7.6071 1
8 2 -17 29.177 7.3298 1
7 -2 -17 6.61193 3.77814 2
7 -2 -17 9.19473 5.37687 1
7 2 -17 8.0593 3.90141 2
7 2 -17 8.08831 4.50124 1
6 -2 -17 -3.1083 3.4904 1
6 -2 -17 -1.4151 2.818 2
6 2 -17 -0.7764 2.9095 2
6 2 -17 4.63435 4.49025 1
5 -2 -17 58.3741 9.1999 1
5 -2 -17 49.2868 8.0697 2
5 2 -17 58.3613 8.7712 1
5 2 -17 58.4418 8.6936 2
4 -2 -17 5.05933 4.35912 1
4 -2 -17 4.32161 3.5545 2
4 2 -17 9.34043 4.22706 2
3 -2 -17 8.52319 4.6339 1
3 -2 -17 1.13427 3.83474 2
3 2 -17 4.66005 3.95054 2
2 -2 -17 62.4787 9.4994 2
2 2 -17 47.3014 8.0497 2
1 -2 -17 18.6709 5.8806 2
1 2 -17 12.9597 5.0199 2
0 -2 -17 43.5602 8.2101 2
0 2 -17 57.9394 9.0365 2
-1 -2 -17 40.1424 8.3461 2
-1 2 -17 32.2791 7.5864 2
-2 -2 -17 26.3253 6.7883 2
-2 2 -17 22.3496 6.3857 2
-3 -2 -17 1.38385 3.74577 2
-3 2 -17 5.22891 4.62023 2
-4 -2 -17 74.474 10.9764 2
-4 2 -17 50.5164 9.2304 2
-5 -2 -17 2.71517 3.9281 2
-5 2 -17 3.41398 4.33323 2
-6 -2 -17 6.37956 4.93884 2
-6 2 -17 3.90563 4.55597 2
-7 -2 -17 8.90884 4.85505 2
-7 2 -17 0.64981 4.20734 2
-8 -2 -17 4.32732 5.12883 2
-8 2 -17 -3.7161 4.3518 2
-9 -2 -17 -2.4167 4.6247 2
-9 2 -17 -3.9713 4.5149 2
17 -3 -17 -5.3334 5.5453 1
17 3 -17 -1.4358 5.4691 1
16 -3 -17 -0.3162 5.9613 1
16 3 -17 -0.3641 5.4026 1
15 -3 -17 2.95905 5.59645 1
15 3 -17 0.01229 5.36248 1
14 -3 -17 -2.4703 4.8436 1
14 3 -17 -2.2776 5.2661 1
13 -3 -17 2.28512 4.73286 1
13 3 -17 4.9298 5.64665 1
12 -3 -17 26.2192 8.3121 1
12 3 -17 31.3726 8.749 1
11 -3 -17 4.96166 5.36651 1
11 3 -17 0.64153 4.87195 1
10 -3 -17 2.29846 4.30116 1
10 3 -17 0.21739 4.06738 1
9 -3 -17 12.9963 5.7866 1
9 3 -17 -2.1059 3.8705 1
8 -3 -17 3.40027 4.36688 1
8 3 -17 6.16934 4.83049 1
7 -3 -17 3.56521 4.78966 1
7 3 -17 7.49197 4.21452 2
7 3 -17 1.93321 3.72151 1
6 -3 -17 26.6957 7.0611 1
6 3 -17 28.6715 6.7831 1
6 3 -17 21.9844 5.7633 2
5 -3 -17 8.631 4.29789 2
5 -3 -17 8.92131 4.84621 1
5 3 -17 1.50919 3.34945 2
4 -3 -17 87.0267 10.9564 2
4 -3 -17 64.6004 10.0447 1
4 3 -17 73.4649 9.8958 2
3 -3 -17 2.24131 3.9565 1
3 -3 -17 0.9036 3.52848 2
3 3 -17 1.11292 3.28846 2
2 -3 -17 104.948 12.561 2
2 -3 -17 80.4941 10.5265 1
2 3 -17 101.552 11.677 2
1 -3 -17 32.004 7.1724 2
1 3 -17 27.7368 6.9163 2
0 -3 -17 11.6557 5.386 2
0 3 -17 14.6546 5.5114 2
-1 -3 -17 3.26481 3.69827 2
-1 3 -17 3.60848 3.96925 2
-2 -3 -17 7.60131 4.59769 2
-2 3 -17 1.02777 3.90587 2
-3 -3 -17 -1.6355 3.5272 2
-3 3 -17 -1.9048 3.7223 2
-4 -3 -17 3.57104 4.17193 2
-4 3 -17 3.53212 4.22094 2
-5 -3 -17 3.62304 4.6105 2
-5 3 -17 -0.231 3.8155 2
-6 -3 -17 0.29118 3.76428 2
-6 3 -17 -2.0927 3.5436 2
-7 -3 -17 4.0468 4.70987 2
-7 3 -17 -2.8727 3.5994 2
-8 -3 -17 1.66071 4.71566 2
-8 3 -17 -5.5808 3.7339 2
-9 -3 -17 3.4389 5.45246 2
-9 3 -17 5.83536 5.67077 2
16 -4 -17 -2.7045 5.8459 1
16 4 -17 6.2672 6.65814 1
15 -4 -17 1.42384 5.24964 1
15 4 -17 -0.1852 5.1137 1
14 -4 -17 -2.9706 4.4231 1
14 4 -17 -2.6903 5.546 1
13 -4 -17 -1.255 4.9978 1
13 4 -17 0.8451 5.6768 1
12 -4 -17 6.0779 5.32896 1
12 4 -17 7.3269 5.80093 1
11 -4 -17 0.00988 4.88534 1
11 4 -17 4.62645 5.287 1
10 -4 -17 21.6481 7.8488 1
10 4 -17 17.2901 7.1217 1
9 -4 -17 14.7485 6.4251 1
9 4 -17 24.9395 7.4568 1
8 -4 -17 2.72913 4.20206 1
8 4 -17 4.43515 4.97506 1
7 -4 -17 11.1255 5.3944 1
7 4 -17 15.6881 6.4207 1
6 -4 -17 22.705 6.9412 1
6 4 -17 18.3082 6.0436 1
6 4 -17 29.6131 6.4304 2
5 -4 -17 11.375 5.0808 1
5 4 -17 6.3093 4.0078 2
4 -4 -17 60.0285 9.785 1
4 4 -17 37.9856 7.2224 2
3 -4 -17 6.96728 4.61186 1
3 4 -17 2.06271 3.46168 2
2 -4 -17 5.02776 4.20287 1
2 -4 -17 15.106 5.7123 2
2 4 -17 5.13139 4.31904 2
1 -4 -17 16.9346 5.6461 2
1 4 -17 12.8562 5.2161 2
0 -4 -17 30.1167 7.5429 2
0 4 -17 35.7999 7.5541 2
-1 -4 -17 41.7042 8.5957 2
-1 4 -17 38.0592 7.722 2
-2 -4 -17 41.3851 8.6646 2
-2 4 -17 55.1404 9.4541 2
-3 -4 -17 15.3257 5.9986 2
-3 4 -17 6.29398 4.79785 2
-4 -4 -17 17.9519 6.2324 2
-4 4 -17 23.0849 6.6674 2
-5 -4 -17 2.80299 4.50336 2
-5 4 -17 -5.2118 3.1636 2
-6 -4 -17 7.88162 5.00379 2
-6 4 -17 5.48929 4.80276 2
-7 -4 -17 0.06524 4.03212 2
-7 4 -17 3.28354 4.94673 2
-8 -4 -17 8.59671 5.15803 2
-8 4 -17 -2.2758 4.7528 2
15 -5 -17 22.9199 8.7151 1
15 5 -17 19.7382 8.4195 1
14 -5 -17 18.5876 8.1822 1
14 5 -17 8.28032 7.04572 1
13 -5 -17 16.5799 7.1188 1
13 5 -17 25.7573 8.736 1
12 -5 -17 -0.8037 4.4445 1
12 5 -17 1.26934 5.84888 1
11 -5 -17 -3.583 4.66 1
11 5 -17 -1.0096 4.5679 1
10 -5 -17 3.80945 5.3596 1
10 5 -17 10.8705 6.4526 1
9 -5 -17 6.66216 5.41196 1
9 5 -17 14.1519 6.6217 1
8 -5 -17 14.7627 6.6954 1
8 5 -17 7.22485 5.53563 1
7 -5 -17 0.70348 4.53391 1
7 5 -17 4.37302 5.12095 1
6 -5 -17 -0.0843 4.6235 1
6 5 -17 5.75095 4.25175 2
5 -5 -17 11.8048 5.2798 1
5 5 -17 -2.209 3.3703 2
4 -5 -17 -0.9514 3.7429 1
4 5 -17 -1.9308 3.5805 2
3 -5 -17 8.91693 5.58261 1
3 5 -17 17.1003 5.5223 2
2 -5 -17 1.05392 4.24593 1
2 5 -17 1.88785 3.83285 2
1 -5 -17 7.09468 5.31421 1
1 5 -17 6.02835 4.46589 2
0 -5 -17 6.30498 4.61115 2
0 5 -17 5.21357 4.07317 2
-1 -5 -17 0.42795 4.10986 2
-1 5 -17 -4.851 3.3116 2
-2 -5 -17 16.0459 5.8048 2
-2 5 -17 35.9822 7.9107 2
-3 -5 -17 3.17403 4.31096 2
-3 5 -17 5.01265 5.13239 2
-4 -5 -17 5.43528 5.18413 2
-4 5 -17 3.91069 5.25412 2
-5 -5 -17 0.48918 4.06589 2
-5 5 -17 0.18566 4.46571 2
-6 -5 -17 0.28559 4.64887 2
-6 5 -17 -3.0173 4.2056 2
-7 -5 -17 0.93124 4.92875 2
-7 5 -17 0.23401 4.52808 2
-8 5 -17 1.46744 4.78595 2
14 -6 -17 25.5991 8.5119 1
14 6 -17 16.9695 8.3474 1
13 -6 -17 1.97788 5.38143 1
13 6 -17 10.0948 7.5709 1
12 -6 -17 0.53011 5.42094 1
12 6 -17 -2.8931 5.4433 1
11 -6 -17 -2.923 4.8934 1
11 6 -17 9.01966 6.76265 1
10 -6 -17 3.86537 5.55737 1
10 6 -17 10.6837 6.7119 1
9 -6 -17 3.84539 5.08687 1
9 6 -17 2.44898 5.17642 1
8 -6 -17 7.85535 5.94487 1
8 6 -17 18.0111 6.8477 1
7 -6 -17 3.12567 5.17326 1
7 6 -17 -0.3564 4.544 1
6 -6 -17 1.75715 4.80849 1
5 -6 -17 0.70466 4.31548 1
5 6 -17 3.42033 3.94952 2
4 -6 -17 10.0311 5.9745 1
4 6 -17 21.5404 6.364 2
3 -6 -17 28.8851 7.7483 1
3 6 -17 21.7422 6.082 2
2 -6 -17 31.3792 7.8522 1
2 6 -17 43.1109 8.1355 2
1 -6 -17 -1.7748 4.2911 1
1 6 -17 0.64604 3.79957 2
0 6 -17 4.33922 4.10845 2
-1 6 -17 3.23842 4.26755 2
-2 -6 -17 7.27405 5.34757 2
-2 6 -17 12.1082 5.3123 2
-3 -6 -17 4.57415 4.95131 2
-3 6 -17 3.72642 5.13935 2
-4 -6 -17 -1.3514 4.6849 2
-4 6 -17 -1.7479 4.386 2
-5 -6 -17 3.36731 4.80943 2
-5 6 -17 2.11235 5.02056 2
-6 -6 -17 5.4568 4.80955 2
-6 6 -17 2.14843 4.8635 2
13 7 -17 3.80787 5.58622 1
12 -7 -17 15.9136 7.1606 1
12 7 -17 15.221 7.9473 1
11 -7 -17 2.4588 5.56711 1
11 7 -17 5.44449 6.19311 1
10 -7 -17 29.7051 8.8923 1
10 7 -17 13.5668 6.852 1
9 -7 -17 -2.5707 5.0327 1
9 7 -17 0.78219 5.28055 1
8 -7 -17 6.2752 5.73625 1
8 7 -17 3.3349 5.51939 1
7 -7 -17 3.01746 5.36177 1
6 -7 -17 -1.8648 4.4914 1
5 -7 -17 9.51403 6.7537 1
4 -7 -17 5.05206 5.24119 1
4 7 -17 3.59047 4.09378 2
3 -7 -17 6.14223 5.33809 1
3 7 -17 2.90589 4.41629 2
2 -7 -17 5.10143 5.35836 1
2 7 -17 2.00468 4.22692 2
1 -7 -17 3.4215 5.09301 1
1 7 -17 5.02935 4.62868 2
0 7 -17 29.3301 7.5782 2
-1 7 -17 2.97695 4.5771 2
-2 7 -17 32.702 8.0413 2
-3 -7 -17 11.2474 5.7527 2
-3 7 -17 5.96979 5.39749 2
-4 -7 -17 7.93178 5.2761 2
-4 7 -17 8.22594 4.86404 2
-5 -7 -17 7.59115 5.63588 2
-5 7 -17 -1.1562 4.8481 2
10 -8 -17 2.76643 5.89377 1
10 8 -17 -1.4022 5.3869 1
9 -8 -17 2.65786 5.28427 1
9 8 -17 -2.396 5.5266 1
8 -8 -17 24.1359 8.4606 1
7 -8 -17 8.28068 6.53942 1
6 -8 -17 5.17421 5.77426 1
5 -8 -17 -0.9979 6.075 1
4 -8 -17 -2.4238 4.8241 1
3 -8 -17 3.49132 5.2428 1
3 8 -17 8.8218 5.26622 2
2 -8 -17 5.26291 5.74384 1
2 8 -17 3.61044 4.20396 2
1 -8 -17 0.90193 5.59888 1
1 8 -17 10.8033 5.0537 2
0 -8 -17 11.8465 7.0292 1
0 8 -17 8.25546 5.64238 2
-1 8 -17 -3.3331 3.6945 2
-2 8 -17 2.88161 4.75279 2
-3 8 -17 0.7319 5.17037 2
6 -9 -17 -0.695 5.62 1
5 -9 -17 2.25206 5.7822 1
4 -9 -17 -0.0904 5.2552 1
3 -9 -17 -3.6397 5.6314 1
3 9 -17 1.12211 4.9062 2
2 -9 -17 7.86811 7.06994 1
2 9 -17 3.3816 5.09522 2
1 -9 -17 -2.5007 5.5131 1
1 9 -17 -3.1934 4.1218 2
0 9 -17 21.5993 7.6595 2
16 0 -18 -1.0486 4.8682 1
15 0 -18 -0.4471 5.4143 1
14 0 -18 14.4713 6.4308 1
13 0 -18 -5.5085 4.6607 1
12 0 -18 9.74562 5.87188 1
11 0 -18 -0.7481 4.4674 1
10 0 -18 -0.9126 4.2438 1
9 0 -18 -3.4591 4.0619 1
9 0 -18 -5.0781 2.7913 2
8 0 -18 6.7848 4.24032 2
8 0 -18 7.75318 5.03362 1
7 0 -18 -2.927 3.1189 2
7 0 -18 3.12173 4.22086 1
6 0 -18 2.6142 4.42697 1
6 0 -18 3.89648 3.59861 2
5 0 -18 -0.8222 3.7237 1
5 0 -18 3.03884 3.07331 2
4 0 -18 27.3709 6.3686 2
3 0 -18 -2.424 3.2204 2
2 0 -18 21.9539 6.4645 2
1 0 -18 -0.6356 3.7264 2
0 0 -18 61.1484 9.5534 2
-1 0 -18 3.40408 4.06947 2
-2 0 -18 12.0631 5.2659 2
-3 0 -18 0.43691 3.67641 2
-4 0 -18 12.4224 5.7366 2
-5 0 -18 3.41812 4.23342 2
-6 0 -18 5.24328 5.04403 2
-7 0 -18 2.00285 5.02164 2
-8 0 -18 18.2172 6.9831 2
16 -1 -18 0.29643 4.90256 1
16 1 -18 -1.434 5.4049 1
15 -1 -18 10.9928 6.3976 1
15 1 -18 10.2372 6.4926 1
14 -1 -18 0.89032 5.47361 1
14 1 -18 3.51298 5.12289 1
13 -1 -18 -2.3002 4.6222 1
13 1 -18 5.23319 5.8251 1
12 -1 -18 15.1225 6.9141 1
12 1 -18 22.8002 7.386 1
11 -1 -18 6.89334 5.86481 1
11 1 -18 17.4117 6.9905 1
10 -1 -18 16.2228 6.5 1
10 1 -18 9.81793 5.87152 1
9 -1 -18 5.41273 5.02383 1
9 -1 -18 16.5881 5.21 2
9 1 -18 15.3007 6.0667 1
8 -1 -18 4.0971 4.00807 2
8 -1 -18 4.55757 4.53379 1
8 1 -18 1.63629 4.59886 1
8 1 -18 4.20634 3.56248 2
7 -1 -18 -0.1163 4.0739 1
7 -1 -18 2.77213 3.42777 2
7 1 -18 0.04049 3.96285 1
7 1 -18 1.43324 3.16175 2
6 -1 -18 21.5631 5.4439 2
6 -1 -18 24.7796 6.8336 1
6 1 -18 46.8417 8.8529 1
6 1 -18 22.21 5.7827 2
5 -1 -18 0.93927 4.19876 1
5 -1 -18 0.92065 3.25524 2
5 1 -18 1.22827 3.19579 2
4 -1 -18 2.38511 3.4277 2
4 1 -18 -0.396 3.2454 2
3 -1 -18 17.6588 5.4316 2
3 1 -18 35.0851 7.2771 2
2 -1 -18 39.0106 7.8454 2
2 1 -18 30.6826 7.0728 2
1 -1 -18 5.92133 4.74841 2
1 1 -18 -0.9411 3.33 2
0 -1 -18 7.52027 4.51539 2
0 1 -18 2.21952 3.49878 2
-1 -1 -18 11.8941 5.539 2
-1 1 -18 2.69275 4.41577 2
-2 -1 -18 28.7269 7.5955 2
-2 1 -18 33.3269 7.7871 2
-3 -1 -18 11.3689 5.4882 2
-3 1 -18 1.99553 4.35877 2
-4 -1 -18 4.48846 4.27465 2
-4 1 -18 6.90902 5.00713 2
-5 -1 -18 3.52015 4.29288 2
-5 1 -18 7.3204 4.62801 2
-6 -1 -18 3.2178 4.82631 2
-6 1 -18 1.61606 4.35662 2
-7 -1 -18 18.1161 6.4826 2
-7 1 -18 5.74978 5.62318 2
-8 -1 -18 3.27171 5.30415 2
-8 1 -18 11.7007 6.4007 2
16 -2 -18 6.09392 6.44669 1
16 2 -18 -0.0731 5.0703 1
15 -2 -18 -1.35 4.9685 1
15 2 -18 1.99764 5.37896 1
14 -2 -18 2.77115 5.68334 1
14 2 -18 2.66955 5.81409 1
13 -2 -18 7.73073 5.8511 1
13 2 -18 -0.4863 4.574 1
12 -2 -18 30.2121 8.6744 1
12 2 -18 35.1328 9.2935 1
11 -2 -18 8.79656 5.65262 1
11 2 -18 8.86784 5.79154 1
10 -2 -18 23.7983 7.6729 1
10 -2 -18 29.6764 6.5418 2
10 2 -18 20.4774 6.8697 1
9 -2 -18 11.8714 6.1587 1
9 -2 -18 1.90494 3.86456 2
9 2 -18 4.10337 4.67669 1
8 -2 -18 20.4382 5.7139 2
8 -2 -18 17.4334 6.2088 1
8 2 -18 15.199 5.8158 1
7 -2 -18 -3.9029 3.7601 1
7 -2 -18 1.73069 3.36468 2
7 2 -18 0.49373 4.14487 1
7 2 -18 3.70727 3.43217 2
6 -2 -18 4.19639 3.94566 2
6 -2 -18 11.3572 5.2769 1
6 2 -18 7.36432 4.03851 2
6 2 -18 2.78291 4.37194 1
5 -2 -18 4.23548 3.91999 2
5 -2 -18 2.84753 4.63412 1
5 2 -18 2.8519 3.89627 2
4 -2 -18 1.34207 4.11199 1
4 -2 -18 2.9252 3.43572 2
4 2 -18 3.29592 3.94286 2
3 -2 -18 2.00214 3.93912 2
3 2 -18 -2.1895 2.7415 2
2 -2 -18 71.3149 10.3876 2
2 2 -18 67.8881 9.9818 2
1 -2 -18 15.5844 5.4776 2
1 2 -18 10.389 5.0758 2
0 -2 -18 36.1667 7.909 2
0 2 -18 30.1633 7.3913 2
-1 -2 -18 28.4797 7.2317 2
-1 2 -18 26.6224 7.1097 2
-2 -2 -18 6.32548 4.66146 2
-2 2 -18 5.59903 4.71772 2
-3 -2 -18 1.72504 3.68919 2
-3 2 -18 1.17195 3.69439 2
-4 -2 -18 -1.5791 3.9711 2
-4 2 -18 -2.2985 3.9689 2
-5 -2 -18 -5.6684 3.047 2
-5 2 -18 2.47323 4.66895 2
-6 -2 -18 5.58733 5.40998 2
-6 2 -18 -0.5177 3.9849 2
-7 -2 -18 5.65094 5.41818 2
-7 2 -18 -0.5594 4.1912 2
-8 -2 -18 6.52446 5.47075 2
-8 2 -18 0.45736 4.92795 2
16 -3 -18 2.90153 6.14486 1
16 3 -18 4.61536 6.53101 1
15 -3 -18 8.79086 6.52685 1
15 3 -18 8.78063 6.75961 1
14 -3 -18 37.0188 9.4623 1
14 3 -18 18.7561 8.4248 1
13 -3 -18 9.17475 6.55447 1
13 3 -18 10.8885 6.6821 1
12 -3 -18 28.7784 8.5697 1
12 3 -18 35.2177 8.8862 1
11 -3 -18 -4.1041 4.449 1
11 3 -18 -3.4219 4.4092 1
10 -3 -18 5.99442 5.90291 1
10 3 -18 2.49066 5.20013 1
9 -3 -18 27.6651 8.1219 1
9 3 -18 45.2071 9.2979 1
8 -3 -18 17.5114 6.6465 1
8 -3 -18 23.9637 5.9815 2
8 3 -18 14.2759 6.2011 1
7 -3 -18 -3.8658 3.0794 1
7 -3 -18 -1.9681 3.2079 2
7 3 -18 0.77504 4.01071 1
7 3 -18 -0.0325 3.8269 2
6 -3 -18 11.0219 5.5766 1
6 -3 -18 24.6169 6.38 2
6 3 -18 35.5079 7.0756 2
5 -3 -18 45.4269 8.8179 1
5 -3 -18 50.4713 8.5839 2
5 3 -18 65.6871 9.3789 2
4 -3 -18 1.77899 4.00185 1
4 -3 -18 -0.8462 3.4311 2
4 3 -18 3.02053 3.75416 2
3 -3 -18 -0.2875 3.5145 1
3 -3 -18 5.26326 3.88608 2
3 3 -18 -1.8501 3.5679 2
2 -3 -18 -1.9455 3.2695 2
2 3 -18 0.54841 3.74552 2
1 -3 -18 16.6698 5.8457 2
1 3 -18 29.4957 7.0774 2
0 -3 -18 6.69737 4.58021 2
0 3 -18 0.50659 3.75659 2
-1 -3 -18 -0.4328 3.3847 2
-1 3 -18 3.79452 4.19965 2
-2 -3 -18 34.5587 8.0775 2
-2 3 -18 31.8005 7.5079 2
-3 -3 -18 13.0592 5.8256 2
-3 3 -18 19.8875 6.6985 2
-4 -3 -18 43.377 9.2754 2
-4 3 -18 32.7926 7.8174 2
-5 -3 -18 -1.3416 4.099 2
-5 3 -18 1.12111 4.1779 2
-6 -3 -18 -2.723 3.7717 2
-6 3 -18 -1.2451 4.268 2
-7 -3 -18 2.04172 5.07718 2
-7 3 -18 8.66716 6.62088 2
15 -4 -18 7.32729 6.80412 1
15 4 -18 2.91428 6.1186 1
14 -4 -18 5.46832 6.01867 1
14 4 -18 8.77085 6.61473 1
13 -4 -18 -0.0758 5.2415 1
13 4 -18 15.0981 7.4134 1
12 -4 -18 18.5347 7.1535 1
12 4 -18 3.4907 6.21786 1
11 -4 -18 -2.2921 5.3167 1
11 4 -18 -1.3583 4.9249 1
10 -4 -18 28.4226 7.8157 1
10 4 -18 40.0782 9.618 1
9 -4 -18 -3.2432 4.5043 1
9 4 -18 5.37471 5.50554 1
8 -4 -18 -1.9117 4.5174 1
8 4 -18 1.53816 4.29532 1
7 -4 -18 29.7142 7.9332 1
7 4 -18 48.9229 9.5351 1
6 -4 -18 -0.5827 4.4563 1
6 4 -18 -1.0095 3.2288 2
5 -4 -18 -1.0006 4.4579 1
5 4 -18 3.24586 4.08851 2
4 -4 -18 3.63189 4.51572 1
4 -4 -18 3.35045 4.18363 2
4 4 -18 0.83637 3.65077 2
3 -4 -18 25.3925 6.8299 1
3 -4 -18 17.4915 5.6466 2
3 4 -18 27.5082 6.6468 2
2 -4 -18 3.39789 4.23405 2
2 4 -18 7.96095 4.82555 2
1 -4 -18 1.17838 3.69498 2
1 4 -18 -1.4658 3.9415 2
0 -4 -18 5.50188 4.77759 2
0 4 -18 2.41448 4.54845 2
-1 -4 -18 26.7596 7.059 2
-1 4 -18 8.31036 5.33688 2
-2 -4 -18 -1.3628 4.1954 2
-2 4 -18 7.2042 4.89554 2
-3 -4 -18 -4.4714 3.7883 2
-3 4 -18 -1.6393 3.7122 2
-4 -4 -18 7.14945 5.51242 2
-4 4 -18 0.70031 4.05111 2
-5 -4 -18 0.23536 4.50784 2
-5 4 -18 -2.865 4.0487 2
-6 -4 -18 -0.1109 5.0483 2
-6 4 -18 -0.2128 4.3953 2
-7 -4 -18 -2.3923 4.3003 2
-7 4 -18 -1.5418 4.6211 2
14 -5 -18 0.42616 5.78766 1
14 5 -18 -0.3919 6.4971 1
13 -5 -18 0.92856 5.0897 1
13 5 -18 -5.2103 5.0652 1
12 -5 -18 -1.0469 4.8419 1
12 5 -18 4.936 5.57494 1
11 -5 -18 2.7225 5.35746 1
11 5 -18 3.67559 5.96421 1
10 -5 -18 15.229 7.3126 1
10 5 -18 19.7069 7.3678 1
9 -5 -18 29.9268 8.6113 1
9 5 -18 21.3155 7.894 1
8 -5 -18 3.95234 5.38169 1
8 5 -18 5.42805 5.41657 1
7 -5 -18 11.739 6.4029 1
6 -5 -18 65.3292 10.6815 1
5 -5 -18 8.59707 5.73981 1
5 5 -18 10.1816 5.0963 2
4 -5 -18 24.7734 7.6976 1
4 5 -18 30.7466 7.1573 2
3 -5 -18 5.6417 5.53715 1
3 5 -18 4.41805 3.97249 2
2 5 -18 5.00878 4.49214 2
1 -5 -18 0.4648 3.80731 2
1 5 -18 2.88558 4.27651 2
0 -5 -18 12.0433 5.5921 2
0 5 -18 18.4647 6.6433 2
-1 -5 -18 0.42378 3.93507 2
-1 5 -18 4.7685 5.01808 2
-2 -5 -18 1.77206 3.94619 2
-2 5 -18 3.64604 4.79467 2
-3 -5 -18 4.05099 4.70182 2
-3 5 -18 8.5895 5.45023 2
-4 -5 -18 1.66863 4.47764 2
-4 5 -18 0.73795 4.78049 2
-5 -5 -18 1.8268 5.41773 2
-5 5 -18 3.4043 5.07687 2
-6 -5 -18 0.61747 4.75325 2
-6 5 -18 -4.5497 3.9791 2
13 -6 -18 4.76805 6.34026 1
13 6 -18 10.3327 7.5778 1
12 -6 -18 -2.2124 4.9709 1
12 6 -18 1.11123 6.46098 1
11 -6 -18 0.51932 4.36398 1
11 6 -18 4.47907 6.48401 1
10 -6 -18 1.86107 5.38735 1
10 6 -18 -5.2264 5.1736 1
9 -6 -18 5.31313 5.91828 1
9 6 -18 3.78148 5.43015 1
8 -6 -18 9.69833 6.46361 1
8 6 -18 26.5256 8.3715 1
7 -6 -18 8.83784 6.63116 1
6 -6 -18 14.3157 6.8436 1
5 -6 -18 1.26025 4.83679 1
5 6 -18 2.42041 4.1578 2
4 -6 -18 11.1474 5.8699 1
4 6 -18 -0.6563 4.1833 2
3 -6 -18 -8.9149 3.8767 1
3 6 -18 -0.897 3.9866 2
2 -6 -18 6.7883 5.83302 1
2 6 -18 9.57974 5.21304 2
1 6 -18 8.81929 5.34525 2
0 -6 -18 1.01517 4.45603 2
0 6 -18 1.24254 4.4924 2
-1 -6 -18 16.693 6.4732 2
-1 6 -18 5.42119 4.91636 2
-2 -6 -18 7.9181 5.14339 2
-2 6 -18 0.61281 4.55332 2
-3 -6 -18 12.4851 6.183 2
-3 6 -18 12.3692 5.8148 2
-4 -6 -18 13.8119 6.5239 2
-4 6 -18 32.6406 8.6183 2
-5 -6 -18 -2.8415 4.4141 2
-5 6 -18 -2.2846 5.0269 2
11 -7 -18 3.24449 5.43265 1
11 7 -18 8.37392 6.85556 1
10 -7 -18 17.2356 7.2707 1
10 7 -18 6.70111 6.17446 1
9 -7 -18 54.4106 11.5295 1
9 7 -18 11.3714 7.2854 1
8 -7 -18 -1.8508 5.41 1
7 -7 -18 13.8107 6.8233 1
6 -7 -18 0.59692 5.05502 1
5 -7 -18 0.16755 5.14566 1
4 -7 -18 -2.7262 4.7604 1
4 7 -18 11.9802 5.6038 2
3 -7 -18 2.41517 5.61459 1
3 7 -18 3.47071 4.45704 2
2 -7 -18 11.1478 6.8986 1
2 7 -18 8.07237 5.33656 2
1 7 -18 2.69742 5.11322 2
0 7 -18 8.67983 5.64377 2
-1 7 -18 2.45317 5.21576 2
-2 -7 -18 0.5468 4.94327 2
-2 7 -18 -3.1526 4.4486 2
-3 -7 -18 6.85887 5.30675 2
-3 7 -18 1.4039 4.86259 2
8 -8 -18 3.60761 5.99402 1
7 -8 -18 1.23696 5.85978 1
6 -8 -18 -2.2042 5.6002 1
5 -8 -18 -2.8154 5.4735 1
4 -8 -18 -5.1159 5.1299 1
3 -8 -18 -0.5984 5.2393 1
3 8 -18 4.13089 4.62107 2
2 -8 -18 10.5876 6.5424 1
2 8 -18 3.84746 4.86696 2
1 -8 -18 -1.628 5.4352 1
1 8 -18 -1.3903 4.3775 2
0 8 -18 18.5076 6.989 2
15 0 -19 0.26349 5.93341 1
14 0 -19 -1.1136 5.4695 1
13 0 -19 3.41859 5.75252 1
12 0 -19 -1.6665 4.7064 1
11 0 -19 -3.5036 4.5644 1
10 0 -19 5.76505 5.35981 1
9 0 -19 -1.5473 4.8063 1
8 0 -19 19.7942 6.7115 1
8 0 -19 16.7111 5.3669 2
7 0 -19 -1.8233 3.9575 1
7 0 -19 1.22232 3.71378 2
6 0 -19 21.3702 6.4606 1
6 0 -19 13.0111 5.2202 2
5 0 -19 2.13053 3.44392 2
4 0 -19 9.43401 4.72511 2
3 0 -19 0.33333 3.84608 2
2 0 -19 2.2026 3.74656 2
1 0 -19 -4.8326 3.2529 2
0 0 -19 53.2783 9.7025 2
-1 0 -19 -2.3915 3.9546 2
-2 0 -19 25.3502 7.3754 2
-3 0 -19 -2.5192 4.087 2
-4 0 -19 38.8952 8.8302 2
-5 0 -19 -1.5258 4.0057 2
-6 0 -19 26.4039 7.697 2
-7 0 -19 -6.4096 4.6465 2
15 -1 -19 5.49598 6.02995 1
15 1 -19 3.00237 6.18059 1
14 -1 -19 17.4368 7.7519 1
14 1 -19 21.8918 7.9221 1
13 -1 -19 6.08829 5.69425 1
13 1 -19 9.7312 6.65632 1
12 -1 -19 -0.2781 4.9422 1
12 1 -19 -0.484 5.3058 1
11 -1 -19 19.0003 7.8281 1
11 1 -19 8.04613 5.76591 1
10 -1 -19 5.73333 5.6011 1
10 1 -19 7.81497 5.82917 1
9 -1 -19 -4.1916 4.6103 1
9 -1 -19 0.70443 3.75812 2
9 1 -19 0.12178 4.75239 1
8 -1 -19 1.78099 4.18534 1
8 -1 -19 3.33307 4.07533 2
8 1 -19 1.10194 4.73219 1
8 1 -19 5.38861 4.36048 2
7 -1 -19 0.87738 4.77988 1
7 -1 -19 -2.1572 3.1785 2
7 1 -19 6.84007 5.26201 1
7 1 -19 2.38224 3.6609 2
6 -1 -19 1.19588 3.67069 2
6 -1 -19 1.95102 4.62021 1
6 1 -19 0.71649 3.59686 2
5 -1 -19 2.38554 3.7488 2
5 1 -19 0.78571 3.53043 2
4 -1 -19 -1.858 3.4676 2
4 1 -19 0.9723 3.55041 2
3 -1 -19 1.53293 3.84729 2
3 1 -19 -0.0205 3.6378 2
2 -1 -19 53.0811 9.1119 2
2 1 -19 40.1586 8.1509 2
1 -1 -19 -2.2469 3.533 2
1 1 -19 0.10614 3.91245 2
0 -1 -19 22.6684 6.6273 2
0 1 -19 22.4147 6.444 2
-1 -1 -19 1.05815 4.59265 2
-1 1 -19 6.34662 5.16112 2
-2 -1 -19 -0.237 3.8176 2
-2 1 -19 0.30091 4.32057 2
-3 -1 -19 2.59184 3.92999 2
-3 1 -19 -1.1702 3.7478 2
-4 -1 -19 0.32283 4.74954 2
-4 1 -19 7.11315 5.24125 2
-5 -1 -19 1.4583 4.64332 2
-5 1 -19 3.09512 5.00578 2
-6 -1 -19 31.7839 8.1511 2
-6 1 -19 16.3979 6.717 2
-7 -1 -19 -4.0689 4.0794 2
-7 1 -19 0.52235 4.79966 2
15 -2 -19 5.65771 6.35579 1
15 2 -19 -1.106 4.7834 1
14 -2 -19 8.70971 6.51474 1
14 2 -19 1.81406 6.1112 1
13 -2 -19 -2.7235 5.2629 1
13 2 -19 14.713 7.4503 1
12 -2 -19 -1.0758 5.3048 1
12 2 -19 0.40579 5.61586 1
11 -2 -19 2.14272 5.48111 1
11 2 -19 -1.8036 4.9463 1
10 -2 -19 67.4297 11.9044 1
10 2 -19 79.4974 12.53 1
9 -2 -19 37.3295 9.2445 1
9 -2 -19 24.6756 6.5048 2
9 2 -19 12.8254 6.1588 1
8 -2 -19 57.6684 9.1449 2
8 -2 -19 55.4704 10.3112 1
8 2 -19 66.1818 11.091 1
7 -2 -19 -1.4294 3.1752 2
7 -2 -19 0.57356 4.26148 1
7 2 -19 2.65465 4.45314 1
7 2 -19 0.62519 3.74884 2
6 -2 -19 -2.8644 4.0271 1
6 -2 -19 0.55887 3.18629 2
6 2 -19 3.45423 3.81274 2
5 -2 -19 0.19786 4.46099 1
5 -2 -19 0.30188 3.76015 2
5 2 -19 -0.7171 3.3382 2
4 -2 -19 0.39341 3.79992 2
4 2 -19 0.2654 3.81346 2
3 -2 -19 4.36741 4.09726 2
3 2 -19 -0.0466 3.898 2
2 -2 -19 0.68479 3.50266 2
2 2 -19 -0.4383 3.6257 2
1 -2 -19 19.0069 6.1375 2
1 2 -19 23.0884 6.6156 2
0 -2 -19 2.68359 4.31067 2
0 2 -19 12.7843 5.622 2
-1 -2 -19 5.70421 5.02391 2
-1 2 -19 4.20208 4.58293 2
-2 -2 -19 13.9574 6.0365 2
-2 2 -19 15.0099 6.2054 2
-3 -2 -19 -0.6962 3.8616 2
-3 2 -19 -3.576 3.8907 2
-4 -2 -19 3.7851 4.53853 2
-4 2 -19 -1.0513 4.1098 2
-5 -2 -19 3.96749 4.86432 2
-5 2 -19 0.72561 4.35842 2
-6 -2 -19 -0.6377 4.69 2
-6 2 -19 -2.8626 4.3093 2
15 -3 -19 1.93361 6.01111 1
15 3 -19 0.06408 6.05987 1
14 -3 -19 16.6208 7.9043 1
14 3 -19 11.6967 7.3502 1
13 -3 -19 15.2364 7.2002 1
13 3 -19 5.33689 6.08237 1
12 -3 -19 2.69398 5.89337 1
12 3 -19 6.65204 6.75085 1
11 -3 -19 10.8241 5.9715 1
11 3 -19 7.63903 6.01507 1
10 -3 -19 32.9004 8.88 1
10 -3 -19 14.0271 5.3429 2
10 3 -19 14.6886 6.4403 1
9 -3 -19 5.26786 4.67664 2
9 -3 -19 17.8952 6.6444 1
9 3 -19 6.72688 5.41977 1
8 -3 -19 1.34146 3.6305 2
8 -3 -19 6.59777 5.20959 1
8 3 -19 5.85155 5.12165 1
7 -3 -19 12.8522 6.2538 1
7 -3 -19 19.4242 5.9167 2
6 -3 -19 4.69046 5.24006 1
6 -3 -19 -2.0712 3.4429 2
6 3 -19 -0.715 3.9009 2
5 -3 -19 0.24465 4.63837 1
5 -3 -19 -0.5252 3.8545 2
5 3 -19 1.95183 3.91165 2
4 -3 -19 1.29115 3.80625 2
4 3 -19 5.77858 4.46161 2
3 -3 -19 1.58351 3.96252 2
3 3 -19 2.78051 4.08765 2
2 -3 -19 17.0991 5.928 2
2 3 -19 11.4637 5.5218 2
1 -3 -19 -1.9935 3.6134 2
1 3 -19 -3.6269 3.6312 2
0 -3 -19 2.15516 4.28878 2
0 3 -19 2.6869 4.29608 2
-1 -3 -19 11.5618 5.7329 2
-1 3 -19 14.5579 5.6956 2
-2 -3 -19 4.57865 4.42871 2
-2 3 -19 -3.017 3.9294 2
-3 -3 -19 0.84747 4.26759 2
-3 3 -19 2.28169 5.01431 2
-4 -3 -19 10.1108 5.7794 2
-4 3 -19 5.39234 5.33857 2
-5 -3 -19 -2.7265 4.688 2
-5 3 -19 1.50846 5.02501 2
-6 -3 -19 11.143 5.8949 2
-6 3 -19 13.1711 6.7266 2
14 -4 -19 1.40682 5.69148 1
14 4 -19 10.188 7.379 1
13 -4 -19 0.88898 5.86888 1
13 4 -19 6.26514 6.78584 1
12 -4 -19 5.94725 6.29334 1
12 4 -19 -0.2507 5.3556 1
11 -4 -19 3.57485 6.04354 1
11 4 -19 3.38524 5.64177 1
10 -4 -19 9.22642 6.33568 1
10 4 -19 -2.8939 5.0792 1
9 -4 -19 32.6745 8.5737 1
9 4 -19 24.1757 7.6914 1
8 -4 -19 30.0762 8.4806 1
8 4 -19 10.3083 6.3854 1
7 -4 -19 5.44643 5.43023 1
6 -4 -19 11.7835 5.4514 2
6 -4 -19 6.0593 5.55226 1
6 4 -19 12.5377 5.1668 2
5 -4 -19 16.0311 5.4206 2
5 -4 -19 18.512 6.9029 1
5 4 -19 19.5918 6.0703 2
4 -4 -19 1.47304 4.52309 1
4 -4 -19 3.5223 4.35314 2
4 4 -19 4.77355 4.43458 2
3 -4 -19 3.27002 4.16916 2
3 4 -19 5.47897 4.2183 2
2 -4 -19 28.3488 7.5496 2
2 4 -19 13.4783 5.8457 2
1 -4 -19 48.3224 9.3338 2
1 4 -19 32.2757 7.9466 2
0 -4 -19 28.7014 7.5344 2
0 4 -19 29.8987 7.4706 2
-1 -4 -19 3.3088 4.36088 2
-1 4 -19 -2.2152 4.0998 2
-2 -4 -19 0.05898 4.27597 2
-2 4 -19 6.10255 5.26365 2
-3 -4 -19 11.0047 5.7387 2
-3 4 -19 11.9087 6.3498 2
-4 -4 -19 0.83721 4.5832 2
-4 4 -19 -2.1153 4.9185 2
-5 -4 -19 7.30835 5.51993 2
-5 4 -19 8.34098 5.48643 2
13 -5 -19 -5.9854 5.1123 1
13 5 -19 -1.7993 6.4822 1
12 -5 -19 6.90472 6.24904 1
12 5 -19 7.49774 7.30366 1
11 -5 -19 5.62964 6.26147 1
11 5 -19 0.29755 5.44511 1
10 -5 -19 -2.7554 5.4828 1
10 5 -19 6.74568 5.99839 1
9 -5 -19 0.81441 5.69813 1
9 5 -19 5.24566 5.74058 1
8 -5 -19 7.06271 5.66786 1
7 -5 -19 9.51952 6.4569 1
6 -5 -19 15.6903 6.5909 1
5 -5 -19 4.91566 5.38258 1
5 5 -19 2.28371 4.23254 2
4 -5 -19 6.34138 5.71257 1
4 5 -19 16.1479 5.8653 2
3 -5 -19 11.5007 5.7469 2
3 5 -19 7.14338 4.98345 2
2 -5 -19 5.60921 4.60403 2
2 5 -19 5.43589 4.95055 2
1 -5 -19 -2.6849 3.7887 2
1 5 -19 2.13393 4.33671 2
0 -5 -19 16.076 6.5566 2
0 5 -19 9.39642 5.98291 2
-1 -5 -19 3.7429 5.08557 2
-1 5 -19 -5.0447 4.5195 2
-2 -5 -19 2.6586 4.70416 2
-2 5 -19 1.66824 5.01117 2
-3 -5 -19 7.38917 5.30182 2
-3 5 -19 -1.7179 4.8363 2
-4 -5 -19 6.62226 5.2765 2
-4 5 -19 7.19007 6.13734 2
11 -6 -19 3.87935 5.98708 1
11 6 -19 3.10363 6.31215 1
10 -6 -19 -1.6352 5.6355 1
10 6 -19 -1.1418 5.5259 1
9 -6 -19 9.89128 7.11763 1
8 -6 -19 8.12415 6.61209 1
7 -6 -19 4.11047 5.7482 1
6 -6 -19 6.40152 6.10249 1
5 -6 -19 -0.0424 4.9372 1
4 -6 -19 5.43297 5.71185 1
4 6 -19 1.54617 4.40248 2
3 -6 -19 4.49911 5.62608 1
3 6 -19 -0.7901 3.4426 2
2 6 -19 25.5056 7.0786 2
1 -6 -19 0.82178 4.12735 2
1 6 -19 1.25551 4.67417 2
0 -6 -19 5.63124 5.16225 2
0 6 -19 16.1797 6.4495 2
-1 -6 -19 -0.622 4.3481 2
-1 6 -19 -4.0713 4.2673 2
-2 -6 -19 -1.5087 4.9703 2
-2 6 -19 4.70886 5.45917 2
-3 6 -19 -1.9621 4.25 2
9 -7 -19 2.61601 6.20567 1
8 -7 -19 -4.3817 5.2644 1
7 -7 -19 -1.8605 5.0788 1
6 -7 -19 0.2963 5.83924 1
5 -7 -19 2.70509 5.58615 1
4 -7 -19 8.05708 6.00984 1
4 7 -19 5.57683 5.18376 2
3 -7 -19 0.60741 5.16654 1
3 7 -19 11.1577 5.6861 2
2 7 -19 9.34394 5.80258 2
1 7 -19 2.43844 5.21074 2
0 -7 -19 25.5337 7.7588 2
0 7 -19 6.00068 5.99785 2
-1 7 -19 -0.5749 4.5777 2
14 0 -20 23.819 8.761 1
13 0 -20 -4.5089 5.6756 1
12 0 -20 2.75995 5.75629 1
11 0 -20 0.46692 5.03833 1
10 0 -20 -0.4876 5.0275 1
9 0 -20 0.21455 4.47924 1
8 0 -20 -4.0274 3.427 2
8 0 -20 -0.7228 4.7011 1
7 0 -20 -0.9089 4.4047 1
7 0 -20 -1.0851 3.6241 2
6 0 -20 78.7327 10.8284 2
5 0 -20 -0.3928 3.3499 2
4 0 -20 69.0378 10.6957 2
3 0 -20 4.72773 4.2595 2
2 0 -20 -3.153 3.7442 2
1 0 -20 -0.3581 3.7582 2
0 0 -20 24.5378 7.2676 2
-1 0 -20 -4.8614 3.0542 2
-2 0 -20 -1.9923 3.9175 2
-3 0 -20 3.60451 4.94864 2
-4 0 -20 2.95449 4.55532 2
-5 0 -20 -4.7538 4.7258 2
14 -1 -20 5.50855 6.12462 1
14 1 -20 -3.114 5.2601 1
13 -1 -20 1.62007 6.00999 1
13 1 -20 2.13305 6.10634 1
12 -1 -20 -1.4784 5.2857 1
12 1 -20 8.03741 6.24276 1
11 -1 -20 4.45895 5.73503 1
11 1 -20 3.19486 6.06312 1
10 1 -20 94.6074 13.9883 1
9 -1 -20 -2.1045 4.0588 2
9 -1 -20 10.7426 5.7485 1
9 1 -20 6.08978 5.48414 1
8 -1 -20 5.03083 5.52993 1
8 -1 -20 7.77186 4.55342 2
8 1 -20 13.6323 6.4165 1
7 -1 -20 4.12623 4.29465 2
7 -1 -20 -4.8161 4.4561 1
7 1 -20 5.92024 4.9208 2
6 -1 -20 -2.1235 3.6793 2
6 1 -20 7.24563 4.70411 2
5 -1 -20 1.03675 4.08944 2
5 1 -20 -1.493 3.9766 2
4 -1 -20 -0.573 3.5861 2
4 1 -20 4.05957 4.5406 2
3 -1 -20 -0.2989 3.6368 2
3 1 -20 2.32526 4.25044 2
2 -1 -20 9.03542 5.44224 2
2 1 -20 17.3041 6.1115 2
1 -1 -20 0.3412 3.76382 2
1 1 -20 4.24831 4.47024 2
0 -1 -20 15.2379 6.5769 2
0 1 -20 16.2308 6.6123 2
-1 -1 -20 -0.7606 4.2571 2
-1 1 -20 2.23417 4.94535 2
-2 -1 -20 5.25148 4.49379 2
-2 1 -20 -2.615 4.7697 2
-3 -1 -20 10.3364 6.2718 2
-3 1 -20 4.78865 5.13791 2
-4 -1 -20 25.559 7.7952 2
-4 1 -20 16.4092 6.6538 2
-5 -1 -20 9.01012 6.22222 2
-5 1 -20 9.23683 5.5736 2
14 -2 -20 6.40106 6.82504 1
14 2 -20 2.73819 6.51642 1
13 -2 -20 7.83009 6.62291 1
13 2 -20 -1.4677 5.3315 1
12 -2 -20 1.09153 5.52158 1
12 2 -20 -0.0412 5.452 1
11 -2 -20 2.73513 5.82618 1
11 2 -20 9.62492 6.63212 1
10 -2 -20 21.1888 7.9959 1
10 2 -20 22.0039 7.8688 1
9 -2 -20 1.40889 4.34384 2
9 -2 -20 6.96215 6.07166 1
9 2 -20 -1.1602 5.1242 1
8 -2 -20 3.03459 4.4838 2
8 -2 -20 -5.7819 4.419 1
8 2 -20 0.60053 5.27575 1
7 -2 -20 -1.4835 4.8608 1
7 -2 -20 -2.0456 3.821 2
7 2 -20 -7.7252 3.4029 2
6 -2 -20 1.70916 5.30121 1
6 -2 -20 0.09165 3.83435 2
6 2 -20 -2.9244 3.6413 2
5 -2 -20 16.9947 5.5096 2
5 2 -20 2.07433 4.38024 2
4 -2 -20 25.7671 6.9314 2
4 2 -20 20.2287 6.4861 2
3 -2 -20 0.93097 4.11564 2
3 2 -20 -3.7884 3.6744 2
2 -2 -20 -1.3207 3.9685 2
2 2 -20 -1.6493 3.6489 2
1 -2 -20 5.76568 5.1544 2
1 2 -20 4.28102 5.27173 2
0 -2 -20 9.05387 5.75774 2
0 2 -20 33.7424 8.4739 2
-1 -2 -20 3.97346 4.72109 2
-1 2 -20 4.49734 5.00087 2
-2 -2 -20 2.6363 4.56196 2
-2 2 -20 -2.8052 4.0529 2
-3 -2 -20 3.40751 4.79246 2
-3 2 -20 -0.6534 4.6177 2
-4 -2 -20 5.27092 5.72788 2
-4 2 -20 8.12874 5.64521 2
-5 -2 -20 5.80344 6.02613 2
-5 2 -20 -2.5851 4.6572 2
13 -3 -20 1.69821 5.90941 1
13 3 -20 -1.9025 5.6592 1
12 -3 -20 0.5648 6.05271 1
12 3 -20 0.00889 5.81189 1
11 -3 -20 12.625 7.382 1
11 3 -20 19.545 7.5117 1
10 -3 -20 9.8034 5.07531 2
10 -3 -20 9.65027 6.17296 1
10 3 -20 3.3662 5.61073 1
9 -3 -20 16.1037 5.7388 2
9 -3 -20 15.0401 6.888 1
9 3 -20 13.9433 6.7963 1
8 -3 -20 9.28189 5.87068 1
8 -3 -20 11.2515 5.2663 2
7 -3 -20 16.3194 6.0714 2
7 -3 -20 3.43679 5.29835 1
6 -3 -20 5.90391 5.30844 1
6 -3 -20 2.5254 4.16573 2
6 3 -20 -3.1323 3.6696 2
5 -3 -20 10.5037 5.3268 2
5 3 -20 8.66486 5.35326 2
4 -3 -20 3.39366 4.36757 2
4 3 -20 2.47155 4.45632 2
3 -3 -20 6.56686 5.13051 2
3 3 -20 10.6888 5.0573 2
2 -3 -20 -3.7559 3.4228 2
2 3 -20 -3.1412 3.7232 2
1 -3 -20 3.90779 4.63529 2
1 3 -20 8.02919 5.30747 2
0 -3 -20 1.73994 4.28996 2
0 3 -20 0.26355 4.50932 2
-1 -3 -20 1.35407 4.52826 2
-1 3 -20 -0.1812 4.2981 2
-2 -3 -20 5.78851 5.09115 2
-2 3 -20 -1.6735 3.8333 2
-3 -3 -20 -1.9983 4.7749 2
-3 3 -20 -8.1751 4.1898 2
-4 -3 -20 -4.9522 4.1642 2
-4 3 -20 2.50921 4.87218 2
12 -4 -20 9.97531 7.06115 1
12 4 -20 25.0076 8.8516 1
11 -4 -20 2.48089 6.22458 1
11 4 -20 3.61393 6.10634 1
10 -4 -20 -1.1192 5.2444 1
10 4 -20 7.20566 6.08543 1
9 -4 -20 15.2902 5.3666 2
9 -4 -20 14.1104 7.4827 1
8 -4 -20 -2.2998 4.0067 2
8 -4 -20 1.14723 5.12862 1
7 -4 -20 -5.2041 4.1916 1
7 -4 -20 3.61245 4.42139 2
6 -4 -20 -4.1601 4.2947 1
6 -4 -20 6.73261 4.55814 2
6 4 -20 5.59367 4.45053 2
5 -4 -20 1.04977 4.85832 1
5 -4 -20 1.67314 4.53493 2
5 4 -20 -0.5457 3.9552 2
4 -4 -20 6.33012 4.99982 2
4 4 -20 -0.9562 3.9632 2
3 -4 -20 1.62807 5.01126 2
3 4 -20 0.67001 4.56775 2
2 -4 -20 2.18717 4.78111 2
2 4 -20 3.85829 4.86877 2
1 -4 -20 7.66173 5.65977 2
1 4 -20 6.76405 5.45198 2
0 -4 -20 7.4503 5.47013 2
0 4 -20 -2.2552 4.4956 2
-1 -4 -20 -2.0349 4.4865 2
-1 4 -20 0.65493 4.78669 2
-2 -4 -20 7.93839 5.58428 2
-2 4 -20 4.00615 5.39937 2
-3 -4 -20 -1.0678 5.1434 2
-3 4 -20 -6.9212 4.1125 2
11 -5 -20 6.3455 6.34165 1
11 5 -20 -0.5708 6.396 1
10 -5 -20 3.96332 5.94072 1
10 5 -20 2.95811 6.06927 1
9 -5 -20 -0.4066 5.7651 1
8 -5 -20 7.98675 6.41077 1
7 -5 -20 12.7264 6.5076 1
6 -5 -20 6.23081 5.78646 1
5 -5 -20 2.47096 5.9825 1
5 -5 -20 -3.258 4.1374 2
5 5 -20 -0.6898 4.0393 2
4 -5 -20 17.7705 7.0821 2
4 5 -20 2.43326 4.90591 2
3 -5 -20 29.6707 8.0114 2
3 5 -20 4.1922 5.02737 2
2 -5 -20 24.6909 7.4005 2
2 5 -20 19.1418 6.792 2
1 -5 -20 3.29986 4.81109 2
1 5 -20 10.8529 6.4545 2
0 -5 -20 0.53703 4.97449 2
0 5 -20 1.48807 5.24317 2
-1 -5 -20 1.01024 5.36688 2
-1 5 -20 1.25433 5.27557 2
-2 -5 -20 8.25041 5.5079 2
-2 5 -20 1.68543 4.87947 2
9 -6 -20 1.92333 6.0913 1
8 -6 -20 12.4794 7.1824 1
7 -6 -20 5.69184 6.14667 1
6 -6 -20 -1.3831 5.1888 1
5 -6 -20 -1.1904 5.3148 1
4 6 -20 -2.2821 4.2126 2
3 -6 -20 0.99508 5.08507 2
3 6 -20 -1.9506 4.5272 2
2 -6 -20 9.01143 5.98176 2
2 6 -20 0.73927 4.81067 2
1 -6 -20 4.94381 5.55626 2
1 6 -20 -7.5453 4.1823 2
0 -6 -20 -1.7972 4.576 2
0 6 -20 0.62315 4.79442 2
13 0 -21 -3.7467 5.7862 1
12 0 -21 25.7262 9.3668 1
11 0 -21 -5.1505 4.8464 1
10 0 -21 -1.9588 5.5813 1
9 0 -21 4.4981 5.62861 1
8 0 -21 -2.2363 4.1228 2
8 0 -21 5.43654 5.81084 1
7 0 -21 -1.4768 3.9572 2
6 0 -21 -5.9198 3.7342 2
5 0 -21 2.21382 4.12374 2
4 0 -21 44.252 8.9237 2
3 0 -21 0.85513 4.44635 2
2 0 -21 -1.0141 4.5007 2
1 0 -21 -6.185 3.935 2
0 0 -21 -1.6704 3.7344 2
-1 0 -21 2.34733 4.94059 2
-2 0 -21 33.5279 8.4338 2
-3 0 -21 -0.8766 4.956 2
12 -1 -21 -3.6812 6.0678 1
12 1 -21 7.62842 6.96716 1
11 -1 -21 9.8137 6.64387 1
11 1 -21 1.77037 5.63015 1
10 -1 -21 4.52798 5.51987 1
10 1 -21 -3.1445 5.3558 1
9 -1 -21 -3.406 4.8001 1
9 1 -21 -1.2777 5.7942 1
8 -1 -21 2.06396 4.21633 2
8 -1 -21 4.12902 5.53673 1
7 -1 -21 10.8857 4.9926 2
7 1 -21 -5.4414 3.5103 2
6 -1 -21 -1.7901 4.2861 2
6 1 -21 22.3726 6.741 2
5 -1 -21 17.9653 6.2724 2
5 1 -21 22.1486 6.6338 2
4 -1 -21 -0.2249 4.0041 2
4 1 -21 -0.1791 4.1815 2
3 -1 -21 0.79936 4.85178 2
3 1 -21 2.48149 4.76887 2
2 -1 -21 -2.8204 3.8045 2
2 1 -21 0.41662 4.14532 2
1 -1 -21 -1.8422 4.0296 2
1 1 -21 0.40802 4.66396 2
0 -1 -21 0.01461 4.38639 2
0 1 -21 1.50282 4.95509 2
-1 -1 -21 7.70943 6.03962 2
-1 1 -21 10.3341 5.9348 2
-2 -1 -21 12.9963 6.297 2
-2 1 -21 -1.1224 4.9063 2
-3 -1 -21 -0.9738 4.9806 2
-3 1 -21 2.28611 5.16602 2
12 -2 -21 7.33953 7.09857 1
12 2 -21 13.6868 7.3801 1
11 -2 -21 31.5153 9.2795 1
11 2 -21 13.6415 7.5342 1
10 -2 -21 13.4049 7.3417 1
10 2 -21 39.0641 9.8757 1
9 -2 -21 4.27499 4.63063 2
9 -2 -21 4.57535 6.02725 1
8 -2 -21 1.15554 5.58078 1
8 -2 -21 4.21721 4.75634 2
7 -2 -21 1.33977 4.06359 2
7 -2 -21 2.35963 5.3429 1
7 2 -21 -5.9566 3.6847 2
6 -2 -21 3.8718 4.60153 2
6 2 -21 2.50293 4.4203 2
5 -2 -21 6.95925 4.79403 2
5 2 -21 4.45816 4.85001 2
4 -2 -21 8.20905 5.23104 2
4 2 -21 2.89387 5.24219 2
3 -2 -21 14.3093 6.4503 2
3 2 -21 4.60266 4.68537 2
2 -2 -21 0.86241 4.70378 2
2 2 -21 2.38527 4.73547 2
1 -2 -21 9.07146 5.27798 2
1 2 -21 6.28583 5.6529 2
0 -2 -21 -2.6617 4.0073 2
0 2 -21 3.40835 5.03095 2
-1 -2 -21 8.76565 5.84904 2
-1 2 -21 -3.5277 4.9651 2
-2 -2 -21 8.2556 5.80625 2
-2 2 -21 1.69175 5.81293 2
-3 2 -21 22.8433 7.7687 2
11 -3 -21 4.13049 6.66217 1
11 3 -21 0.1731 6.01519 1
10 -3 -21 -5.654 5.7141 1
10 -3 -21 -3.1528 4.1955 2
10 3 -21 19.3428 7.4013 1
9 -3 -21 17.9632 6.5094 2
9 -3 -21 10.385 6.517 1
8 -3 -21 12.0711 5.9804 2
8 -3 -21 14.1776 7.2761 1
7 -3 -21 7.28863 5.11638 2
7 -3 -21 -4.8441 5.3556 1
6 -3 -21 2.43778 4.99569 2
6 3 -21 -6.1053 3.987 2
5 -3 -21 7.40976 5.4936 2
5 3 -21 5.40942 5.13453 2
4 -3 -21 3.98009 4.7886 2
4 3 -21 3.27694 4.63879 2
3 -3 -21 5.34111 5.42888 2
3 3 -21 4.74545 5.16063 2
2 -3 -21 3.20282 4.31166 2
2 3 -21 6.92266 5.54153 2
1 -3 -21 5.46172 5.30427 2
1 3 -21 4.90923 4.85222 2
0 -3 -21 -4.407 4.1924 2
0 3 -21 2.83215 5.14994 2
-1 -3 -21 22.7031 7.2695 2
-1 3 -21 7.61209 6.09241 2
-2 -3 -21 -2.8732 4.4715 2
-2 3 -21 -1.6823 5.0012 2
10 -4 -21 4.1407 5.17542 2
10 -4 -21 8.43279 6.8459 1
9 -4 -21 3.19579 5.85516 1
9 -4 -21 2.9805 4.66141 2
8 -4 -21 -4.1137 5.1662 1
8 -4 -21 2.19756 4.49924 2
7 -4 -21 15.7425 6.6502 2
7 -4 -21 22.6866 8.0651 1
6 -4 -21 1.0902 5.01086 2
5 -4 -21 7.94276 5.66126 2
5 4 -21 5.86443 5.13036 2
4 -4 -21 20.6815 7.2319 2
4 4 -21 16.4838 6.7925 2
3 -4 -21 3.69377 5.02347 2
3 4 -21 6.44299 5.66566 2
2 -4 -21 11.2824 6.414 2
2 4 -21 14.8923 6.6572 2
1 -4 -21 2.36462 4.96188 2
1 4 -21 -0.9645 4.7081 2
0 -4 -21 1.7789 5.06388 2
0 4 -21 -5.5555 4.0732 2
-1 4 -21 -7.5529 4.5331 2
8 -5 -21 20.4403 7.4992 2
8 -5 -21 45.7086 10.5975 1
7 -5 -21 2.85902 5.30451 2
7 -5 -21 2.71475 6.22413 1
6 -5 -21 -0.3461 5.8183 1
6 -5 -21 -0.8266 4.2655 2
5 -5 -21 5.43917 5.35786 2
5 5 -21 5.23734 5.69347 2
4 -5 -21 -0.8571 4.5496 2
4 5 -21 2.0513 5.03921 2
3 -5 -21 -0.0908 4.8097 2
3 5 -21 4.77491 5.3143 2
2 -5 -21 -5.8854 4.6313 2
2 5 -21 -2.1509 5.0743 2
1 5 -21 -4.2849 4.6031 2
10 0 -22 14.8522 6.9519 1
8 0 -22 17.2103 6.2673 2
7 0 -22 1.4133 4.18534 2
6 0 -22 23.6154 6.8847 2
5 0 -22 -7.1839 3.6268 2
4 0 -22 8.63643 5.65565 2
3 0 -22 -0.3879 4.5981 2
2 0 -22 -0.8467 4.0572 2
1 0 -22 0.80929 5.10306 2
0 0 -22 55.6265 10.9138 2
10 -1 -22 -0.0666 5.9205 1
10 1 -22 1.82313 6.21419 1
9 -1 -22 -3.1883 5.3749 1
8 -1 -22 0.98924 4.85268 2
7 -1 -22 -0.1189 4.3419 2
7 1 -22 1.97322 4.56086 2
6 -1 -22 -0.5873 4.1978 2
6 1 -22 4.40266 5.02716 2
5 -1 -22 7.91367 5.24104 2
5 1 -22 11.3353 5.6268 2
4 -1 -22 0.56574 4.4376 2
4 1 -22 4.38752 5.14068 2
3 -1 -22 9.46265 6.04709 2
3 1 -22 9.11534 5.76816 2
2 -1 -22 25.4915 7.3767 2
2 1 -22 32.6916 8.3784 2
1 -1 -22 1.84971 4.90887 2
1 1 -22 -0.5339 4.9696 2
0 -1 -22 -0.0746 5.1506 2
0 1 -22 5.17258 5.74055 2
9 -2 -22 -0.3637 5.5944 1
9 -2 -22 1.95585 4.59117 2
8 -2 -22 5.9784 5.17076 2
7 -2 -22 6.35453 4.87843 2
6 -2 -22 -2.6701 4.3978 2
6 2 -22 6.44289 5.442 2
5 -2 -22 -3.818 4.1782 2
5 2 -22 3.13623 4.84648 2
4 -2 -22 14.4316 6.4836 2
4 2 -22 20.2531 7.0116 2
3 -2 -22 7.33972 5.72228 2
3 2 -22 0.27765 5.28942 2
2 -2 -22 5.79498 5.78623 2
2 2 -22 11.9038 6.6403 2
1 -2 -22 -2.7634 4.6129 2
1 2 -22 0.59994 5.08873 2
0 -2 -22 5.42501 6.05513 2
0 2 -22 2.612 5.05206 2
8 -3 -22 -0.1478 4.851 2
8 -3 -22 -4.048 5.9773 1
7 -3 -22 -1.1331 4.7017 2
6 -3 -22 -1.6165 4.6077 2
6 3 -22 0.74223 5.0366 2
5 -3 -22 11.9792 6.1148 2
5 3 -22 -2.4493 4.9179 2
4 -3 -22 3.17196 5.26686 2
4 3 -22 -1.048 4.5294 2
3 -3 -22 2.82225 5.38252 2
3 3 -22 0.28072 4.34536 2
2 -3 -22 -1.6519 4.7256 2
2 3 -22 2.68191 5.32166 2
