#------------------------------------------------------------------------------
#$Date: 2016-03-04 13:59:01 +0200 (Fri, 04 Mar 2016) $
#$Revision: 177517 $
#$URL: svn://www.crystallography.net/cod/cif/1/54/24/1542469.cif $
#------------------------------------------------------------------------------
#
# This file is available in the Crystallography Open Database (COD),
# http://www.crystallography.net/
#
# All data on this site have been placed in the public domain by the
# contributors.
#
data_1542469
loop_
_publ_author_name
'Mdluli, Velabo'
'Golen, James A.'
'Manke, David R.'
_publ_section_title
;
 Bis[\m-2-(phenylsulfanyl)anilido-\k^2^<i>N</i>:<i>N</i>]bis[bis(tetrahydrofuran-\k<i>O</i>)lithium]
;
_journal_coeditor_code           WM4006
_journal_issue                   1
_journal_name_full               IUCrData
_journal_page_first              x160130
_journal_paper_doi               10.1107/S2414314616001309
_journal_volume                  1
_journal_year                    2016
_chemical_formula_iupac          '[Li2 (C12 H10 N S)2 (C4 H8 O)4]'
_chemical_formula_moiety         'C40 H52 Li2 N2 O4 S2'
_chemical_formula_sum            'C40 H52 Li2 N2 O4 S2'
_chemical_formula_weight         702.83
_chemical_name_systematic
Bis[\m-2-(phenylsulfanyl)anilido-\k^2^<i>N</i>:<i>N</i>]bis[bis(tetrahydrofuran-\k<i>O</i>)lithium]
_space_group_crystal_system      triclinic
_space_group_IT_number           2
_space_group_name_Hall           '-P 1'
_space_group_name_H-M_alt        'P -1'
_symmetry_space_group_name_Hall  '-P 1'
_symmetry_space_group_name_H-M   'P -1'
_atom_sites_solution_hydrogens   mixed
_audit_creation_method
;
Olex2 1.2
(compiled 2015.09.30 svn.r3233 for OlexSys, GUI svn.r5103)
;
_cell_angle_alpha                73.537(3)
_cell_angle_beta                 88.138(3)
_cell_angle_gamma                72.420(3)
_cell_formula_units_Z            1
_cell_length_a                   9.6540(7)
_cell_length_b                   9.9211(6)
_cell_length_c                   11.2854(8)
_cell_measurement_reflns_used    9896
_cell_measurement_temperature    200.0
_cell_measurement_theta_max      25.41
_cell_measurement_theta_min      2.83
_cell_volume                     986.50(12)
_computing_cell_refinement
;
SAINT (Bruker, 2014)
;
_computing_data_collection
;
APEX2 (Bruker, 2014)
;
_computing_data_reduction
;
SAINT (Bruker, 2014)
;
_computing_molecular_graphics
;
<i>OLEX2</i> (Dolomanov <i>et al.</i>,  2009)
;
_computing_publication_material
;
<i>OLEX2</i> (Dolomanov <i>et al.</i>,  2009) and publCIF (Westrip,
2010)
;
_computing_structure_refinement
;
SHELXL2014 (Sheldrick, 2015)
;
_computing_structure_solution
;
SHELXS97 (Sheldrick, 2008)
;
_diffrn_ambient_temperature      200.0
_diffrn_measured_fraction_theta_full 0.994
_diffrn_measured_fraction_theta_max 0.993
_diffrn_measurement_device_type  'Bruker D8 Venture CMOS'
_diffrn_measurement_method       '\f and \w scans'
_diffrn_radiation_monochromator  TRIUMPH
_diffrn_radiation_type           MoK\a
_diffrn_radiation_wavelength     0.71073
_diffrn_reflns_av_R_equivalents  0.0275
_diffrn_reflns_limit_h_max       11
_diffrn_reflns_limit_h_min       -11
_diffrn_reflns_limit_k_max       11
_diffrn_reflns_limit_k_min       -11
_diffrn_reflns_limit_l_max       13
_diffrn_reflns_limit_l_min       -13
_diffrn_reflns_number            28827
_diffrn_reflns_theta_full        25.242
_diffrn_reflns_theta_max         25.419
_diffrn_reflns_theta_min         2.826
_diffrn_standards_number         0
_exptl_absorpt_coefficient_mu    0.175
_exptl_absorpt_correction_T_max  0.7452
_exptl_absorpt_correction_T_min  0.7174
_exptl_absorpt_correction_type   multi-scan
_exptl_absorpt_process_details
;
(<i>SADABS</i>; Bruker, 2014)
;
_exptl_crystal_colour            colourless
_exptl_crystal_density_diffrn    1.183
_exptl_crystal_description       block
_exptl_crystal_F_000             376
_exptl_crystal_size_max          0.5
_exptl_crystal_size_mid          0.4
_exptl_crystal_size_min          0.3
_refine_diff_density_max         0.309
_refine_diff_density_min         -0.286
_refine_ls_extinction_method     none
_refine_ls_goodness_of_fit_ref   1.059
_refine_ls_hydrogen_treatment    mixed
_refine_ls_matrix_type           full
_refine_ls_number_parameters     249
_refine_ls_number_reflns         3607
_refine_ls_number_restraints     2
_refine_ls_restrained_S_all      1.059
_refine_ls_R_factor_all          0.0499
_refine_ls_R_factor_gt           0.0419
_refine_ls_shift/su_max          0.000
_refine_ls_shift/su_mean         0.000
_refine_ls_structure_factor_coef Fsqd
_refine_ls_weighting_details
'w=1/[\s^2^(Fo^2^)+(0.0453P)^2^+0.5014P] where P=(Fo^2^+2Fc^2^)/3'
_refine_ls_weighting_scheme      calc
_refine_ls_wR_factor_gt          0.1022
_refine_ls_wR_factor_ref         0.1105
_reflns_number_gt                3140
_reflns_number_total             3607
_reflns_threshold_expression     'I > 2\s(I)'
_cod_data_source_file            wm4006sup1.cif
_cod_data_source_block           I
_cod_depositor_comments          'Adding full bibliography for 1542469.cif.'
_cod_database_code               1542469
_cod_database_fobs_code          1542469
_shelx_space_group_comment
;
The symmetry employed for this shelxl refinement is uniquely defined
by the following loop, which should always be used as a source of
symmetry information in preference to the above space-group names.
They are only intended as comments.
;
_shelx_estimated_absorpt_t_min   0.917
_shelx_estimated_absorpt_t_max   0.949
_shelx_hkl_file
;
  -3   0   0  100.08    2.67
  -3   0   0  101.90    2.72
  -3   0   0  105.23    2.73
  -3   0   0  103.99    2.66
   3   0   0  103.91    2.68
   3   0   0  104.42    2.73
   3   0   0  102.90    2.72
   3   0   0   99.85    2.66
  -4   0   0  208.20    5.39
  -4   0   0  215.06    5.47
  -4   0   0  209.61    5.47
  -4   0   0  210.17    5.41
   4   0   0  222.98    5.48
   4   0   0  208.94    5.39
   4   0   0  216.04    5.47
   4   0   0  204.72    5.40
  -5   0   0    6.15    0.62
  -5   0   0    5.89    0.54
  -5   0   0    6.14    0.50
  -5   0   0    5.27    0.60
   5   0   0    5.14    0.53
   5   0   0    5.88    0.61
   5   0   0    5.90    0.61
   5   0   0    5.78    0.52
  -6   0   0   33.50    1.29
  -6   0   0   33.89    1.21
  -6   0   0   33.26    1.32
  -6   0   0   33.37    1.16
   6   0   0   32.28    1.20
   6   0   0   35.13    1.32
   6   0   0   33.76    1.29
   6   0   0   33.09    1.17
  -7   0   0   -0.50    0.33
  -7   0   0   -0.45    0.41
  -7   0   0   -0.75    0.42
  -7   0   0   -0.03    0.31
   7   0   0   -0.41    0.39
   7   0   0   -0.52    0.40
   7   0   0   -0.76    0.46
  -8   0   0   49.48    1.75
  -8   0   0   49.06    1.88
  -8   0   0   54.05    1.92
   8   0   0   43.75    1.69
   8   0   0   51.90    1.91
   8   0   0   49.79    1.76
   8   0   0   47.50    1.87
  -9   0   0    2.27    0.49
  -9   0   0    2.55    0.71
  -9   0   0    1.39    0.61
  -9   0   0    1.67    0.48
   9   0   0    1.81    0.54
   9   0   0    1.51    0.64
   9   0   0    2.73    0.71
 -10   0   0   56.45    2.27
 -10   0   0   48.40    1.85
 -10   0   0   53.16    2.03
 -10   0   0   50.92    2.25
  10   0   0   52.99    2.07
  10   0   0   54.48    2.27
  10   0   0   55.27    2.02
 -11   0   0    4.58    0.96
 -11   0   0    4.35    0.78
 -11   0   0    4.37    0.98
  11   0   0    5.65    0.82
  11   0   0    3.28    0.90
  11   0   0    4.19    0.89
  10  -1   0    1.39    0.84
  10  -1   0    0.88    0.78
  10  -1   0    1.01    0.68
  10  -1   0   -0.34    0.63
 -10   1   0    0.85    0.77
 -10   1   0    0.89    0.41
 -10   1   0    0.50    0.64
 -10   1   0    1.54    0.75
 -10   1   0   -0.58    0.55
   9  -1   0   15.05    1.24
   9  -1   0   13.60    1.19
   9  -1   0   15.02    1.35
   9  -1   0   13.55    1.36
  -9   1   0   14.18    1.33
  -9   1   0   15.17    1.15
  -9   1   0   14.91    1.36
   8  -1   0    7.48    0.93
   8  -1   0    6.61    0.80
   8  -1   0    6.10    0.73
   8  -1   0    7.69    0.92
  -8   1   0    7.41    0.70
  -8   1   0    6.41    0.74
  -8   1   0    6.25    0.75
   7  -1   0  163.64    5.01
   7  -1   0  191.42    4.95
   7  -1   0  185.24    5.08
   7  -1   0  185.93    4.93
  -7   1   0  182.52    4.89
  -7   1   0  180.24    5.06
  -7   1   0  190.63    4.95
  -7   1   0  195.33    5.10
   6  -1   0    8.69    0.84
   6  -1   0    9.93    0.71
   6  -1   0    9.60    0.82
   6  -1   0    8.97    0.73
  -6   1   0    8.44    0.83
  -6   1   0    9.04    0.81
  -6   1   0    9.83    0.73
  -6   1   0    9.78    0.68
   5  -1   0  161.54    4.45
   5  -1   0  167.73    4.36
   5  -1   0  168.52    4.38
   5  -1   0  166.65    4.46
  -5   1   0  165.12    4.46
  -5   1   0  168.09    4.35
  -5   1   0  168.88    4.46
  -5   1   0  166.39    4.37
   4  -1   0  169.05    4.43
   4  -1   0  173.86    4.50
   4  -1   0  170.23    4.41
   4  -1   0  175.09    4.50
  -4   1   0  174.20    4.51
  -4   1   0  170.58    4.42
  -4   1   0  168.91    4.41
  -4   1   0  165.90    4.49
   3  -1   0    0.41    0.21
   3  -1   0    0.45    0.20
   3  -1   0    0.40    0.18
   3  -1   0    0.41    0.16
  -3   1   0    0.58    0.16
  -3   1   0    0.64    0.23
  -3   1   0    0.45    0.18
  -3   1   0    0.51    0.21
   2  -1   0    0.31    0.18
   2  -1   0    0.20    0.16
   2  -1   0    0.34    0.17
   2  -1   0    0.23    0.19
  -2   1   0    0.29    0.20
  -2   1   0    0.26    0.18
  -2   1   0    0.23    0.16
  -2   1   0    0.10    0.14
  -1   1   0  448.00   11.13
  -2  -1   0  229.44    5.78
  -2  -1   0  226.76    5.74
  -2  -1   0  237.92    5.75
  -2  -1   0  227.67    5.77
  -2  -1   0  221.07    5.77
   2   1   0  232.31    5.74
   2   1   0  238.26    5.74
   2   1   0  225.50    5.77
   2   1   0  235.00    5.77
  -3  -1   0  500.87   12.56
  -3  -1   0  502.52   12.55
  -3  -1   0  493.05   12.60
  -3  -1   0  502.40   12.60
   3   1   0  506.89   12.60
   3   1   0  505.12   12.55
   3   1   0  515.95   12.56
   3   1   0  519.95   12.61
  -4  -1   0    0.47    0.20
  -4  -1   0    0.21    0.24
  -4  -1   0    0.06    0.20
  -4  -1   0    0.13    0.23
   4   1   0    0.10    0.22
   4   1   0    0.24    0.25
   4   1   0    0.28    0.20
   4   1   0    0.35    0.20
  -5  -1   0   55.94    1.64
  -5  -1   0   56.27    1.66
  -5  -1   0   58.42    1.74
  -5  -1   0   57.71    1.73
   5   1   0   56.15    1.63
   5   1   0   55.15    1.65
   5   1   0   59.14    1.75
   5   1   0   57.50    1.73
  -6  -1   0  147.53    3.97
  -6  -1   0  148.32    3.98
  -6  -1   0  144.93    3.88
  -6  -1   0  150.09    3.86
   6   1   0  144.04    3.97
   6   1   0  146.03    3.87
   6   1   0  143.16    3.95
   6   1   0  143.98    3.85
  -7  -1   0    0.53    0.43
  -7  -1   0    0.90    0.33
  -7  -1   0    0.91    0.46
  -7  -1   0    1.18    0.36
  -7  -1   0    1.41    0.38
   7   1   0    0.94    0.43
   7   1   0    1.36    0.37
   7   1   0    1.24    0.37
   7   1   0    0.47    0.43
  -8  -1   0    7.59    1.00
  -8  -1   0   10.53    0.82
  -8  -1   0   10.30    0.89
  -8  -1   0    8.56    0.78
  -8  -1   0    9.85    0.99
   8   1   0   10.34    0.85
   8   1   0   10.56    0.99
   8   1   0    9.90    1.01
   8   1   0    9.82    0.86
  -9  -1   0    4.24    0.72
  -9  -1   0    3.25    0.52
  -9  -1   0    4.79    0.59
  -9  -1   0    4.22    0.59
  -9  -1   0    3.93    0.66
   9   1   0    2.90    0.52
   9   1   0    4.50    0.76
   9   1   0    3.62    0.54
 -10  -1   0   32.79    1.77
 -10  -1   0   33.57    1.47
 -10  -1   0   33.26    1.57
 -10  -1   0   36.81    1.78
 -10  -1   0   34.82    1.55
  10   1   0   33.76    1.77
  10   1   0   32.66    1.86
  10   1   0   33.06    1.53
 -11  -1   0    6.08    0.76
 -11  -1   0    5.90    0.79
 -11  -1   0    4.50    0.91
 -11  -1   0    3.70    0.67
 -11  -1   0    5.16    0.92
  11   1   0    6.21    0.87
  11   1   0    4.27    0.90
  11   1   0    4.00    0.89
  11   1   0    6.65    0.81
  10  -2   0    0.85    0.75
  10  -2   0    0.16    0.68
  10  -2   0    0.07    0.82
  10  -2   0    0.15    0.85
 -10   2   0    0.01    0.68
 -10   2   0   -0.24    0.80
 -10   2   0    0.94    0.82
 -10   2   0    0.20    0.64
 -10   2   0   -0.16    0.72
 -10   2   0   -0.14    0.40
   9  -2   0    0.54    0.73
   9  -2   0   -0.06    0.54
   9  -2   0    0.07    0.71
   9  -2   0   -1.03    0.59
  -9   2   0   -0.32    0.50
  -9   2   0   -0.30    0.50
  -9   2   0    0.05    0.66
  -9   2   0   -0.15    0.67
   8  -2   0   66.49    2.35
   8  -2   0   63.25    2.16
   8  -2   0   61.96    2.36
  -8   2   0   65.78    2.36
  -8   2   0   61.20    2.14
  -8   2   0   68.97    2.38
   7  -2   0   15.03    1.16
   7  -2   0   12.64    1.54
   7  -2   0   14.88    1.11
   7  -2   0   15.39    1.02
  -7   2   0   14.39    1.15
  -7   2   0   14.76    1.15
  -7   2   0   15.63    0.94
  -7   2   0   12.96    0.98
   6  -2   0   19.57    1.02
   6  -2   0   21.99    1.00
   6  -2   0   22.41    1.15
   6  -2   0   22.52    1.12
  -6   2   0   21.72    1.14
  -6   2   0   22.60    0.95
  -6   2   0   21.84    1.13
  -6   2   0   21.29    1.01
   5  -2   0    1.77    0.39
   5  -2   0    1.73    0.34
   5  -2   0    1.71    0.42
   5  -2   0    1.76    0.32
  -5   2   0    2.35    0.43
  -5   2   0    1.24    0.38
  -5   2   0    2.15    0.35
  -5   2   0    1.84    0.33
   4  -2   0   -0.31    0.30
   4  -2   0   -0.16    0.28
   4  -2   0   -0.15    0.24
   4  -2   0    0.19    0.25
  -4   2   0   -0.24    0.26
  -4   2   0   -0.53    0.30
  -4   2   0   -0.41    0.23
  -4   2   0   -0.03    0.23
   3  -2   0  153.36    3.99
   3  -2   0  153.28    4.00
   3  -2   0  156.48    4.06
   3  -2   0  155.43    4.06
  -3   2   0  151.94    4.08
  -3   2   0  156.19    3.98
  -3   2   0  151.65    4.05
  -3   2   0  156.42    3.99
  -3   2   0  156.27    4.07
   2  -2   0   50.71    1.38
   2  -2   0   49.96    1.42
   2  -2   0   49.03    1.42
   2  -2   0   50.30    1.37
  -2   2   0   49.24    1.42
  -2   2   0   50.34    1.37
  -2   2   0   48.46    1.45
  -2   2   0   48.13    1.35
  -2   2   0   49.28    1.43
   1  -2   0  288.79    7.34
   1  -2   0  291.76    7.39
   1  -2   0  289.77    7.30
   1  -2   0  300.26    7.31
   1  -2   0  298.58    7.34
  -1   2   0  289.91    7.30
  -1   2   0  285.82    7.38
  -1   2   0  293.06    7.34
  -1   2   0  300.05    7.29
  -1   2   0  288.34    7.34
  -1  -2   0  398.51   10.20
   1   2   0  431.61   10.17
   1   2   0  400.39   10.20
  -3  -2   0    2.81    0.26
  -3  -2   0    3.10    0.25
  -3  -2   0    2.85    0.30
  -3  -2   0    3.40    0.29
  -3  -2   0    2.49    0.33
   3   2   0    3.00    0.30
   3   2   0    2.69    0.24
   3   2   0    2.63    0.31
   3   2   0    3.06    0.24
  -4  -2   0   38.35    1.11
  -4  -2   0   38.41    1.15
  -4  -2   0   37.64    1.09
  -4  -2   0   36.87    1.15
  -4  -2   0   36.46    1.16
   4   2   0   37.65    1.08
   4   2   0   35.57    1.14
   4   2   0   38.41    1.07
  -5  -2   0  401.95    9.99
  -5  -2   0  400.33   10.04
  -5  -2   0  401.89    9.97
  -5  -2   0  370.43   10.03
  -5  -2   0  405.45   10.05
   5   2   0  393.27    9.95
   5   2   0  402.79    9.97
   5   2   0  404.97   10.05
  -6  -2   0    8.83    0.69
  -6  -2   0    8.97    0.70
  -6  -2   0    9.19    0.60
  -6  -2   0    8.79    0.67
  -6  -2   0    9.21    0.63
   6   2   0    8.85    0.59
   6   2   0    8.98    0.60
   6   2   0    8.95    0.73
  -7  -2   0  106.82    3.12
  -7  -2   0  115.77    3.13
  -7  -2   0  105.90    3.05
  -7  -2   0  106.83    3.02
  -7  -2   0  107.97    2.99
   7   2   0  113.95    3.14
   7   2   0  107.64    2.97
   7   2   0  107.15    2.99
  -8  -2   0   38.88    1.45
  -8  -2   0   37.78    1.38
  -8  -2   0   38.15    1.54
  -8  -2   0   39.46    1.45
  -8  -2   0   35.90    1.55
   8   2   0   38.92    1.38
   8   2   0   37.66    1.39
   8   2   0   38.83    1.57
  -9  -2   0   33.81    1.58
  -9  -2   0   35.46    1.44
  -9  -2   0   31.32    1.40
  -9  -2   0   34.30    1.57
  -9  -2   0   33.10    1.40
   9   2   0   32.22    1.39
   9   2   0   35.85    1.60
   9   2   0   35.24    1.38
 -10  -2   0    0.39    0.49
 -10  -2   0   -0.31    0.59
 -10  -2   0   -0.50    0.62
 -10  -2   0    0.63    0.55
 -10  -2   0   -0.16    0.52
  10   2   0    0.74    0.49
  10   2   0   -0.28    0.63
  10   2   0   -0.57    0.47
 -11  -2   0    0.47    0.59
 -11  -2   0    0.15    0.57
 -11  -2   0   -0.53    0.60
 -11  -2   0    0.86    0.80
 -11  -2   0   -0.13    0.76
  11   2   0    0.79    0.66
  11   2   0    0.84    0.59
  11   2   0    0.09    0.75
  11   2   0    0.40    0.74
   9  -3   0    0.74    0.76
   9  -3   0   -0.65    0.73
   9  -3   0   -0.97    0.62
   9  -3   0    0.21    0.68
  -9   3   0    0.42    0.70
  -9   3   0   -0.66    0.55
  -9   3   0    1.34    0.62
  -9   3   0   -0.17    0.69
  -9   3   0   -0.37    0.68
   8  -3   0    6.21    0.70
   8  -3   0    5.31    0.81
   8  -3   0    5.57    0.80
  -8   3   0    5.89    0.76
  -8   3   0    6.79    0.88
  -8   3   0    4.73    0.75
  -8   3   0    6.98    0.75
   7  -3   0   90.12    2.91
   7  -3   0   94.28    2.78
   7  -3   0   92.11    2.93
  -7   3   0   92.96    2.76
  -7   3   0   95.21    2.95
  -7   3   0   91.86    2.94
  -7   3   0   88.10    2.90
  -7   3   0   90.70    2.71
   6  -3   0   23.40    1.14
   6  -3   0   22.32    1.12
   6  -3   0   22.40    1.22
   6  -3   0   24.52    1.26
  -6   3   0   24.94    1.24
  -6   3   0   22.07    1.23
  -6   3   0   23.19    1.25
  -6   3   0   24.19    1.04
  -6   3   0   24.03    1.10
   5  -3   0  120.57    3.25
   5  -3   0  116.72    3.32
   5  -3   0  114.78    3.21
   5  -3   0  115.89    3.34
  -5   3   0  114.72    3.32
  -5   3   0  117.23    3.20
  -5   3   0  117.13    3.36
  -5   3   0  121.46    3.35
  -5   3   0  114.48    3.16
   4  -3   0   96.66    2.77
   4  -3   0   95.24    2.75
   4  -3   0   96.86    2.66
   4  -3   0   94.87    2.68
  -4   3   0   96.95    2.66
  -4   3   0  102.01    2.78
  -4   3   0   98.22    2.76
  -4   3   0   96.60    2.80
  -4   3   0   96.48    2.63
   3  -3   0    2.07    0.29
   3  -3   0    2.51    0.29
   3  -3   0    2.53    0.34
   3  -3   0    2.42    0.35
  -3   3   0    2.71    0.28
  -3   3   0    2.05    0.27
  -3   3   0    2.81    0.37
  -3   3   0    2.67    0.41
  -3   3   0    3.03    0.37
   2  -3   0  117.34    3.01
   2  -3   0  114.47    2.99
   2  -3   0  110.46    3.05
   2  -3   0  116.54    3.06
  -2   3   0  116.66    2.98
  -2   3   0  117.98    2.97
  -2   3   0  111.49    3.05
  -2   3   0  113.88    3.12
  -2   3   0  112.70    3.06
   1  -3   0  124.31    3.21
   1  -3   0  123.41    3.16
   1  -3   0  125.16    3.29
   1  -3   0  122.63    3.21
   1  -3   0  122.93    3.17
  -1   3   0  119.51    3.28
  -1   3   0  122.80    3.21
  -1   3   0  120.37    3.16
  -1   3   0  124.72    3.14
  -1   3   0  124.84    3.14
  -1   3   0  126.62    3.21
   0  -3   0   24.20    0.74
   0  -3   0   24.07    0.68
   0  -3   0   24.27    0.72
   0  -3   0   23.53    0.68
   0  -3   0   24.83    0.84
   0  -3   0   22.73    0.72
   0   3   0   24.82    0.64
   0   3   0   23.97    0.64
   0   3   0   23.60    0.83
   0   3   0   24.27    0.75
   0   3   0   24.64    0.73
   0   3   0   24.10    0.72
  -1  -3   0  188.45    4.77
  -1  -3   0  184.29    4.66
  -1  -3   0  185.87    4.69
  -1  -3   0  188.15    4.66
  -1  -3   0  192.69    4.83
  -1  -3   0  182.86    4.69
   1   3   0  184.74    4.77
   1   3   0  188.96    4.69
   1   3   0  195.22    4.74
  -2  -3   0   24.55    0.65
  -2  -3   0   23.75    0.68
  -2  -3   0   24.45    0.80
  -2  -3   0   23.89    0.68
  -2  -3   0   24.28    0.66
   2   3   0   24.82    0.75
   2   3   0   24.03    0.69
   2   3   0   24.05    0.81
  -3  -3   0  711.87   17.94
   3   3   0  730.62   17.86
   3   3   0  752.34   17.89
   3   3   0  716.80   17.95
   3   3   0  693.74   17.86
  -4  -3   0    5.83    0.43
  -4  -3   0    5.75    0.44
  -4  -3   0    6.03    0.38
  -4  -3   0    6.04    0.52
  -4  -3   0    5.81    0.39
   4   3   0    6.30    0.34
   4   3   0    5.85    0.34
   4   3   0    5.78    0.45
   4   3   0    6.20    0.44
  -5  -3   0  270.19    6.76
  -5  -3   0  269.62    6.70
  -5  -3   0  267.04    6.66
  -5  -3   0  259.73    6.63
  -5  -3   0  263.98    6.71
   5   3   0  258.87    6.60
   5   3   0  257.24    6.61
   5   3   0  266.02    6.70
   5   3   0  251.41    6.70
  -6  -3   0   44.31    1.37
  -6  -3   0   43.69    1.34
  -6  -3   0   42.72    1.43
  -6  -3   0   45.22    1.43
  -6  -3   0   43.66    1.46
   6   3   0   43.76    1.43
   6   3   0   42.82    1.44
   6   3   0   44.25    1.31
   6   3   0   43.96    1.32
  -7  -3   0    4.19    0.45
  -7  -3   0    3.93    0.49
  -7  -3   0    4.35    0.42
  -7  -3   0    3.61    0.45
  -7  -3   0    4.26    0.51
   7   3   0    2.60    0.45
   7   3   0    3.88    0.38
   7   3   0    3.41    0.38
   7   3   0    3.45    0.46
  -8  -3   0    9.98    0.88
  -8  -3   0    8.08    0.89
  -8  -3   0    8.38    0.92
  -8  -3   0    8.33    0.75
  -8  -3   0    8.49    0.81
   8   3   0    8.97    0.76
   8   3   0    8.44    0.89
   8   3   0    8.91    0.72
   8   3   0    8.74    0.92
  -9  -3   0   15.78    1.15
  -9  -3   0   14.12    0.97
  -9  -3   0   13.27    1.04
  -9  -3   0   13.68    1.00
  -9  -3   0   12.77    1.09
   9   3   0   14.69    0.91
   9   3   0   14.45    1.15
   9   3   0   11.41    0.92
 -10  -3   0    2.37    0.63
 -10  -3   0    3.41    0.56
 -10  -3   0    4.08    0.63
 -10  -3   0    3.22    0.68
 -10  -3   0    3.39    0.67
  10   3   0    3.61    0.70
  10   3   0    2.57    0.56
  10   3   0    4.35    0.56
 -11  -3   0   -1.14    0.60
 -11  -3   0   -0.68    0.73
 -11  -3   0   -0.35    0.57
 -11  -3   0   -0.16    0.65
  11   3   0   -0.03    0.68
  11   3   0   -0.60    0.51
  11   3   0    0.27    0.69
   9  -4   0   18.92    1.53
   9  -4   0   17.15    1.77
   9  -4   0   20.03    1.79
  -9   4   0   16.01    1.41
  -9   4   0   19.64    1.40
  -9   4   0   20.13    1.70
  -9   4   0   19.15    1.72
   8  -4   0   -0.57    0.75
   8  -4   0   -0.78    0.65
   8  -4   0   -0.67    0.61
   8  -4   0    0.51    0.71
  -8   4   0    0.30    0.50
  -8   4   0    0.15    0.66
  -8   4   0    0.26    0.68
  -8   4   0    0.38    0.54
  -8   4   0    0.53    0.70
   7  -4   0   12.25    1.12
   7  -4   0   11.33    1.22
   7  -4   0   10.94    1.04
   7  -4   0    9.91    1.19
  -7   4   0    9.17    1.15
  -7   4   0   11.73    0.99
  -7   4   0    9.75    1.17
  -7   4   0    9.89    1.15
   6  -4   0   56.71    2.06
   6  -4   0   58.67    1.93
   6  -4   0   57.21    2.05
   6  -4   0   54.41    1.94
  -6   4   0   55.78    1.86
  -6   4   0   54.08    2.08
  -6   4   0   54.67    1.81
  -6   4   0   60.51    2.07
   5  -4   0   23.56    1.18
   5  -4   0   22.00    1.15
   5  -4   0   24.59    1.07
   5  -4   0   23.75    1.10
  -5   4   0   21.06    1.15
  -5   4   0   21.97    0.96
  -5   4   0   22.11    1.14
  -5   4   0   22.10    0.99
  -5   4   0   20.93    1.16
   4  -4   0  132.94    3.55
   4  -4   0  134.34    3.57
   4  -4   0  129.48    3.64
   4  -4   0  124.22    3.64
  -4   4   0  132.85    3.65
  -4   4   0  127.54    3.51
  -4   4   0  132.76    3.49
  -4   4   0  139.86    3.67
  -4   4   0  131.92    3.72
   3  -4   0    1.69    0.29
   3  -4   0    1.35    0.32
   3  -4   0    1.60    0.37
   3  -4   0    1.60    0.31
  -3   4   0    1.02    0.33
  -3   4   0    2.12    0.37
  -3   4   0    1.84    0.28
  -3   4   0    1.58    0.40
  -3   4   0    2.26    0.28
   2  -4   0  426.88   10.76
   2  -4   0  428.19   10.77
   2  -4   0  423.86   10.70
   2  -4   0  424.87   10.86
   2  -4   0  434.65   10.71
  -2   4   0  429.59   10.87
  -2   4   0  438.72   10.78
  -2   4   0  427.00   10.67
  -2   4   0  425.74   10.77
  -2   4   0  415.08   10.66
  -2   4   0  425.57   10.65
   1  -4   0    1.70    0.35
   1  -4   0    1.43    0.26
   1  -4   0    1.49    0.26
   1  -4   0    1.64    0.22
   1  -4   0    1.11    0.21
  -1   4   0    1.46    0.36
  -1   4   0    1.30    0.17
  -1   4   0    1.65    0.27
  -1   4   0    1.87    0.24
  -1   4   0    1.59    0.26
  -1   4   0    1.47    0.18
   0  -4   0  201.99    5.09
   0  -4   0  206.06    5.05
   0  -4   0  206.75    5.09
   0  -4   0  196.82    5.05
   0  -4   0  200.80    5.23
   0   4   0  197.69    5.12
   0   4   0  202.74    5.10
   0   4   0  194.76    4.98
   0   4   0  206.19    5.10
   0   4   0  196.76    4.98
   0   4   0  199.22    5.23
  -1  -4   0  134.99    3.48
  -1  -4   0  136.03    3.45
  -1  -4   0  140.49    3.67
  -1  -4   0  135.98    3.46
  -1  -4   0  139.64    3.49
  -1  -4   0  139.62    3.59
   1   4   0  140.93    3.50
   1   4   0  134.74    3.59
  -2  -4   0   29.81    0.99
  -2  -4   0   28.36    1.05
  -2  -4   0   30.21    0.81
  -2  -4   0   31.20    0.80
  -2  -4   0   31.09    0.84
  -2  -4   0   30.53    0.83
   2   4   0   27.02    0.92
   2   4   0   31.02    0.85
   2   4   0   28.87    1.00
  -3  -4   0   76.64    2.00
  -3  -4   0   75.05    2.14
  -3  -4   0   76.49    1.96
  -3  -4   0   75.93    1.97
   3   4   0   77.11    2.00
   3   4   0   77.40    2.07
   3   4   0   76.38    2.16
  -4  -4   0   37.69    1.24
  -4  -4   0   36.03    1.09
  -4  -4   0   36.56    1.05
  -4  -4   0   37.33    1.10
  -4  -4   0   36.83    1.07
   4   4   0   36.99    1.10
   4   4   0   36.50    1.11
   4   4   0   38.43    1.17
  -5  -4   0    0.94    0.24
  -5  -4   0    0.68    0.20
  -5  -4   0    0.60    0.23
  -5  -4   0    0.77    0.35
  -5  -4   0    0.58    0.21
   5   4   0    0.54    0.15
   5   4   0    0.60    0.16
   5   4   0    0.57    0.30
   5   4   0    0.59    0.25
   5   4   0    0.67    0.25
  -6  -4   0  135.77    3.64
  -6  -4   0  136.13    3.73
  -6  -4   0  139.41    3.66
  -6  -4   0  134.79    3.57
  -6  -4   0  137.54    3.60
   6   4   0  131.81    3.65
   6   4   0  136.90    3.51
   6   4   0  140.91    3.66
   6   4   0  134.36    3.51
  -7  -4   0    6.09    0.60
  -7  -4   0    5.29    0.67
  -7  -4   0    4.61    0.57
  -7  -4   0    6.03    0.68
  -7  -4   0    6.19    0.76
   7   4   0    5.03    0.66
   7   4   0    5.38    0.51
   7   4   0    5.42    0.67
   7   4   0    5.78    0.50
  -8  -4   0   30.62    1.33
  -8  -4   0   32.21    1.33
  -8  -4   0   32.53    1.37
  -8  -4   0   31.41    1.20
  -8  -4   0   33.42    1.27
   8   4   0   32.39    1.12
   8   4   0   30.86    1.33
   8   4   0   33.72    1.36
   8   4   0   31.97    1.14
  -9  -4   0   21.79    1.25
  -9  -4   0   23.14    1.16
  -9  -4   0   22.49    1.12
  -9  -4   0   23.33    1.27
  -9  -4   0   22.46    1.25
   9   4   0   25.42    1.06
   9   4   0   23.30    1.01
   9   4   0   24.39    1.29
 -10  -4   0    1.18    0.62
 -10  -4   0    0.61    0.53
 -10  -4   0    0.66    0.50
 -10  -4   0    0.15    0.76
 -10  -4   0    0.69    0.48
  10   4   0    1.04    0.42
  10   4   0    0.84    0.46
  10   4   0    0.82    0.64
  10   4   0    0.67    0.60
 -11  -4   0    7.95    0.92
 -11  -4   0    7.26    0.91
 -11  -4   0    5.68    0.78
 -11  -4   0    4.96    0.73
 -11  -4   0    6.46    0.80
  11   4   0    6.41    0.64
  11   4   0    8.75    1.06
  11   4   0    7.96    0.99
  11   4   0    6.50    0.92
   8  -5   0   12.12    1.08
   8  -5   0    9.52    1.04
   8  -5   0    9.13    1.04
   8  -5   0   11.69    1.30
  -8   5   0   11.55    1.49
  -8   5   0    9.49    1.16
  -8   5   0   14.20    1.51
  -8   5   0    7.94    0.99
  -8   5   0   12.50    1.20
   7  -5   0    6.31    0.85
   7  -5   0    5.16    0.74
   7  -5   0    6.14    0.82
   7  -5   0    8.14    0.80
  -7   5   0    7.19    0.93
  -7   5   0    4.36    0.78
  -7   5   0    5.17    0.63
  -7   5   0    5.63    0.84
   6  -5   0   58.22    1.99
   6  -5   0   58.55    2.06
   6  -5   0   58.75    2.15
   6  -5   0   58.98    2.16
  -6   5   0   54.40    1.91
  -6   5   0   56.90    2.20
  -6   5   0   57.90    2.15
  -6   5   0   61.61    1.89
   5  -5   0   32.39    1.46
   5  -5   0   32.82    1.38
   5  -5   0   28.88    1.43
   5  -5   0   29.57    1.33
  -5   5   0   33.04    1.47
  -5   5   0   32.50    1.25
  -5   5   0   32.35    1.20
  -5   5   0   33.91    1.55
   4  -5   0   62.68    2.02
   4  -5   0   61.23    1.93
   4  -5   0   62.68    2.02
   4  -5   0   63.61    1.91
  -4   5   0   59.51    1.99
  -4   5   0   64.03    2.03
  -4   5   0   58.95    1.74
  -4   5   0   60.28    2.11
  -4   5   0   60.29    1.81
  -4   5   0   62.97    1.85
   3  -5   0   70.85    2.14
   3  -5   0   71.45    2.06
   3  -5   0   71.93    2.09
   3  -5   0   71.23    2.15
  -3   5   0   69.74    2.15
  -3   5   0   72.57    2.17
  -3   5   0   73.14    1.98
  -3   5   0   68.58    1.96
  -3   5   0   71.30    2.29
  -3   5   0   71.98    2.00
   2  -5   0   19.60    0.84
   2  -5   0   18.43    0.99
   2  -5   0   18.90    0.79
   2  -5   0   18.70    0.85
   2  -5   0   18.95    0.78
  -2   5   0   19.30    0.99
  -2   5   0   19.48    0.69
  -2   5   0   19.65    0.87
  -2   5   0   19.87    0.74
  -2   5   0   19.05    0.85
  -2   5   0   18.80    0.68
   1  -5   0   31.37    1.00
   1  -5   0   31.58    1.01
   1  -5   0   30.71    1.05
   1  -5   0   33.27    1.24
   1  -5   0   31.75    1.06
  -1   5   0   32.42    1.07
  -1   5   0   30.98    1.21
  -1   5   0   32.57    1.04
  -1   5   0   31.56    1.07
  -1   5   0   31.75    0.91
  -1   5   0   33.08    0.91
   0  -5   0  219.65    5.61
   0  -5   0  221.88    5.81
   0  -5   0  217.89    5.57
   0  -5   0  226.15    5.58
   0  -5   0  220.83    5.62
   0   5   0  213.40    5.66
   0   5   0  220.74    5.81
   0   5   0  225.30    5.63
   0   5   0  224.61    5.63
  -1  -5   0   24.56    0.78
  -1  -5   0   24.86    1.05
  -1  -5   0   26.70    0.92
  -1  -5   0   25.23    0.79
  -1  -5   0   24.12    0.75
  -1  -5   0   24.80    0.74
   1   5   0   27.03    0.94
   1   5   0   24.06    0.80
  -2  -5   0  756.96   18.92
  -2  -5   0  755.37   18.84
   2   5   0  752.46   18.85
   2   5   0  756.36   18.78
  -3  -5   0   22.18    0.65
  -3  -5   0   21.53    0.69
  -3  -5   0   21.80    0.69
  -3  -5   0   22.39    0.67
  -3  -5   0   22.46    0.90
   3   5   0   22.14    0.69
   3   5   0   22.13    0.82
   3   5   0   23.27    0.94
  -4  -5   0    0.04    0.15
  -4  -5   0   -0.26    0.30
  -4  -5   0    0.10    0.17
  -4  -5   0    0.50    0.18
  -4  -5   0    0.09    0.17
   4   5   0    0.05    0.26
   4   5   0    0.22    0.18
   4   5   0   -0.32    0.30
   4   5   0    0.12    0.18
  -5  -5   0  102.97    2.82
  -5  -5   0  107.67    2.78
  -5  -5   0  103.66    2.98
  -5  -5   0  107.66    2.80
  -5  -5   0  106.93    2.83
   5   5   0  105.32    2.89
   5   5   0  106.12    2.83
   5   5   0  110.34    2.84
  -6  -5   0   13.15    0.65
  -6  -5   0   12.66    0.67
  -6  -5   0   13.62    0.87
  -6  -5   0   13.28    0.69
  -6  -5   0   13.01    0.62
   6   5   0   13.31    0.71
   6   5   0   13.20    0.44
   6   5   0   12.48    0.77
   6   5   0   13.21    0.45
   6   5   0   12.46    0.70
  -7  -5   0   48.14    1.73
  -7  -5   0   49.27    1.54
  -7  -5   0   49.29    1.59
  -7  -5   0   48.28    1.58
  -7  -5   0   50.34    1.51
   7   5   0   48.38    1.37
   7   5   0   47.06    1.36
   7   5   0   47.59    1.64
   7   5   0   50.29    1.61
   7   5   0   49.04    1.60
  -8  -5   0   13.68    0.91
  -8  -5   0   13.15    0.82
  -8  -5   0   12.73    1.04
  -8  -5   0   14.18    0.82
  -8  -5   0   13.62    0.90
   8   5   0   11.92    0.92
   8   5   0   11.31    0.96
   8   5   0   13.10    0.94
   8   5   0   13.56    0.65
   8   5   0   11.91    0.64
  -9  -5   0    3.62    0.49
  -9  -5   0    2.62    0.53
  -9  -5   0    2.92    0.63
  -9  -5   0    4.74    0.59
  -9  -5   0    5.12    0.58
   9   5   0    4.03    0.60
   9   5   0    4.82    0.59
   9   5   0    3.69    0.40
   9   5   0    1.62    0.66
 -10  -5   0    2.63    0.52
 -10  -5   0    1.78    0.53
 -10  -5   0    1.86    0.54
 -10  -5   0    0.44    0.55
  10   5   0    2.59    0.66
  10   5   0    1.94    0.42
  10   5   0    2.47    0.40
  10   5   0    2.01    0.61
 -11  -5   0    3.32    0.76
 -11  -5   0    3.28    0.64
 -11  -5   0    4.27    0.72
 -11  -5   0    2.95    0.70
 -11  -5   0    3.99    0.86
  11   5   0    4.45    0.53
  11   5   0    4.55    0.82
  11   5   0    2.40    0.78
   7  -6   0    9.14    1.04
   7  -6   0   12.55    1.40
   7  -6   0   11.77    1.36
   7  -6   0   10.49    1.24
  -7   6   0   11.24    0.68
  -7   6   0   12.35    1.47
  -7   6   0   11.06    1.45
  -7   6   0   12.28    1.41
  -7   6   0   12.88    1.10
   6  -6   0    7.49    0.77
   6  -6   0    9.44    1.21
   6  -6   0    9.02    1.15
   6  -6   0    6.95    0.77
  -6   6   0    9.72    0.63
  -6   6   0   10.93    1.25
  -6   6   0    7.02    0.92
  -6   6   0    7.97    0.88
  -6   6   0    8.61    0.96
  -6   6   0    6.80    0.81
   5  -6   0   64.23    2.17
   5  -6   0   64.25    2.22
   5  -6   0   61.83    2.23
   5  -6   0   66.14    2.12
  -5   6   0   66.84    2.26
  -5   6   0   57.96    1.93
  -5   6   0   64.90    1.99
  -5   6   0   65.81    2.37
  -5   6   0   64.88    1.85
   4  -6   0  196.94    5.19
   4  -6   0  191.46    5.30
   4  -6   0  197.13    5.22
   4  -6   0  196.15    5.29
  -4   6   0  198.30    5.07
  -4   6   0  199.10    5.47
  -4   6   0  183.51    5.27
  -4   6   0  197.07    5.09
  -4   6   0  198.19    5.31
  -4   6   0  193.18    5.04
   3  -6   0   49.03    1.60
   3  -6   0   46.36    1.64
   3  -6   0   49.35    1.68
   3  -6   0   48.38    1.58
  -3   6   0   47.68    1.44
  -3   6   0   48.55    1.66
  -3   6   0   46.97    1.42
  -3   6   0   49.95    1.86
  -3   6   0   47.33    1.67
  -3   6   0   45.91    1.46
   2  -6   0  262.73    6.59
   2  -6   0  265.81    6.66
   2  -6   0  269.59    6.59
   2  -6   0  247.80    6.63
   2  -6   0  230.70    6.79
  -2   6   0  254.19    6.65
  -2   6   0  255.54    6.46
  -2   6   0  257.60    6.83
  -2   6   0  255.16    6.55
  -2   6   0  261.00    6.66
  -2   6   0  261.78    6.46
   1  -6   0    0.03    0.42
   1  -6   0   -0.35    0.25
   1  -6   0   -0.44    0.24
   1  -6   0   -0.14    0.26
   1  -6   0   -0.38    0.23
  -1   6   0   -0.38    0.13
  -1   6   0   -0.09    0.27
  -1   6   0   -0.35    0.43
  -1   6   0    0.04    0.29
  -1   6   0   -0.02    0.29
  -1   6   0   -0.31    0.13
   0  -6   0  143.18    3.73
   0  -6   0  144.70    3.98
   0  -6   0  142.91    3.69
   0  -6   0  139.35    3.72
   0  -6   0  143.03    3.69
   0   6   0  140.57    3.74
   0   6   0  145.22    3.99
   0   6   0  144.22    3.74
   0   6   0  142.98    3.80
  -1  -6   0   56.76    1.58
  -1  -6   0   59.32    1.91
  -1  -6   0   59.37    1.74
  -1  -6   0   56.67    1.60
  -1  -6   0   57.69    1.57
  -1  -6   0   58.52    1.61
   1   6   0   58.54    1.62
   1   6   0   60.59    1.68
   1   6   0   56.59    1.74
  -2  -6   0    0.92    0.41
  -2  -6   0    1.35    0.20
  -2  -6   0    1.40    0.18
  -2  -6   0    1.53    0.17
  -2  -6   0    1.38    0.19
  -2  -6   0    1.30    0.35
   2   6   0    1.00    0.19
   2   6   0    0.73    0.36
   2   6   0    0.82    0.20
  -3  -6   0    0.83    0.17
  -3  -6   0    0.51    0.33
  -3  -6   0    0.74    0.17
  -3  -6   0    0.64    0.16
  -3  -6   0    0.72    0.15
  -3  -6   0    0.45    0.41
   3   6   0    0.81    0.17
   3   6   0    0.78    0.17
   3   6   0    0.67    0.30
   3   6   0    0.62    0.38
  -4  -6   0    6.63    0.40
  -4  -6   0    6.17    0.40
  -4  -6   0    6.17    0.68
  -4  -6   0    7.06    0.36
  -4  -6   0    7.00    0.39
   4   6   0    6.44    0.69
   4   6   0    6.99    0.41
   4   6   0    6.77    0.58
  -5  -6   0   80.84    2.17
  -5  -6   0   80.78    2.16
  -5  -6   0   83.49    2.18
  -5  -6   0   81.71    2.41
  -5  -6   0   82.17    2.14
   5   6   0   68.88    2.17
   5   6   0   81.31    2.19
   5   6   0   83.05    2.29
  -6  -6   0   66.18    2.10
  -6  -6   0   61.15    1.84
  -6  -6   0   63.33    1.80
  -6  -6   0   63.94    1.83
  -6  -6   0   64.22    1.85
   6   6   0   63.56    1.86
   6   6   0   64.91    1.87
   6   6   0   66.20    1.97
  -7  -6   0   17.75    0.84
  -7  -6   0   19.39    0.93
  -7  -6   0   18.44    0.88
  -7  -6   0   17.98    1.19
  -7  -6   0   17.94    0.87
   7   6   0   17.60    1.05
   7   6   0   18.95    0.94
   7   6   0   18.94    0.95
  -8  -6   0  173.56    4.58
  -8  -6   0  178.42    4.55
  -8  -6   0  172.27    4.61
  -8  -6   0  157.65    4.60
  -8  -6   0  176.58    4.82
   8   6   0  171.53    4.67
   8   6   0  172.97    4.64
   8   6   0  172.54    4.63
  -9  -6   0    4.29    0.50
  -9  -6   0    4.21    0.58
  -9  -6   0    3.68    0.50
  -9  -6   0    4.61    0.56
   9   6   0    4.40    0.64
   9   6   0    4.02    0.58
   9   6   0    5.05    0.45
 -10  -6   0    5.11    0.66
 -10  -6   0    4.08    0.59
 -10  -6   0    5.58    0.67
 -10  -6   0    3.84    0.56
 -10  -6   0    4.94    0.82
  10   6   0    5.24    0.58
  10   6   0    5.27    0.74
  10   6   0    5.15    0.71
  10   6   0    5.64    0.73
 -11  -6   0   -0.07    0.61
 -11  -6   0    0.66    0.56
 -11  -6   0   -0.55    0.52
 -11  -6   0    0.02    0.60
 -11  -6   0    0.70    0.82
  11   6   0   -0.65    0.71
  11   6   0    0.06    0.31
  11   6   0    0.47    0.64
  11   6   0    0.07    0.37
  11   6   0    0.07    0.63
   6  -7   0    6.07    0.81
   6  -7   0    4.71    0.77
   6  -7   0    7.18    0.79
   6  -7   0   10.96    1.33
  -6   7   0    6.90    0.66
  -6   7   0    7.82    0.87
  -6   7   0    6.90    0.65
  -6   7   0    7.98    0.96
  -6   7   0    5.97    0.99
  -6   7   0    6.49    0.92
   5  -7   0   -1.18    0.52
   5  -7   0   -0.14    0.53
   5  -7   0    0.21    0.57
   5  -7   0    0.05    0.46
  -5   7   0   -0.54    0.34
  -5   7   0   -0.06    0.58
  -5   7   0    0.82    0.57
  -5   7   0   -0.44    0.33
  -5   7   0    0.29    0.33
  -5   7   0    0.31    0.70
   4  -7   0   -0.20    0.46
   4  -7   0   -0.34    0.41
   4  -7   0    0.35    0.50
   4  -7   0    0.44    0.49
  -4   7   0   -0.35    0.28
  -4   7   0    0.62    0.51
  -4   7   0    0.58    0.32
  -4   7   0   -0.09    0.31
  -4   7   0   -0.62    0.61
   3  -7   0   16.11    0.99
   3  -7   0   16.37    0.92
   3  -7   0   15.26    0.95
   3  -7   0   15.08    0.99
  -3   7   0   15.31    0.69
  -3   7   0   14.05    1.23
  -3   7   0   14.84    1.02
  -3   7   0   14.82    0.99
  -3   7   0   12.83    0.78
  -3   7   0   15.42    0.67
   2  -7   0   28.56    1.10
   2  -7   0   27.82    1.47
   2  -7   0   26.26    1.09
   2  -7   0   28.60    1.17
   2  -7   0   26.81    1.14
  -2   7   0   26.98    1.43
  -2   7   0   25.73    1.05
  -2   7   0   26.65    0.85
  -2   7   0   28.05    0.86
  -2   7   0   28.23    1.16
  -2   7   0   29.65    1.19
   1  -7   0  174.53    4.58
   1  -7   0  176.69    4.58
   1  -7   0  176.48    4.91
   1  -7   0  174.31    4.62
   1  -7   0  175.55    4.63
  -1   7   0  178.30    4.91
  -1   7   0  170.76    4.64
  -1   7   0  176.98    4.65
  -1   7   0  174.61    4.63
   0  -7   0    8.15    0.57
   0  -7   0    6.21    0.89
   0  -7   0    7.35    0.56
   0  -7   0    7.34    0.54
   0  -7   0    7.81    0.57
   0   7   0    8.66    0.70
   0   7   0    7.27    0.86
   0   7   0    7.44    0.60
   0   7   0    7.87    0.61
  -1  -7   0  168.39    4.27
  -1  -7   0  166.57    4.26
  -1  -7   0  166.22    4.28
  -1  -7   0  166.37    4.26
  -1  -7   0  159.81    4.59
   1   7   0  166.41    4.44
   1   7   0  165.32    4.31
   1   7   0  168.99    4.29
  -2  -7   0    1.77    0.40
  -2  -7   0    2.35    0.25
  -2  -7   0    2.04    0.23
  -2  -7   0    2.23    0.23
  -2  -7   0    1.92    0.23
  -2  -7   0    0.81    0.49
   2   7   0    1.94    0.44
   2   7   0    1.89    0.23
   2   7   0    2.71    0.27
  -3  -7   0   35.26    1.33
  -3  -7   0   35.09    0.99
  -3  -7   0   34.69    1.44
  -3  -7   0   35.49    1.00
  -3  -7   0   33.42    0.99
   3   7   0   34.41    1.01
   3   7   0   34.94    1.02
   3   7   0   33.03    1.34
  -4  -7   0    3.04    0.27
  -4  -7   0    3.00    0.34
  -4  -7   0    3.39    0.52
  -4  -7   0    2.43    0.53
  -4  -7   0    2.69    0.24
   4   7   0    2.96    0.36
   4   7   0    2.48    0.41
   4   7   0    2.48    0.49
   4   7   0    3.02    0.36
  -5  -7   0   33.54    1.03
  -5  -7   0   33.47    1.06
  -5  -7   0   33.85    1.05
  -5  -7   0   34.59    1.04
  -5  -7   0   33.25    1.38
   5   7   0   33.38    1.06
   5   7   0   33.42    1.24
  -6  -7   0   39.66    1.21
  -6  -7   0   38.86    1.22
  -6  -7   0   38.00    1.19
  -6  -7   0   38.07    1.18
  -6  -7   0   31.77    1.47
   6   7   0   39.37    1.23
   6   7   0   34.49    1.22
   6   7   0   38.98    1.38
  -7  -7   0   88.56    2.44
  -7  -7   0   87.03    2.43
  -7  -7   0   88.36    2.40
  -7  -7   0   90.18    2.45
   7   7   0   90.11    2.47
   7   7   0   83.60    2.56
   7   7   0   77.81    2.43
  -8  -7   0   14.21    0.82
  -8  -7   0   14.02    0.84
  -8  -7   0   13.64    0.87
  -8  -7   0   12.74    0.87
   8   7   0   13.15    1.03
   8   7   0   13.65    0.91
   8   7   0   13.98    0.90
  -9  -7   0   -0.15    0.41
  -9  -7   0   -0.48    0.39
  -9  -7   0   -0.49    0.37
  -9  -7   0   -0.71    0.64
   9   7   0    0.26    0.53
   9   7   0    0.00    0.45
 -10  -7   0    7.30    0.71
 -10  -7   0    9.05    1.03
 -10  -7   0    8.65    0.95
 -10  -7   0    6.56    0.96
 -10  -7   0    7.14    0.98
  10   7   0    9.72    1.10
  10   7   0    7.33    0.77
  10   7   0    8.10    1.04
   5  -8   0    2.76    0.74
   5  -8   0    1.80    0.63
   5  -8   0    2.64    0.68
   5  -8   0    2.49    0.73
  -5   8   0    2.99    0.46
  -5   8   0    4.27    1.02
  -5   8   0    2.38    0.75
  -5   8   0    2.81    0.44
  -5   8   0    3.19    0.78
   4  -8   0    9.22    1.02
   4  -8   0    8.11    0.78
   4  -8   0    8.23    1.00
   4  -8   0    6.38    0.73
  -4   8   0    8.19    0.63
  -4   8   0    8.46    1.12
  -4   8   0    9.33    1.09
  -4   8   0    7.58    0.73
  -4   8   0    8.31    1.14
   3  -8   0   13.74    0.98
   3  -8   0   13.32    1.00
   3  -8   0   12.29    1.03
   3  -8   0   14.87    1.04
  -3   8   0   15.64    1.35
  -3   8   0   12.60    0.60
  -3   8   0   14.22    0.84
  -3   8   0   12.09    1.06
   2  -8   0    6.50    0.58
   2  -8   0    7.62    0.77
   2  -8   0    4.70    0.54
   2  -8   0    5.65    0.57
  -2   8   0    8.15    0.73
  -2   8   0    6.08    0.82
  -2   8   0    6.04    0.82
  -2   8   0    6.56    0.84
   1  -8   0    0.01    0.34
   1  -8   0    1.18    0.36
   1  -8   0    0.76    0.37
   1  -8   0    0.56    0.36
  -1   8   0    1.62    0.43
  -1   8   0    0.37    0.38
  -1   8   0    0.56    0.39
  -1   8   0    0.78    0.64
   0  -8   0  136.38    3.75
   0  -8   0  143.66    3.77
   0  -8   0  143.16    3.76
   0  -8   0  138.92    3.77
   0   8   0  139.20    3.88
   0   8   0  147.24    3.81
   0   8   0  142.73    3.80
   0   8   0  143.85    4.17
  -1  -8   0   18.37    0.76
  -1  -8   0   19.42    0.77
  -1  -8   0   18.98    0.78
  -1  -8   0   19.28    0.78
   1   8   0   19.39    0.93
   1   8   0   18.53    0.80
   1   8   0   19.27    1.03
  -2  -8   0    3.11    0.42
  -2  -8   0    2.99    0.53
  -2  -8   0    2.66    0.64
  -2  -8   0    2.65    0.29
  -2  -8   0    2.67    0.27
  -2  -8   0    2.40    0.28
   2   8   0    2.90    0.31
   2   8   0    2.54    0.28
   2   8   0    2.27    0.51
  -3  -8   0   14.20    0.95
  -3  -8   0   13.34    0.58
  -3  -8   0   16.19    1.18
  -3  -8   0   14.75    0.53
  -3  -8   0   13.86    0.54
   3   8   0   14.28    0.57
   3   8   0   14.88    0.60
   3   8   0   14.85    1.00
  -4  -8   0    1.20    0.48
  -4  -8   0    1.46    0.24
  -4  -8   0    1.23    0.25
  -4  -8   0    1.74    0.57
  -4  -8   0    1.63    0.21
   4   8   0    1.37    0.47
   4   8   0    1.72    0.23
   4   8   0    1.83    0.56
   4   8   0    1.36    0.25
  -5  -8   0   53.26    1.56
  -5  -8   0   56.24    1.51
  -5  -8   0   56.75    1.96
  -5  -8   0   54.12    1.50
  -5  -8   0   53.32    1.53
  -5  -8   0   56.13    2.06
   5   8   0   53.67    1.77
   5   8   0   54.35    1.54
   5   8   0   54.35    1.53
  -6  -8   0   10.73    0.58
  -6  -8   0   10.30    0.59
  -6  -8   0   10.84    0.64
  -6  -8   0   10.13    0.55
   6   8   0   10.68    0.59
   6   8   0   10.68    0.61
   6   8   0    8.48    0.84
  -7  -8   0   18.28    0.83
  -7  -8   0   17.52    0.80
  -7  -8   0   17.28    0.81
  -7  -8   0   16.51    0.79
   7   8   0   18.39    0.84
   7   8   0   16.12    1.01
  -8  -8   0   12.45    0.82
  -8  -8   0   11.60    0.81
  -8  -8   0   11.09    0.73
  -8  -8   0   11.93    0.78
   8   8   0   10.70    0.83
   8   8   0    8.93    0.77
   8   8   0   12.55    1.00
  -9  -8   0    0.18    0.41
  -9  -8   0   -0.79    0.39
  -9  -8   0   -0.22    0.38
  -9  -8   0   -0.70    0.76
  -9  -8   0    0.07    0.36
   9   8   0    0.42    0.54
   9   8   0   -0.05    0.32
 -10  -8   0    1.38    0.86
 -10  -8   0    0.09    0.47
 -10  -8   0    0.55    0.47
 -10  -8   0    0.14    0.43
 -10  -8   0    0.53    0.50
  10   8   0    0.53    0.62
  10   8   0   -0.61    0.39
  10   8   0    0.06    0.56
   4  -9   0    1.64    0.66
   4  -9   0    1.05    0.60
   4  -9   0    1.38    0.66
   4  -9   0    2.52    0.66
  -4   9   0   -0.07    0.63
  -4   9   0    2.56    0.98
  -4   9   0    1.68    0.73
  -4   9   0    1.49    0.46
   3  -9   0   -0.66    0.50
   3  -9   0   -0.11    0.54
   3  -9   0   -0.07    0.51
   3  -9   0    0.20    0.52
  -3   9   0   -0.17    0.54
  -3   9   0    0.25    0.42
  -3   9   0    0.40    0.79
  -3   9   0   -0.95    0.54
   2  -9   0   17.29    1.05
   2  -9   0   16.64    1.04
   2  -9   0   15.89    1.04
   2  -9   0   16.70    1.58
   2  -9   0   16.43    1.06
  -2   9   0   17.46    1.10
  -2   9   0   17.20    1.53
  -2   9   0   16.97    0.98
  -2   9   0   15.65    1.25
   1  -9   0   26.22    1.10
   1  -9   0   24.25    1.11
   1  -9   0   23.85    1.07
   1  -9   0   25.00    1.10
  -1   9   0   23.95    1.15
  -1   9   0   25.83    1.60
  -1   9   0   23.05    1.12
  -1   9   0   23.55    1.16
   0  -9   0   44.76    1.44
   0  -9   0   43.81    1.45
   0  -9   0   43.69    1.46
   0  -9   0   43.44    1.42
   0   9   0   44.55    1.62
   0   9   0   42.68    1.48
   0   9   0   42.00    1.47
  -1  -9   0   16.88    0.75
  -1  -9   0   16.87    0.79
  -1  -9   0   13.47    0.75
  -1  -9   0   17.41    0.80
   1   9   0   16.56    1.05
   1   9   0   14.26    0.78
  -2  -9   0    6.33    0.56
  -2  -9   0    7.56    0.48
  -2  -9   0    6.98    0.56
  -2  -9   0    6.48    0.47
   2   9   0    5.76    0.54
   2   9   0    5.60    0.68
   2   9   0    6.81    0.51
  -3  -9   0   13.65    1.21
  -3  -9   0   12.73    0.64
  -3  -9   0   13.26    1.05
  -3  -9   0   13.85    0.50
  -3  -9   0   12.63    0.51
   3   9   0   13.36    0.57
   3   9   0   13.81    0.61
   3   9   0   14.30    1.11
  -4  -9   0    2.69    0.61
  -4  -9   0    1.47    0.25
  -4  -9   0    1.91    0.29
  -4  -9   0    1.36    0.68
   4   9   0    1.33    0.22
   4   9   0    1.77    0.58
   4   9   0    1.84    0.25
  -5  -9   0    0.42    0.24
  -5  -9   0    0.64    0.67
  -5  -9   0    0.50    0.28
  -5  -9   0   -0.82    0.57
   5   9   0    0.26    0.20
   5   9   0    1.03    0.49
   5   9   0    0.30    0.23
  -6  -9   0    1.96    0.24
  -6  -9   0    1.61    0.67
  -6  -9   0    1.68    0.30
  -6  -9   0    1.38    0.22
  -6  -9   0    1.66    0.73
  -6  -9   0    1.90    0.33
   6   9   0    1.79    0.29
   6   9   0    0.58    0.46
  -7  -9   0    0.34    0.69
  -7  -9   0    1.50    0.36
  -7  -9   0    1.14    0.28
  -7  -9   0    1.68    0.80
  -7  -9   0    1.57    0.34
  -7  -9   0    1.34    0.29
   7   9   0    1.32    0.48
   7   9   0    1.24    0.33
  -8  -9   0    7.93    0.93
  -8  -9   0    8.03    0.66
  -8  -9   0    7.49    0.78
  -8  -9   0    8.30    0.74
  -8  -9   0    7.85    0.68
   8   9   0    8.35    0.75
   8   9   0    8.78    0.95
  -9  -9   0    0.42    0.42
  -9  -9   0    1.29    0.49
  -9  -9   0    0.66    0.38
  -9  -9   0    0.28    0.41
  -9  -9   0    0.10    0.76
   9   9   0    0.86    0.55
   9   9   0   -0.02    0.37
   2 -10   0    9.82    1.03
   2 -10   0    9.80    1.17
   2 -10   0    8.68    0.96
   2 -10   0   10.58    1.08
  -2  10   0   12.20    1.61
  -2  10   0   10.39    1.01
  -2  10   0    9.00    1.15
   1 -10   0    7.33    1.12
   1 -10   0    6.97    0.79
   1 -10   0    6.92    0.64
   1 -10   0    8.14    0.84
   1 -10   0    7.05    0.66
  -1  10   0    7.72    0.95
  -1  10   0    8.36    0.97
   0 -10   0    3.80    0.50
   0 -10   0    2.26    0.42
   0 -10   0    2.47    0.46
   0 -10   0    2.12    0.39
   0 -10   0    2.12    0.86
   0  10   0    3.12    0.62
  -1 -10   0   13.88    1.54
  -1 -10   0   13.57    0.83
  -1 -10   0   13.70    0.82
  -1 -10   0   12.22    0.74
  -1 -10   0   14.23    0.74
   1  10   0   13.73    1.12
   1  10   0   13.44    0.80
  -2 -10   0   16.72    0.82
  -2 -10   0   17.82    0.68
  -2 -10   0   17.37    1.52
  -2 -10   0   17.03    0.83
  -2 -10   0   16.35    0.67
   2  10   0   18.45    1.23
   2  10   0   16.95    0.77
  -3 -10   0    6.20    0.94
  -3 -10   0    6.71    0.59
  -3 -10   0    7.15    0.62
   3  10   0    6.34    0.80
   3  10   0    6.46    0.49
  -4 -10   0   10.19    0.63
  -4 -10   0   10.59    1.14
  -4 -10   0    9.04    0.62
  -4 -10   0   10.69    1.42
   4  10   0    9.59    1.14
  -5 -10   0    6.21    0.55
  -5 -10   0    5.42    0.78
  -5 -10   0    6.37    0.60
  -5 -10   0    4.71    0.94
  -6 -10   0   14.92    0.78
  -6 -10   0   14.57    0.74
  -6 -10   0   14.29    1.53
  -6 -10   0   14.98    1.35
   6  10   0   16.85    1.08
  -7 -10   0    0.61    0.34
  -7 -10   0    0.48    0.35
  -7 -10   0   -0.22    0.83
  -7 -10   0    0.19    0.82
   7  10   0   -0.16    0.23
   7  10   0    0.08    0.21
   7  10   0    1.01    0.52
  -8 -10   0   -0.34    0.26
  -8 -10   0   -0.02    0.25
  -8 -10   0    0.04    0.40
  -8 -10   0    0.32    0.95
  -8 -10   0   -0.99    0.74
  -8 -10   0   -0.01    0.38
   8  10   0    0.03    0.25
   8  10   0    0.37    0.52
   8  10   0    0.30    0.31
  -1 -11   0    6.55    0.64
  -1 -11   0    6.73    0.83
  -1 -11   0    8.66    0.88
  -1 -11   0    7.44    0.65
   1  11   0    8.06    0.87
  -2 -11   0   13.24    1.64
  -2 -11   0   13.92    0.88
   2  11   0   11.83    1.29
  -3 -11   0    2.86    0.42
  -3 -11   0    2.45    0.89
  -3 -11   0    2.77    0.42
   3  11   0    3.29    0.73
  -4 -11   0   -0.23    0.36
  -4 -11   0   -0.38    0.87
  -4 -11   0   -0.06    0.33
  -5 -11   0    4.03    0.85
  -5 -11   0    7.34    0.66
  -5 -11   0    6.91    0.71
  -5 -11   0    5.76    1.12
  -6 -11   0    0.29    0.38
  -6 -11   0    0.70    0.36
  -6 -11   0    2.18    0.79
  -6 -11   0   -0.42    0.88
   5  11  -1    1.19    0.79
  -5 -11   1    2.22    0.44
  -5 -11   1    1.89    0.46
   4  11  -1    0.50    0.73
   4  11  -1   -0.12    0.23
   4  11  -1   -0.07    0.27
  -4 -11   1   -0.14    0.40
  -4 -11   1    0.45    0.43
   3  11  -1    4.38    0.84
  -3 -11   1    5.06    0.51
  -3 -11   1    5.14    0.54
  -3 -11   1    3.93    0.51
  -3 -11   1    6.24    0.50
  -3 -11   1    3.06    1.31
   2  11  -1    2.33    0.76
  -2 -11   1    2.96    0.52
  -2 -11   1    1.72    0.37
  -2 -11   1    2.19    0.38
   8  10  -1    8.90    1.00
  -8 -10   1    7.14    0.69
  -8 -10   1    5.13    0.68
  -8 -10   1    9.22    0.84
  -8 -10   1    5.62    0.60
   7  10  -1    8.16    0.75
  -7 -10   1    7.83    0.61
  -7 -10   1    8.25    1.19
  -7 -10   1    9.01    0.83
  -7 -10   1    6.42    0.95
  -7 -10   1    8.48    0.78
  -7 -10   1    9.16    0.64
   6  10  -1    3.18    0.40
  -6 -10   1    2.63    0.86
  -6 -10   1    3.51    0.47
  -6 -10   1    2.87    0.31
  -6 -10   1    2.28    0.41
  -6 -10   1    2.93    0.98
  -6 -10   1    2.58    0.43
   5  10  -1   11.00    0.68
   5  10  -1   11.43    1.29
  -5 -10   1   11.60    0.76
  -5 -10   1    7.63    1.07
  -5 -10   1   10.30    0.72
  -5 -10   1   10.57    0.53
  -5 -10   1   11.18    0.54
  -5 -10   1   11.43    1.28
   4  10  -1    0.56    0.33
   4  10  -1    0.81    0.69
  -4 -10   1    0.79    0.34
  -4 -10   1   -0.43    0.77
  -4 -10   1    1.46    0.36
  -4 -10   1    0.71    0.25
   3  10  -1    5.66    0.82
   3  10  -1    6.11    0.67
  -3 -10   1    4.37    0.45
  -3 -10   1    5.06    0.52
  -3 -10   1    5.27    0.53
  -3 -10   1    4.70    0.48
  -3 -10   1    3.44    0.91
   2  10  -1   11.73    1.19
   2  10  -1   11.31    0.80
  -2 -10   1   10.89    0.74
  -2 -10   1   10.95    0.70
  -2 -10   1   10.56    1.50
  -2 -10   1   11.85    0.79
   1  10  -1    0.65    0.40
   1  10  -1    2.34    0.62
  -1 -10   1    1.12    0.36
  -1 -10   1    1.50    0.44
  -1 -10   1    1.09    0.90
  -1 -10   1    1.43    0.39
  -1 -10   1    1.42    0.44
   0  10  -1    7.96    1.08
   0  10  -1    9.11    1.07
   0 -10   1    9.49    0.91
   0 -10   1    8.30    0.86
   0 -10   1    8.06    0.91
   0 -10   1    8.82    0.78
   0 -10   1    7.29    1.07
  -1  10  -1    6.40    0.71
   1 -10   1    7.10    0.70
   1 -10   1    8.79    0.91
   1 -10   1    8.08    1.20
   1 -10   1    6.89    0.93
   1 -10   1    6.39    0.67
   9   9  -1    0.34    0.52
   9   9  -1   -0.11    0.37
   9   9  -1    0.20    0.51
  -9  -9   1    0.20    0.44
  -9  -9   1    0.86    0.48
  -9  -9   1    0.85    0.83
  -9  -9   1    0.28    0.36
  -9  -9   1   -0.22    0.42
   8   9  -1   -0.09    0.32
   8   9  -1    0.64    0.48
   8   9  -1    0.10    0.40
  -8  -9   1   -0.03    0.39
  -8  -9   1    0.75    0.75
  -8  -9   1    0.75    0.33
  -8  -9   1   -0.13    0.38
  -8  -9   1    0.27    0.41
   7   9  -1   11.01    0.77
   7   9  -1   10.10    0.91
  -7  -9   1    7.83    0.98
  -7  -9   1    8.66    0.70
  -7  -9   1    8.28    0.69
  -7  -9   1    9.55    0.72
  -7  -9   1    9.50    0.78
   6   9  -1    2.75    0.54
   6   9  -1    2.68    0.37
   6   9  -1    3.12    0.71
  -6  -9   1    2.28    0.37
  -6  -9   1    2.52    0.34
  -6  -9   1    2.24    0.66
  -6  -9   1    3.26    0.83
  -6  -9   1    2.71    0.34
  -6  -9   1    2.85    0.40
   5   9  -1   38.02    1.26
   5   9  -1   41.42    1.75
  -5  -9   1   38.95    1.85
  -5  -9   1   39.91    1.71
  -5  -9   1   38.33    1.27
  -5  -9   1   38.97    1.30
  -5  -9   1   38.79    1.21
   4   9  -1   10.25    0.67
   4   9  -1    9.74    0.61
   4   9  -1   10.64    1.09
  -4  -9   1   10.42    0.65
  -4  -9   1   11.28    0.68
  -4  -9   1    9.69    0.59
  -4  -9   1   11.00    1.09
  -4  -9   1   11.35    0.60
   3   9  -1    0.07    0.55
   3   9  -1   -0.18    0.30
   3   9  -1   -0.14    0.30
  -3  -9   1    0.07    0.29
  -3  -9   1   -0.29    0.29
  -3  -9   1   -0.07    0.27
  -3  -9   1   -0.30    0.25
   2   9  -1    9.89    0.71
   2   9  -1   10.58    0.96
   2   9  -1   10.16    1.02
  -2  -9   1    8.71    0.66
  -2  -9   1    9.01    0.63
  -2  -9   1    9.67    0.71
   1   9  -1   17.46    0.91
   1   9  -1   17.36    0.91
   1   9  -1   18.38    1.12
  -1  -9   1   15.78    0.87
  -1  -9   1   16.98    0.83
  -1  -9   1   18.38    0.87
  -1  -9   1   16.66    0.86
   0   9  -1    0.55    0.38
   0   9  -1    0.25    0.49
   0   9  -1    0.68    0.43
   0  -9   1    0.86    0.39
   0  -9   1    0.73    0.37
   0  -9   1    0.16    0.39
   0  -9   1    0.21    0.34
  -1   9  -1    0.52    0.45
  -1   9  -1    1.11    0.50
   1  -9   1    1.11    0.42
   1  -9   1    2.25    0.45
   1  -9   1    2.26    0.90
   1  -9   1    1.68    0.46
   1  -9   1    1.20    0.47
  -2   9  -1    0.68    0.53
  -2   9  -1    1.59    0.52
  -2   9  -1    1.44    0.57
  -2   9  -1    2.55    0.87
   2  -9   1    1.39    0.49
   2  -9   1    1.54    0.53
   2  -9   1    1.20    0.52
   2  -9   1    1.57    0.50
   2  -9   1    1.17    0.91
  -3   9  -1    6.89    0.93
  -3   9  -1    7.21    0.80
  -3   9  -1    6.56    1.07
  -3   9  -1   10.19    1.21
   3  -9   1    7.35    0.73
   3  -9   1    7.24    0.75
   3  -9   1    8.97    1.05
   3  -9   1    7.56    0.81
  10   8  -1   -0.08    0.44
  10   8  -1   -0.59    0.58
  10   8  -1    0.31    0.62
 -10  -8   1   -0.57    0.46
 -10  -8   1    0.17    0.78
 -10  -8   1    0.00    0.48
 -10  -8   1    0.23    0.51
 -10  -8   1    0.13    0.53
   9   8  -1    0.80    0.53
   9   8  -1   -0.14    0.36
   9   8  -1    1.64    0.55
  -9  -8   1    1.95    0.82
  -9  -8   1    0.23    0.45
  -9  -8   1    0.92    0.43
  -9  -8   1    0.43    0.45
  -9  -8   1    0.98    0.47
   8   8  -1    0.95    0.49
   8   8  -1    0.53    0.37
   8   8  -1    0.84    0.43
  -8  -8   1    1.60    0.75
  -8  -8   1    0.69    0.37
  -8  -8   1    0.88    0.42
  -8  -8   1    0.45    0.34
  -8  -8   1    0.53    0.40
   7   8  -1   13.48    0.91
   7   8  -1   13.84    0.84
   7   8  -1   14.43    0.86
  -7  -8   1   13.91    0.75
  -7  -8   1   13.25    0.80
  -7  -8   1   13.91    0.78
  -7  -8   1   13.35    0.83
   6   8  -1    1.66    0.37
   6   8  -1    1.03    0.34
   6   8  -1    1.53    0.42
   6   8  -1    2.01    0.64
  -6  -8   1    1.14    0.31
  -6  -8   1    1.29    0.31
  -6  -8   1    1.52    0.35
  -6  -8   1    1.74    0.33
   5   8  -1   26.79    0.97
   5   8  -1   26.59    1.10
   5   8  -1   27.94    1.39
  -5  -8   1   25.59    0.97
  -5  -8   1   25.71    1.34
  -5  -8   1   27.22    1.50
  -5  -8   1   21.90    0.92
  -5  -8   1   25.77    0.91
   4   8  -1   11.39    1.04
   4   8  -1   12.88    0.65
  -4  -8   1   12.43    0.67
  -4  -8   1   12.30    0.61
  -4  -8   1   11.88    0.61
  -4  -8   1   12.70    1.01
  -4  -8   1   12.87    0.64
   3   8  -1   12.81    0.99
   3   8  -1   12.63    0.66
  -3  -8   1   10.20    0.63
  -3  -8   1   12.39    0.61
  -3  -8   1   11.13    0.63
  -3  -8   1   11.39    0.95
  -3  -8   1   12.26    0.60
   2   8  -1   13.16    0.71
   2   8  -1   13.09    0.98
   2   8  -1   10.90    0.68
  -2  -8   1   13.76    0.67
  -2  -8   1   11.74    0.67
  -2  -8   1   13.08    0.65
   1   8  -1   16.12    0.82
   1   8  -1   17.48    0.85
   1   8  -1   17.03    1.02
  -1  -8   1   15.01    0.78
  -1  -8   1   16.67    0.80
  -1  -8   1   16.26    0.77
  -1  -8   1   16.16    0.79
   0   8  -1    4.30    0.55
   0   8  -1    5.27    0.72
   0   8  -1    4.28    0.48
   0  -8   1    5.45    0.65
   0  -8   1    3.92    0.44
   0  -8   1    5.15    0.66
   0  -8   1    3.51    0.44
  -1   8  -1    6.57    0.82
  -1   8  -1    6.43    0.82
  -1   8  -1    7.66    0.89
  -1   8  -1    7.29    0.81
   1  -8   1    6.86    0.57
   1  -8   1    5.91    0.76
   1  -8   1    6.00    0.74
   1  -8   1    6.99    0.76
  -2   8  -1    4.89    0.40
  -2   8  -1    4.17    0.78
  -2   8  -1    5.94    0.78
  -2   8  -1    4.05    0.57
   2  -8   1    4.02    0.53
   2  -8   1    4.32    0.54
   2  -8   1    4.14    0.54
   2  -8   1    3.76    0.51
   2  -8   1    4.28    0.94
  -3   8  -1   19.14    1.24
  -3   8  -1   20.04    0.78
  -3   8  -1   18.77    1.03
  -3   8  -1   22.03    1.52
  -3   8  -1   19.73    1.24
   3  -8   1   20.59    1.14
   3  -8   1   19.29    1.20
   3  -8   1   17.98    1.18
   3  -8   1   18.36    1.17
  -4   8  -1    0.18    0.26
  -4   8  -1    0.52    0.59
  -4   8  -1    0.19    0.62
  -4   8  -1    1.31    0.79
  -4   8  -1    0.30    0.32
  -4   8  -1   -0.24    0.41
   4  -8   1   -0.43    0.50
   4  -8   1    1.02    0.60
   4  -8   1    0.30    0.53
   4  -8   1    1.07    0.64
  -5   8  -1   29.99    1.98
  -5   8  -1   28.10    1.20
  -5   8  -1   30.15    1.93
  -5   8  -1   28.36    1.24
  -5   8  -1   31.06    1.78
   5  -8   1   26.88    1.56
   5  -8   1   24.35    1.70
   5  -8   1   28.92    1.65
   5  -8   1   28.83    1.71
  10   7  -1    0.91    0.60
  10   7  -1    0.91    0.60
  10   7  -1   -0.18    0.56
 -10  -7   1    0.40    0.51
 -10  -7   1    0.15    0.48
 -10  -7   1   -0.43    0.52
 -10  -7   1    0.93    0.81
 -10  -7   1   -0.03    0.47
   9   7  -1    0.96    0.53
   9   7  -1    1.01    0.49
  -9  -7   1    1.29    0.44
  -9  -7   1    1.13    0.47
  -9  -7   1    0.80    0.47
  -9  -7   1    0.70    0.74
  -9  -7   1    0.93    0.47
   8   7  -1   42.47    1.58
   8   7  -1   46.04    1.60
   8   7  -1   44.10    1.57
  -8  -7   1   43.12    1.55
  -8  -7   1   40.59    1.47
  -8  -7   1   44.82    1.53
  -8  -7   1   44.23    1.52
   7   7  -1   10.82    0.79
   7   7  -1    9.24    0.77
   7   7  -1    8.44    0.82
  -7  -7   1    9.49    0.71
  -7  -7   1   10.49    0.76
  -7  -7   1    9.30    0.69
  -7  -7   1    9.61    0.71
   6   7  -1   25.15    1.03
   6   7  -1   25.04    1.06
   6   7  -1   24.81    1.02
   6   7  -1   27.46    1.33
  -6  -7   1   24.95    0.99
  -6  -7   1   25.32    0.98
  -6  -7   1   25.20    0.95
  -6  -7   1   25.06    0.99
   5   7  -1   10.57    0.66
   5   7  -1   10.03    0.63
   5   7  -1    9.10    0.70
   5   7  -1   10.72    0.96
  -5  -7   1   12.10    0.94
  -5  -7   1    9.54    0.59
  -5  -7   1   10.03    0.62
  -5  -7   1    9.68    0.56
   4   7  -1    2.88    0.33
   4   7  -1    3.46    0.44
   4   7  -1    4.31    0.62
   4   7  -1    2.96    0.37
  -4  -7   1    2.42    0.27
  -4  -7   1    3.23    0.45
  -4  -7   1    2.99    0.31
  -4  -7   1    3.03    0.31
  -4  -7   1    2.92    0.49
  -4  -7   1    2.68    0.60
   3   7  -1   28.47    0.98
   3   7  -1   29.32    1.26
   3   7  -1   31.65    1.03
  -3  -7   1   30.30    1.23
  -3  -7   1   29.58    0.97
  -3  -7   1   28.67    0.93
  -3  -7   1   28.65    0.96
  -3  -7   1   29.12    0.95
  -3  -7   1   27.83    1.33
   2   7  -1   -0.45    0.39
   2   7  -1    0.11    0.24
   2   7  -1   -0.28    0.25
  -2  -7   1   -0.36    0.22
  -2  -7   1   -0.29    0.51
  -2  -7   1   -0.58    0.24
  -2  -7   1   -0.12    0.21
  -2  -7   1    0.11    0.23
   1   7  -1   39.54    1.29
   1   7  -1   40.40    1.30
   1   7  -1   41.08    1.45
  -1  -7   1   41.15    1.29
  -1  -7   1   40.57    1.27
  -1  -7   1   39.80    1.63
  -1  -7   1   39.83    1.25
  -1  -7   1   38.67    1.25
   0   7  -1  102.61    2.80
   0   7  -1   99.49    2.78
   0   7  -1   97.07    2.84
   0  -7   1  104.01    2.78
   0  -7   1   99.95    2.73
   0  -7   1   98.40    3.05
   0  -7   1   98.52    2.72
   0  -7   1   98.94    2.76
  -1   7  -1   18.35    0.94
  -1   7  -1   18.73    0.93
  -1   7  -1   15.27    1.22
  -1   7  -1   17.26    0.59
  -1   7  -1   17.68    0.59
  -1   7  -1   18.47    0.95
   1  -7   1   16.66    0.86
   1  -7   1   17.67    0.87
   1  -7   1   17.30    0.91
   1  -7   1   17.23    0.91
   1  -7   1   18.23    1.22
  -2   7  -1    0.02    0.41
  -2   7  -1    0.20    0.21
  -2   7  -1    0.30    0.23
  -2   7  -1   -0.33    0.60
  -2   7  -1    0.52    0.43
  -2   7  -1    0.45    0.37
   2  -7   1    1.23    0.58
   2  -7   1    0.11    0.34
   2  -7   1   -0.09    0.38
   2  -7   1    0.11    0.36
   2  -7   1    0.05    0.40
  -3   7  -1    3.51    0.37
  -3   7  -1    3.30    0.47
  -3   7  -1    3.16    0.73
  -3   7  -1    2.89    0.54
  -3   7  -1    2.82    0.34
   3  -7   1    3.27    0.54
   3  -7   1    4.01    0.57
   3  -7   1    3.04    0.53
   3  -7   1    3.08    0.52
  -4   7  -1    0.03    0.32
  -4   7  -1   -0.28    0.67
  -4   7  -1    0.19    0.55
  -4   7  -1    0.44    0.54
  -4   7  -1    0.10    0.33
  -4   7  -1   -0.50    0.34
   4  -7   1    0.27    0.47
   4  -7   1   -0.76    0.49
   4  -7   1    0.56    0.45
   4  -7   1    0.42    0.49
  -5   7  -1    0.24    0.40
  -5   7  -1   -0.03    0.38
  -5   7  -1   -0.38    0.64
  -5   7  -1    0.26    0.41
  -5   7  -1    0.72    0.62
  -5   7  -1    0.47    0.69
   5  -7   1   -0.22    0.61
   5  -7   1   -0.28    0.53
   5  -7   1    0.00    0.54
   5  -7   1   -0.28    0.55
  -6   7  -1   -0.97    0.83
  -6   7  -1    0.14    0.62
  -6   7  -1    0.40    0.43
  -6   7  -1   -0.15    0.41
  -6   7  -1   -0.69    0.75
  -6   7  -1    0.21    0.47
   6  -7   1    0.04    0.72
   6  -7   1    0.42    0.74
   6  -7   1   -1.11    0.57
   6  -7   1   -0.26    0.63
  11   6  -1    0.74    0.62
  11   6  -1    0.65    0.38
  11   6  -1    2.20    0.76
  11   6  -1    0.60    0.73
  11   6  -1    0.75    0.34
 -11  -6   1    0.11    0.60
 -11  -6   1   -0.09    0.60
 -11  -6   1    1.09    0.69
 -11  -6   1   -0.37    0.65
 -11  -6   1    1.22    0.81
  10   6  -1   -0.53    0.26
  10   6  -1    0.56    0.55
  10   6  -1    0.60    0.60
  10   6  -1   -0.59    0.61
  10   6  -1   -0.21    0.30
 -10  -6   1    0.88    0.72
 -10  -6   1    0.07    0.46
 -10  -6   1    0.34    0.50
 -10  -6   1    0.09    0.54
 -10  -6   1    0.10    0.51
   9   6  -1    0.19    0.50
   9   6  -1    1.31    0.28
   9   6  -1    0.72    0.47
   9   6  -1    0.24    0.21
  -9  -6   1    0.98    0.42
  -9  -6   1    1.01    0.48
  -9  -6   1    0.90    0.47
  -9  -6   1    0.89    0.40
   8   6  -1   14.72    0.99
   8   6  -1   14.69    0.58
   8   6  -1   13.72    1.00
   8   6  -1   15.05    0.98
   8   6  -1   13.30    0.57
  -8  -6   1   14.99    0.93
  -8  -6   1   10.49    1.08
  -8  -6   1   13.15    0.86
  -8  -6   1   13.36    0.93
  -8  -6   1   15.26    0.98
   7   6  -1  103.62    2.93
   7   6  -1  103.95    2.93
   7   6  -1  105.65    2.94
  -7  -6   1  106.54    3.12
  -7  -6   1  103.90    2.93
  -7  -6   1  101.41    2.84
  -7  -6   1  100.77    2.91
  -7  -6   1  104.26    2.89
   6   6  -1    0.73    0.34
   6   6  -1    1.51    0.36
   6   6  -1    1.42    0.39
  -6  -6   1    0.94    0.33
  -6  -6   1    0.90    0.33
  -6  -6   1    1.31    0.30
  -6  -6   1    0.77    0.32
  -6  -6   1    0.45    0.53
   5   6  -1   21.41    0.84
   5   6  -1   21.88    0.85
   5   6  -1   22.28    0.88
   5   6  -1   19.97    1.10
  -5  -6   1   19.91    1.04
  -5  -6   1   20.41    0.80
  -5  -6   1   21.81    0.77
  -5  -6   1   20.83    0.81
   4   6  -1    7.27    0.51
   4   6  -1    6.16    0.75
   4   6  -1    6.89    0.49
   4   6  -1    6.71    0.54
  -4  -6   1    6.84    0.47
  -4  -6   1    6.85    0.71
  -4  -6   1    7.28    0.43
  -4  -6   1    7.09    0.47
  -4  -6   1    7.32    0.48
   3   6  -1   31.69    0.99
   3   6  -1   29.54    1.19
   3   6  -1   26.89    0.97
  -3  -6   1   32.60    0.97
  -3  -6   1   31.34    0.96
  -3  -6   1   32.53    1.20
  -3  -6   1   30.23    1.26
  -3  -6   1   30.98    0.93
  -3  -6   1   31.43    0.98
   2   6  -1  163.44    4.31
   2   6  -1  167.80    4.31
   2   6  -1  168.77    4.47
  -2  -6   1  166.74    4.45
  -2  -6   1  163.94    4.30
  -2  -6   1  170.57    4.58
  -2  -6   1  168.02    4.27
  -2  -6   1  169.86    4.30
   1   6  -1    0.47    0.33
   1   6  -1   -0.12    0.23
   1   6  -1   -0.34    0.23
  -1  -6   1    0.10    0.22
  -1  -6   1    0.03    0.43
  -1  -6   1    0.39    0.24
  -1  -6   1   -0.03    0.21
  -1  -6   1    0.10    0.22
   0   6  -1  107.52    3.16
   0   6  -1  108.99    2.99
   0   6  -1  108.47    2.73
   0   6  -1  107.65    2.73
   0   6  -1  110.05    2.95
   0   6  -1  105.43    2.94
   0  -6   1  108.89    2.94
   0  -6   1  110.60    2.89
   0  -6   1  111.15    3.17
   0  -6   1  106.56    2.88
   0  -6   1  108.59    2.93
  -1   6  -1   19.63    0.66
  -1   6  -1   18.74    0.90
  -1   6  -1   18.73    0.90
  -1   6  -1   20.79    0.88
  -1   6  -1   19.54    0.66
  -1   6  -1   21.11    1.13
   1  -6   1   20.19    0.82
   1  -6   1   19.42    0.88
   1  -6   1   18.94    1.07
   1  -6   1   19.78    0.83
   1  -6   1   17.83    0.87
  -2   6  -1   41.72    1.25
  -2   6  -1   43.41    1.50
  -2   6  -1   41.57    1.37
  -2   6  -1   35.76    1.43
  -2   6  -1   41.91    1.24
  -2   6  -1   42.44    1.64
   2  -6   1   42.46    1.46
   2  -6   1   42.83    1.39
   2  -6   1   41.48    1.46
   2  -6   1   41.40    1.63
   2  -6   1   42.01    1.38
  -3   6  -1   10.57    0.65
  -3   6  -1    9.11    1.06
  -3   6  -1    9.95    0.70
  -3   6  -1   11.29    0.94
  -3   6  -1   10.34    0.92
  -3   6  -1   10.97    0.65
   3  -6   1   11.34    0.90
   3  -6   1   10.03    0.88
   3  -6   1   10.81    0.82
   3  -6   1    9.66    0.82
  -4   6  -1   83.13    2.32
  -4   6  -1   82.78    2.33
  -4   6  -1   83.40    2.61
  -4   6  -1   83.42    2.71
  -4   6  -1   68.68    2.49
  -4   6  -1   81.54    2.34
   4  -6   1   80.79    2.47
   4  -6   1   85.72    2.60
   4  -6   1   80.94    2.57
   4  -6   1   82.84    2.49
  -5   6  -1    1.24    0.37
  -5   6  -1    1.00    0.45
  -5   6  -1    2.05    0.71
  -5   6  -1    0.43    0.39
  -5   6  -1    0.99    0.61
   5  -6   1    0.73    0.57
   5  -6   1    0.54    0.54
   5  -6   1    0.57    0.56
   5  -6   1    0.69    0.58
  -6   6  -1   47.41    1.99
  -6   6  -1   40.37    1.93
  -6   6  -1   41.58    1.44
  -6   6  -1   44.82    1.65
  -6   6  -1   44.01    2.01
  -6   6  -1   40.19    1.56
   6  -6   1   42.52    1.75
   6  -6   1   40.53    1.84
   6  -6   1   42.93    1.91
   6  -6   1   42.86    1.92
  -7   6  -1    0.23    0.54
  -7   6  -1    1.19    0.42
  -7   6  -1    1.34    0.56
  -7   6  -1    2.07    0.80
  -7   6  -1    0.04    0.69
  -7   6  -1    0.97    0.90
   7  -6   1    1.59    0.77
   7  -6   1   -0.27    0.74
   7  -6   1    1.10    0.82
   7  -6   1    0.32    0.68
  11   5  -1   11.96    0.94
  11   5  -1   13.45    1.43
  11   5  -1   12.41    1.47
 -11  -5   1   13.92    1.36
 -11  -5   1   14.10    1.45
 -11  -5   1   13.84    1.25
 -11  -5   1   11.45    1.23
  10   5  -1    1.94    0.44
  10   5  -1    2.16    0.65
  10   5  -1    2.11    0.69
  10   5  -1    2.25    0.42
 -10  -5   1    2.05    0.61
 -10  -5   1    2.39    0.57
 -10  -5   1    1.44    0.49
 -10  -5   1    2.12    0.58
   9   5  -1   11.22    1.03
   9   5  -1    8.96    0.92
   9   5  -1    9.40    0.72
   9   5  -1    8.71    0.69
  -9  -5   1   10.45    0.99
  -9  -5   1    8.63    0.86
  -9  -5   1    9.15    0.89
  -9  -5   1    9.95    0.99
   8   5  -1   29.71    1.03
   8   5  -1   30.64    1.05
   8   5  -1   32.28    1.32
   8   5  -1   27.05    1.26
   8   5  -1   31.65    1.32
  -8  -5   1   30.52    1.40
  -8  -5   1   28.68    1.26
  -8  -5   1   31.41    1.23
  -8  -5   1   27.62    1.15
  -8  -5   1   31.25    1.30
   7   5  -1    0.21    0.37
   7   5  -1    0.56    0.24
   7   5  -1    0.42    0.37
   7   5  -1   -0.02    0.40
   7   5  -1    0.30    0.23
  -7  -5   1    0.22    0.31
  -7  -5   1    0.37    0.46
  -7  -5   1    0.32    0.30
  -7  -5   1    0.28    0.35
  -7  -5   1    0.33    0.34
   6   5  -1    5.64    0.38
   6   5  -1    5.47    0.62
   6   5  -1    5.51    0.37
   6   5  -1    6.52    0.61
   6   5  -1    5.67    0.60
  -6  -5   1    4.78    0.51
  -6  -5   1    5.75    0.55
  -6  -5   1    5.44    0.57
  -6  -5   1    5.16    0.58
  -6  -5   1    6.09    0.75
   5   5  -1   43.43    1.51
   5   5  -1   40.68    1.33
   5   5  -1   42.74    1.12
   5   5  -1   44.75    1.34
   5   5  -1   41.07    1.32
  -5  -5   1   43.67    1.32
  -5  -5   1   42.06    1.32
  -5  -5   1   43.02    1.48
  -5  -5   1   43.37    1.26
  -5  -5   1   43.97    1.30
   4   5  -1   31.24    0.98
   4   5  -1   30.31    0.99
   4   5  -1   29.81    1.16
   4   5  -1   29.44    0.99
  -4  -5   1   29.70    1.14
  -4  -5   1   30.18    0.98
  -4  -5   1   29.75    0.97
  -4  -5   1   30.20    0.92
  -4  -5   1   30.14    0.95
   3   5  -1   95.22    2.58
   3   5  -1   97.88    2.59
   3   5  -1   97.46    2.75
   3   5  -1   97.87    2.60
  -3  -5   1   97.79    2.55
  -3  -5   1   97.71    2.53
  -3  -5   1   99.54    2.58
  -3  -5   1   97.91    2.73
  -3  -5   1   98.07    2.58
   2   5  -1   59.12    1.64
   2   5  -1   57.45    1.64
   2   5  -1   58.51    1.78
  -2  -5   1   59.15    1.63
  -2  -5   1   59.23    1.87
  -2  -5   1   59.92    1.64
  -2  -5   1   60.02    1.77
  -2  -5   1   59.95    1.59
   1   5  -1  193.22    5.04
   1   5  -1  201.22    5.05
   1   5  -1  197.00    5.13
  -1  -5   1  197.53    5.00
  -1  -5   1  193.93    5.23
  -1  -5   1  200.90    5.04
  -1  -5   1  195.18    5.00
  -1  -5   1  201.27    5.05
   0   5  -1   33.21    1.09
   0   5  -1   33.85    1.27
   0   5  -1   32.53    1.13
   0   5  -1   34.36    0.93
   0   5  -1   32.13    1.09
   0   5  -1   34.25    0.93
   0  -5   1   33.95    1.08
   0  -5   1   32.65    1.27
   0  -5   1   34.30    1.09
   0  -5   1   32.86    1.03
   0  -5   1   33.62    1.03
  -1   5  -1  208.43    5.33
  -1   5  -1  208.23    5.30
  -1   5  -1  202.40    5.46
  -1   5  -1  208.76    5.33
  -1   5  -1  200.67    5.18
  -1   5  -1  202.95    5.18
   1  -5   1  201.44    5.25
   1  -5   1  205.84    5.32
   1  -5   1  210.14    5.26
   1  -5   1  208.54    5.47
   1  -5   1  199.43    5.31
  -2   5  -1    0.31    0.34
  -2   5  -1    0.31    0.22
  -2   5  -1    0.27    0.39
  -2   5  -1    0.27    0.30
  -2   5  -1    0.73    0.22
  -2   5  -1    0.45    0.27
   2  -5   1    0.39    0.30
   2  -5   1    0.59    0.28
   2  -5   1    0.67    0.40
   2  -5   1    0.54    0.28
   2  -5   1    0.69    0.29
  -3   5  -1    2.16    0.50
  -3   5  -1    1.51    0.29
  -3   5  -1    1.49    0.30
  -3   5  -1    2.01    0.43
  -3   5  -1    2.41    0.45
  -3   5  -1    1.22    0.33
   3  -5   1    1.52    0.40
   3  -5   1    2.15    0.44
   3  -5   1    1.41    0.34
   3  -5   1    1.56    0.34
  -4   5  -1    4.35    0.64
  -4   5  -1    3.64    0.40
  -4   5  -1    4.42    0.58
  -4   5  -1    4.84    0.47
  -4   5  -1    5.13    0.62
   4  -5   1    3.81    0.49
   4  -5   1    3.80    0.53
   4  -5   1    4.21    0.56
   4  -5   1    4.67    0.53
  -5   5  -1   52.88    1.99
  -5   5  -1   55.73    1.74
  -5   5  -1   56.43    1.79
  -5   5  -1   54.67    2.05
   5  -5   1   55.99    1.89
   5  -5   1   55.26    2.00
   5  -5   1   51.39    1.95
   5  -5   1   53.57    1.86
  -6   5  -1    0.16    0.66
  -6   5  -1    2.74    0.70
  -6   5  -1    1.13    0.48
  -6   5  -1    1.87    0.52
   6  -5   1    1.72    0.61
   6  -5   1    1.12    0.57
   6  -5   1    1.49    0.63
   6  -5   1    1.01    0.49
  -7   5  -1    4.93    0.88
  -7   5  -1    3.92    0.83
  -7   5  -1    3.13    0.77
  -7   5  -1    4.25    0.58
   7  -5   1    4.77    0.84
   7  -5   1    3.46    0.84
   7  -5   1    2.82    0.66
   7  -5   1    4.01    0.75
  -8   5  -1    5.74    1.03
  -8   5  -1   10.51    1.22
  -8   5  -1    7.87    1.00
  -8   5  -1   10.23    1.19
  -8   5  -1    7.77    1.04
   8  -5   1    8.18    1.00
   8  -5   1    8.65    1.03
   8  -5   1    7.40    0.85
   8  -5   1    5.90    0.94
  11   4  -1    5.18    0.66
  11   4  -1    3.73    0.57
  11   4  -1    3.49    0.86
  11   4  -1    5.49    0.90
 -11  -4   1    5.08    0.85
 -11  -4   1    3.78    0.66
 -11  -4   1    4.56    0.85
 -11  -4   1    4.73    0.76
 -11  -4   1    4.21    0.78
  10   4  -1   19.37    1.42
  10   4  -1   20.92    1.13
  10   4  -1   23.39    1.43
  10   4  -1   22.22    1.09
 -10  -4   1   21.88    1.36
 -10  -4   1   22.71    1.38
 -10  -4   1   21.24    1.24
 -10  -4   1   22.71    1.22
   9   4  -1    8.28    0.76
   9   4  -1    7.72    0.76
   9   4  -1    8.19    1.02
  -9  -4   1    7.78    0.87
  -9  -4   1    7.60    1.01
  -9  -4   1    7.46    0.97
  -9  -4   1    9.31    0.86
  -9  -4   1    8.89    0.98
   8   4  -1    0.95    0.32
   8   4  -1    0.42    0.32
   8   4  -1    0.55    0.44
   8   4  -1    0.69    0.44
  -8  -4   1    0.55    0.43
  -8  -4   1    0.94    0.49
  -8  -4   1    1.01    0.41
  -8  -4   1    1.09    0.37
  -8  -4   1    0.73    0.44
   7   4  -1    3.27    0.44
   7   4  -1    2.81    0.43
   7   4  -1    3.98    0.35
   7   4  -1    3.97    0.36
  -7  -4   1    3.34    0.51
  -7  -4   1    3.21    0.43
  -7  -4   1    4.10    0.42
  -7  -4   1    4.09    0.44
  -7  -4   1    4.06    0.47
   6   4  -1    2.72    0.39
   6   4  -1    2.70    0.39
   6   4  -1    2.75    0.29
   6   4  -1    3.03    0.28
   6   4  -1    2.92    0.40
  -6  -4   1    2.68    0.35
  -6  -4   1    2.75    0.37
  -6  -4   1    2.26    0.35
  -6  -4   1    2.49    0.32
  -6  -4   1    2.79    0.47
   5   4  -1   28.04    0.99
   5   4  -1   27.11    1.09
   5   4  -1   27.85    1.00
   5   4  -1   26.92    0.84
   5   4  -1   28.91    0.97
   5   4  -1   28.07    0.85
  -5  -4   1   28.43    0.91
  -5  -4   1   28.34    0.98
  -5  -4   1   27.56    1.08
  -5  -4   1   27.48    0.94
  -5  -4   1   27.78    0.97
   4   4  -1   26.67    0.91
   4   4  -1   26.27    0.92
   4   4  -1   28.13    0.79
   4   4  -1   28.39    0.94
   4   4  -1   28.27    1.06
   4   4  -1   28.44    0.80
  -4  -4   1   28.10    0.87
  -4  -4   1   29.68    0.93
  -4  -4   1   27.97    0.89
  -4  -4   1   29.00    1.04
   3   4  -1    7.17    0.43
   3   4  -1    6.15    0.54
   3   4  -1    6.37    0.41
   3   4  -1    6.72    0.25
   3   4  -1    6.64    0.25
   3   4  -1    6.58    0.42
  -3  -4   1    6.34    0.35
  -3  -4   1    6.08    0.54
  -3  -4   1    6.82    0.39
  -3  -4   1    6.09    0.41
  -3  -4   1    6.13    0.40
   2   4  -1  193.09    5.02
   2   4  -1  199.35    4.92
   2   4  -1  203.76    4.92
   2   4  -1  194.82    4.92
  -2  -4   1  190.04    4.91
  -2  -4   1  197.08    5.02
  -2  -4   1  189.85    4.87
  -2  -4   1  186.62    4.91
  -2  -4   1  190.91    4.88
   1   4  -1    1.46    0.12
   1   4  -1    1.51    0.12
   1   4  -1    1.06    0.22
   1   4  -1    1.52    0.28
   1   4  -1    1.39    0.21
  -1  -4   1    1.76    0.37
  -1  -4   1    1.33    0.22
  -1  -4   1    1.16    0.21
  -1  -4   1    1.36    0.19
  -1  -4   1    1.71    0.30
  -1  -4   1    1.45    0.17
   0   4  -1  338.32    8.56
   0   4  -1  336.07    8.43
   0   4  -1  325.37    8.45
   0   4  -1  331.35    8.33
   0   4  -1  339.20    8.43
   0   4  -1  331.57    8.33
   0  -4   1  337.50    8.56
   0  -4   1  339.74    8.39
   0  -4   1  332.38    8.43
   0  -4   1  333.29    8.43
   0  -4   1  342.95    8.39
  -1   4  -1  109.34    2.86
  -1   4  -1  111.95    2.98
  -1   4  -1  108.97    3.07
  -1   4  -1  109.50    2.93
  -1   4  -1  115.69    2.98
  -1   4  -1  113.07    2.86
   1  -4   1  109.97    2.97
   1  -4   1  109.63    2.91
   1  -4   1  110.59    2.97
   1  -4   1  110.08    2.91
   1  -4   1  110.50    3.07
  -2   4  -1  159.96    4.36
  -2   4  -1  169.92    4.30
  -2   4  -1  161.94    4.17
  -2   4  -1  160.45    4.16
  -2   4  -1  156.12    4.28
   2  -4   1  161.58    4.28
   2  -4   1  160.84    4.21
   2  -4   1  164.99    4.37
   2  -4   1  161.05    4.21
   2  -4   1  165.21    4.29
  -3   4  -1    1.33    0.27
  -3   4  -1    1.08    0.28
  -3   4  -1    1.23    0.36
  -3   4  -1    1.33    0.34
  -3   4  -1    1.99    0.44
   3  -4   1    1.24    0.37
   3  -4   1    1.09    0.30
   3  -4   1    1.53    0.33
   3  -4   1    1.73    0.39
  -4   4  -1   43.19    1.58
  -4   4  -1   41.98    1.39
  -4   4  -1   43.34    1.56
  -4   4  -1   42.36    1.37
  -4   4  -1   42.02    1.54
   4  -4   1   42.02    1.52
   4  -4   1   43.93    1.53
   4  -4   1   43.71    1.44
   4  -4   1   42.10    1.45
  -5   4  -1    8.53    0.95
  -5   4  -1    8.04    0.76
  -5   4  -1    9.12    0.73
  -5   4  -1    7.91    0.90
  -5   4  -1    8.24    0.94
   5  -4   1    8.81    0.84
   5  -4   1   10.07    0.95
   5  -4   1    8.63    0.92
   5  -4   1    7.25    0.82
  -6   4  -1   29.71    1.30
  -6   4  -1   31.12    1.25
  -6   4  -1   31.60    1.52
  -6   4  -1   30.43    1.51
   6  -4   1   30.25    1.36
   6  -4   1   31.47    1.50
   6  -4   1   30.24    1.41
   6  -4   1   30.79    1.50
  -7   4  -1    0.74    0.50
  -7   4  -1    1.41    0.63
  -7   4  -1    0.43    0.56
  -7   4  -1    1.63    0.65
   7  -4   1    0.36    0.62
   7  -4   1    1.26    0.56
   7  -4   1    0.62    0.52
   7  -4   1    0.93    0.66
  -8   4  -1    6.37    0.98
  -8   4  -1    6.35    0.96
  -8   4  -1    6.63    0.77
  -8   4  -1    5.39    0.69
  -8   4  -1    5.84    0.88
   8  -4   1    5.80    0.85
   8  -4   1    6.09    0.86
   8  -4   1    5.03    0.89
   8  -4   1    5.38    0.72
  11   3  -1    0.55    0.73
  11   3  -1   -0.17    0.71
  11   3  -1    0.59    0.52
 -11  -3   1    0.81    0.63
 -11  -3   1    0.07    0.78
 -11  -3   1    0.44    0.71
 -11  -3   1    0.44    0.60
  10   3  -1   -0.23    0.49
  10   3  -1    0.26    0.47
  10   3  -1    0.22    0.66
 -10  -3   1   -0.22    0.60
 -10  -3   1   -0.12    0.61
 -10  -3   1   -0.23    0.56
 -10  -3   1   -0.03    0.51
 -10  -3   1   -0.62    0.43
   9   3  -1   27.56    1.23
   9   3  -1   27.52    1.44
   9   3  -1   28.02    1.19
  -9  -3   1   26.80    1.31
  -9  -3   1   28.97    1.29
  -9  -3   1   27.90    1.41
  -9  -3   1   28.48    1.26
  -9  -3   1   27.60    1.43
   8   3  -1   10.44    0.76
   8   3  -1    9.20    0.77
   8   3  -1   10.38    0.96
   8   3  -1    9.85    0.91
  -8  -3   1    9.47    0.94
  -8  -3   1   10.87    0.87
  -8  -3   1    9.29    0.83
  -8  -3   1    9.81    0.79
  -8  -3   1   10.51    0.95
   7   3  -1   38.00    1.27
   7   3  -1   35.67    1.39
   7   3  -1   38.03    1.41
   7   3  -1   38.56    1.24
  -7  -3   1   38.28    1.28
  -7  -3   1   39.25    1.41
  -7  -3   1   36.26    1.40
  -7  -3   1   38.61    1.38
  -7  -3   1   37.55    1.32
   6   3  -1   53.61    1.68
   6   3  -1   53.01    1.55
   6   3  -1   53.46    1.54
   6   3  -1   54.87    1.68
  -6  -3   1   53.74    1.58
  -6  -3   1   51.77    1.61
  -6  -3   1   53.96    1.68
  -6  -3   1   53.72    1.68
  -6  -3   1   50.95    1.66
   5   3  -1    1.80    0.33
   5   3  -1    2.20    0.27
   5   3  -1    2.29    0.34
   5   3  -1    1.84    0.24
  -5  -3   1    1.60    0.27
  -5  -3   1    1.84    0.26
  -5  -3   1    1.89    0.32
  -5  -3   1    1.94    0.31
  -5  -3   1    1.62    0.33
   4   3  -1  118.20    3.07
   4   3  -1  119.41    3.08
   4   3  -1  123.13    3.16
   4   3  -1  122.68    3.13
   4   3  -1  115.88    3.22
   4   3  -1  118.84    3.17
  -4  -3   1  123.89    3.16
  -4  -3   1  122.12    3.10
  -4  -3   1  118.07    3.12
  -4  -3   1  116.42    3.20
   3   3  -1  298.11    7.55
   3   3  -1  306.25    7.62
   3   3  -1  305.08    7.55
   3   3  -1  316.02    7.60
   3   3  -1  299.86    7.69
   3   3  -1  302.04    7.62
  -3  -3   1  304.34    7.58
  -3  -3   1  297.01    7.62
  -3  -3   1  306.08    7.59
  -3  -3   1  300.96    7.62
  -3  -3   1  301.10    7.69
   2   3  -1    1.14    0.12
   2   3  -1    0.87    0.16
   2   3  -1    1.03    0.22
   2   3  -1    1.14    0.11
   2   3  -1    0.98    0.17
   2   3  -1    1.11    0.17
  -2  -3   1    1.15    0.22
  -2  -3   1    1.02    0.17
  -2  -3   1    1.05    0.13
  -2  -3   1    1.05    0.17
  -2  -3   1    1.04    0.15
   1   3  -1   37.24    0.97
   1   3  -1   37.53    1.11
   1   3  -1   37.24    1.05
   1   3  -1   37.00    0.98
   1   3  -1   37.30    1.05
  -1  -3   1   35.91    1.10
  -1  -3   1   36.52    1.01
  -1  -3   1   35.68    1.04
  -1  -3   1   37.20    1.00
  -1  -3   1   36.93    1.05
  -1  -3   1   36.07    1.15
   0   3  -1  224.75    5.67
   0   3  -1  225.26    5.67
   0   3  -1  221.35    5.74
   0   3  -1  231.28    5.74
   0   3  -1  229.90    5.83
   0   3  -1  222.84    5.75
   0  -3   1  233.02    5.70
   0  -3   1  222.73    5.74
   0  -3   1  224.05    5.74
   0  -3   1  232.40    5.83
   0  -3   1  232.29    5.70
  -1   3  -1  218.17    5.71
  -1   3  -1  218.14    5.63
  -1   3  -1  223.99    5.77
  -1   3  -1  225.49    5.64
  -1   3  -1  228.35    5.72
   1  -3   1  222.31    5.77
   1  -3   1  228.35    5.66
   1  -3   1  226.90    5.71
   1  -3   1  228.78    5.71
   1  -3   1  222.47    5.66
  -2   3  -1   18.28    0.68
  -2   3  -1   18.38    0.82
  -2   3  -1   18.02    0.77
  -2   3  -1   18.71    0.78
  -2   3  -1   17.36    0.67
   2  -3   1   18.59    0.71
   2  -3   1   18.12    0.81
   2  -3   1   19.08    0.77
   2  -3   1   17.67    0.70
   2  -3   1   18.35    0.77
  -3   3  -1  125.45    3.35
  -3   3  -1  126.34    3.48
  -3   3  -1  130.85    3.47
  -3   3  -1  130.49    3.46
  -3   3  -1  126.93    3.34
   3  -3   1  125.97    3.45
   3  -3   1  127.01    3.37
   3  -3   1  125.62    3.38
   3  -3   1  128.38    3.45
  -4   3  -1   18.58    0.79
  -4   3  -1   18.53    0.82
  -4   3  -1   19.35    0.94
  -4   3  -1   18.38    0.92
  -4   3  -1   17.17    0.93
   4  -3   1   19.66    0.94
   4  -3   1   18.35    0.85
   4  -3   1   19.41    0.94
   4  -3   1   18.00    0.84
  -5   3  -1   33.12    1.35
  -5   3  -1   33.39    1.21
  -5   3  -1   34.38    1.35
  -5   3  -1   31.59    1.35
  -5   3  -1   33.30    1.18
   5  -3   1   30.39    1.33
   5  -3   1   33.15    1.24
   5  -3   1   32.54    1.36
   5  -3   1   33.30    1.26
  -6   3  -1   21.90    1.25
  -6   3  -1   23.80    1.23
  -6   3  -1   23.17    1.21
  -6   3  -1   23.49    1.11
  -6   3  -1   22.15    1.03
   6  -3   1   20.15    1.11
   6  -3   1   23.63    1.16
   6  -3   1   21.69    1.26
   6  -3   1   22.03    1.26
  -7   3  -1   57.95    2.11
  -7   3  -1   57.38    2.15
  -7   3  -1   57.46    1.90
  -7   3  -1   54.61    2.14
  -7   3  -1   56.74    1.95
   7  -3   1   59.28    1.98
   7  -3   1   55.15    2.12
   7  -3   1   58.78    2.17
  -8   3  -1    3.62    0.65
  -8   3  -1    2.18    0.67
  -8   3  -1    2.16    0.70
  -8   3  -1    2.01    0.57
  -8   3  -1    1.87    0.70
   8  -3   1    2.56    0.76
   8  -3   1    1.64    0.76
   8  -3   1    2.94    0.66
  -9   3  -1    4.65    0.76
  -9   3  -1    5.18    1.02
  -9   3  -1    5.15    0.78
  -9   3  -1    5.29    0.91
  -9   3  -1    5.71    0.95
   9  -3   1    4.25    0.86
   9  -3   1    4.31    0.82
   9  -3   1    4.78    0.85
   9  -3   1    3.84    0.91
  11   2  -1    1.91    0.78
  11   2  -1   -0.05    0.75
  11   2  -1    0.97    0.70
  11   2  -1    0.49    0.58
 -11  -2   1    1.86    0.66
 -11  -2   1    1.84    0.81
 -11  -2   1    1.33    0.59
 -11  -2   1   -0.16    0.73
 -11  -2   1    0.47    0.64
  10   2  -1   -0.27    0.47
  10   2  -1    0.27    0.74
  10   2  -1   -0.17    0.71
 -10  -2   1   -0.77    0.63
 -10  -2   1    0.35    0.53
 -10  -2   1   -0.17    0.46
 -10  -2   1   -0.05    0.63
 -10  -2   1   -0.22    0.47
   9   2  -1    1.67    0.49
   9   2  -1    2.56    0.63
   9   2  -1    1.82    0.49
  -9  -2   1    2.45    0.65
  -9  -2   1    1.84    0.59
  -9  -2   1    2.03    0.52
  -9  -2   1    1.30    0.48
  -9  -2   1    2.71    0.53
   8   2  -1   12.40    0.98
   8   2  -1   11.78    0.87
   8   2  -1   13.17    0.85
   8   2  -1   13.27    1.04
  -8  -2   1   12.14    0.85
  -8  -2   1   13.01    0.91
  -8  -2   1   10.85    0.98
  -8  -2   1   12.37    0.85
  -8  -2   1   11.21    0.99
   7   2  -1   50.63    1.74
   7   2  -1   52.25    1.64
   7   2  -1   50.94    1.60
   7   2  -1   48.02    1.74
  -7  -2   1   52.45    1.76
  -7  -2   1   52.17    1.75
  -7  -2   1   51.54    1.65
  -7  -2   1   52.39    1.66
  -7  -2   1   52.90    1.62
   6   2  -1  436.40   11.28
   6   2  -1  442.52   11.17
   6   2  -1  449.18   11.19
   6   2  -1  444.80   11.29
  -6  -2   1  437.25   11.28
  -6  -2   1  448.86   11.19
  -6  -2   1  441.05   11.24
  -6  -2   1  460.84   11.29
  -6  -2   1  445.21   11.22
   5   2  -1    8.39    0.51
   5   2  -1    8.83    0.63
   5   2  -1    8.44    0.55
   5   2  -1    9.26    0.61
  -5  -2   1    8.12    0.61
  -5  -2   1    7.47    0.61
  -5  -2   1    8.37    0.56
  -5  -2   1    9.80    0.59
  -5  -2   1    9.15    0.53
   4   2  -1  185.98    4.76
   4   2  -1  182.54    4.82
   4   2  -1  186.80    4.83
   4   2  -1  186.96    4.75
  -4  -2   1  186.85    4.78
  -4  -2   1  189.15    4.83
  -4  -2   1  194.41    4.83
  -4  -2   1  183.96    4.76
  -4  -2   1  189.37    4.82
   3   2  -1    3.59    0.34
   3   2  -1    3.88    0.34
   3   2  -1    3.91    0.28
   3   2  -1    3.14    0.35
   3   2  -1    3.78    0.27
  -3  -2   1    3.62    0.28
  -3  -2   1    3.41    0.33
  -3  -2   1    3.67    0.31
  -3  -2   1    3.71    0.35
  -3  -2   1    3.12    0.33
   2   2  -1    4.29    0.31
   2   2  -1    3.19    0.34
   2   2  -1    4.19    0.26
   2   2  -1    4.15    0.29
   2   2  -1    4.26    0.24
   2   2  -1    4.13    0.25
  -2  -2   1    3.84    0.34
  -2  -2   1    3.99    0.24
  -2  -2   1    4.35    0.30
  -2  -2   1    4.39    0.28
  -2  -2   1    4.51    0.29
   1   2  -1   50.89    1.30
   1   2  -1   50.39    1.29
   1   2  -1   49.47    1.39
   1   2  -1   49.99    1.34
   1   2  -1   49.23    1.34
  -1  -2   1   49.85    1.32
  -1  -2   1   50.26    1.38
  -1  -2   1   49.54    1.30
  -1  -2   1   50.28    1.31
  -1  -2   1   49.76    1.34
  -1  -2   1   49.61    1.34
   0   2  -1  101.73    2.65
   0   2  -1  106.81    2.65
   0   2  -1  100.60    2.65
   0   2  -1   99.16    2.69
   0   2  -1  102.30    2.60
   0   2  -1  102.97    2.60
   0  -2   1  101.74    2.65
   0  -2   1  103.43    2.61
   0  -2   1  101.94    2.62
   0  -2   1  102.29    2.70
   0  -2   1  101.21    2.65
  -1   2  -1  178.02    4.72
  -1   2  -1  185.24    4.64
  -1   2  -1  180.94    4.69
  -1   2  -1  183.27    4.70
  -1   2  -1  186.63    4.65
   1  -2   1  190.67    4.70
   1  -2   1  183.78    4.72
   1  -2   1  186.98    4.66
   1  -2   1  183.54    4.70
   1  -2   1  183.88    4.65
  -2   2  -1  435.25   10.68
  -2   2  -1  427.44   10.61
  -2   2  -1  422.89   10.67
  -2   2  -1  421.73   10.60
  -2   2  -1  416.87   10.68
   2  -2   1  425.93   10.62
   2  -2   1  408.15   10.66
   2  -2   1  428.31   10.61
   2  -2   1  440.85   10.68
  -3   2  -1    8.74    0.59
  -3   2  -1    9.16    0.53
  -3   2  -1    9.80    0.59
  -3   2  -1    9.38    0.62
  -3   2  -1    9.30    0.52
   3  -2   1   10.03    0.62
   3  -2   1    9.49    0.54
   3  -2   1    9.39    0.62
   3  -2   1    9.42    0.54
  -4   2  -1  211.82    5.66
  -4   2  -1  213.22    5.55
  -4   2  -1  220.82    5.67
  -4   2  -1  217.41    5.58
  -4   2  -1  220.81    5.67
   4  -2   1  219.64    5.67
   4  -2   1  216.52    5.58
   4  -2   1  217.23    5.66
   4  -2   1  212.11    5.58
  -5   2  -1    0.18    0.34
  -5   2  -1    0.05    0.32
  -5   2  -1    0.00    0.28
  -5   2  -1   -0.14    0.34
  -5   2  -1    0.02    0.28
   5  -2   1   -0.03    0.29
   5  -2   1   -0.41    0.32
   5  -2   1    0.12    0.35
   5  -2   1   -0.03    0.28
  -6   2  -1   30.15    1.20
  -6   2  -1   31.86    1.30
  -6   2  -1   25.76    1.13
  -6   2  -1   29.67    1.33
  -6   2  -1   28.62    1.31
   6  -2   1   29.49    1.22
   6  -2   1   31.03    1.34
   6  -2   1   31.28    1.34
   6  -2   1   29.69    1.23
  -7   2  -1   28.50    1.41
  -7   2  -1   27.42    1.19
  -7   2  -1   27.20    1.25
  -7   2  -1   26.53    1.36
  -7   2  -1   28.85    1.40
   7  -2   1   26.50    1.25
   7  -2   1   23.51    1.38
   7  -2   1   25.06    1.38
  -8   2  -1    0.55    0.49
  -8   2  -1    0.35    0.60
  -8   2  -1    0.07    0.63
  -8   2  -1    0.37    0.58
   8  -2   1    0.85    0.67
   8  -2   1    0.46    0.61
   8  -2   1    1.21    0.54
  -9   2  -1   -0.29    0.66
  -9   2  -1    0.10    0.71
  -9   2  -1   -0.02    0.50
  -9   2  -1   -0.27    0.65
  -9   2  -1   -0.30    0.54
   9  -2   1   -0.71    0.61
   9  -2   1   -0.34    0.74
   9  -2   1   -0.35    0.62
   9  -2   1   -0.22    0.65
 -10   2  -1    5.79    0.96
 -10   2  -1    6.02    0.83
 -10   2  -1    3.84    0.68
 -10   2  -1    4.90    0.95
 -10   2  -1    6.25    0.97
  10  -2   1    4.37    0.81
  10  -2   1    5.37    1.01
  10  -2   1    4.27    0.94
  10  -2   1    5.42    0.87
  11   1  -1    8.58    1.03
  11   1  -1   11.11    1.28
  11   1  -1    9.46    1.09
  11   1  -1    6.44    0.86
 -11  -1   1   12.21    1.52
 -11  -1   1    9.18    1.10
 -11  -1   1    6.78    0.78
 -11  -1   1    9.04    0.91
  10   1  -1    5.78    0.82
  10   1  -1    6.56    0.86
  10   1  -1    7.37    0.89
  10   1  -1    9.32    1.07
 -10  -1   1    6.49    0.70
 -10  -1   1    7.35    0.92
 -10  -1   1    5.71    0.72
 -10  -1   1    7.61    0.91
 -10  -1   1    5.29    0.86
   9   1  -1    1.92    0.62
   9   1  -1    2.30    0.55
   9   1  -1    1.66    0.63
   9   1  -1    1.33    0.48
  -9  -1   1    1.48    0.51
  -9  -1   1    1.32    0.47
  -9  -1   1    0.76    0.44
  -9  -1   1    2.11    0.62
  -9  -1   1    1.46    0.65
   8   1  -1    9.83    1.00
   8   1  -1   11.23    0.89
   8   1  -1   11.51    1.06
   8   1  -1   11.58    0.85
  -8  -1   1   10.26    0.79
  -8  -1   1   10.31    1.01
  -8  -1   1   10.03    0.84
  -8  -1   1   10.08    1.00
  -8  -1   1    9.88    0.90
   7   1  -1   36.14    1.28
   7   1  -1   36.43    1.32
   7   1  -1   35.19    1.44
  -7  -1   1   36.31    1.43
  -7  -1   1   34.99    1.41
  -7  -1   1   36.41    1.26
  -7  -1   1   35.95    1.28
  -7  -1   1   36.72    1.33
   6   1  -1   10.75    0.66
   6   1  -1   10.98    0.70
   6   1  -1   11.49    0.80
  -6  -1   1   11.42    0.79
  -6  -1   1   10.35    0.77
  -6  -1   1   11.76    0.67
  -6  -1   1   10.61    0.65
  -6  -1   1   10.44    0.70
   5   1  -1  111.97    3.00
   5   1  -1  110.39    3.02
   5   1  -1  120.61    3.12
  -5  -1   1  110.65    3.09
  -5  -1   1  115.29    3.11
  -5  -1   1  112.98    3.02
  -5  -1   1  114.42    3.01
  -5  -1   1  111.25    3.04
   4   1  -1    5.52    0.40
   4   1  -1    5.90    0.48
   4   1  -1    4.99    0.42
   4   1  -1    5.45    0.50
  -4  -1   1    5.99    0.48
  -4  -1   1    5.71    0.49
  -4  -1   1    5.38    0.41
  -4  -1   1    5.63    0.40
  -4  -1   1    5.56    0.44
   3   1  -1    1.48    0.21
   3   1  -1    1.36    0.17
   3   1  -1    1.10    0.17
   3   1  -1    1.75    0.23
   3   1  -1    1.55    0.22
  -3  -1   1    1.11    0.20
  -3  -1   1    1.12    0.17
  -3  -1   1    0.98    0.16
  -3  -1   1    1.04    0.20
  -3  -1   1    1.72    0.21
   1   1  -1   20.28    0.63
   1   1  -1   21.02    0.63
   1   1  -1   21.66    0.60
   1   1  -1   20.17    0.64
   1   1  -1   21.22    0.61
   1   1  -1   21.62    0.56
  -1  -1   1   20.84    0.60
  -1  -1   1   20.68    0.64
  -1  -1   1   21.85    0.63
  -1  -1   1   21.40    0.63
  -1  -1   1   21.00    0.61
  -2   1  -1  159.35    4.15
  -2   1  -1  153.31    4.13
  -2   1  -1  163.57    4.15
  -2   1  -1  160.56    4.09
  -2   1  -1  162.74    4.10
   2  -1   1  161.91    4.10
   2  -1   1  162.84    4.11
   2  -1   1  167.85    4.16
   2  -1   1  159.41    4.15
  -3   1  -1   19.05    0.76
  -3   1  -1   19.70    0.71
  -3   1  -1   18.89    0.75
  -3   1  -1   20.52    0.70
   3  -1   1   19.50    0.70
   3  -1   1   18.99    0.77
   3  -1   1   18.87    0.71
   3  -1   1   19.64    0.77
  -4   1  -1  262.54    7.00
  -4   1  -1  265.27    7.00
  -4   1  -1  270.85    6.93
  -4   1  -1  276.25    6.92
   4  -1   1  280.75    6.94
   4  -1   1  277.98    7.01
   4  -1   1  271.46    7.01
   4  -1   1  277.25    6.93
  -5   1  -1   96.58    2.65
  -5   1  -1   93.70    2.76
  -5   1  -1   96.85    2.68
  -5   1  -1   97.89    2.78
   5  -1   1   98.57    2.78
   5  -1   1   98.18    2.68
   5  -1   1   99.42    2.70
   5  -1   1   95.08    2.76
  -6   1  -1  163.61    4.16
  -6   1  -1  150.49    4.03
  -6   1  -1  149.38    3.99
  -6   1  -1  139.91    4.11
   6  -1   1  146.94    4.14
   6  -1   1  151.15    4.02
   6  -1   1  145.13    4.12
   6  -1   1  149.69    4.03
  -7   1  -1    3.24    0.51
  -7   1  -1    3.47    0.48
  -7   1  -1    2.96    0.58
  -7   1  -1    3.09    0.59
   7  -1   1    4.48    0.60
   7  -1   1    2.96    0.50
   7  -1   1    3.70    0.62
   7  -1   1    4.11    0.63
  -8   1  -1    2.66    0.64
  -8   1  -1    3.63    0.55
  -8   1  -1    2.94    0.62
   8  -1   1    2.88    0.55
   8  -1   1    2.69    0.64
   8  -1   1    3.36    0.65
   8  -1   1    3.23    0.60
  -9   1  -1    4.97    0.80
  -9   1  -1    4.54    0.84
  -9   1  -1    5.52    0.70
   9  -1   1    3.87    0.67
   9  -1   1    4.47    0.81
   9  -1   1    4.56    0.65
   9  -1   1    4.57    0.81
 -10   1  -1   -0.15    0.63
 -10   1  -1   -0.31    0.63
 -10   1  -1   -0.45    0.77
 -10   1  -1    0.37    0.74
  10  -1   1   -0.88    0.67
  10  -1   1    0.53    0.77
  10  -1   1   -0.25    0.60
  10  -1   1    0.21    0.86
  11   0  -1   15.76    1.54
  11   0  -1   15.40    1.44
  11   0  -1   13.53    1.64
  11   0  -1   16.17    1.70
 -11   0   1   12.11    1.70
 -11   0   1   13.91    1.68
 -11   0   1   14.54    1.45
  10   0  -1    0.14    0.58
  10   0  -1    0.07    0.72
  10   0  -1   -0.13    0.76
  10   0  -1    0.44    0.61
 -10   0   1    0.73    0.54
 -10   0   1    0.48    0.75
 -10   0   1    0.33    0.48
 -10   0   1   -0.04    0.68
 -10   0   1   -0.04    0.54
   9   0  -1   50.65    1.85
   9   0  -1   52.20    2.07
  -9   0   1   52.03    1.87
  -9   0   1   49.48    2.03
  -9   0   1   49.56    2.03
  -9   0   1   48.42    1.67
   8   0  -1   16.67    1.02
   8   0  -1   16.14    1.23
   8   0  -1   16.52    1.06
  -8   0   1   18.14    1.07
  -8   0   1   16.88    0.88
  -8   0   1   15.20    1.19
  -8   0   1   18.41    1.24
   7   0  -1   16.67    1.08
   7   0  -1   15.54    0.92
   7   0  -1   17.16    0.91
  -7   0   1   17.27    0.79
  -7   0   1   15.07    0.92
  -7   0   1   15.25    1.03
  -7   0   1   16.27    0.88
  -7   0   1   15.53    1.03
   6   0  -1  140.59    3.91
   6   0  -1  140.36    3.80
   6   0  -1  141.76    3.93
   6   0  -1  146.57    3.83
  -6   0   1  144.81    3.93
  -6   0   1  144.71    3.80
  -6   0   1  137.66    3.82
  -6   0   1  142.63    3.75
  -6   0   1  147.02    3.93
   5   0  -1    6.36    0.59
   5   0  -1    5.64    0.51
   5   0  -1    7.06    0.56
   5   0  -1    6.44    0.62
  -5   0   1    5.73    0.61
  -5   0   1    5.97    0.61
  -5   0   1    6.39    0.44
  -5   0   1    6.13    0.51
  -5   0   1    5.90    0.53
   4   0  -1  231.94    5.75
   4   0  -1  220.34    5.72
   4   0  -1  216.10    5.80
   4   0  -1  220.36    5.79
  -4   0   1  227.94    5.73
  -4   0   1  223.33    5.74
  -4   0   1  219.64    5.69
  -4   0   1  242.68    5.82
  -4   0   1  226.10    5.80
   3   0  -1  162.21    4.04
   3   0  -1  159.71    4.05
   3   0  -1  161.68    4.10
  -3   0   1  159.51    4.04
  -3   0   1  156.02    4.01
  -3   0   1  159.10    4.05
  -3   0   1  156.73    4.09
  -3   0   1  153.93    4.09
   2   0  -1  371.03    9.12
   2   0  -1  373.89    9.16
   2   0  -1  364.83    9.15
   2   0  -1  366.11    9.11
  -2   0   1  367.52    9.11
  -2   0   1  355.58    9.09
  -2   0   1  360.35    9.15
  -2   0   1  370.33    9.15
  -2   0   1  367.54    9.12
  -1   0   1  329.38    8.20
  -1   0  -1   99.75    2.51
  -1   0  -1   97.82    2.54
   1   0   1  100.96    2.55
   1   0   1   98.53    2.51
  -3   0  -1   87.68    2.43
  -3   0  -1   92.55    2.38
  -3   0  -1   89.40    2.39
  -3   0  -1   92.31    2.44
   3   0   1   91.46    2.39
   3   0   1   88.29    2.38
   3   0   1   90.84    2.44
   3   0   1   91.09    2.44
  -4   0  -1   30.18    0.97
  -4   0  -1   30.38    1.06
  -4   0  -1   30.07    1.07
  -4   0  -1   31.01    1.00
   4   0   1   30.79    0.99
   4   0   1   30.52    1.06
   4   0   1   29.94    1.06
   4   0   1   30.50    1.00
  -5   0  -1    9.87    0.59
  -5   0  -1    9.42    0.62
  -5   0  -1    9.43    0.69
  -5   0  -1   10.59    0.69
   5   0   1    9.41    0.67
   5   0   1   10.53    0.70
   5   0   1    9.43    0.62
   5   0   1    9.35    0.61
  -6   0  -1   13.01    0.86
  -6   0  -1   12.78    0.77
  -6   0  -1   12.62    0.73
  -6   0  -1   14.64    0.87
   6   0   1   11.81    0.87
   6   0   1   12.76    0.85
   6   0   1   13.12    0.78
   6   0   1   12.94    0.76
  -7   0  -1   16.55    1.07
  -7   0  -1   16.84    0.95
  -7   0  -1   18.23    1.08
  -7   0  -1   16.20    0.89
   7   0   1   16.18    0.93
   7   0   1   16.71    1.08
   7   0   1   17.42    0.95
   7   0   1   13.65    1.02
  -8   0  -1   36.41    1.59
  -8   0  -1   33.29    1.55
  -8   0  -1   35.61    1.42
   8   0   1   34.61    1.59
   8   0   1   36.42    1.42
   8   0   1   32.19    1.38
   8   0   1   34.17    1.55
  -9   0  -1   -0.71    0.55
  -9   0  -1   -0.73    0.50
  -9   0  -1   -0.30    0.56
   9   0   1    0.24    0.61
   9   0   1    0.17    0.50
   9   0   1   -0.14    0.64
 -10   0  -1   21.58    1.40
 -10   0  -1   21.42    1.56
 -10   0  -1   21.70    1.38
  10   0   1   24.08    1.62
  10   0   1   22.56    1.50
  10   0   1   20.86    1.40
  10   0   1   19.16    1.67
 -11   0  -1   16.74    1.48
 -11   0  -1   22.44    1.87
  11   0   1   16.68    1.55
  11   0   1   17.22    1.70
  10  -1  -1   -1.18    0.74
  10  -1  -1   -1.04    0.64
  10  -1  -1   -0.22    0.75
  10  -1  -1   -0.01    0.62
 -10   1   1   -0.03    0.35
 -10   1   1   -1.25    0.58
 -10   1   1   -0.17    0.74
 -10   1   1    0.26    0.57
 -10   1   1    0.55    0.79
   9  -1  -1   46.88    1.88
   9  -1  -1   48.58    2.04
   9  -1  -1   44.37    1.81
  -9   1   1   49.57    2.04
  -9   1   1   48.02    2.05
  -9   1   1   45.19    1.57
  -9   1   1   48.29    1.83
   8  -1  -1   22.92    1.19
   8  -1  -1   21.74    1.24
   8  -1  -1   22.43    1.38
  -8   1   1   25.02    1.41
  -8   1   1   22.87    1.21
  -8   1   1   21.91    1.35
  -8   1   1   22.00    0.97
   7  -1  -1    6.96    0.74
   7  -1  -1    6.42    0.70
   7  -1  -1    4.40    0.51
   7  -1  -1    7.29    0.65
  -7   1   1    6.24    0.55
  -7   1   1    7.00    0.75
  -7   1   1    5.42    0.68
  -7   1   1    4.57    0.49
  -7   1   1    5.69    0.57
   6  -1  -1    0.69    0.33
   6  -1  -1    0.83    0.39
   6  -1  -1    0.81    0.34
   6  -1  -1    0.66    0.42
  -6   1   1    0.70    0.35
  -6   1   1    0.84    0.32
  -6   1   1    0.42    0.37
  -6   1   1    0.94    0.44
   5  -1  -1   33.55    1.24
   5  -1  -1   32.89    1.25
   5  -1  -1   32.08    1.15
   5  -1  -1   33.65    1.13
  -5   1   1   34.29    1.25
  -5   1   1   33.90    1.12
  -5   1   1   33.07    1.15
  -5   1   1   33.69    1.24
   4  -1  -1   39.13    1.23
   4  -1  -1   38.60    1.29
   4  -1  -1   39.61    1.31
   4  -1  -1   38.09    1.20
  -4   1   1   40.11    1.20
  -4   1   1   39.79    1.29
  -4   1   1   39.26    1.22
  -4   1   1   40.03    1.30
   3  -1  -1  277.88    6.85
   3  -1  -1  277.22    6.90
   3  -1  -1  268.00    6.83
   3  -1  -1  271.91    6.89
  -3   1   1  268.81    6.84
  -3   1   1  268.65    6.89
  -3   1   1  271.92    6.89
  -3   1   1  268.28    6.83
   2  -1  -1    0.82    0.17
   2  -1  -1    0.87    0.22
   2  -1  -1    0.59    0.16
   2  -1  -1    0.85    0.20
  -2   1   1    0.80    0.20
  -2   1   1    0.99    0.18
  -2   1   1    0.75    0.20
  -2   1   1    0.63    0.15
   1  -1  -1    8.31    0.32
   1  -1  -1    7.91    0.33
   1  -1  -1    7.58    0.36
  -1   1   1    7.36    0.36
  -1   1   1    7.92    0.33
  -1   1   1    7.33    0.35
  -1   1   1    8.20    0.31
  -1  -1  -1   26.14    0.72
  -1  -1  -1   27.59    0.72
   1   1   1   29.45    0.77
   1   1   1   21.63    0.73
   1   1   1   24.08    0.68
  -2  -1  -1  308.65    7.74
  -2  -1  -1  315.95    7.71
  -2  -1  -1  298.18    7.73
  -2  -1  -1  310.09    7.71
   2   1   1  312.39    7.74
   2   1   1  311.55    7.74
   2   1   1  316.34    7.71
   2   1   1  307.72    7.70
  -3  -1  -1  155.26    3.91
  -3  -1  -1  150.93    3.91
  -3  -1  -1  149.33    3.86
  -3  -1  -1  151.62    3.87
   3   1   1  146.36    3.90
   3   1   1  152.53    3.86
   3   1   1  156.89    3.92
   3   1   1  154.77    3.87
  -4  -1  -1  105.35    2.81
  -4  -1  -1  108.55    2.87
  -4  -1  -1  104.42    2.79
  -4  -1  -1  109.74    2.86
   4   1   1  105.29    2.79
   4   1   1  107.91    2.87
   4   1   1  104.51    2.85
   4   1   1  107.26    2.80
  -5  -1  -1  400.62   10.39
  -5  -1  -1  427.96   10.49
  -5  -1  -1  410.07   10.42
  -5  -1  -1  436.17   10.50
   5   1   1  404.21   10.47
   5   1   1  408.92   10.39
   5   1   1  414.42   10.40
   5   1   1  411.68   10.48
  -6  -1  -1    6.32    0.70
  -6  -1  -1    7.38    0.59
  -6  -1  -1    7.49    0.63
  -6  -1  -1    7.53    0.71
   6   1   1    7.62    0.62
   6   1   1    6.42    0.60
   6   1   1    7.47    0.71
   6   1   1    7.10    0.71
  -7  -1  -1  109.03    3.18
  -7  -1  -1  105.78    3.16
  -7  -1  -1  108.59    3.07
  -7  -1  -1  112.00    3.04
   7   1   1  108.15    3.16
   7   1   1  108.08    3.17
   7   1   1  112.58    3.05
   7   1   1  112.39    3.04
  -8  -1  -1    7.96    0.86
  -8  -1  -1    8.05    0.96
  -8  -1  -1    7.74    0.80
  -8  -1  -1    8.25    0.98
   8   1   1    9.28    1.01
   8   1   1    8.74    0.83
   8   1   1    9.16    0.97
   8   1   1    6.72    0.83
  -9  -1  -1    0.38    0.51
  -9  -1  -1    1.16    0.49
  -9  -1  -1   -0.30    0.52
  -9  -1  -1    0.48    0.44
   9   1   1    0.00    0.61
   9   1   1   -0.31    0.47
   9   1   1   -0.02    0.57
   9   1   1    0.55    0.47
 -10  -1  -1   -0.40    0.50
 -10  -1  -1   -0.31    0.60
 -10  -1  -1    0.04    0.54
 -10  -1  -1   -0.37    0.53
 -10  -1  -1   -0.12    0.67
  10   1   1    0.70    0.69
  10   1   1    0.46    0.55
  10   1   1   -0.78    0.69
  10   1   1   -0.34    0.69
 -11  -1  -1   28.77    1.58
 -11  -1  -1   28.90    1.61
 -11  -1  -1   28.32    1.80
 -11  -1  -1   27.90    1.89
  11   1   1   26.37    1.66
  11   1   1   28.10    1.59
  11   1   1   32.28    1.88
  10  -2  -1    1.00    0.84
  10  -2  -1    1.10    0.72
  10  -2  -1    1.03    0.71
 -10   2   1   -0.35    0.68
 -10   2   1   -0.08    0.82
 -10   2   1    0.10    0.56
 -10   2   1   -0.19    0.88
 -10   2   1    0.46    0.35
   9  -2  -1   -0.45    0.60
   9  -2  -1    0.16    0.69
   9  -2  -1   -0.56    0.56
  -9   2   1   -0.09    0.49
  -9   2   1   -0.40    0.63
  -9   2   1    0.21    0.27
  -9   2   1    0.36    0.66
  -9   2   1    0.39    0.53
   8  -2  -1   13.54    1.22
   8  -2  -1   15.62    1.09
   8  -2  -1   15.29    1.29
  -8   2   1   14.73    1.09
  -8   2   1   13.85    0.76
  -8   2   1   14.89    1.28
   7  -2  -1   28.91    1.42
   7  -2  -1   33.85    1.52
   7  -2  -1   30.62    1.46
   7  -2  -1   32.44    1.34
  -7   2   1   32.95    1.48
  -7   2   1   33.21    1.52
  -7   2   1   31.92    1.28
  -7   2   1   32.79    1.34
   6  -2  -1    0.97    0.47
   6  -2  -1    0.43    0.33
   6  -2  -1    0.46    0.34
   6  -2  -1    0.51    0.40
  -6   2   1    0.91    0.38
  -6   2   1    0.64    0.42
  -6   2   1    0.26    0.29
  -6   2   1    1.45    0.48
   5  -2  -1   45.85    1.53
   5  -2  -1   44.31    1.40
   5  -2  -1   42.94    1.50
   5  -2  -1   43.98    1.44
  -5   2   1   42.98    1.41
  -5   2   1   43.35    1.52
  -5   2   1   44.79    1.53
  -5   2   1   42.77    1.38
   4  -2  -1  185.84    4.77
   4  -2  -1  182.33    4.74
   4  -2  -1  184.68    4.84
   4  -2  -1  188.65    4.83
  -4   2   1  180.04    4.83
  -4   2   1  184.59    4.73
  -4   2   1  178.31    4.83
  -4   2   1  184.46    4.75
   3  -2  -1  205.90    5.29
   3  -2  -1  198.87    5.35
   3  -2  -1  208.81    5.30
   3  -2  -1  208.12    5.35
  -3   2   1  205.88    5.29
  -3   2   1  207.96    5.27
  -3   2   1  213.11    5.36
  -3   2   1  213.35    5.36
   2  -2  -1  612.88   15.36
   2  -2  -1  599.88   15.40
   2  -2  -1  630.63   15.36
   2  -2  -1  625.74   15.41
  -2   2   1  623.90   15.36
  -2   2   1  637.63   15.41
  -2   2   1  603.70   15.40
  -2   2   1  618.43   15.34
   1  -2  -1   50.86    1.36
   1  -2  -1   51.43    1.33
   1  -2  -1   49.54    1.32
   1  -2  -1   53.27    1.37
  -1   2   1   50.11    1.36
  -1   2   1   45.80    1.35
  -1   2   1   49.08    1.42
  -1   2   1   50.99    1.32
  -1   2   1   50.87    1.31
  -1   2   1   47.74    1.27
   0  -2  -1   38.29    0.98
   0  -2  -1   36.74    1.02
   0  -2  -1   38.60    1.01
   0  -2  -1   37.62    1.10
   0  -2  -1   38.40    0.98
   0   2   1   36.89    1.10
   0   2   1   36.48    1.03
   0   2   1   40.55    1.08
   0   2   1   39.13    1.01
  -2  -2  -1   52.29    1.35
  -2  -2  -1   50.61    1.35
  -2  -2  -1   52.93    1.32
  -2  -2  -1   52.43    1.32
   2   2   1   45.20    1.35
   2   2   1   53.90    1.43
   2   2   1   51.19    1.35
  -3  -2  -1   37.27    1.13
  -3  -2  -1   39.78    1.09
  -3  -2  -1   39.71    1.10
  -3  -2  -1   41.13    1.14
   3   2   1   39.45    1.14
   3   2   1   41.07    1.08
   3   2   1   41.35    1.08
   3   2   1   41.10    1.14
  -4  -2  -1   35.67    1.11
  -4  -2  -1   35.05    1.07
  -4  -2  -1   36.41    1.13
  -4  -2  -1   35.86    1.06
   4   2   1   36.58    1.12
   4   2   1   35.91    1.04
   4   2   1   36.30    1.05
   4   2   1   36.75    1.12
  -5  -2  -1   23.71    0.92
  -5  -2  -1   24.43    0.84
  -5  -2  -1   23.18    0.87
  -5  -2  -1   24.40    0.93
   5   2   1   23.90    0.83
   5   2   1   24.44    0.93
   5   2   1   23.52    0.83
   5   2   1   23.88    0.92
  -6  -2  -1    9.32    0.70
  -6  -2  -1    9.75    0.64
  -6  -2  -1   10.23    0.60
  -6  -2  -1    9.27    0.71
   6   2   1    9.62    0.72
   6   2   1   10.61    0.70
   6   2   1    9.87    0.61
   6   2   1    8.40    0.59
  -7  -2  -1   66.73    2.12
  -7  -2  -1   67.58    2.03
  -7  -2  -1   71.41    2.14
  -7  -2  -1   66.93    2.00
   7   2   1   67.46    2.13
   7   2   1   67.07    2.11
   7   2   1   67.90    1.98
   7   2   1   66.99    1.99
  -8  -2  -1   18.90    1.14
  -8  -2  -1   20.34    1.05
  -8  -2  -1   18.66    0.98
  -8  -2  -1   17.18    1.13
   8   2   1   19.71    1.12
   8   2   1   19.03    1.15
   8   2   1   19.16    0.98
   8   2   1   20.14    0.98
  -9  -2  -1   35.84    1.61
  -9  -2  -1   33.49    1.44
  -9  -2  -1   35.89    1.43
  -9  -2  -1   33.98    1.47
   9   2   1   36.02    1.41
   9   2   1   36.25    1.61
   9   2   1   34.80    1.42
 -10  -2  -1    0.96    0.67
 -10  -2  -1    0.52    0.47
 -10  -2  -1   -0.16    0.61
 -10  -2  -1    0.17    0.58
 -10  -2  -1   -0.10    0.51
  10   2   1    0.02    0.47
  10   2   1   -0.10    0.68
  10   2   1    0.29    0.50
 -11  -2  -1    0.25    0.79
 -11  -2  -1   -0.62    0.76
 -11  -2  -1    0.81    0.60
 -11  -2  -1    0.12    0.61
  11   2   1    0.16    0.55
  11   2   1    1.18    0.77
  11   2   1   -0.37    0.66
   9  -3  -1    4.37    0.69
   9  -3  -1    4.04    0.85
   9  -3  -1    3.87    0.87
  -9   3   1    3.39    0.65
  -9   3   1    5.55    0.95
  -9   3   1    4.58    0.92
  -9   3   1    4.16    0.83
  -9   3   1    4.54    0.72
   8  -3  -1    1.23    0.66
   8  -3  -1    1.65    0.67
   8  -3  -1    1.48    0.54
  -8   3   1    2.54    0.59
  -8   3   1    1.85    0.67
  -8   3   1    2.02    0.63
  -8   3   1    2.28    0.69
   7  -3  -1   -0.28    0.42
   7  -3  -1    0.23    0.54
   7  -3  -1   -0.80    0.51
  -7   3   1   -0.28    0.54
  -7   3   1    0.10    0.39
  -7   3   1   -0.47    0.57
  -7   3   1   -0.80    0.42
  -7   3   1    0.18    0.56
   6  -3  -1   -0.29    0.39
   6  -3  -1   -0.15    0.36
   6  -3  -1   -0.55    0.41
   6  -3  -1   -0.01    0.45
  -6   3   1   -0.25    0.33
  -6   3   1   -0.36    0.48
  -6   3   1   -0.52    0.50
  -6   3   1   -0.65    0.37
  -6   3   1    0.00    0.44
   5  -3  -1    3.08    0.48
   5  -3  -1    3.25    0.44
   5  -3  -1    3.35    0.42
   5  -3  -1    2.94    0.47
  -5   3   1    2.94    0.50
  -5   3   1    2.77    0.38
  -5   3   1    2.82    0.35
  -5   3   1    3.31    0.47
  -5   3   1    2.17    0.43
   4  -3  -1  110.40    3.02
   4  -3  -1  113.40    3.10
   4  -3  -1  110.99    3.10
   4  -3  -1  108.56    3.00
  -4   3   1  108.43    3.14
  -4   3   1  115.71    3.11
  -4   3   1  110.71    2.96
  -4   3   1  110.72    2.99
  -4   3   1  112.44    3.10
   3  -3  -1  108.77    2.97
   3  -3  -1  112.33    2.98
   3  -3  -1  110.08    2.91
   3  -3  -1  107.15    2.89
  -3   3   1  107.12    2.97
  -3   3   1  105.21    3.02
  -3   3   1  109.30    2.87
  -3   3   1  108.78    2.89
  -3   3   1  114.86    2.99
   2  -3  -1    5.22    0.41
   2  -3  -1    5.50    0.38
   2  -3  -1    5.59    0.45
   2  -3  -1    5.63    0.44
  -2   3   1    6.38    0.28
  -2   3   1    6.02    0.47
  -2   3   1    5.50    0.38
  -2   3   1    6.21    0.53
  -2   3   1    5.75    0.36
  -2   3   1    5.47    0.45
   1  -3  -1    9.55    0.43
   1  -3  -1    9.12    0.37
   1  -3  -1    8.71    0.38
   1  -3  -1    9.40    0.51
   1  -3  -1    9.57    0.42
  -1   3   1    9.31    0.43
  -1   3   1    9.52    0.34
  -1   3   1    8.86    0.52
  -1   3   1    8.72    0.35
  -1   3   1    9.85    0.43
  -1   3   1    9.38    0.35
   0  -3  -1   15.69    0.43
   0  -3  -1   14.82    0.49
   0  -3  -1   14.82    0.60
   0  -3  -1   15.55    0.47
   0  -3  -1   14.74    0.47
   0  -3  -1   15.13    0.43
   0   3   1   14.07    0.50
   0   3   1   15.08    0.47
   0   3   1   14.26    0.59
  -1  -3  -1   32.93    1.00
  -1  -3  -1   32.45    0.95
   1   3   1   33.46    0.97
   1   3   1   32.08    0.96
  -2  -3  -1  161.27    4.07
  -2  -3  -1  164.84    4.07
  -2  -3  -1  164.96    4.21
   2   3   1  170.33    4.19
   2   3   1  160.96    4.07
   2   3   1  160.44    4.07
  -3  -3  -1  187.26    4.60
  -3  -3  -1  191.56    4.63
  -3  -3  -1  188.25    4.60
  -3  -3  -1  187.06    4.63
  -3  -3  -1  188.76    4.74
   3   3   1  155.08    4.62
   3   3   1  188.48    4.71
  -4  -3  -1   49.04    1.34
  -4  -3  -1   48.85    1.48
  -4  -3  -1   48.75    1.38
  -4  -3  -1   48.78    1.35
  -4  -3  -1   48.25    1.39
   4   3   1   48.76    1.29
   4   3   1   48.55    1.29
   4   3   1   47.24    1.38
   4   3   1   49.22    1.39
  -5  -3  -1  335.54    8.38
  -5  -3  -1  329.86    8.44
  -5  -3  -1  333.06    8.33
  -5  -3  -1  336.14    8.37
  -5  -3  -1  324.46    8.30
   5   3   1  330.35    8.28
   5   3   1  335.16    8.38
   5   3   1  324.44    8.27
   5   3   1  328.51    8.37
  -6  -3  -1   20.27    0.88
  -6  -3  -1   19.60    0.80
  -6  -3  -1   19.18    0.91
  -6  -3  -1   18.40    0.76
  -6  -3  -1   19.28    0.85
   6   3   1   18.78    0.73
   6   3   1   17.59    0.85
   6   3   1   19.18    0.74
   6   3   1   20.74    0.88
  -7  -3  -1    2.44    0.43
  -7  -3  -1    2.52    0.47
  -7  -3  -1    2.12    0.35
  -7  -3  -1    3.01    0.40
  -7  -3  -1    2.74    0.45
   7   3   1    2.42    0.34
   7   3   1    2.81    0.46
   7   3   1    1.85    0.32
   7   3   1    1.82    0.42
  -8  -3  -1    5.04    0.61
  -8  -3  -1    5.86    0.63
  -8  -3  -1    4.18    0.54
  -8  -3  -1    4.42    0.46
  -8  -3  -1    4.51    0.51
   8   3   1    5.24    0.65
   8   3   1    4.13    0.46
   8   3   1    3.96    0.56
   8   3   1    4.90    0.59
  -9  -3  -1    3.57    0.51
  -9  -3  -1    4.67    0.67
  -9  -3  -1    5.53    0.68
  -9  -3  -1    4.83    0.66
  -9  -3  -1    4.48    0.58
   9   3   1    4.09    0.50
   9   3   1    3.37    0.47
   9   3   1    4.71    0.64
 -10  -3  -1    0.29    0.55
 -10  -3  -1    0.17    0.50
 -10  -3  -1   -0.78    0.58
 -10  -3  -1    0.01    0.49
 -10  -3  -1    1.55    0.64
  10   3   1    0.52    0.45
  10   3   1   -0.37    0.47
  10   3   1    0.45    0.60
 -11  -3  -1   -0.22    0.83
 -11  -3  -1   -0.31    0.65
 -11  -3  -1   -1.00    0.72
 -11  -3  -1    0.64    0.57
 -11  -3  -1   -0.53    0.61
  11   3   1   -1.28    0.65
  11   3   1   -0.24    0.70
  11   3   1   -0.01    0.51
   9  -4  -1    1.05    0.85
   9  -4  -1    0.82    0.69
   9  -4  -1   -0.06    0.76
  -9   4   1    0.46    0.62
  -9   4   1    1.38    0.83
  -9   4   1    0.50    0.62
  -9   4   1    0.44    0.26
  -9   4   1    1.16    0.75
  -9   4   1    1.00    0.76
   8  -4  -1   28.14    1.63
   8  -4  -1   25.55    1.62
   8  -4  -1   26.69    1.47
   8  -4  -1   26.77    1.53
  -8   4   1   29.78    1.64
  -8   4   1   27.08    1.41
  -8   4   1   26.07    1.64
  -8   4   1   25.46    1.34
  -8   4   1   26.24    1.65
   7  -4  -1   -1.00    0.55
   7  -4  -1   -0.62    0.44
   7  -4  -1    0.11    0.56
   7  -4  -1    0.00    0.56
  -7   4   1    0.15    0.50
  -7   4   1   -0.42    0.61
  -7   4   1    0.48    0.43
  -7   4   1   -0.38    0.60
  -7   4   1    0.25    0.45
   6  -4  -1   63.26    2.23
   6  -4  -1   67.54    2.22
   6  -4  -1   66.50    2.08
   6  -4  -1   64.38    2.12
  -6   4   1   64.08    2.04
  -6   4   1   63.03    2.21
  -6   4   1   61.84    1.98
  -6   4   1   65.03    2.28
   5  -4  -1    0.42    0.38
   5  -4  -1    0.28    0.41
   5  -4  -1    0.00    0.41
   5  -4  -1   -0.18    0.37
  -5   4   1    0.65    0.35
  -5   4   1    0.65    0.41
  -5   4   1    0.77    0.40
  -5   4   1    0.03    0.45
  -5   4   1   -0.04    0.32
   4  -4  -1   -0.07    0.34
   4  -4  -1   -0.05    0.36
   4  -4  -1    0.16    0.30
   4  -4  -1    0.05    0.32
  -4   4   1    0.04    0.35
  -4   4   1   -0.02    0.28
  -4   4   1    0.10    0.26
  -4   4   1    0.38    0.37
  -4   4   1    0.71    0.40
   3  -4  -1    2.00    0.34
   3  -4  -1    2.35    0.35
   3  -4  -1    2.57    0.31
   3  -4  -1    2.43    0.33
  -3   4   1    2.88    0.28
  -3   4   1    1.74    0.32
  -3   4   1    2.33    0.29
  -3   4   1    2.80    0.28
  -3   4   1    2.66    0.46
  -3   4   1    2.15    0.34
   2  -4  -1  236.40    5.78
   2  -4  -1  219.99    5.77
   2  -4  -1  223.73    5.71
   2  -4  -1  225.73    5.72
  -2   4   1  221.29    5.66
  -2   4   1  222.94    5.78
  -2   4   1  238.31    5.78
  -2   4   1  221.39    5.67
  -2   4   1  216.04    5.64
  -2   4   1  223.14    5.88
   1  -4  -1   -0.42    0.26
   1  -4  -1   -0.27    0.18
   1  -4  -1   -0.32    0.16
   1  -4  -1   -0.16    0.19
   1  -4  -1   -0.20    0.15
  -1   4   1   -0.24    0.18
  -1   4   1   -0.08    0.28
  -1   4   1   -0.11    0.12
  -1   4   1   -0.32    0.18
  -1   4   1   -0.20    0.11
  -1   4   1    0.11    0.16
   0  -4  -1  354.66    8.69
   0  -4  -1  355.96    8.72
   0  -4  -1  347.64    8.84
   0  -4  -1  341.69    8.68
   0  -4  -1  351.75    8.65
   0  -4  -1  345.46    8.65
   0   4   1  352.42    8.84
   0   4   1  337.76    8.70
   0   4   1  356.56    8.69
   0   4   1  341.69    8.72
  -1  -4  -1    0.38    0.09
  -1  -4  -1    1.14    0.22
  -1  -4  -1    0.42    0.10
  -1  -4  -1    0.48    0.27
   1   4   1    0.49    0.24
   1   4   1    0.65    0.11
   1   4   1    1.21    0.30
   1   4   1    0.56    0.11
   1   4   1    1.11    0.24
  -2  -4  -1  978.49   24.60
   2   4   1  992.78   24.58
   2   4   1 1000.00   24.54
  -3  -4  -1   76.62    2.13
  -3  -4  -1   77.57    1.94
  -3  -4  -1   76.82    1.92
  -3  -4  -1   75.92    1.91
   3   4   1   65.93    2.02
   3   4   1   77.70    2.09
   3   4   1   77.89    1.95
  -4  -4  -1   68.38    1.80
  -4  -4  -1   67.34    1.84
  -4  -4  -1   69.23    1.85
  -4  -4  -1   69.03    1.81
  -4  -4  -1   68.40    2.00
   4   4   1   68.89    1.95
   4   4   1   69.92    1.85
   4   4   1   67.84    1.85
  -5  -4  -1    9.28    0.49
  -5  -4  -1    8.98    0.45
  -5  -4  -1    9.16    0.53
  -5  -4  -1    9.57    0.52
  -5  -4  -1    8.84    0.68
   5   4   1    8.28    0.53
   5   4   1    9.43    0.36
   5   4   1    8.95    0.53
   5   4   1    9.59    0.65
   5   4   1    9.18    0.36
  -6  -4  -1   18.33    0.80
  -6  -4  -1   17.59    0.92
  -6  -4  -1   18.38    0.82
  -6  -4  -1   18.03    0.73
  -6  -4  -1   18.68    0.76
   6   4   1   18.40    0.83
   6   4   1   18.11    0.65
   6   4   1   18.07    0.65
  -7  -4  -1    1.24    0.44
  -7  -4  -1    2.03    0.39
  -7  -4  -1    1.59    0.38
  -7  -4  -1    1.71    0.33
  -7  -4  -1    1.89    0.33
   7   4   1    1.97    0.40
   7   4   1    1.44    0.27
   7   4   1    2.02    0.29
  -8  -4  -1   27.32    1.20
  -8  -4  -1   27.11    1.15
  -8  -4  -1   26.73    1.09
  -8  -4  -1   27.48    1.30
  -8  -4  -1   27.74    1.23
   8   4   1   27.32    1.01
   8   4   1   27.84    1.23
   8   4   1   27.02    1.02
  -9  -4  -1    4.91    0.69
  -9  -4  -1    5.86    0.67
  -9  -4  -1    6.88    0.78
  -9  -4  -1    6.92    0.83
  -9  -4  -1    6.06    0.67
   9   4   1    6.20    0.72
   9   4   1    5.37    0.64
   9   4   1    5.86    0.69
 -10  -4  -1    2.83    0.60
 -10  -4  -1    2.82    0.56
 -10  -4  -1    2.25    0.59
 -10  -4  -1    4.00    0.61
  10   4   1    2.91    0.47
  10   4   1    2.92    0.70
  10   4   1    3.53    0.67
  10   4   1    3.40    0.51
 -11  -4  -1    1.13    0.59
 -11  -4  -1    0.06    0.56
 -11  -4  -1   -0.28    0.69
 -11  -4  -1    1.00    0.68
 -11  -4  -1    2.04    0.76
  11   4   1    2.26    0.81
  11   4   1    0.28    0.53
  11   4   1    0.33    0.48
  11   4   1   -0.11    0.64
   8  -5  -1   -0.24    0.73
   8  -5  -1   -0.06    0.74
   8  -5  -1    0.13    0.75
   8  -5  -1   -1.22    0.65
  -8   5   1   -0.10    0.57
  -8   5   1   -0.08    0.72
  -8   5   1   -0.27    0.65
  -8   5   1   -0.03    0.52
  -8   5   1    0.17    0.17
  -8   5   1    1.48    0.80
   7  -5  -1   11.71    1.28
   7  -5  -1   13.11    1.14
   7  -5  -1   10.41    1.28
   7  -5  -1   11.31    1.22
  -7   5   1   11.61    1.60
  -7   5   1   12.60    1.29
  -7   5   1   12.46    1.02
  -7   5   1   11.60    0.55
  -7   5   1   12.70    1.27
   6  -5  -1    3.27    0.62
   6  -5  -1    3.55    0.55
   6  -5  -1    3.71    0.64
   6  -5  -1    4.24    0.64
  -6   5   1    4.50    0.51
  -6   5   1    4.59    0.73
  -6   5   1    5.59    0.41
  -6   5   1    5.09    0.56
  -6   5   1    3.98    0.66
   5  -5  -1   18.53    1.08
   5  -5  -1   19.01    1.15
   5  -5  -1   17.91    1.12
   5  -5  -1   17.96    1.00
  -5   5   1   19.24    1.26
  -5   5   1   18.03    0.94
  -5   5   1   17.27    1.72
  -5   5   1   18.94    0.66
  -5   5   1   18.73    1.14
  -5   5   1   16.99    0.88
   4  -5  -1   12.42    0.78
   4  -5  -1   11.56    0.87
   4  -5  -1   11.36    0.82
   4  -5  -1   12.80    0.90
  -4   5   1   12.23    0.67
  -4   5   1   11.80    0.87
  -4   5   1   12.65    0.99
  -4   5   1   12.48    0.89
  -4   5   1   12.43    0.53
  -4   5   1   13.46    0.72
   3  -5  -1    3.51    0.39
   3  -5  -1    3.23    0.41
   3  -5  -1    3.75    0.40
   3  -5  -1    4.05    0.46
  -3   5   1    4.19    0.37
  -3   5   1    3.12    0.41
  -3   5   1    3.52    0.31
  -3   5   1    3.39    0.45
  -3   5   1    4.07    0.54
  -3   5   1    3.27    0.33
   2  -5  -1   10.16    0.57
   2  -5  -1   11.13    0.61
   2  -5  -1   11.04    0.76
   2  -5  -1   11.89    0.65
   2  -5  -1   11.03    0.65
  -2   5   1   11.11    0.65
  -2   5   1   11.28    0.77
  -2   5   1   10.93    0.48
  -2   5   1   10.85    0.50
  -2   5   1   11.70    0.66
  -2   5   1   10.26    0.49
   1  -5  -1   18.09    0.66
   1  -5  -1   18.89    0.73
   1  -5  -1   18.46    0.68
   1  -5  -1   17.97    0.87
   1  -5  -1   18.58    0.72
  -1   5   1   17.84    0.68
  -1   5   1   18.75    0.56
  -1   5   1   19.56    0.93
  -1   5   1   18.80    0.55
  -1   5   1   18.54    0.73
  -1   5   1   19.15    0.74
   0  -5  -1  109.89    2.81
   0  -5  -1  105.54    3.01
   0  -5  -1  111.59    2.86
   0  -5  -1  107.03    2.81
   0  -5  -1  107.21    2.77
   0  -5  -1  108.24    2.78
   0   5   1  111.82    2.82
   0   5   1  107.39    2.87
   0   5   1  106.16    3.02
  -1  -5  -1  461.55   11.33
  -1  -5  -1  464.05   11.49
  -1  -5  -1  467.99   11.60
  -1  -5  -1  450.90   11.35
  -1  -5  -1  454.88   11.32
   1   5   1  456.89   11.59
   1   5   1  452.30   11.36
   1   5   1  453.99   11.49
   1   5   1  461.44   11.36
  -2  -5  -1   85.85    2.44
  -2  -5  -1   84.91    2.36
   2   5   1   83.98    2.37
   2   5   1   85.65    2.34
   2   5   1   83.89    2.14
   2   5   1   87.15    2.14
  -3  -5  -1    0.85    0.11
  -3  -5  -1    0.77    0.33
  -3  -5  -1    0.89    0.10
  -3  -5  -1    0.81    0.10
  -3  -5  -1    0.58    0.31
  -3  -5  -1    0.80    0.11
   3   5   1    0.91    0.13
   3   5   1    0.96    0.12
   3   5   1    0.85    0.30
  -4  -5  -1   22.94    0.69
  -4  -5  -1   18.82    0.67
  -4  -5  -1   22.27    0.67
  -4  -5  -1   22.79    0.65
  -4  -5  -1   21.27    0.92
   4   5   1   21.47    0.87
   4   5   1   22.97    0.70
  -5  -5  -1   19.55    0.68
  -5  -5  -1   20.38    0.70
  -5  -5  -1   21.05    0.74
  -5  -5  -1   19.63    0.94
  -5  -5  -1   19.49    0.72
   5   5   1   20.89    0.89
   5   5   1   20.88    0.76
   5   5   1   20.86    0.74
  -6  -5  -1   -0.14    0.24
  -6  -5  -1   -0.05    0.27
  -6  -5  -1   -0.21    0.21
  -6  -5  -1   -0.13    0.23
  -6  -5  -1    0.23    0.42
   6   5   1   -0.19    0.37
   6   5   1   -0.07    0.25
   6   5   1   -0.15    0.24
  -7  -5  -1   -0.01    0.44
  -7  -5  -1    0.69    0.28
  -7  -5  -1    1.23    0.35
  -7  -5  -1    0.93    0.35
  -7  -5  -1    0.89    0.31
   7   5   1    0.44    0.34
   7   5   1    1.07    0.37
   7   5   1    0.09    0.43
   7   5   1    0.66    0.20
   7   5   1    0.64    0.21
  -8  -5  -1    7.21    0.79
  -8  -5  -1    7.93    0.73
  -8  -5  -1    6.69    0.95
  -8  -5  -1    7.31    0.68
  -8  -5  -1    7.03    0.78
   8   5   1    7.90    0.52
   8   5   1    7.61    0.53
   8   5   1    7.17    0.72
   8   5   1    5.44    0.57
   8   5   1    8.12    0.80
  -9  -5  -1    0.31    0.54
  -9  -5  -1    0.10    0.39
  -9  -5  -1   -0.06    0.37
  -9  -5  -1    0.34    0.45
  -9  -5  -1    0.40    0.42
   9   5   1    0.31    0.29
   9   5   1    0.57    0.47
   9   5   1    0.07    0.29
   9   5   1   -0.27    0.40
 -10  -5  -1    0.62    0.53
 -10  -5  -1    1.59    0.57
 -10  -5  -1    0.98    0.48
 -10  -5  -1    1.19    1.15
 -10  -5  -1    0.68    0.51
  10   5   1    0.04    0.58
  10   5   1    0.61    0.35
  10   5   1    0.65    0.56
  10   5   1    0.74    0.36
 -11  -5  -1    1.96    0.62
 -11  -5  -1    1.41    0.64
 -11  -5  -1    1.86    0.62
 -11  -5  -1    0.59    0.63
 -11  -5  -1    0.85    0.80
  11   5   1    0.99    0.63
  11   5   1    0.02    0.36
  11   5   1    1.75    0.78
  11   5   1    1.13    0.44
   7  -6  -1   -1.23    0.62
   7  -6  -1   -0.39    0.63
   7  -6  -1   -0.73    0.70
   7  -6  -1   -0.12    0.65
  -7   6   1    0.01    0.65
  -7   6   1   -0.92    0.63
  -7   6   1   -0.26    0.73
  -7   6   1    0.18    0.17
  -7   6   1   -0.24    0.49
   6  -6  -1   30.84    1.50
   6  -6  -1   28.83    1.53
   6  -6  -1   26.17    1.53
   6  -6  -1   30.61    1.44
  -6   6   1   28.70    1.28
  -6   6   1   33.12    2.15
  -6   6   1   28.18    0.91
  -6   6   1   28.11    1.22
  -6   6   1   30.33    1.66
  -6   6   1   27.38    1.54
   5  -6  -1   -0.48    0.50
   5  -6  -1   -0.07    0.49
   5  -6  -1   -0.15    0.50
   5  -6  -1   -0.47    0.40
  -5   6   1    0.45    0.23
  -5   6   1   -0.35    0.47
  -5   6   1    0.27    0.62
  -5   6   1   -0.62    0.35
  -5   6   1   -0.36    0.32
   4  -6  -1    8.61    0.90
   4  -6  -1   10.68    0.96
   4  -6  -1   10.29    0.86
   4  -6  -1   12.02    0.99
  -4   6   1   11.85    0.56
  -4   6   1   13.28    1.12
  -4   6   1   10.45    0.97
  -4   6   1   10.56    0.96
  -4   6   1   11.02    0.69
  -4   6   1    9.83    0.73
   3  -6  -1   11.61    0.76
   3  -6  -1   12.35    0.85
   3  -6  -1   11.44    0.82
   3  -6  -1   10.51    0.77
  -3   6   1   11.05    0.62
  -3   6   1   11.31    0.57
  -3   6   1   12.08    1.02
  -3   6   1   10.83    0.84
  -3   6   1   11.79    0.83
  -3   6   1   10.79    0.59
   2  -6  -1   86.42    2.37
   2  -6  -1   85.28    2.38
   2  -6  -1   86.02    2.65
   2  -6  -1   87.21    2.44
   2  -6  -1   83.54    2.43
  -2   6   1   87.04    2.24
  -2   6   1   86.76    2.46
  -2   6   1   83.67    2.32
  -2   6   1   83.55    2.43
  -2   6   1   86.55    2.66
  -2   6   1   83.57    2.24
   1  -6  -1   99.42    2.64
   1  -6  -1  100.23    2.68
   1  -6  -1   98.46    2.90
   1  -6  -1  100.00    2.63
   1  -6  -1   96.10    2.68
  -1   6   1   99.43    2.69
  -1   6   1   96.11    2.89
  -1   6   1  100.35    2.70
  -1   6   1   97.62    2.66
   0  -6  -1   69.85    2.16
   0  -6  -1   68.89    1.89
   0  -6  -1   69.04    1.85
   0  -6  -1   69.73    1.89
   0  -6  -1   69.06    1.85
   0   6   1   68.58    1.96
   0   6   1   67.87    2.15
   0   6   1   68.01    1.90
   0   6   1   70.61    1.90
  -1  -6  -1   14.71    0.50
  -1  -6  -1   15.01    0.50
  -1  -6  -1   15.89    0.71
  -1  -6  -1   15.05    0.87
  -1  -6  -1   15.20    0.52
  -1  -6  -1   15.35    0.51
   1   6   1   14.48    0.53
   1   6   1   15.13    0.54
   1   6   1   13.68    0.86
   1   6   1   14.31    0.72
  -2  -6  -1   17.27    0.49
  -2  -6  -1   15.70    0.89
  -2  -6  -1   16.87    0.48
  -2  -6  -1   15.26    0.77
   2   6   1   16.21    0.81
   2   6   1   17.58    0.51
   2   6   1   16.28    0.79
   2   6   1   16.59    0.50
  -3  -6  -1   -0.04    0.36
  -3  -6  -1   -0.16    0.09
  -3  -6  -1   -0.13    0.29
   3   6   1   -0.14    0.10
   3   6   1    0.01    0.29
   3   6   1   -0.19    0.10
   3   6   1   -0.16    0.34
  -4  -6  -1   22.02    0.64
  -4  -6  -1   21.87    0.98
  -4  -6  -1   21.25    0.63
  -4  -6  -1   21.67    0.64
  -4  -6  -1   20.98    0.66
   4   6   1   20.94    0.89
   4   6   1   21.56    0.66
   4   6   1   21.68    0.66
  -5  -6  -1   24.32    0.77
  -5  -6  -1   22.61    0.76
  -5  -6  -1   23.11    0.73
  -5  -6  -1   19.10    0.74
  -5  -6  -1   22.95    1.06
   5   6   1   24.13    0.98
   5   6   1   22.90    0.77
  -6  -6  -1    1.51    0.29
  -6  -6  -1    1.81    0.49
  -6  -6  -1    1.74    0.31
  -6  -6  -1    2.02    0.27
  -6  -6  -1    1.75    0.29
   6   6   1    2.64    0.47
   6   6   1    2.01    0.32
   6   6   1    1.43    0.30
  -7  -6  -1  218.70    5.90
  -7  -6  -1  217.01    5.62
  -7  -6  -1  215.22    5.67
  -7  -6  -1  225.80    5.70
  -7  -6  -1  216.53    5.65
   7   6   1  221.30    5.70
   7   6   1  215.56    5.80
   7   6   1  224.63    5.71
  -8  -6  -1    0.83    0.64
  -8  -6  -1    1.16    0.38
  -8  -6  -1    1.66    0.38
  -8  -6  -1    0.87    0.35
  -8  -6  -1    1.21    0.41
   8   6   1   -0.06    0.40
   8   6   1    1.55    0.42
   8   6   1    1.61    0.56
  -9  -6  -1   13.70    0.95
  -9  -6  -1   11.15    0.86
  -9  -6  -1   13.68    0.97
  -9  -6  -1   12.72    0.92
   9   6   1   12.84    0.98
   9   6   1   14.29    1.10
 -10  -6  -1   19.06    1.11
 -10  -6  -1   17.50    1.17
 -10  -6  -1   16.88    1.12
 -10  -6  -1   18.77    1.43
 -10  -6  -1   17.50    1.17
  10   6   1   17.09    1.23
  10   6   1   17.24    1.19
  10   6   1   15.60    1.22
  10   6   1   16.92    0.74
 -11  -6  -1   -0.60    0.59
 -11  -6  -1   -0.85    0.80
 -11  -6  -1    1.62    0.62
 -11  -6  -1    0.22    0.58
 -11  -6  -1   -1.09    0.51
  11   6   1    0.02    0.61
  11   6   1    0.23    0.71
  11   6   1   -0.03    0.29
  11   6   1   -0.17    0.33
  11   6   1    0.30    0.66
   6  -7  -1    1.54    0.65
   6  -7  -1    2.96    0.67
   6  -7  -1    3.37    0.71
   6  -7  -1    2.11    0.69
  -6   7   1    1.97    0.48
  -6   7   1    2.31    0.78
  -6   7   1    1.61    0.71
  -6   7   1    4.05    0.92
  -6   7   1    1.93    0.52
   5  -7  -1    7.77    0.73
   5  -7  -1    8.59    1.03
   5  -7  -1    7.43    0.75
   5  -7  -1    7.90    1.05
  -5   7   1    7.45    0.53
  -5   7   1    5.55    0.72
  -5   7   1    7.31    0.77
  -5   7   1    5.70    0.74
  -5   7   1    7.15    0.97
  -5   7   1    6.74    0.71
   4  -7  -1    1.30    0.44
   4  -7  -1    2.01    0.50
   4  -7  -1    1.66    0.51
   4  -7  -1    0.86    0.47
  -4   7   1    1.91    0.51
  -4   7   1    1.57    0.35
  -4   7   1    1.42    0.33
  -4   7   1    1.16    0.64
  -4   7   1    1.71    0.31
   3  -7  -1    1.99    0.49
   3  -7  -1    1.78    0.43
   3  -7  -1    2.49    0.47
   3  -7  -1    2.39    0.43
  -3   7   1    2.33    0.28
  -3   7   1    2.34    0.27
  -3   7   1    1.68    0.63
  -3   7   1    1.51    0.33
  -3   7   1    2.25    0.46
  -3   7   1    2.67    0.50
   2  -7  -1    5.64    0.69
   2  -7  -1    6.98    0.67
   2  -7  -1    6.71    0.92
   2  -7  -1    6.30    0.71
   2  -7  -1    7.43    0.74
  -2   7   1    6.61    0.36
  -2   7   1    7.15    0.77
  -2   7   1    7.19    0.39
  -2   7   1    7.28    1.00
  -2   7   1    7.32    0.60
  -2   7   1    7.21    0.73
   1  -7  -1   60.52    1.77
   1  -7  -1   60.95    2.11
   1  -7  -1   62.32    1.82
   1  -7  -1   60.86    1.78
   1  -7  -1   60.94    1.81
  -1   7   1   62.30    2.14
  -1   7   1   60.19    1.82
  -1   7   1   61.58    1.84
  -1   7   1   59.80    1.81
   0  -7  -1   20.75    0.78
   0  -7  -1   20.44    0.76
   0  -7  -1   20.24    0.76
   0  -7  -1   21.27    0.79
   0  -7  -1   18.67    1.13
   0   7   1   20.07    1.16
   0   7   1   20.91    0.80
   0   7   1   21.36    0.91
   0   7   1   21.59    0.82
  -1  -7  -1   52.64    1.45
  -1  -7  -1   52.22    1.45
  -1  -7  -1   52.37    1.45
  -1  -7  -1   53.45    1.46
  -1  -7  -1   53.64    1.85
  -1  -7  -1   53.90    1.65
   1   7   1   50.46    1.46
   1   7   1   53.85    1.68
   1   7   1   53.58    1.47
  -2  -7  -1   -0.03    0.13
  -2  -7  -1    0.12    0.15
  -2  -7  -1   -0.49    0.41
  -2  -7  -1    0.35    0.32
   2   7   1   -0.12    0.34
   2   7   1   -0.06    0.13
   2   7   1   -0.18    0.14
  -3  -7  -1   68.10    2.08
  -3  -7  -1   66.79    1.76
  -3  -7  -1   68.78    1.75
  -3  -7  -1   67.69    2.18
   3   7   1   67.79    2.10
   3   7   1   68.20    2.02
  -4  -7  -1    1.23    0.49
  -4  -7  -1    1.43    0.18
  -4  -7  -1    1.70    0.17
  -4  -7  -1    2.49    0.50
   4   7   1    1.87    0.23
   4   7   1    1.87    0.22
   4   7   1    1.37    0.41
  -5  -7  -1    8.52    0.85
  -5  -7  -1    8.42    0.47
  -5  -7  -1    8.38    0.44
  -5  -7  -1    9.01    0.42
  -5  -7  -1    8.46    0.40
   5   7   1    8.95    0.76
   5   7   1    9.13    0.45
   5   7   1    8.81    0.44
  -6  -7  -1   19.63    1.10
  -6  -7  -1   18.62    0.72
  -6  -7  -1   17.45    0.73
  -6  -7  -1   17.75    0.70
  -6  -7  -1   17.47    0.71
   6   7   1   16.85    1.01
   6   7   1   17.75    0.74
  -7  -7  -1    0.28    0.27
  -7  -7  -1    0.36    0.30
  -7  -7  -1    0.28    0.28
  -7  -7  -1    0.81    0.32
   7   7   1    0.51    0.32
   7   7   1    0.52    0.49
   7   7   1    0.31    0.32
  -8  -7  -1    1.43    0.39
  -8  -7  -1    1.68    0.36
  -8  -7  -1    2.05    0.36
  -8  -7  -1    1.97    0.38
   8   7   1    1.57    0.41
   8   7   1    2.04    0.41
   8   7   1    2.08    0.58
  -9  -7  -1   39.65    1.46
  -9  -7  -1   38.23    1.47
  -9  -7  -1   41.60    1.52
  -9  -7  -1   42.85    1.87
  -9  -7  -1   42.17    1.54
   9   7   1   40.73    1.53
   9   7   1   42.12    1.68
 -10  -7  -1   -1.21    0.45
 -10  -7  -1    0.07    0.46
 -10  -7  -1   -0.34    0.75
 -10  -7  -1   -0.46    0.49
 -10  -7  -1   -0.16    0.49
  10   7   1   -0.37    0.54
  10   7   1    0.29    0.57
  10   7   1   -0.19    0.48
 -11  -7  -1    5.65    0.72
 -11  -7  -1    5.74    0.96
 -11  -7  -1    6.04    0.75
 -11  -7  -1    6.61    0.75
 -11  -7  -1    5.68    0.74
  11   7   1    6.92    0.90
  11   7   1    4.95    0.83
  11   7   1    3.35    0.66
   5  -8  -1    2.99    0.70
   5  -8  -1    3.06    0.73
   5  -8  -1    3.48    0.62
   5  -8  -1    2.94    0.68
  -5   8   1    3.65    0.80
  -5   8   1    3.86    0.44
  -5   8   1    4.47    1.02
  -5   8   1    4.39    0.79
   4  -8  -1    1.68    0.54
   4  -8  -1    0.96    0.50
   4  -8  -1    1.33    0.49
   4  -8  -1    1.43    0.55
  -4   8   1    1.31    0.34
  -4   8   1    1.54    0.31
  -4   8   1    0.35    0.56
  -4   8   1    0.94    0.58
  -4   8   1    2.60    0.84
   3  -8  -1   25.63    1.22
   3  -8  -1   26.84    1.25
   3  -8  -1   27.26    1.25
   3  -8  -1   26.31    1.20
  -3   8   1   25.93    0.84
  -3   8   1   26.66    1.02
  -3   8   1   29.25    1.62
  -3   8   1   26.85    1.29
   2  -8  -1   16.86    0.96
   2  -8  -1   17.75    0.94
   2  -8  -1   18.06    0.97
   2  -8  -1   17.22    0.92
  -2   8   1   18.33    1.30
  -2   8   1   17.09    0.99
  -2   8   1   16.84    0.99
  -2   8   1   16.83    0.86
   1  -8  -1   21.45    0.94
   1  -8  -1   21.02    0.94
   1  -8  -1   22.68    0.98
   1  -8  -1   23.54    0.96
  -1   8   1   22.07    1.01
  -1   8   1   23.96    1.01
  -1   8   1   24.17    1.42
  -1   8   1   23.51    1.01
   0  -8  -1   32.60    1.12
   0  -8  -1   34.83    1.57
   0  -8  -1   33.95    1.13
   0  -8  -1   32.96    1.13
   0  -8  -1   32.45    1.11
   0   8   1   33.54    1.16
   0   8   1   35.62    1.15
   0   8   1   35.09    1.62
   0   8   1   35.64    1.29
  -1  -8  -1    0.07    0.19
  -1  -8  -1   -0.25    0.51
  -1  -8  -1    0.15    0.22
  -1  -8  -1    0.10    0.21
  -1  -8  -1    0.36    0.22
   1   8   1    0.16    0.21
   1   8   1   -0.06    0.21
   1   8   1   -0.54    0.38
  -2  -8  -1    3.12    0.36
  -2  -8  -1    2.08    0.46
  -2  -8  -1    2.14    0.24
  -2  -8  -1    1.87    0.57
   2   8   1    2.51    0.29
   2   8   1    2.21    0.51
   2   8   1    2.09    0.22
  -3  -8  -1    0.87    0.56
  -3  -8  -1    1.44    0.47
  -3  -8  -1    1.14    0.19
  -3  -8  -1    0.80    0.18
   3   8   1    0.95    0.46
  -4  -8  -1   27.11    1.23
  -4  -8  -1   26.62    1.36
  -4  -8  -1   26.87    0.79
  -4  -8  -1   26.77    0.82
   4   8   1   26.58    1.16
  -5  -8  -1   13.86    0.58
  -5  -8  -1   13.61    0.55
  -5  -8  -1   14.21    1.13
  -5  -8  -1   14.25    1.03
   5   8   1   14.06    0.93
   5   8   1   13.63    0.49
   5   8   1   14.23    0.49
  -6  -8  -1   11.18    0.48
  -6  -8  -1   12.02    0.51
  -6  -8  -1   12.10    0.56
  -6  -8  -1   11.39    1.05
  -6  -8  -1   11.35    0.60
   6   8   1   11.99    0.56
   6   8   1   11.05    0.91
   6   8   1   11.91    0.54
  -7  -8  -1    4.80    0.56
  -7  -8  -1    4.78    0.48
  -7  -8  -1    5.03    0.51
  -7  -8  -1    4.67    0.52
   7   8   1    5.06    0.55
   7   8   1    3.77    0.57
   7   8   1    4.37    0.54
  -8  -8  -1    2.68    0.40
  -8  -8  -1    3.04    0.42
  -8  -8  -1    2.52    0.38
  -8  -8  -1    2.84    0.37
   8   8   1    2.25    0.40
   8   8   1    1.86    0.39
   8   8   1    2.43    0.57
  -9  -8  -1    2.97    0.47
  -9  -8  -1    2.76    0.41
  -9  -8  -1    2.65    0.48
  -9  -8  -1    4.07    0.88
  -9  -8  -1    2.99    0.43
   9   8   1    2.71    0.65
 -10  -8  -1   -0.23    0.49
 -10  -8  -1    0.52    0.46
 -10  -8  -1    0.49    0.48
 -10  -8  -1   -0.03    0.43
 -10  -8  -1    1.95    0.90
  10   8   1    0.49    0.62
  10   8   1   -0.43    0.36
  10   8   1    0.29    0.57
   4  -9  -1    0.64    0.60
   4  -9  -1    0.45    0.53
   4  -9  -1    0.69    0.55
   4  -9  -1   -0.46    0.61
  -4   9   1   -0.08    0.64
  -4   9   1    0.00    0.17
  -4   9   1   -0.25    0.59
  -4   9   1    0.02    0.38
  -4   9   1    0.30    0.79
  -4   9   1    0.28    0.19
   3  -9  -1   26.42    1.27
   3  -9  -1   25.51    1.29
   3  -9  -1   23.78    1.32
   3  -9  -1   25.22    1.27
  -3   9   1   27.13    1.77
  -3   9   1   24.96    1.07
  -3   9   1   25.22    1.37
  -3   9   1   24.34    1.36
   2  -9  -1    0.18    0.39
   2  -9  -1   -0.02    0.42
   2  -9  -1   -0.70    0.45
   2  -9  -1    0.25    0.40
  -2   9   1    0.27    0.40
  -2   9   1    0.30    0.75
  -2   9   1   -0.01    0.44
   1  -9  -1   22.11    1.02
   1  -9  -1   21.50    0.96
   1  -9  -1   23.61    1.04
   1  -9  -1   21.41    1.02
  -1   9   1   23.35    1.07
  -1   9   1   22.75    1.55
  -1   9   1   23.31    1.10
  -1   9   1   22.86    1.06
   0  -9  -1    4.06    0.54
   0  -9  -1    4.02    0.41
   0  -9  -1    4.20    0.43
   0  -9  -1    4.45    0.55
   0   9   1    3.72    0.41
   0   9   1    3.69    0.74
   0   9   1    4.63    0.58
   0   9   1    3.18    0.41
  -1  -9  -1    4.16    0.74
  -1  -9  -1    5.02    0.54
  -1  -9  -1    5.37    0.46
  -1  -9  -1    4.58    0.52
  -1  -9  -1    5.22    0.44
   1   9   1    4.77    0.51
   1   9   1    5.96    0.64
   1   9   1    4.84    0.48
  -2  -9  -1    4.64    0.46
  -2  -9  -1    4.04    0.45
  -2  -9  -1    4.78    0.59
  -2  -9  -1    3.86    0.73
   2   9   1    3.54    0.57
   2   9   1    4.58    0.38
   2   9   1    4.14    0.36
  -3  -9  -1   22.68    0.76
  -3  -9  -1   23.51    1.42
  -3  -9  -1   22.56    1.17
  -3  -9  -1   21.77    0.76
   3   9   1   22.40    1.20
  -4  -9  -1   -0.17    0.20
  -4  -9  -1   -0.76    0.65
  -4  -9  -1   -0.25    0.18
  -4  -9  -1    0.26    0.47
  -5  -9  -1   30.32    0.96
  -5  -9  -1   32.49    1.50
  -5  -9  -1   31.81    1.59
  -5  -9  -1   31.67    0.99
   5   9   1   33.20    1.34
  -6  -9  -1    3.22    0.73
  -6  -9  -1    2.21    0.27
  -6  -9  -1    2.00    0.71
  -6  -9  -1    2.11    0.30
   6   9   1    1.67    0.50
  -7  -9  -1    9.39    0.97
  -7  -9  -1    7.50    0.94
  -7  -9  -1    7.64    0.59
  -7  -9  -1    8.20    0.63
  -7  -9  -1    8.08    0.41
  -7  -9  -1    8.09    0.40
   7   9   1    8.48    0.54
   7   9   1    8.56    0.92
  -8  -9  -1    1.53    0.39
  -8  -9  -1    0.99    0.77
  -8  -9  -1    1.53    0.29
  -8  -9  -1    1.95    0.36
  -8  -9  -1    1.48    0.32
   8   9   1    2.21    0.61
   8   9   1    1.78    0.37
  -9  -9  -1    0.69    0.41
  -9  -9  -1    1.04    0.42
  -9  -9  -1    0.64    0.38
  -9  -9  -1    2.27    0.89
  -9  -9  -1    0.95    0.38
   9   9   1   -0.06    0.38
   9   9   1    1.32    0.60
   2 -10  -1   23.61    1.19
   2 -10  -1   23.31    1.26
   2 -10  -1   24.63    1.24
   2 -10  -1   23.99    1.31
  -2  10   1   23.72    1.32
  -2  10   1   26.67    1.88
  -2  10   1   24.52    1.18
   1 -10  -1    1.06    0.41
   1 -10  -1    1.24    0.41
   1 -10  -1    1.25    0.46
   1 -10  -1   -0.02    0.86
   1 -10  -1    0.99    0.45
  -1  10   1    1.60    0.86
  -1  10   1    1.63    0.52
   0 -10  -1    7.35    1.10
   0 -10  -1    5.86    0.70
   0 -10  -1    4.68    0.64
   0 -10  -1    5.78    0.65
   0 -10  -1    6.17    0.73
   0  10   1    7.08    0.94
   0  10   1    5.65    0.71
  -1 -10  -1    0.65    0.73
  -1 -10  -1    1.01    0.33
  -1 -10  -1    0.85    0.26
  -1 -10  -1    0.43    0.33
   1  10   1    1.54    0.54
   1  10   1    0.73    0.30
  -2 -10  -1    6.94    0.57
  -2 -10  -1    6.02    0.89
  -2 -10  -1    6.06    0.57
   2  10   1    8.00    0.96
   2  10   1    7.09    0.44
  -3 -10  -1    0.32    0.26
  -3 -10  -1    0.13    0.73
  -3 -10  -1    0.76    0.56
  -4 -10  -1    3.20    0.79
  -4 -10  -1    1.74    0.27
  -4 -10  -1    1.82    0.27
  -4 -10  -1    1.83    0.64
  -5 -10  -1    5.16    0.87
  -5 -10  -1    6.73    0.48
  -5 -10  -1    4.97    0.74
  -5 -10  -1    7.55    0.51
  -6 -10  -1    0.72    0.74
  -6 -10  -1    1.31    0.27
  -6 -10  -1    1.40    0.30
  -6 -10  -1    0.96    0.69
   6  10   1    2.13    0.57
  -7 -10  -1    0.36    0.30
  -7 -10  -1    0.83    0.77
  -7 -10  -1   -0.30    0.30
  -7 -10  -1   -0.17    0.70
   7  10   1    0.03    0.51
  -8 -10  -1    7.76    1.03
  -8 -10  -1    6.85    1.07
  -8 -10  -1    9.68    0.73
  -8 -10  -1    8.72    0.77
   8  10   1    9.72    1.05
   0 -11  -1    3.77    0.55
   0 -11  -1    4.59    0.58
   0 -11  -1    4.67    0.46
   0  11   1    6.55    0.76
  -1 -11  -1   14.33    0.59
  -1 -11  -1   12.77    0.58
  -1 -11  -1   14.77    1.65
  -1 -11  -1   16.33    0.90
  -1 -11  -1   14.58    0.88
  -2 -11  -1    0.16    0.90
  -2 -11  -1    0.42    0.34
  -2 -11  -1    0.17    0.34
  -3 -11  -1    1.27    0.33
  -3 -11  -1    1.55    0.87
  -4 -11  -1    9.06    0.64
  -4 -11  -1    9.13    0.95
  -4 -11  -1    7.31    1.10
  -4 -11  -1    9.01    0.62
  -5 -11  -1    1.47    0.32
  -5 -11  -1    1.23    0.99
  -5 -11  -1    2.43    0.81
  -5 -11  -1    1.64    0.32
  -6 -11  -1    1.28    0.86
  -6 -11  -1    1.52    0.34
  -6 -11  -1    1.18    0.33
  -6 -11  -1    0.34    0.92
  -7 -11  -1    5.86    0.64
  -7 -11  -1    2.52    0.95
  -7 -11  -1    5.72    0.68
   7  11   1    6.22    0.80
  -7 -10   2    0.41    0.44
  -7 -10   2    1.09    0.49
  -7 -10   2    1.19    0.43
  -7 -10   2    0.94    0.39
   6  10  -2   21.10    1.62
  -6 -10   2   19.29    1.75
  -6 -10   2   17.90    0.88
  -6 -10   2   19.65    1.02
  -6 -10   2   19.19    1.04
  -6 -10   2   18.05    1.59
  -6 -10   2   18.68    0.92
   5  10  -2    0.41    0.42
   5  10  -2   -0.60    0.69
  -5 -10   2    1.14    0.43
  -5 -10   2    0.32    0.37
  -5 -10   2    0.76    0.94
  -5 -10   2    0.29    0.38
   4  10  -2    1.31    0.72
   4  10  -2    1.20    0.44
  -4 -10   2    1.25    0.43
  -4 -10   2    1.32    0.43
  -4 -10   2    0.99    0.35
  -4 -10   2    1.42    0.41
  -4 -10   2    2.15    1.04
   3  10  -2   19.50    1.05
   3  10  -2   25.14    1.51
  -3 -10   2   22.16    1.04
  -3 -10   2   25.98    1.86
  -3 -10   2   22.23    1.11
  -3 -10   2   23.19    0.99
  -3 -10   2   21.83    1.08
   2  10  -2    9.47    1.18
  -2 -10   2    6.98    0.76
  -2 -10   2    5.61    1.00
  -2 -10   2    8.87    0.88
  -2 -10   2    6.11    0.71
  -2 -10   2    6.78    0.84
   1  10  -2   17.21    1.29
   1  10  -2   16.76    1.12
  -1 -10   2   16.08    1.74
  -1 -10   2   17.30    1.01
  -1 -10   2   14.51    0.93
  -1 -10   2   15.94    1.05
   0  10  -2   -0.42    0.59
   0  10  -2    0.65    0.56
   0  10  -2   -0.50    0.40
   0 -10   2    0.81    0.86
   0 -10   2   -0.08    0.46
   0 -10   2    1.14    0.55
   0 -10   2    1.15    0.52
   0 -10   2    0.93    0.45
   8   9  -2    2.11    0.53
   8   9  -2    1.92    0.53
  -8  -9   2    2.51    0.81
  -8  -9   2    2.12    0.42
  -8  -9   2    1.51    0.48
  -8  -9   2    2.60    0.47
  -8  -9   2    1.65    0.46
   7   9  -2    9.32    0.90
   7   9  -2   11.69    1.28
  -7  -9   2    8.64    0.78
  -7  -9   2    8.93    0.71
  -7  -9   2    8.95    1.04
  -7  -9   2    9.66    0.80
  -7  -9   2    9.62    0.87
   6   9  -2    9.34    1.22
   6   9  -2    9.76    0.82
  -6  -9   2   11.15    0.83
  -6  -9   2    7.38    1.01
  -6  -9   2    9.32    1.27
  -6  -9   2   10.76    0.77
  -6  -9   2    9.71    0.71
   5   9  -2   13.30    0.84
   5   9  -2   14.07    1.28
  -5  -9   2   12.98    0.79
  -5  -9   2   14.63    0.86
  -5  -9   2   14.92    0.81
  -5  -9   2   13.90    0.78
  -5  -9   2   12.91    1.28
   4   9  -2    1.52    0.41
   4   9  -2    1.08    0.36
   4   9  -2    1.81    0.65
  -4  -9   2    1.32    0.39
  -4  -9   2    1.50    0.36
  -4  -9   2    1.94    0.37
  -4  -9   2    1.45    0.34
   3   9  -2    4.07    0.47
   3   9  -2    4.07    0.46
   3   9  -2    5.82    0.77
  -3  -9   2    4.93    0.62
  -3  -9   2    4.99    0.48
  -3  -9   2    4.35    0.60
  -3  -9   2    5.65    0.50
   2   9  -2    7.30    0.79
   2   9  -2    6.80    0.72
   2   9  -2    7.30    0.78
  -2  -9   2    6.78    0.68
  -2  -9   2    6.59    0.68
  -2  -9   2    6.55    0.76
  -2  -9   2    7.04    0.72
   1   9  -2    2.38    0.50
   1   9  -2    2.63    0.63
   1   9  -2    2.63    0.48
  -1  -9   2    2.26    0.42
  -1  -9   2    2.56    0.80
  -1  -9   2    2.04    0.42
  -1  -9   2    2.33    0.44
   0   9  -2   14.94    1.14
   0   9  -2   15.44    1.01
   0  -9   2   15.23    0.98
   0  -9   2   12.80    0.97
   0  -9   2   13.02    0.95
   0  -9   2   16.93    1.55
   0  -9   2   16.69    0.97
  -1   9  -2    0.66    0.54
  -1   9  -2    0.78    0.56
  -1   9  -2    1.06    0.52
   1  -9   2    1.42    0.93
   1  -9   2    0.38    0.43
   1  -9   2    1.18    0.48
   1  -9   2    0.97    0.48
   1  -9   2    1.01    0.47
  -2   9  -2    4.52    0.67
  -2   9  -2    3.73    0.68
  -2   9  -2    5.91    1.02
  -2   9  -2    4.16    0.74
   2  -9   2    4.42    0.65
   2  -9   2    4.94    0.66
   2  -9   2    4.32    0.67
   2  -9   2    4.72    0.65
   2  -9   2    4.23    1.08
  -3   9  -2    0.64    0.63
  -3   9  -2    1.20    0.58
  -3   9  -2   -0.21    0.21
  -3   9  -2    0.26    0.96
  -3   9  -2    0.29    0.67
  -3   9  -2    0.13    0.23
   3  -9   2   -0.23    0.59
   3  -9   2    0.45    0.57
   3  -9   2    0.58    0.64
   3  -9   2    1.86    0.64
   9   8  -2   12.32    1.00
   9   8  -2   12.01    1.14
  -9  -8   2   13.36    1.51
  -9  -8   2   13.08    0.99
  -9  -8   2   11.83    1.04
  -9  -8   2   14.32    1.06
  -9  -8   2   12.37    1.02
   8   8  -2    4.88    0.57
   8   8  -2    7.71    0.84
  -8  -8   2    7.39    0.86
  -8  -8   2    5.67    0.73
  -8  -8   2    6.32    0.91
  -8  -8   2    6.45    0.81
  -8  -8   2    7.50    0.83
   7   8  -2    2.26    0.72
   7   8  -2    2.65    0.49
   7   8  -2    2.03    0.44
   7   8  -2    2.43    0.46
  -7  -8   2    1.93    0.42
  -7  -8   2    2.30    0.39
  -7  -8   2    2.43    0.41
  -7  -8   2    2.74    0.45
   6   8  -2    0.14    0.60
   6   8  -2    0.49    0.36
   6   8  -2    0.91    0.44
   6   8  -2    0.91    0.39
  -6  -8   2    0.31    0.32
  -6  -8   2    0.08    0.30
  -6  -8   2    0.97    0.36
   5   8  -2    0.77    0.35
   5   8  -2    0.77    0.59
   5   8  -2    0.98    0.36
  -5  -8   2    0.73    0.33
  -5  -8   2    0.95    0.31
  -5  -8   2    0.37    0.34
  -5  -8   2    0.96    0.31
  -5  -8   2    0.24    0.59
   4   8  -2   13.54    0.78
   4   8  -2   14.42    1.12
   4   8  -2   14.70    0.80
  -4  -8   2   15.05    0.75
  -4  -8   2   13.79    1.12
  -4  -8   2   15.59    0.79
  -4  -8   2   14.20    0.75
  -4  -8   2   13.70    0.71
   3   8  -2   -0.14    0.31
   3   8  -2   -0.51    0.49
   3   8  -2   -0.39    0.31
  -3  -8   2    0.04    0.29
  -3  -8   2    0.17    0.28
  -3  -8   2    0.27    0.30
  -3  -8   2   -0.20    0.29
   2   8  -2    5.61    0.64
   2   8  -2    5.24    0.68
   2   8  -2    5.81    0.66
  -2  -8   2    6.50    0.62
  -2  -8   2    6.43    0.63
  -2  -8   2    5.29    0.63
  -2  -8   2    5.71    0.62
   1   8  -2   54.33    1.74
   1   8  -2   52.44    1.73
   1   8  -2   51.01    1.88
  -1  -8   2   53.64    1.71
  -1  -8   2   56.19    1.72
  -1  -8   2   52.67    1.67
  -1  -8   2   53.24    1.69
   0   8  -2   76.82    2.29
   0   8  -2   75.59    2.37
   0   8  -2   75.60    2.30
   0  -8   2   72.28    2.26
   0  -8   2   74.52    2.22
   0  -8   2   75.27    2.27
   0  -8   2   72.88    2.21
  -1   8  -2    6.79    0.86
  -1   8  -2    6.22    0.88
  -1   8  -2    6.54    0.39
   1  -8   2    6.40    0.79
   1  -8   2    7.18    0.85
   1  -8   2    7.70    0.82
   1  -8   2    7.25    0.81
  -2   8  -2    4.11    0.59
  -2   8  -2    2.67    0.58
  -2   8  -2    2.89    0.31
  -2   8  -2    2.81    0.82
  -2   8  -2    3.40    0.77
   2  -8   2    3.02    0.57
   2  -8   2    3.45    0.54
   2  -8   2    4.01    0.80
   2  -8   2    3.23    0.53
   2  -8   2    2.26    0.51
  -3   8  -2    0.31    0.25
  -3   8  -2    0.36    0.63
  -3   8  -2    0.12    0.68
  -3   8  -2    0.52    0.55
  -3   8  -2    0.35    0.30
  -3   8  -2   -0.18    0.47
   3  -8   2   -0.61    0.52
   3  -8   2    0.93    0.53
   3  -8   2   -0.23    0.49
   3  -8   2    0.46    0.52
  -4   8  -2   11.01    1.33
  -4   8  -2   13.19    1.04
  -4   8  -2   12.86    1.50
  -4   8  -2   12.47    0.82
  -4   8  -2   10.84    1.35
   4  -8   2   12.93    1.29
   4  -8   2   12.22    1.33
   4  -8   2   11.92    1.19
   4  -8   2   10.09    1.25
  10   7  -2    1.19    0.63
  10   7  -2    1.63    0.60
  10   7  -2    0.93    0.64
 -10  -7   2    1.09    0.61
 -10  -7   2    0.18    0.53
 -10  -7   2   -0.38    0.50
 -10  -7   2    0.96    0.89
 -10  -7   2    1.58    0.61
   9   7  -2    0.71    0.51
   9   7  -2    0.11    0.50
   9   7  -2   -0.06    0.55
  -9  -7   2   -0.73    0.66
  -9  -7   2   -0.25    0.46
  -9  -7   2   -0.53    0.43
  -9  -7   2    0.15    0.44
  -9  -7   2    0.00    0.46
   8   7  -2    4.06    0.54
   8   7  -2    3.76    0.54
  -8  -7   2    4.26    0.54
  -8  -7   2    3.70    0.48
  -8  -7   2    3.65    0.51
  -8  -7   2    2.99    0.50
  -8  -7   2    4.42    0.76
   7   7  -2    3.41    0.63
   7   7  -2    2.65    0.46
   7   7  -2    2.86    0.49
   7   7  -2    2.50    0.47
  -7  -7   2    2.78    0.46
  -7  -7   2    1.97    0.41
  -7  -7   2    2.93    0.43
  -7  -7   2    2.97    0.46
   6   7  -2    2.20    0.42
   6   7  -2    3.05    0.41
   6   7  -2    1.97    0.42
   6   7  -2    2.73    0.62
  -6  -7   2    2.55    0.40
  -6  -7   2    2.49    0.38
  -6  -7   2    1.91    0.35
   5   7  -2    3.32    0.64
   5   7  -2    3.11    0.44
   5   7  -2    2.32    0.40
   5   7  -2    2.56    0.41
  -5  -7   2    1.90    0.50
  -5  -7   2    2.41    0.35
  -5  -7   2    3.66    0.39
  -5  -7   2    2.17    0.33
  -5  -7   2    2.09    0.35
   4   7  -2    0.57    0.31
   4   7  -2    0.53    0.32
   4   7  -2    0.85    0.51
  -4  -7   2    0.31    0.45
  -4  -7   2    0.62    0.30
  -4  -7   2    0.94    0.30
  -4  -7   2    1.15    0.56
  -4  -7   2    1.22    0.28
  -4  -7   2    0.57    0.29
   3   7  -2    6.20    0.82
   3   7  -2    7.24    0.61
   3   7  -2    6.98    0.61
  -3  -7   2    5.81    0.56
  -3  -7   2    6.20    0.56
  -3  -7   2    6.89    0.58
  -3  -7   2    6.42    0.76
  -3  -7   2    6.48    0.53
   2   7  -2    2.05    0.36
   2   7  -2    1.89    0.51
   2   7  -2    1.52    0.33
  -2  -7   2    1.40    0.31
  -2  -7   2    1.15    0.31
  -2  -7   2    1.23    0.62
  -2  -7   2    1.77    0.33
  -2  -7   2    1.38    0.31
   1   7  -2  115.30    3.22
   1   7  -2  118.95    3.23
   1   7  -2  122.54    3.35
  -1  -7   2  116.96    3.50
  -1  -7   2  118.75    3.17
  -1  -7   2  113.31    3.21
  -1  -7   2  117.11    3.18
  -1  -7   2  118.68    3.21
   0   7  -2    6.90    0.74
   0   7  -2    7.97    0.77
   0   7  -2    6.20    0.35
   0   7  -2    6.12    0.35
   0   7  -2    6.14    0.73
   0  -7   2    6.06    0.68
   0  -7   2    5.67    0.65
   0  -7   2    7.15    0.80
   0  -7   2    5.42    0.70
   0  -7   2    5.39    0.64
  -1   7  -2    3.09    0.49
  -1   7  -2    3.44    0.51
  -1   7  -2    4.01    0.51
  -1   7  -2    3.37    0.29
  -1   7  -2    3.23    0.69
  -1   7  -2    3.23    0.28
   1  -7   2    3.06    0.43
   1  -7   2    3.40    0.50
   1  -7   2    3.97    0.49
   1  -7   2    2.92    0.43
   1  -7   2    3.38    0.66
  -2   7  -2   51.87    1.82
  -2   7  -2   53.35    1.82
  -2   7  -2   50.00    1.50
  -2   7  -2   48.60    2.01
  -2   7  -2   50.75    1.50
  -2   7  -2   49.46    1.70
   2  -7   2   51.60    1.80
   2  -7   2   50.40    1.71
   2  -7   2   51.35    1.73
   2  -7   2   50.52    1.77
   2  -7   2   54.43    2.06
  -3   7  -2   14.11    0.95
  -3   7  -2   14.35    0.77
  -3   7  -2   14.79    1.13
  -3   7  -2   14.73    0.78
  -3   7  -2   13.78    1.27
   3  -7   2   15.14    1.08
   3  -7   2   16.04    1.05
   3  -7   2   14.77    1.09
   3  -7   2   15.02    1.05
  -4   7  -2    5.85    0.87
  -4   7  -2    6.29    0.80
  -4   7  -2    4.18    0.48
  -4   7  -2    5.78    0.75
  -4   7  -2    6.48    0.72
  -4   7  -2    4.57    0.73
   4  -7   2    4.79    0.67
   4  -7   2    5.84    0.65
   4  -7   2    5.55    0.67
   4  -7   2    5.60    0.71
  -5   7  -2    0.58    0.44
  -5   7  -2    0.37    0.65
  -5   7  -2   -0.69    0.66
  -5   7  -2    0.81    0.47
  -5   7  -2    0.01    0.71
  -5   7  -2    0.23    0.44
   5  -7   2   -0.64    0.60
   5  -7   2   -0.06    0.64
   5  -7   2    0.17    0.60
   5  -7   2    0.01    0.63
  10   6  -2    0.63    0.61
  10   6  -2    0.96    0.35
  10   6  -2    1.05    0.53
  10   6  -2    1.68    0.66
  10   6  -2    0.08    0.30
 -10  -6   2    0.30    0.65
 -10  -6   2    1.17    0.55
 -10  -6   2    1.15    0.49
 -10  -6   2    1.99    0.58
 -10  -6   2    1.34    0.60
   9   6  -2    3.15    0.67
   9   6  -2    3.99    0.62
   9   6  -2    4.85    0.54
   9   6  -2    4.93    0.60
  -9  -6   2    3.54    0.73
  -9  -6   2    3.69    0.52
  -9  -6   2    4.33    0.61
  -9  -6   2    4.98    0.63
  -9  -6   2    4.57    0.57
   8   6  -2   62.72    1.73
   8   6  -2   62.13    2.06
   8   6  -2   59.95    2.03
   8   6  -2   60.32    1.71
   8   6  -2   61.15    1.95
  -8  -6   2   64.06    1.95
  -8  -6   2   62.38    1.98
  -8  -6   2   60.19    2.03
  -8  -6   2   63.68    2.03
   7   6  -2    1.22    0.24
   7   6  -2    1.54    0.42
   7   6  -2    0.74    0.45
   7   6  -2    1.17    0.43
  -7  -6   2    1.61    0.42
  -7  -6   2    1.43    0.41
  -7  -6   2    1.38    0.43
  -7  -6   2    1.86    0.56
  -7  -6   2    1.31    0.37
   6   6  -2  192.35    4.92
   6   6  -2  187.61    4.74
   6   6  -2  172.50    4.99
   6   6  -2  194.23    5.02
   6   6  -2  195.43    5.22
   6   6  -2  190.51    4.75
  -6  -6   2  187.06    4.93
  -6  -6   2  193.68    5.00
  -6  -6   2  195.40    5.18
  -6  -6   2  190.03    4.97
   5   6  -2   39.85    1.33
   5   6  -2   40.70    1.35
   5   6  -2   40.48    1.55
   5   6  -2   39.91    1.25
  -5  -6   2   39.31    1.25
  -5  -6   2   40.37    1.52
  -5  -6   2   38.24    1.29
  -5  -6   2   38.58    1.30
  -5  -6   2   40.15    1.33
   4   6  -2   14.91    0.75
   4   6  -2   14.70    0.95
   4   6  -2   14.22    0.74
   4   6  -2   15.73    0.70
  -4  -6   2   14.62    0.91
  -4  -6   2   14.97    0.65
  -4  -6   2   14.84    0.70
  -4  -6   2   13.96    0.69
  -4  -6   2   15.00    0.71
   3   6  -2   26.71    0.96
   3   6  -2   25.68    0.96
   3   6  -2   25.20    1.14
  -3  -6   2   26.80    1.26
  -3  -6   2   26.83    1.12
  -3  -6   2   25.19    0.94
  -3  -6   2   26.43    0.92
  -3  -6   2   25.98    0.88
  -3  -6   2   26.96    0.94
   2   6  -2  149.13    4.14
   2   6  -2  156.53    4.02
   2   6  -2  151.44    4.01
  -2  -6   2  154.12    4.26
  -2  -6   2  151.03    4.00
  -2  -6   2  153.87    4.01
  -2  -6   2  156.02    3.98
  -2  -6   2  150.13    3.95
   1   6  -2    0.03    0.33
   1   6  -2    0.07    0.29
   1   6  -2   -0.15    0.28
   1   6  -2   -0.08    0.14
   1   6  -2   -0.13    0.13
  -1  -6   2   -0.34    0.25
  -1  -6   2   -0.12    0.26
  -1  -6   2   -0.43    0.26
  -1  -6   2   -0.12    0.43
  -1  -6   2   -0.45    0.26
   0   6  -2  117.60    3.05
   0   6  -2  120.87    3.26
   0   6  -2  118.17    3.05
   0   6  -2  120.66    3.27
   0   6  -2  120.13    3.30
   0  -6   2  118.50    3.26
   0  -6   2  119.89    3.19
   0  -6   2  122.88    3.46
   0  -6   2  115.77    3.24
   0  -6   2  116.50    3.18
  -1   6  -2    0.09    0.35
  -1   6  -2    0.17    0.45
  -1   6  -2    0.01    0.21
  -1   6  -2    0.31    0.22
  -1   6  -2    0.37    0.38
  -1   6  -2    0.58    0.38
   1  -6   2    0.27    0.46
   1  -6   2    0.09    0.33
   1  -6   2    0.28    0.33
   1  -6   2    0.23    0.30
   1  -6   2    0.30    0.30
  -2   6  -2    4.13    0.50
  -2   6  -2    3.58    0.52
  -2   6  -2    4.40    0.66
  -2   6  -2    4.69    0.65
  -2   6  -2    3.52    0.52
  -2   6  -2    4.35    0.52
   2  -6   2    5.13    0.56
   2  -6   2    5.70    0.72
   2  -6   2    3.59    0.50
   2  -6   2    4.17    0.47
   2  -6   2    5.04    0.50
  -3   6  -2   29.84    1.36
  -3   6  -2   27.58    1.05
  -3   6  -2   28.48    1.05
  -3   6  -2   26.18    1.43
  -3   6  -2   28.82    1.13
  -3   6  -2   28.66    1.33
   3  -6   2   27.47    1.30
   3  -6   2   28.17    1.31
   3  -6   2   29.48    1.21
   3  -6   2   26.94    1.22
  -4   6  -2   13.87    0.85
  -4   6  -2   14.14    1.20
  -4   6  -2   12.95    0.84
  -4   6  -2   14.01    0.87
  -4   6  -2   14.00    1.16
   4  -6   2   12.34    1.00
   4  -6   2   12.75    1.11
   4  -6   2   13.18    1.04
   4  -6   2   12.93    1.08
  -5   6  -2   68.32    2.44
  -5   6  -2   68.30    2.11
  -5   6  -2   64.53    2.13
  -5   6  -2   71.42    2.52
   5  -6   2   69.92    2.40
   5  -6   2   68.74    2.30
   5  -6   2   70.99    2.41
   5  -6   2   66.10    2.30
  -6   6  -2    4.61    0.60
  -6   6  -2    3.87    0.80
  -6   6  -2    4.32    0.82
  -6   6  -2    7.33    1.00
   6  -6   2    4.26    0.75
   6  -6   2    4.93    0.84
   6  -6   2    4.05    0.72
   6  -6   2    4.61    0.71
  -7   6  -2    4.22    0.71
  -7   6  -2    3.53    0.87
  -7   6  -2    3.82    0.67
   7  -6   2    4.53    0.90
   7  -6   2    1.91    0.90
   7  -6   2    2.30    0.68
  11   5  -2    0.72    0.47
  11   5  -2    0.77    0.76
  11   5  -2    0.39    0.75
  11   5  -2    0.04    0.43
 -11  -5   2    0.52    0.67
 -11  -5   2   -0.43    0.62
 -11  -5   2    1.55    0.77
 -11  -5   2    0.40    0.68
 -11  -5   2    1.16    0.62
  10   5  -2    5.56    0.67
  10   5  -2    4.86    0.54
  10   5  -2    5.62    0.76
  10   5  -2    7.06    0.78
  10   5  -2    4.49    0.76
 -10  -5   2    4.60    0.72
 -10  -5   2    4.22    0.59
 -10  -5   2    5.26    0.76
 -10  -5   2    6.08    0.65
 -10  -5   2    5.92    0.82
   9   5  -2   22.76    1.02
   9   5  -2   23.51    0.99
   9   5  -2   23.56    1.15
   9   5  -2   22.49    1.29
  -9  -5   2   23.32    1.18
  -9  -5   2   24.45    1.16
  -9  -5   2   21.26    1.26
  -9  -5   2   24.98    1.29
   8   5  -2   -0.15    0.43
   8   5  -2    0.82    0.48
   8   5  -2    0.27    0.29
   8   5  -2    0.46    0.32
   8   5  -2    0.14    0.46
  -8  -5   2    0.09    0.34
  -8  -5   2    0.75    0.43
  -8  -5   2    0.12    0.49
  -8  -5   2    0.58    0.43
  -8  -5   2    0.09    0.40
   7   5  -2    3.07    0.47
   7   5  -2    4.50    0.48
   7   5  -2    4.57    0.49
   7   5  -2    3.54    0.50
   7   5  -2    3.86    0.36
  -7  -5   2    5.53    0.68
  -7  -5   2    3.49    0.41
  -7  -5   2    3.86    0.55
  -7  -5   2    4.24    0.52
  -7  -5   2    4.34    0.51
   6   5  -2  105.89    2.79
   6   5  -2  109.43    3.00
   6   5  -2  106.60    3.12
   6   5  -2  105.72    2.99
   6   5  -2  106.23    2.81
   6   5  -2  109.02    2.90
  -6  -5   2  110.99    2.99
  -6  -5   2  108.11    2.98
  -6  -5   2   97.91    3.06
  -6  -5   2  108.91    2.91
  -6  -5   2  110.02    2.94
   5   5  -2    0.02    0.40
   5   5  -2    0.28    0.17
   5   5  -2    0.16    0.29
   5   5  -2    0.50    0.25
   5   5  -2    0.24    0.29
  -5  -5   2   -0.10    0.29
  -5  -5   2    0.17    0.22
  -5  -5   2    0.26    0.25
  -5  -5   2    0.39    0.27
  -5  -5   2    0.51    0.39
   4   5  -2   19.29    0.78
   4   5  -2   18.86    0.59
   4   5  -2   18.47    0.69
   4   5  -2   18.90    0.58
   4   5  -2   18.38    0.94
   4   5  -2   18.83    0.79
  -4  -5   2   18.41    0.74
  -4  -5   2   18.79    0.70
  -4  -5   2   18.53    0.92
  -4  -5   2   18.22    0.76
  -4  -5   2   18.70    0.77
   3   5  -2    5.21    0.48
   3   5  -2    4.89    0.61
   3   5  -2    4.95    0.48
   3   5  -2    4.68    0.27
   3   5  -2    4.87    0.27
  -3  -5   2    4.66    0.39
  -3  -5   2    4.14    0.45
  -3  -5   2    4.70    0.44
  -3  -5   2    4.90    0.60
  -3  -5   2    4.80    0.45
   2   5  -2    9.03    0.55
   2   5  -2    9.10    0.36
   2   5  -2    9.52    0.67
   2   5  -2    9.18    0.36
   2   5  -2    9.03    0.55
  -2  -5   2    9.23    0.51
  -2  -5   2    8.92    0.54
  -2  -5   2    9.31    0.54
  -2  -5   2    8.45    0.77
  -2  -5   2    9.58    0.47
   1   5  -2    0.06    0.32
   1   5  -2    0.14    0.14
   1   5  -2    0.53    0.16
   1   5  -2    0.01    0.23
   1   5  -2    0.16    0.23
  -1  -5   2    0.15    0.38
  -1  -5   2    0.08    0.19
  -1  -5   2   -0.05    0.23
  -1  -5   2   -0.02    0.22
  -1  -5   2   -0.21    0.20
   0   5  -2    8.60    0.63
   0   5  -2    8.25    0.44
   0   5  -2    8.45    0.43
   0   5  -2    8.67    0.60
   0   5  -2    8.63    0.61
   0  -5   2    8.69    0.60
   0  -5   2    8.88    0.55
   0  -5   2    8.98    0.77
   0  -5   2    9.11    0.58
   0  -5   2    8.80    0.54
  -1   5  -2   18.99    0.71
  -1   5  -2   17.73    0.87
  -1   5  -2   18.77    0.84
  -1   5  -2   19.14    0.70
  -1   5  -2   19.11    1.00
  -1   5  -2   19.34    0.88
   1  -5   2   19.73    1.01
   1  -5   2   19.75    0.79
   1  -5   2   18.59    0.86
   1  -5   2   18.56    0.86
   1  -5   2   19.14    0.81
  -2   5  -2    3.00    0.46
  -2   5  -2    2.44    0.30
  -2   5  -2    2.11    0.29
  -2   5  -2    1.65    0.39
  -2   5  -2    2.65    0.38
  -2   5  -2    2.87    0.50
   2  -5   2    2.20    0.34
   2  -5   2    2.40    0.49
   2  -5   2    2.97    0.44
   2  -5   2    1.71    0.38
   2  -5   2    2.19    0.35
  -3   5  -2   37.58    1.46
  -3   5  -2   39.20    1.53
  -3   5  -2   37.34    1.26
  -3   5  -2   38.72    1.44
  -3   5  -2   36.96    1.24
   3  -5   2   37.29    1.36
   3  -5   2   37.95    1.34
   3  -5   2   37.33    1.45
   3  -5   2   36.98    1.43
  -4   5  -2  108.78    3.19
  -4   5  -2   95.87    3.42
  -4   5  -2  107.80    2.96
  -4   5  -2  106.24    3.23
  -4   5  -2  107.49    2.99
   4  -5   2  109.60    3.18
   4  -5   2  108.92    3.18
   4  -5   2  108.99    3.07
   4  -5   2  109.75    3.08
  -5   5  -2   16.59    1.25
  -5   5  -2   17.73    1.25
  -5   5  -2   16.37    0.96
  -5   5  -2   19.08    1.05
   5  -5   2   19.34    1.24
   5  -5   2   16.00    1.19
   5  -5   2   17.54    1.14
   5  -5   2   17.49    1.13
  -6   5  -2   41.88    1.60
  -6   5  -2   41.51    1.88
  -6   5  -2   41.87    1.87
   6  -5   2   39.09    1.73
   6  -5   2   40.54    1.83
   6  -5   2   41.59    1.70
   6  -5   2   42.14    1.83
  -7   5  -2    2.95    0.62
  -7   5  -2    4.43    0.84
  -7   5  -2    1.97    0.85
  -7   5  -2    4.72    0.64
  -7   5  -2    2.47    0.78
   7  -5   2    3.77    0.89
   7  -5   2    5.64    0.87
   7  -5   2    3.27    0.81
   7  -5   2    2.57    0.65
  11   4  -2    6.48    0.92
  11   4  -2   11.11    1.06
  11   4  -2    8.39    1.02
 -11  -4   2   10.31    1.23
 -11  -4   2   10.81    1.39
 -11  -4   2   10.43    1.23
 -11  -4   2    9.57    0.90
 -11  -4   2    7.07    0.88
  10   4  -2   11.26    1.22
  10   4  -2    7.73    0.92
  10   4  -2    7.63    0.88
  10   4  -2    9.74    1.30
 -10  -4   2    6.77    0.69
 -10  -4   2    8.72    1.15
 -10  -4   2    9.60    1.06
 -10  -4   2    9.16    1.19
   9   4  -2    8.44    0.80
   9   4  -2    8.22    1.06
   9   4  -2    8.35    0.81
  -9  -4   2    6.95    0.74
  -9  -4   2    6.00    0.69
  -9  -4   2    7.85    1.01
  -9  -4   2    9.00    0.90
  -9  -4   2    7.34    0.66
   8   4  -2    7.95    0.91
   8   4  -2    8.80    0.68
   8   4  -2    6.59    0.70
   8   4  -2    8.07    0.92
  -8  -4   2    6.47    0.87
  -8  -4   2    7.33    0.89
  -8  -4   2    7.95    0.82
  -8  -4   2    7.02    0.88
  -8  -4   2    7.45    0.76
   7   4  -2   11.57    0.67
   7   4  -2   12.09    0.86
   7   4  -2   11.56    0.87
   7   4  -2   12.27    0.70
  -7  -4   2   11.87    0.85
  -7  -4   2   12.07    0.79
  -7  -4   2   12.74    0.85
  -7  -4   2   11.89    0.74
  -7  -4   2   11.73    0.89
   6   4  -2    8.28    0.54
   6   4  -2    8.09    0.51
   6   4  -2    7.50    0.69
   6   4  -2    8.28    0.60
   6   4  -2    8.83    0.74
   6   4  -2    9.12    0.71
  -6  -4   2    8.13    0.66
  -6  -4   2    8.80    0.66
  -6  -4   2    7.90    0.72
  -6  -4   2    7.89    0.61
  -6  -4   2    8.02    0.59
   5   4  -2   12.34    0.78
   5   4  -2   12.45    0.55
   5   4  -2   12.93    0.69
   5   4  -2   13.08    0.60
   5   4  -2   12.58    0.56
   5   4  -2   12.65    0.70
  -5  -4   2   12.48    0.61
  -5  -4   2   12.36    0.65
  -5  -4   2   13.51    0.78
  -5  -4   2   13.14    0.69
   4   4  -2   23.92    0.75
   4   4  -2   23.69    0.98
   4   4  -2   23.88    0.76
   4   4  -2   22.59    0.88
   4   4  -2   22.53    0.87
   4   4  -2   24.16    0.77
  -4  -4   2   24.42    0.87
  -4  -4   2   24.35    0.97
  -4  -4   2   22.83    0.87
  -4  -4   2   23.60    0.80
  -4  -4   2   23.79    0.84
   3   4  -2  484.46   12.33
   3   4  -2  498.35   12.23
   3   4  -2  497.93   12.24
   3   4  -2  488.97   12.22
   3   4  -2  494.25   12.42
   3   4  -2  495.25   12.33
  -3  -4   2  490.81   12.41
  -3  -4   2  501.25   12.29
  -3  -4   2  497.84   12.33
  -3  -4   2  492.32   12.27
  -3  -4   2  479.72   12.33
   2   4  -2   72.86    1.90
   2   4  -2   74.22    2.09
   2   4  -2   72.64    1.89
   2   4  -2   70.57    2.01
   2   4  -2   72.21    2.01
  -2  -4   2   72.88    1.95
  -2  -4   2   71.38    1.96
  -2  -4   2   74.89    2.09
  -2  -4   2   74.70    2.01
  -2  -4   2   71.92    2.00
   1   4  -2   85.45    2.38
   1   4  -2   84.95    2.21
   1   4  -2   80.55    2.31
   1   4  -2   87.84    2.22
   1   4  -2   87.35    2.33
  -1  -4   2   86.10    2.32
  -1  -4   2   85.53    2.26
  -1  -4   2   85.74    2.45
  -1  -4   2   85.20    2.32
   0   4  -2  395.18    9.87
   0   4  -2  398.85    9.98
   0   4  -2  401.63    9.98
   0   4  -2  387.38    9.86
   0   4  -2  388.01    9.98
   0  -4   2  403.36    9.92
   0  -4   2  389.09    9.96
   0  -4   2  395.95    9.97
   0  -4   2  401.88   10.07
   0  -4   2  398.92    9.92
  -1   4  -2   31.94    1.22
  -1   4  -2   35.13    1.18
  -1   4  -2   34.51    1.04
  -1   4  -2   33.96    1.03
  -1   4  -2   35.93    1.18
   1  -4   2   33.70    1.16
   1  -4   2   34.70    1.17
   1  -4   2   33.58    1.09
   1  -4   2   34.57    1.10
   1  -4   2   32.37    1.23
  -2   4  -2  173.55    4.48
  -2   4  -2  170.41    4.61
  -2   4  -2  176.92    4.62
  -2   4  -2  173.33    4.67
  -2   4  -2  172.84    4.48
   2  -4   2  175.49    4.53
   2  -4   2  174.18    4.66
   2  -4   2  172.35    4.61
   2  -4   2  173.62    4.61
   2  -4   2  176.14    4.54
  -3   4  -2    0.43    0.36
  -3   4  -2    0.93    0.30
  -3   4  -2    0.63    0.36
  -3   4  -2    1.14    0.30
  -3   4  -2    1.02    0.40
   3  -4   2    0.51    0.32
   3  -4   2    1.23    0.40
   3  -4   2    0.17    0.37
   3  -4   2    0.29    0.29
  -4   4  -2   14.66    0.77
  -4   4  -2   14.50    0.97
  -4   4  -2   14.51    0.99
  -4   4  -2   15.06    0.82
  -4   4  -2   11.75    0.91
   4  -4   2   12.96    0.95
   4  -4   2   14.57    0.96
   4  -4   2   13.88    0.85
   4  -4   2   12.55    0.86
  -5   4  -2   49.46    1.84
  -5   4  -2   48.35    1.61
  -5   4  -2   47.92    1.80
  -5   4  -2   48.75    1.64
  -5   4  -2   48.08    1.81
   5  -4   2   50.56    1.71
   5  -4   2   48.32    1.81
   5  -4   2   52.54    1.85
   5  -4   2   43.53    1.68
  -6   4  -2    4.67    0.72
  -6   4  -2    3.39    0.64
  -6   4  -2    1.82    0.57
  -6   4  -2    2.90    0.51
  -6   4  -2    4.20    0.55
   6  -4   2    4.13    0.63
   6  -4   2    3.83    0.70
   6  -4   2    3.55    0.61
   6  -4   2    3.26    0.62
  -7   4  -2   36.63    1.72
  -7   4  -2   36.40    1.56
  -7   4  -2   36.76    1.78
  -7   4  -2   37.17    1.82
   7  -4   2   33.27    1.77
   7  -4   2   36.76    1.80
   7  -4   2   36.62    1.71
   7  -4   2   38.29    1.62
  -8   4  -2    3.09    0.87
  -8   4  -2    1.83    0.60
  -8   4  -2    2.47    0.67
  -8   4  -2    3.00    0.88
  -8   4  -2    1.60    0.75
   8  -4   2    1.99    0.73
   8  -4   2    1.80    0.78
   8  -4   2    3.68    0.79
   8  -4   2    0.85    0.80
  11   3  -2    0.30    0.63
  11   3  -2    0.23    0.76
  11   3  -2   -0.32    0.75
  11   3  -2    0.13    0.54
 -11  -3   2    0.60    0.62
 -11  -3   2    0.19    0.77
 -11  -3   2    0.10    0.64
 -11  -3   2    0.90    0.77
  10   3  -2    1.39    0.54
  10   3  -2    0.44    0.48
  10   3  -2    0.18    0.67
 -10  -3   2    0.51    0.62
 -10  -3   2    0.74    0.54
 -10  -3   2    0.55    0.55
 -10  -3   2    0.81    0.48
 -10  -3   2    0.14    0.58
   9   3  -2   15.31    0.98
   9   3  -2   16.43    1.23
   9   3  -2   16.49    1.04
  -9  -3   2   15.58    1.07
  -9  -3   2   15.07    1.20
  -9  -3   2   15.72    1.03
  -9  -3   2   15.33    1.06
  -9  -3   2   15.93    1.20
   8   3  -2    2.87    0.55
   8   3  -2    3.21    0.45
   8   3  -2    3.63    0.46
   8   3  -2    3.35    0.58
  -8  -3   2    2.80    0.44
  -8  -3   2    2.86    0.51
  -8  -3   2    5.00    0.61
  -8  -3   2    2.79    0.48
  -8  -3   2    4.06    0.61
   7   3  -2  117.11    3.49
   7   3  -2  125.42    3.37
   7   3  -2  123.57    3.35
   7   3  -2  132.78    3.54
  -7  -3   2  129.17    3.52
  -7  -3   2  124.62    3.39
  -7  -3   2  120.15    3.42
  -7  -3   2  124.89    3.47
  -7  -3   2  125.76    3.52
   6   3  -2   30.02    1.03
   6   3  -2   29.62    1.18
   6   3  -2   30.87    1.18
   6   3  -2   29.07    1.04
  -6  -3   2   30.85    1.11
  -6  -3   2   30.85    1.17
  -6  -3   2   31.15    1.16
  -6  -3   2   31.97    1.16
  -6  -3   2   29.94    1.06
   5   3  -2    1.47    0.24
   5   3  -2    1.29    0.32
   5   3  -2    1.72    0.37
   5   3  -2    1.56    0.33
   5   3  -2    1.72    0.26
  -5  -3   2    1.53    0.31
  -5  -3   2    1.43    0.27
  -5  -3   2    1.25    0.25
  -5  -3   2    1.28    0.31
   4   3  -2   49.85    1.35
   4   3  -2   47.72    1.35
   4   3  -2   46.65    1.45
   4   3  -2   48.57    1.45
   4   3  -2   47.63    1.36
   4   3  -2   48.38    1.50
  -4  -3   2   48.76    1.38
  -4  -3   2   48.33    1.41
  -4  -3   2   48.87    1.49
  -4  -3   2   48.64    1.45
  -4  -3   2   46.50    1.45
   3   3  -2    8.36    0.52
   3   3  -2    8.61    0.50
   3   3  -2    9.23    0.58
   3   3  -2    8.62    0.41
   3   3  -2    9.33    0.38
   3   3  -2    9.69    0.44
  -3  -3   2    9.08    0.57
  -3  -3   2    9.59    0.51
  -3  -3   2    9.44    0.48
  -3  -3   2    9.22    0.51
  -3  -3   2    9.04    0.44
   2   3  -2   24.69    0.72
   2   3  -2   24.74    0.81
   2   3  -2   23.40    0.85
   2   3  -2   24.85    0.74
   2   3  -2   24.58    0.81
  -2  -3   2   23.37    0.80
  -2  -3   2   24.06    0.77
  -2  -3   2   23.86    0.80
  -2  -3   2   24.24    0.75
  -2  -3   2   24.03    0.86
   1   3  -2   14.04    0.49
   1   3  -2   13.69    0.61
   1   3  -2   13.96    0.48
   1   3  -2   13.14    0.57
   1   3  -2   13.48    0.57
  -1  -3   2   13.80    0.53
  -1  -3   2   13.16    0.64
  -1  -3   2   13.50    0.50
  -1  -3   2   14.01    0.57
  -1  -3   2   14.12    0.56
   0   3  -2  157.97    4.16
   0   3  -2  160.67    4.09
   0   3  -2  163.57    4.16
   0   3  -2  159.59    4.08
   0   3  -2  158.86    4.16
   0  -3   2  161.63    4.22
   0  -3   2  163.03    4.10
   0  -3   2  163.49    4.16
   0  -3   2  160.00    4.16
   0  -3   2  160.97    4.11
  -1   3  -2  185.21    4.68
  -1   3  -2  178.05    4.59
  -1   3  -2  176.77    4.71
  -1   3  -2  181.77    4.68
  -1   3  -2  178.24    4.59
   1  -3   2  179.66    4.62
   1  -3   2  179.32    4.68
   1  -3   2  182.60    4.62
   1  -3   2  180.06    4.72
   1  -3   2  183.96    4.68
  -2   3  -2   36.10    1.21
  -2   3  -2   34.74    1.09
  -2   3  -2   34.76    1.09
  -2   3  -2   35.90    1.20
  -2   3  -2   34.80    1.21
   2  -3   2   32.98    1.18
   2  -3   2   34.25    1.20
   2  -3   2   34.50    1.18
   2  -3   2   35.23    1.12
   2  -3   2   35.61    1.12
  -3   3  -2   66.27    1.97
  -3   3  -2   64.02    1.84
  -3   3  -2   64.37    1.95
  -3   3  -2   65.82    1.85
  -3   3  -2   63.14    1.95
   3  -3   2   63.80    1.87
   3  -3   2   63.32    1.95
   3  -3   2   65.16    1.87
   3  -3   2   63.41    1.95
  -4   3  -2   15.66    0.89
  -4   3  -2   16.34    0.91
  -4   3  -2   15.58    0.94
  -4   3  -2   16.48    0.79
  -4   3  -2   16.39    0.79
   4  -3   2   15.10    0.91
   4  -3   2   16.54    0.83
   4  -3   2   15.58    0.93
   4  -3   2   16.33    0.83
  -5   3  -2   12.49    0.99
  -5   3  -2   12.32    0.79
  -5   3  -2   12.07    0.82
  -5   3  -2   12.11    0.89
  -5   3  -2   12.14    0.97
   5  -3   2   11.66    0.94
   5  -3   2   12.27    0.95
   5  -3   2   13.12    0.87
   5  -3   2   11.97    0.87
  -6   3  -2    9.18    0.92
  -6   3  -2    8.95    1.05
  -6   3  -2    8.88    1.02
  -6   3  -2    7.38    0.85
  -6   3  -2    7.96    0.80
   6  -3   2    7.94    0.90
   6  -3   2    8.34    0.97
   6  -3   2    7.00    0.87
  -7   3  -2   -0.70    0.58
  -7   3  -2    0.78    0.48
  -7   3  -2   -0.27    0.53
  -7   3  -2   -0.37    0.52
  -7   3  -2   -0.03    0.42
   7  -3   2   -0.42    0.54
   7  -3   2   -1.09    0.54
   7  -3   2   -0.35    0.45
  -8   3  -2    7.22    0.94
  -8   3  -2    5.42    0.79
  -8   3  -2    7.53    1.09
  -8   3  -2    7.24    0.72
  -8   3  -2    6.82    0.69
   8  -3   2    5.36    0.86
   8  -3   2    6.18    0.81
   8  -3   2    7.47    0.79
  -9   3  -2    0.81    0.75
  -9   3  -2    0.04    0.80
  -9   3  -2    0.71    0.90
  -9   3  -2    0.12    0.60
  -9   3  -2   -0.31    0.59
   9  -3   2   -0.19    0.70
   9  -3   2    1.63    0.81
   9  -3   2   -0.23    0.81
   9  -3   2    1.99    0.75
  11   2  -2    0.90    0.78
  11   2  -2    2.46    0.88
  11   2  -2    2.29    0.65
  11   2  -2    1.38    0.71
 -11  -2   2    1.24    0.64
 -11  -2   2    1.26    0.80
 -11  -2   2    1.26    0.78
 -11  -2   2    3.07    0.64
 -11  -2   2    1.27    0.70
  10   2  -2    6.90    0.94
  10   2  -2    6.56    0.83
  10   2  -2    6.98    0.71
 -10  -2   2    5.35    0.67
 -10  -2   2    9.03    1.22
 -10  -2   2    7.84    0.96
 -10  -2   2    6.71    0.75
 -10  -2   2    6.33    0.82
   9   2  -2    0.36    0.60
   9   2  -2   -0.30    0.44
   9   2  -2    0.67    0.51
  -9  -2   2   -0.37    0.44
  -9  -2   2    0.05    0.45
  -9  -2   2   -1.38    0.53
  -9  -2   2   -0.28    0.44
  -9  -2   2    0.22    0.57
   8   2  -2    0.51    0.47
   8   2  -2    0.10    0.40
   8   2  -2    0.47    0.48
   8   2  -2    0.44    0.41
  -8  -2   2    0.58    0.37
  -8  -2   2    0.43    0.43
  -8  -2   2    0.06    0.49
  -8  -2   2    0.21    0.40
  -8  -2   2   -0.08    0.46
   7   2  -2    0.98    0.35
   7   2  -2    1.04    0.42
   7   2  -2    1.27    0.33
   7   2  -2    0.75    0.40
  -7  -2   2    1.64    0.44
  -7  -2   2    1.15    0.35
  -7  -2   2    0.93    0.37
  -7  -2   2    1.51    0.46
  -7  -2   2    0.53    0.32
   6   2  -2    5.71    0.59
   6   2  -2    4.60    0.49
   6   2  -2    4.90    0.55
   6   2  -2    4.59    0.49
  -6  -2   2    4.95    0.57
  -6  -2   2    5.72    0.59
  -6  -2   2    5.43    0.52
  -6  -2   2    4.94    0.61
  -6  -2   2    5.66    0.67
   5   2  -2   42.95    1.27
   5   2  -2   41.89    1.38
   5   2  -2   40.76    1.29
   5   2  -2   42.24    1.38
   5   2  -2   42.18    1.34
  -5  -2   2   41.34    1.28
  -5  -2   2   42.03    1.32
  -5  -2   2   42.30    1.38
  -5  -2   2   42.49    1.32
  -5  -2   2   40.42    1.37
   4   2  -2  150.26    3.80
   4   2  -2  145.49    3.88
   4   2  -2  141.54    3.88
   4   2  -2  147.77    3.82
   4   2  -2  148.56    3.90
  -4  -2   2  150.03    3.87
  -4  -2   2  148.62    3.82
  -4  -2   2  147.90    3.89
  -4  -2   2  151.13    3.85
  -4  -2   2  147.96    3.89
   3   2  -2    0.55    0.17
   3   2  -2    0.46    0.20
   3   2  -2    0.52    0.22
   3   2  -2    0.40    0.21
   3   2  -2    0.74    0.16
  -3  -2   2    0.37    0.16
  -3  -2   2    0.63    0.21
  -3  -2   2    0.40    0.17
  -3  -2   2    1.17    0.22
  -3  -2   2    0.66    0.23
   2   2  -2  341.83    8.63
   2   2  -2  342.80    8.68
   2   2  -2  350.18    8.62
   2   2  -2  340.79    8.69
   2   2  -2  352.36    8.56
   2   2  -2  348.64    8.68
  -2  -2   2  349.20    8.68
  -2  -2   2  349.70    8.65
  -2  -2   2  334.53    8.63
  -2  -2   2  341.22    8.69
  -2  -2   2  358.91    8.69
   1   2  -2  185.70    4.77
   1   2  -2  188.17    4.71
   1   2  -2  189.96    4.76
   1   2  -2  188.09    4.76
  -1  -2   2  187.66    4.73
  -1  -2   2  183.20    4.76
  -1  -2   2  189.22    4.71
  -1  -2   2  188.17    4.66
  -1  -2   2  186.48    4.76
   0   2  -2   23.48    0.71
   0   2  -2   24.85    0.78
   0   2  -2   23.42    0.78
   0   2  -2   23.58    0.72
   0  -2   2   23.29    0.79
   0  -2   2   24.39    0.74
   0  -2   2   23.78    0.78
   0  -2   2   24.17    0.72
   0  -2   2   22.54    0.76
  -1   2  -2   25.61    0.79
  -1   2  -2   25.96    0.78
  -1   2  -2   24.51    0.85
  -1   2  -2   24.43    0.85
  -1   2  -2   24.11    0.84
   1  -2   2   24.47    0.80
   1  -2   2   25.09    0.85
   1  -2   2   26.11    0.80
   1  -2   2   24.43    0.84
   1  -2   2   25.15    0.84
  -2   2  -2   42.18    1.31
  -2   2  -2   41.22    1.22
  -2   2  -2   42.54    1.31
  -2   2  -2   41.71    1.28
  -2   2  -2   41.56    1.22
   2  -2   2   41.51    1.24
   2  -2   2   38.10    1.29
   2  -2   2   40.01    1.27
   2  -2   2   44.51    1.32
   2  -2   2   41.89    1.23
  -3   2  -2  142.78    3.83
  -3   2  -2  145.88    3.74
  -3   2  -2  140.08    3.80
  -3   2  -2  144.84    3.84
  -3   2  -2  145.48    3.75
   3  -2   2  143.31    3.75
   3  -2   2  140.61    3.83
   3  -2   2  141.84    3.84
   3  -2   2  144.55    3.76
  -4   2  -2  154.62    4.06
  -4   2  -2  151.81    3.93
  -4   2  -2  138.88    4.02
  -4   2  -2  150.67    3.94
  -4   2  -2  146.58    4.01
   4  -2   2  150.75    3.95
   4  -2   2  152.11    3.96
   4  -2   2  150.15    4.04
   4  -2   2  148.17    4.04
  -5   2  -2    0.02    0.38
  -5   2  -2   -0.01    0.35
  -5   2  -2    0.29    0.31
  -5   2  -2    0.20    0.32
  -5   2  -2    0.26    0.37
   5  -2   2    0.33    0.30
   5  -2   2    0.26    0.37
   5  -2   2    0.00    0.37
   5  -2   2    0.13    0.33
  -6   2  -2  122.48    3.52
  -6   2  -2  118.88    3.42
  -6   2  -2  123.17    3.59
  -6   2  -2  127.75    3.58
  -6   2  -2  124.51    3.40
   6  -2   2  122.38    3.45
   6  -2   2  121.48    3.56
   6  -2   2  127.01    3.58
   6  -2   2  120.62    3.43
  -7   2  -2   -0.66    0.53
  -7   2  -2   -0.42    0.44
  -7   2  -2    0.16    0.49
  -7   2  -2   -0.30    0.50
  -7   2  -2    0.14    0.46
   7  -2   2    0.05    0.51
   7  -2   2   -0.46    0.55
   7  -2   2   -0.28    0.45
  -8   2  -2   11.12    1.14
  -8   2  -2   12.67    1.49
  -8   2  -2   10.54    1.26
  -8   2  -2    9.16    1.04
  -8   2  -2   12.34    1.26
   8  -2   2   10.71    1.08
   8  -2   2   11.93    1.25
   8  -2   2   10.41    1.27
  -9   2  -2   14.55    1.35
  -9   2  -2   14.19    1.53
  -9   2  -2   15.35    1.30
  -9   2  -2   14.51    1.54
  -9   2  -2   13.73    1.25
   9  -2   2   14.95    1.41
   9  -2   2   13.07    1.32
   9  -2   2   16.42    1.49
   9  -2   2   14.68    1.54
  11   1  -2    0.52    0.65
  11   1  -2    1.34    0.89
  11   1  -2    2.95    0.82
  11   1  -2    1.68    0.83
 -11  -1   2    1.87    0.64
 -11  -1   2    2.69    0.87
 -11  -1   2    1.47    0.69
 -11  -1   2    1.07    0.87
  10   1  -2    0.62    0.69
  10   1  -2   -0.03    0.59
  10   1  -2   -0.59    0.51
  10   1  -2   -1.32    0.65
 -10  -1   2   -1.17    0.67
 -10  -1   2    0.40    0.58
 -10  -1   2   -0.42    0.54
 -10  -1   2   -0.38    0.66
 -10  -1   2   -0.53    0.46
   9   1  -2   13.00    1.21
   9   1  -2   11.41    1.01
   9   1  -2   12.05    1.06
   9   1  -2   13.99    1.26
  -9  -1   2   11.85    0.88
  -9  -1   2   10.58    1.17
  -9  -1   2   14.10    1.08
  -9  -1   2   13.64    1.20
   8   1  -2    0.83    0.55
   8   1  -2    1.42    0.44
   8   1  -2    1.14    0.41
   8   1  -2    1.51    0.57
  -8  -1   2    0.92    0.51
  -8  -1   2    1.22    0.40
  -8  -1   2    1.63    0.55
  -8  -1   2    0.84    0.44
  -8  -1   2    1.11    0.41
   7   1  -2    3.78    0.45
   7   1  -2    4.32    0.58
   7   1  -2    4.31    0.47
   7   1  -2    3.62    0.53
  -7  -1   2    4.16    0.47
  -7  -1   2    4.11    0.45
  -7  -1   2    4.53    0.58
  -7  -1   2    4.60    0.58
  -7  -1   2    4.60    0.56
   6   1  -2  187.04    4.83
   6   1  -2  178.32    4.91
   6   1  -2  183.29    4.91
   6   1  -2  183.02    4.79
  -6  -1   2  185.21    4.92
  -6  -1   2  181.64    4.83
  -6  -1   2  184.48    4.80
  -6  -1   2  182.62    4.78
  -6  -1   2  190.68    4.93
   5   1  -2   47.45    1.53
   5   1  -2   48.11    1.44
   5   1  -2   45.89    1.50
   5   1  -2   47.32    1.40
  -5  -1   2   45.70    1.50
  -5  -1   2   46.26    1.40
  -5  -1   2   47.56    1.44
  -5  -1   2   46.33    1.50
  -5  -1   2   45.26    1.39
   4   1  -2   98.29    2.67
   4   1  -2   94.99    2.58
   4   1  -2   99.95    2.61
   4   1  -2   94.65    2.60
   4   1  -2  103.49    2.68
  -4  -1   2   99.62    2.67
  -4  -1   2   92.60    2.65
  -4  -1   2   96.52    2.59
  -4  -1   2   98.08    2.59
  -4  -1   2   97.15    2.61
   3   1  -2  144.87    3.65
   3   1  -2  142.23    3.59
   3   1  -2  139.66    3.58
   3   1  -2  136.15    3.64
   3   1  -2  132.30    3.59
  -3  -1   2  143.55    3.65
  -3  -1   2  144.11    3.65
  -3  -1   2  139.13    3.58
  -3  -1   2  137.37    3.59
  -3  -1   2  138.08    3.60
   0   1  -2  529.44   13.87
   0   1  -2  565.81   13.85
   0  -1   2  581.27   13.89
  -1   1  -2  236.16    5.82
  -1   1  -2  226.62    5.77
  -1   1  -2  233.26    5.77
  -1   1  -2  219.24    5.77
  -1   1  -2  234.46    5.82
   1  -1   2  229.74    5.77
   1  -1   2  227.47    5.77
   1  -1   2  223.19    5.78
   1  -1   2  238.43    5.82
   1  -1   2  229.41    5.81
  -2   1  -2   36.13    1.07
  -2   1  -2   36.69    1.06
  -2   1  -2   37.74    1.13
  -2   1  -2   35.81    1.12
  -2   1  -2   35.95    1.06
   2  -1   2   35.25    1.12
   2  -1   2   35.37    1.06
   2  -1   2   36.15    1.12
   2  -1   2   36.07    1.06
  -3   1  -2   -0.28    0.25
  -3   1  -2    0.16    0.23
  -3   1  -2   -0.16    0.19
  -3   1  -2    0.19    0.25
  -3   1  -2    0.37    0.21
   3  -1   2   -0.29    0.25
   3  -1   2   -0.22    0.21
   3  -1   2   -0.02    0.23
   3  -1   2    0.01    0.21
  -4   1  -2   60.60    1.98
  -4   1  -2   68.89    1.91
  -4   1  -2   68.31    1.96
  -4   1  -2   68.97    1.93
  -4   1  -2   67.45    2.02
   4  -1   2   66.71    2.01
   4  -1   2   66.47    2.01
   4  -1   2   69.91    1.94
   4  -1   2   69.32    1.92
  -5   1  -2   90.47    2.56
  -5   1  -2   88.05    2.66
  -5   1  -2   92.83    2.67
  -5   1  -2   90.16    2.54
   5  -1   2   89.50    2.66
   5  -1   2   92.49    2.56
   5  -1   2   93.64    2.58
   5  -1   2   96.02    2.69
  -6   1  -2   23.11    1.05
  -6   1  -2   23.10    1.19
  -6   1  -2   23.46    1.01
  -6   1  -2   22.68    1.16
   6  -1   2   23.18    1.16
   6  -1   2   22.56    1.08
   6  -1   2   22.21    1.18
   6  -1   2   23.15    1.05
  -7   1  -2  125.42    3.57
  -7   1  -2  129.24    3.62
  -7   1  -2  108.12    3.40
  -7   1  -2  114.71    3.37
   7  -1   2  125.19    3.45
   7  -1   2  123.80    3.60
   7  -1   2  124.56    3.43
   7  -1   2  120.89    3.55
  -8   1  -2    3.63    0.68
  -8   1  -2    3.71    0.54
  -8   1  -2    5.20    0.76
   8  -1   2    3.69    0.68
   8  -1   2    4.39    0.56
   8  -1   2    3.45    0.68
  -9   1  -2    0.41    0.54
  -9   1  -2    0.27    0.74
  -9   1  -2    0.14    0.65
  -9   1  -2    0.08    0.65
   9  -1   2   -0.77    0.65
   9  -1   2   -1.08    0.53
   9  -1   2   -0.61    0.58
   9  -1   2   -0.51    0.64
 -10   1  -2    4.71    0.73
 -10   1  -2    5.68    0.99
 -10   1  -2    4.63    0.87
 -10   1  -2    7.38    1.07
 -10   1  -2    4.78    0.67
  10  -1   2    5.18    0.80
  10  -1   2    6.04    0.99
  10  -1   2    4.68    0.76
  10  -1   2    5.42    0.93
  11   0  -2    2.88    0.73
  11   0  -2    3.78    0.82
  11   0  -2    4.01    0.99
  11   0  -2    2.44    0.93
 -11   0   2    1.57    0.97
 -11   0   2    2.55    0.97
 -11   0   2    2.61    0.75
  10   0  -2   42.69    2.03
  10   0  -2   40.86    1.75
  10   0  -2   40.91    1.86
  10   0  -2   38.93    1.98
 -10   0   2   39.35    1.77
 -10   0   2   42.36    2.04
 -10   0   2   38.63    1.97
 -10   0   2   39.98    1.75
   9   0  -2   18.39    1.44
   9   0  -2   14.43    1.35
   9   0  -2   18.49    1.17
  -9   0   2   16.19    1.33
  -9   0   2   16.99    1.34
  -9   0   2   15.92    0.93
  -9   0   2   18.02    1.20
   8   0  -2  117.27    3.49
   8   0  -2  116.10    3.33
   8   0  -2  115.96    3.46
   8   0  -2  116.94    3.29
  -8   0   2  110.53    3.45
  -8   0   2  111.43    3.43
  -8   0   2  118.15    3.16
  -8   0   2  116.90    3.33
   7   0  -2   36.97    1.51
   7   0  -2   36.07    1.49
   7   0  -2   38.01    1.37
   7   0  -2   31.42    1.36
  -7   0   2   38.91    1.53
  -7   0   2   38.04    1.34
  -7   0   2   39.00    1.41
  -7   0   2   40.00    1.24
  -7   0   2   39.16    1.51
   6   0  -2    0.78    0.36
   6   0  -2    0.34    0.36
   6   0  -2    0.66    0.31
   6   0  -2    0.88    0.41
  -6   0   2    0.63    0.36
  -6   0   2    0.27    0.27
  -6   0   2    0.98    0.27
  -6   0   2    0.28    0.36
  -6   0   2    0.21    0.37
   5   0  -2   -0.31    0.29
   5   0  -2   -0.20    0.30
   5   0  -2   -0.10    0.24
   5   0  -2   -0.38    0.24
  -5   0   2   -0.03    0.23
  -5   0   2   -0.03    0.31
  -5   0   2    0.02    0.29
  -5   0   2    0.07    0.26
  -5   0   2   -0.19    0.19
   4   0  -2  259.85    6.66
   4   0  -2  270.00    6.60
   4   0  -2  258.24    6.66
   4   0  -2  259.15    6.57
  -4   0   2  256.68    6.57
  -4   0   2  257.30    6.53
  -4   0   2  252.66    6.65
  -4   0   2  263.16    6.66
  -4   0   2  259.69    6.60
   3   0  -2    0.06    0.15
   3   0  -2    0.09    0.15
   3   0  -2    0.09    0.21
   3   0  -2    0.09    0.17
  -3   0   2    0.39    0.14
  -3   0   2    0.13    0.15
  -3   0   2    0.07    0.18
  -3   0   2    0.00    0.19
   2   0  -2  286.19    7.29
   2   0  -2  299.15    7.32
   2   0  -2  295.26    7.31
   2   0  -2  288.03    7.35
   2   0  -2  303.62    7.36
  -2   0   2  285.49    7.28
  -2   0   2  297.07    7.32
  -2   0   2  295.58    7.30
  -2   0   2  287.27    7.35
  -2   0   2  287.49    7.35
   1   0  -2   81.99    2.13
   1   0  -2   79.01    2.09
   1   0  -2   78.17    2.03
   1   0  -2   79.70    2.12
   1   0  -2   77.74    2.08
  -1   0   2   78.99    2.08
  -1   0   2   84.22    2.13
  -1   0   2   76.66    2.09
  -1   0   2   83.50    2.13
  -1   0  -2    5.98    0.27
  -1   0  -2    5.37    0.36
  -1   0  -2    5.20    0.39
  -1   0  -2    5.25    0.35
  -1   0  -2    5.19    0.40
   1   0   2    5.05    0.40
   1   0   2    5.21    0.34
   1   0   2    5.69    0.41
   1   0   2    5.34    0.26
  -3   0  -2   86.66    2.32
  -3   0  -2   86.46    2.32
  -3   0  -2   90.45    2.39
  -3   0  -2   82.62    2.37
   3   0   2   88.68    2.32
   3   0   2   84.73    2.38
   3   0   2   89.26    2.33
   3   0   2   89.71    2.39
  -4   0  -2    4.70    0.54
  -4   0  -2    4.48    0.55
  -4   0  -2    4.26    0.47
  -4   0  -2    4.42    0.46
   4   0   2    4.05    0.47
   4   0   2    4.03    0.53
   4   0   2    4.55    0.56
   4   0   2    4.15    0.47
  -5   0  -2    4.39    0.54
  -5   0  -2    3.48    0.43
  -5   0  -2    4.59    0.61
  -5   0  -2    4.30    0.52
   5   0   2    4.20    0.46
   5   0   2    4.08    0.41
   5   0   2    4.07    0.47
   5   0   2    4.35    0.53
  -6   0  -2  174.26    4.94
  -6   0  -2  184.54    4.86
  -6   0  -2  177.73    4.94
  -6   0  -2  183.98    4.83
   6   0   2  184.36    4.84
   6   0   2  190.34    4.97
   6   0   2  190.51    4.96
   6   0   2  186.77    4.85
  -7   0  -2   10.41    0.97
  -7   0  -2    9.53    0.97
  -7   0  -2   10.06    0.85
  -7   0  -2   10.80    0.82
   7   0   2   11.09    0.98
   7   0   2   10.04    0.95
   7   0   2   10.63    0.86
   7   0   2   11.16    0.85
  -8   0  -2   13.11    0.98
  -8   0  -2   12.19    1.13
  -8   0  -2   12.54    1.12
   8   0   2   13.29    1.19
   8   0   2   12.67    1.00
   8   0   2   11.82    1.13
   8   0   2   15.08    1.02
  -9   0  -2    9.19    1.04
  -9   0  -2    9.85    1.22
  -9   0  -2    6.81    0.81
   9   0   2    9.16    0.97
   9   0   2    8.45    1.04
   9   0   2    8.73    0.94
 -10   0  -2    3.64    0.89
 -10   0  -2    4.21    0.75
 -10   0  -2    3.55    0.75
 -10   0  -2    3.24    0.83
  10   0   2    3.80    0.72
  10   0   2    2.82    0.82
  10   0   2    1.87    0.83
  10   0   2    2.22    0.70
  10  -1  -2   34.47    1.97
  10  -1  -2   38.09    1.89
  10  -1  -2   39.39    1.77
  10  -1  -2   39.80    2.01
 -10   1   2   33.71    1.95
 -10   1   2   38.77    1.75
 -10   1   2   34.71    1.97
 -10   1   2   38.51    1.72
   9  -1  -2   29.38    1.45
   9  -1  -2   29.03    1.69
   9  -1  -2   30.23    1.68
   9  -1  -2   28.60    1.51
  -9   1   2   31.92    1.47
  -9   1   2   28.78    1.67
  -9   1   2   26.68    1.11
  -9   1   2   29.32    1.67
   8  -1  -2   29.01    1.52
   8  -1  -2   30.19    1.57
   8  -1  -2   30.85    1.36
   8  -1  -2   29.62    1.34
  -8   1   2   29.84    1.08
  -8   1   2   31.51    1.53
  -8   1   2   30.15    1.54
  -8   1   2   30.81    1.38
   7  -1  -2    5.51    0.62
   7  -1  -2    6.87    0.80
   7  -1  -2    5.27    0.66
   7  -1  -2    5.13    0.53
  -7   1   2    4.75    0.49
  -7   1   2    5.84    0.56
  -7   1   2    5.48    0.67
  -7   1   2    5.27    0.66
  -7   1   2    5.97    0.52
   6  -1  -2    0.38    0.40
   6  -1  -2   -0.28    0.31
   6  -1  -2    0.03    0.35
   6  -1  -2    0.07    0.41
  -6   1   2    0.01    0.20
  -6   1   2   -0.36    0.27
  -6   1   2   -0.24    0.38
  -6   1   2   -0.41    0.38
  -6   1   2   -0.22    0.32
   5  -1  -2   54.09    1.61
   5  -1  -2   55.57    1.65
   5  -1  -2   50.96    1.70
   5  -1  -2   55.42    1.73
  -5   1   2   55.22    1.60
  -5   1   2   53.47    1.48
  -5   1   2   52.03    1.71
  -5   1   2   55.21    1.73
  -5   1   2   51.51    1.63
   4  -1  -2    0.26    0.30
   4  -1  -2    0.62    0.26
   4  -1  -2    0.32    0.22
   4  -1  -2    0.22    0.28
  -4   1   2    0.60    0.29
  -4   1   2    0.98    0.17
  -4   1   2    0.55    0.25
  -4   1   2    0.37    0.29
  -4   1   2    0.69    0.22
   3  -1  -2   35.38    1.10
   3  -1  -2   36.85    1.08
   3  -1  -2   38.02    1.17
   3  -1  -2   33.96    1.14
  -3   1   2   37.16    1.10
  -3   1   2   38.20    0.98
  -3   1   2   36.51    1.15
  -3   1   2   34.85    1.14
  -3   1   2   37.12    1.08
   2  -1  -2   42.95    1.10
   2  -1  -2   42.82    1.20
   2  -1  -2   45.14    1.24
   2  -1  -2   42.72    1.19
   2  -1  -2   40.12    1.23
  -2   1   2   41.17    1.23
  -2   1   2   43.27    1.18
  -2   1   2   43.21    1.20
   0  -1  -2  155.77    3.94
   0  -1  -2  153.12    3.97
   0  -1  -2  164.39    3.97
   0  -1  -2  156.77    3.95
   0   1   2  156.35    3.95
   0   1   2  152.63    3.94
   0   1   2  163.18    3.97
   0   1   2  150.65    3.97
   0   1   2  163.95    3.97
   1   1   2  657.19   16.27
  -3  -1  -2  161.87    4.21
  -3  -1  -2  163.76    4.26
  -3  -1  -2  169.91    4.26
  -3  -1  -2  163.55    4.21
   3   1   2  166.07    4.26
   3   1   2  170.92    4.26
   3   1   2  163.71    4.20
   3   1   2  163.07    4.20
  -4  -1  -2  198.62    5.11
  -4  -1  -2  200.24    5.13
  -4  -1  -2  198.57    5.19
  -4  -1  -2  200.30    5.18
   4   1   2  198.55    5.11
   4   1   2  199.04    5.18
   4   1   2  204.22    5.19
   4   1   2  204.97    5.12
  -5  -1  -2   30.81    1.16
  -5  -1  -2   32.61    1.08
  -5  -1  -2   32.53    1.17
  -5  -1  -2   31.16    1.06
   5   1   2   29.70    1.16
   5   1   2   31.45    1.15
   5   1   2   32.07    1.08
   5   1   2   32.15    1.07
  -6  -1  -2   23.86    1.06
  -6  -1  -2   24.58    0.98
  -6  -1  -2   24.87    0.96
  -6  -1  -2   22.95    1.06
   6   1   2   23.01    1.05
   6   1   2   23.11    0.95
   6   1   2   24.44    1.08
   6   1   2   23.60    0.96
  -7  -1  -2   29.18    1.18
  -7  -1  -2   28.16    1.29
  -7  -1  -2   25.73    1.12
  -7  -1  -2   30.47    1.29
   7   1   2   28.72    1.13
   7   1   2   29.84    1.31
   7   1   2   26.22    1.24
   7   1   2   28.09    1.14
  -8  -1  -2    0.25    0.51
  -8  -1  -2   -0.85    0.41
  -8  -1  -2    0.30    0.40
  -8  -1  -2    0.00    0.45
   8   1   2    0.24    0.53
   8   1   2    0.33    0.42
   8   1   2    0.00    0.46
   8   1   2    0.25    0.41
  -9  -1  -2   15.64    1.09
  -9  -1  -2   15.46    1.22
  -9  -1  -2   14.84    1.27
  -9  -1  -2   15.55    1.09
   9   1   2   14.56    1.10
   9   1   2   15.85    1.27
   9   1   2   14.87    1.08
   9   1   2   16.11    1.26
 -10  -1  -2    4.42    0.81
 -10  -1  -2    3.58    0.62
 -10  -1  -2    1.89    0.73
 -10  -1  -2    5.39    0.75
  10   1   2    4.54    0.68
  10   1   2    3.23    0.61
  10   1   2    3.30    0.78
  10   1   2    3.44    0.82
 -11  -1  -2    1.09    0.93
 -11  -1  -2    1.00    0.89
 -11  -1  -2    1.43    0.66
 -11  -1  -2    0.24    0.79
  11   1   2   -0.26    0.88
  11   1   2   -0.89    0.60
  11   1   2    0.81    0.78
  11   1   2   -0.59    0.92
  10  -2  -2    1.17    0.79
  10  -2  -2    0.09    0.82
  10  -2  -2    1.37    0.85
 -10   2   2    0.53    0.83
 -10   2   2    0.81    0.32
 -10   2   2    1.08    0.77
 -10   2   2    1.04    0.63
 -10   2   2    1.27    0.66
   9  -2  -2    2.17    0.64
   9  -2  -2    1.82    0.77
   9  -2  -2    0.94    0.59
   9  -2  -2    1.05    0.69
  -9   2   2    2.46    0.74
  -9   2   2    0.22    0.24
  -9   2   2    0.88    0.60
  -9   2   2    1.17    0.52
  -9   2   2    2.20    0.72
   8  -2  -2   33.52    1.46
   8  -2  -2   35.19    1.65
   8  -2  -2   32.35    1.68
  -8   2   2   34.16    1.48
  -8   2   2   33.59    1.66
  -8   2   2   35.08    1.12
  -8   2   2   33.99    1.69
   7  -2  -2    0.79    0.49
   7  -2  -2    2.04    0.47
   7  -2  -2    1.39    0.61
  -7   2   2    1.78    0.55
  -7   2   2    2.64    0.52
  -7   2   2    2.67    0.61
  -7   2   2    2.73    0.30
  -7   2   2    2.05    0.42
   6  -2  -2   88.42    2.50
   6  -2  -2   82.24    2.52
   6  -2  -2   86.70    2.65
  -6   2   2   89.67    2.65
  -6   2   2   86.34    2.29
  -6   2   2   83.97    2.51
  -6   2   2   89.46    2.64
  -6   2   2   87.50    2.47
   5  -2  -2   45.08    1.42
   5  -2  -2   42.65    1.53
   5  -2  -2   44.17    1.45
  -5   2   2   43.44    1.39
  -5   2   2   45.42    1.22
  -5   2   2   46.17    1.55
  -5   2   2   44.63    1.44
  -5   2   2   44.12    1.53
   4  -2  -2   41.33    1.30
   4  -2  -2   40.98    1.40
   4  -2  -2   41.87    1.33
  -4   2   2   41.62    1.40
  -4   2   2   41.55    1.32
  -4   2   2   43.40    1.12
  -4   2   2   44.39    1.41
  -4   2   2   42.84    1.28
   3  -2  -2  340.27    8.45
   3  -2  -2  326.86    8.37
   3  -2  -2  330.30    8.39
  -3   2   2  333.73    8.45
  -3   2   2  351.34    8.46
  -3   2   2  324.70    8.36
  -3   2   2  327.03    8.38
   2  -2  -2  400.83   10.13
   2  -2  -2  404.41   10.09
   2  -2  -2  404.56   10.13
   2  -2  -2  403.51   10.07
  -2   2   2  416.35   10.13
  -2   2   2  391.71   10.12
  -2   2   2  411.54   10.07
  -2   2   2  402.15   10.08
   1  -2  -2  376.07    9.43
   1  -2  -2  391.77    9.48
   1  -2  -2  371.83    9.47
   1  -2  -2  384.79    9.45
  -1   2   2  387.31    9.48
  -1   2   2  373.13    9.43
  -1   2   2  375.15    9.51
   0  -2  -2   14.77    0.47
   0  -2  -2   13.79    0.43
   0  -2  -2   13.17    0.45
   0  -2  -2   13.23    0.41
   0  -2  -2   13.57    0.52
   0   2   2   12.35    0.46
   0   2   2   13.10    0.51
   0   2   2   13.72    0.53
   0   2   2   13.36    0.46
   0   2   2   13.86    0.39
   0   2   2   13.83    0.40
  -1  -2  -2    1.83    0.18
  -1  -2  -2    1.88    0.18
  -1  -2  -2    1.76    0.26
  -1  -2  -2    1.66    0.22
  -1  -2  -2    1.66    0.22
   1   2   2    2.05    0.22
   1   2   2    1.47    0.25
  -2  -2  -2    4.37    0.27
  -2  -2  -2    4.39    0.24
  -2  -2  -2    4.27    0.24
  -2  -2  -2    4.46    0.28
   2   2   2    4.62    0.29
   2   2   2    4.47    0.21
   2   2   2    4.56    0.28
   2   2   2    4.51    0.38
   2   2   2    4.63    0.20
  -3  -2  -2   42.29    1.14
  -3  -2  -2   41.77    1.17
  -3  -2  -2   40.48    1.13
  -3  -2  -2   40.35    1.18
   3   2   2   39.10    1.17
   3   2   2   41.83    1.11
   3   2   2   40.53    1.17
   3   2   2   41.16    1.11
  -4  -2  -2   90.51    2.40
  -4  -2  -2   90.59    2.45
  -4  -2  -2   93.48    2.45
  -4  -2  -2   91.07    2.39
   4   2   2   90.17    2.37
   4   2   2   90.59    2.45
   4   2   2   87.16    2.44
   4   2   2   89.63    2.37
  -5  -2  -2  196.93    4.97
  -5  -2  -2  187.64    5.04
  -5  -2  -2  197.10    4.99
  -5  -2  -2  190.64    5.04
   5   2   2  199.73    4.96
   5   2   2  196.08    4.95
   5   2   2  192.01    5.05
   5   2   2  188.68    5.03
  -6  -2  -2   61.80    1.94
  -6  -2  -2   63.58    1.87
  -6  -2  -2   67.50    1.97
  -6  -2  -2   63.06    1.85
   6   2   2   64.11    1.96
   6   2   2   65.32    1.95
   6   2   2   63.78    1.84
   6   2   2   61.79    1.83
  -7  -2  -2   21.10    0.98
  -7  -2  -2   21.85    1.07
  -7  -2  -2   21.75    1.07
  -7  -2  -2   23.22    0.97
   7   2   2   20.71    1.07
   7   2   2   22.56    0.95
   7   2   2   22.29    0.95
   7   2   2   21.70    1.10
  -8  -2  -2   22.50    1.21
  -8  -2  -2   22.70    1.21
  -8  -2  -2   22.61    1.10
  -8  -2  -2   21.72    1.07
   8   2   2   22.45    1.07
   8   2   2   24.09    1.24
   8   2   2   19.45    1.19
   8   2   2   23.33    1.06
  -9  -2  -2   -0.49    0.49
  -9  -2  -2    0.30    0.56
  -9  -2  -2   -1.04    0.41
  -9  -2  -2    0.15    0.47
   9   2   2    0.14    0.42
   9   2   2    0.47    0.47
   9   2   2    0.58    0.57
 -10  -2  -2    9.12    1.07
 -10  -2  -2    9.09    1.20
 -10  -2  -2    9.15    1.05
 -10  -2  -2   10.05    1.27
  10   2   2    9.29    1.01
  10   2   2    8.40    1.19
  10   2   2    9.83    1.26
 -11  -2  -2    0.99    0.80
 -11  -2  -2    1.71    0.64
 -11  -2  -2    1.09    0.86
 -11  -2  -2    2.66    0.70
 -11  -2  -2    0.68    0.81
  11   2   2    1.30    0.63
  11   2   2    0.99    0.79
  11   2   2    0.60    0.65
  11   2   2    0.78    0.77
   9  -3  -2   13.75    1.27
   9  -3  -2   12.88    1.48
   9  -3  -2   12.12    1.53
  -9   3   2   11.86    1.51
  -9   3   2   12.82    1.45
  -9   3   2   12.65    1.25
  -9   3   2   12.58    1.18
   8  -3  -2    9.95    1.04
   8  -3  -2   10.73    1.26
  -8   3   2    9.09    1.21
  -8   3   2   10.22    1.24
  -8   3   2   10.08    1.04
   7  -3  -2   15.32    1.21
   7  -3  -2   18.87    1.10
  -7   3   2   14.94    1.22
  -7   3   2   17.51    1.06
  -7   3   2   16.63    0.62
  -7   3   2   16.97    0.99
  -7   3   2   16.93    1.27
   6  -3  -2    4.05    0.61
   6  -3  -2    2.98    0.45
   6  -3  -2    3.21    0.47
  -6   3   2    3.80    0.54
  -6   3   2    3.57    0.44
  -6   3   2    3.64    0.42
  -6   3   2    4.15    0.32
  -6   3   2    3.46    0.57
   5  -3  -2    0.79    0.32
   5  -3  -2    1.07    0.41
   5  -3  -2    0.96    0.35
   5  -3  -2    0.57    0.40
  -5   3   2    0.69    0.37
  -5   3   2    0.91    0.29
  -5   3   2    1.06    0.40
  -5   3   2    1.36    0.16
  -5   3   2    0.87    0.32
   4  -3  -2   -0.18    0.25
   4  -3  -2   -0.37    0.25
   4  -3  -2   -0.27    0.31
   4  -3  -2   -0.37    0.28
  -4   3   2   -0.14    0.24
  -4   3   2   -0.12    0.29
  -4   3   2    0.15    0.31
  -4   3   2   -0.09    0.24
   3  -3  -2   -0.09    0.21
   3  -3  -2    0.50    0.29
   3  -3  -2    0.24    0.23
   3  -3  -2    0.43    0.27
  -3   3   2    0.39    0.25
  -3   3   2    0.12    0.21
  -3   3   2    0.30    0.30
  -3   3   2   -0.05    0.25
  -3   3   2    0.43    0.20
   2  -3  -2    1.60    0.23
   2  -3  -2    0.90    0.19
   2  -3  -2    1.33    0.25
  -2   3   2    1.06    0.18
  -2   3   2    1.53    0.25
  -2   3   2    1.37    0.32
  -2   3   2    1.20    0.24
  -2   3   2    1.26    0.20
   1  -3  -2    8.00    0.39
   1  -3  -2    6.97    0.26
   1  -3  -2    7.80    0.35
   1  -3  -2    7.64    0.34
   1  -3  -2    6.38    0.37
  -1   3   2    7.41    0.31
  -1   3   2    7.59    0.39
  -1   3   2    6.63    0.46
  -1   3   2    7.76    0.29
  -1   3   2    7.21    0.38
   0  -3  -2   32.17    0.90
   0  -3  -2   32.93    0.85
   0  -3  -2   32.41    0.99
   0  -3  -2   33.04    0.86
   0  -3  -2   33.28    0.89
   0  -3  -2   31.67    0.88
   0   3   2   30.21    0.99
   0   3   2   33.55    0.89
   0   3   2   31.07    0.93
   0   3   2   29.71    0.96
  -1  -3  -2  426.78   10.74
   1   3   2  437.72   10.74
   1   3   2  426.45   10.74
  -2  -3  -2   53.01    1.29
  -2  -3  -2   53.67    1.29
  -2  -3  -2   43.34    1.31
  -2  -3  -2   51.96    1.32
   2   3   2   52.38    1.46
   2   3   2   53.02    1.33
  -3  -3  -2   16.90    0.55
  -3  -3  -2   16.72    0.50
  -3  -3  -2   15.50    0.53
  -3  -3  -2   15.73    0.51
   3   3   2   15.56    0.54
   3   3   2   16.32    0.68
   3   3   2   14.33    0.54
  -4  -3  -2  115.52    3.16
  -4  -3  -2  121.71    3.12
  -4  -3  -2  119.23    3.13
  -4  -3  -2  131.03    3.18
   4   3   2  122.86    3.08
   4   3   2  123.83    3.18
   4   3   2  118.43    3.16
   4   3   2  118.48    3.08
  -5  -3  -2    1.23    0.23
  -5  -3  -2    1.08    0.23
  -5  -3  -2    1.24    0.28
  -5  -3  -2    1.51    0.28
   5   3   2    1.35    0.29
   5   3   2    1.31    0.21
   5   3   2    1.25    0.22
   5   3   2    0.72    0.25
  -6  -3  -2    1.45    0.33
  -6  -3  -2    1.62    0.28
  -6  -3  -2    1.78    0.30
  -6  -3  -2    2.08    0.36
   6   3   2    1.47    0.32
   6   3   2    1.57    0.35
   6   3   2    1.93    0.26
   6   3   2    2.04    0.27
  -7  -3  -2   74.73    2.27
  -7  -3  -2   77.11    2.18
  -7  -3  -2   75.19    2.20
  -7  -3  -2   72.77    2.28
   7   3   2   74.57    2.13
   7   3   2   76.07    2.28
   7   3   2   78.34    2.30
   7   3   2   76.85    2.14
  -8  -3  -2    3.34    0.53
  -8  -3  -2    4.28    0.49
  -8  -3  -2    4.03    0.44
  -8  -3  -2    4.87    0.57
   8   3   2    5.66    0.50
   8   3   2    4.88    0.46
   8   3   2    4.87    0.60
   8   3   2    5.74    0.66
  -9  -3  -2   22.61    1.25
  -9  -3  -2   20.59    1.12
  -9  -3  -2   21.00    1.23
  -9  -3  -2   19.81    1.10
   9   3   2   18.11    1.03
   9   3   2   21.00    1.03
   9   3   2   23.22    1.30
 -10  -3  -2    0.71    0.50
 -10  -3  -2   -0.30    0.53
 -10  -3  -2    0.77    0.62
 -10  -3  -2    0.47    0.61
 -10  -3  -2    0.16    0.52
  10   3   2   -0.57    0.46
  10   3   2    1.70    0.66
  10   3   2    0.57    0.49
 -11  -3  -2    9.53    1.02
 -11  -3  -2   10.12    1.37
 -11  -3  -2   10.05    1.21
 -11  -3  -2   12.33    1.49
 -11  -3  -2   10.25    1.20
  11   3   2    8.96    1.10
  11   3   2   10.78    1.38
   9  -4  -2   11.72    1.59
   9  -4  -2    7.53    0.91
   9  -4  -2    8.71    1.03
   9  -4  -2    8.48    0.89
  -9   4   2   11.33    1.50
  -9   4   2   10.56    1.28
  -9   4   2   11.11    1.54
  -9   4   2    9.47    1.10
  -9   4   2   11.65    1.23
   8  -4  -2   10.73    1.13
   8  -4  -2   10.47    1.28
   8  -4  -2   10.99    1.33
  -8   4   2   12.76    1.34
  -8   4   2   11.03    1.03
  -8   4   2   10.38    1.38
  -8   4   2   10.66    1.31
  -8   4   2   10.73    1.10
   7  -4  -2    5.65    0.76
   7  -4  -2    4.84    0.63
   7  -4  -2    6.79    0.66
  -7   4   2    6.39    0.84
  -7   4   2    3.05    0.87
  -7   4   2    4.30    0.67
  -7   4   2    5.45    0.58
  -7   4   2    5.84    0.59
   6  -4  -2  107.55    3.07
   6  -4  -2  101.95    3.20
   6  -4  -2  107.18    3.11
  -6   4   2  106.92    3.04
  -6   4   2  110.50    3.24
  -6   4   2  110.38    3.31
  -6   4   2  104.40    2.99
   5  -4  -2    4.43    0.54
   5  -4  -2    4.22    0.45
   5  -4  -2    4.78    0.56
   5  -4  -2    3.84    0.48
  -5   4   2    5.24    0.67
  -5   4   2    4.17    0.43
  -5   4   2    4.21    0.44
  -5   4   2    5.24    0.58
  -5   4   2    5.38    0.59
   4  -4  -2   90.84    2.73
   4  -4  -2   96.94    2.68
   4  -4  -2   98.51    2.65
   4  -4  -2   98.39    2.74
  -4   4   2   95.82    2.59
  -4   4   2   93.94    2.62
  -4   4   2   95.09    2.74
  -4   4   2   93.02    2.83
  -4   4   2   97.34    2.76
   3  -4  -2    1.29    0.27
   3  -4  -2    2.05    0.32
   3  -4  -2    1.57    0.33
   3  -4  -2    1.24    0.32
  -3   4   2    1.67    0.35
  -3   4   2    1.93    0.25
  -3   4   2    1.87    0.40
  -3   4   2    1.44    0.33
  -3   4   2    1.44    0.26
   2  -4  -2   68.69    1.96
   2  -4  -2   68.82    1.92
   2  -4  -2   70.75    1.90
   2  -4  -2   69.64    1.97
  -2   4   2   69.70    1.97
  -2   4   2   68.90    2.07
  -2   4   2   71.88    1.86
  -2   4   2   72.26    1.98
  -2   4   2   69.97    1.87
  -2   4   2   67.33    1.79
   1  -4  -2   31.01    0.87
   1  -4  -2   30.27    0.90
   1  -4  -2   29.97    0.95
   1  -4  -2   30.40    0.92
   1  -4  -2   29.89    1.09
  -1   4   2   31.62    0.84
  -1   4   2   29.98    1.09
  -1   4   2   30.93    0.85
  -1   4   2   31.54    0.96
  -1   4   2   31.61    0.97
   0  -4  -2  181.96    4.58
   0  -4  -2  185.15    4.60
   0  -4  -2  183.93    4.61
   0  -4  -2  180.95    4.57
   0  -4  -2  184.52    4.63
   0  -4  -2  180.03    4.75
   0   4   2  183.59    4.61
   0   4   2  183.94    4.76
  -1  -4  -2  335.71    8.61
  -1  -4  -2  341.04    8.68
   1   4   2  343.44    8.68
   1   4   2  353.66    8.65
  -2  -4  -2   24.33    0.86
  -2  -4  -2   23.46    0.85
   2   4   2   25.48    0.86
  -3  -4  -2   -0.59    0.27
  -3  -4  -2    0.22    0.10
  -3  -4  -2    0.09    0.09
  -3  -4  -2    0.11    0.11
  -3  -4  -2    0.42    0.12
   3   4   2    0.09    0.12
   3   4   2    0.22    0.11
   3   4   2   -0.11    0.28
  -4  -4  -2  259.92    6.26
  -4  -4  -2  248.84    6.29
  -4  -4  -2  253.19    6.28
  -4  -4  -2  256.49    6.25
  -4  -4  -2  258.35    6.45
   4   4   2  258.65    6.42
   4   4   2  251.98    6.29
   4   4   2  210.85    6.27
  -5  -4  -2   12.57    0.59
  -5  -4  -2   12.43    0.60
  -5  -4  -2   12.97    0.55
  -5  -4  -2   12.57    0.54
   5   4   2   12.68    0.75
   5   4   2   12.23    0.42
   5   4   2   12.15    0.59
   5   4   2   12.85    0.60
  -6  -4  -2   64.74    2.03
  -6  -4  -2   67.90    1.93
  -6  -4  -2   64.64    1.91
  -6  -4  -2   64.14    1.86
  -6  -4  -2   66.04    1.85
   6   4   2   65.54    1.77
   6   4   2   65.90    1.77
   6   4   2   65.69    1.92
   6   4   2   66.64    1.93
  -7  -4  -2    0.07    0.33
  -7  -4  -2    0.36    0.27
  -7  -4  -2   -0.05    0.28
  -7  -4  -2   -0.13    0.32
  -7  -4  -2    0.20    0.41
   7   4   2    0.08    0.23
   7   4   2   -0.02    0.33
   7   4   2    0.00    0.32
   7   4   2   -0.10    0.23
  -8  -4  -2    0.58    0.55
  -8  -4  -2    0.77    0.42
  -8  -4  -2    0.60    0.35
  -8  -4  -2    0.76    0.36
  -8  -4  -2    0.41    0.41
   8   4   2    0.65    0.31
   8   4   2    1.00    0.44
   8   4   2    0.22    0.41
   8   4   2    0.77    0.32
  -9  -4  -2    1.15    0.50
  -9  -4  -2    0.73    0.44
  -9  -4  -2    0.29    0.55
  -9  -4  -2    1.34    0.49
  -9  -4  -2    0.39    0.40
   9   4   2    0.89    0.37
   9   4   2    0.80    0.49
   9   4   2    0.33    0.48
   9   4   2    0.69    0.37
 -10  -4  -2   -0.32    0.48
 -10  -4  -2    0.03    0.55
 -10  -4  -2   -0.14    0.50
 -10  -4  -2    0.02    0.51
  10   4   2   -0.22    0.42
  10   4   2   -0.37    0.57
  10   4   2    0.36    0.42
 -11  -4  -2    0.08    0.70
 -11  -4  -2    0.22    0.59
 -11  -4  -2   -0.67    0.57
 -11  -4  -2   -0.31    0.53
 -11  -4  -2    1.73    0.79
  11   4   2    0.84    0.69
  11   4   2    0.49    0.50
  11   4   2   -0.43    0.53
   8  -5  -2   25.97    1.48
   8  -5  -2   23.69    1.67
   8  -5  -2   21.29    1.57
  -8   5   2   23.35    1.63
  -8   5   2   26.18    1.41
  -8   5   2   25.28    1.74
  -8   5   2   22.76    1.69
  -8   5   2   24.62    1.36
   7  -5  -2   18.53    1.30
   7  -5  -2   18.01    1.40
   7  -5  -2   19.48    1.23
  -7   5   2   18.75    1.40
  -7   5   2   19.80    1.15
  -7   5   2   19.90    1.48
   6  -5  -2    4.49    0.65
   6  -5  -2    4.13    0.63
   6  -5  -2    4.37    0.55
  -6   5   2    5.41    0.76
  -6   5   2    2.97    0.63
  -6   5   2    3.33    0.51
  -6   5   2    4.43    0.50
   5  -5  -2   33.46    1.37
   5  -5  -2   33.09    1.43
   5  -5  -2   33.10    1.32
   5  -5  -2   35.41    1.47
  -5   5   2   34.69    1.49
  -5   5   2   34.70    1.21
  -5   5   2   34.91    1.28
  -5   5   2   35.59    1.59
  -5   5   2   33.78    1.47
   4  -5  -2   24.08    1.04
   4  -5  -2   23.92    1.11
   4  -5  -2   24.20    1.00
   4  -5  -2   24.14    1.12
  -4   5   2   23.75    0.95
  -4   5   2   24.93    1.25
  -4   5   2   25.00    0.91
  -4   5   2   24.55    1.13
  -4   5   2   24.73    1.12
   3  -5  -2  156.04    4.01
   3  -5  -2  154.14    4.10
   3  -5  -2  153.73    4.04
   3  -5  -2  148.32    4.08
  -3   5   2  154.13    4.10
  -3   5   2  144.86    3.84
  -3   5   2  154.01    3.94
  -3   5   2  151.80    4.23
  -3   5   2  155.71    4.11
  -3   5   2  153.04    3.95
   2  -5  -2   21.60    0.86
   2  -5  -2   22.02    0.78
   2  -5  -2   21.60    0.85
   2  -5  -2   20.80    0.80
  -2   5   2   21.03    0.68
  -2   5   2   22.04    0.69
  -2   5   2   22.29    0.71
  -2   5   2   20.98    0.98
  -2   5   2   21.54    0.86
  -2   5   2   21.90    0.87
   1  -5  -2  120.85    3.09
   1  -5  -2  120.46    3.32
   1  -5  -2  121.91    3.11
   1  -5  -2  121.99    3.15
   1  -5  -2  115.93    3.13
  -1   5   2  119.23    2.99
  -1   5   2  121.23    3.33
  -1   5   2  118.15    3.15
  -1   5   2  116.76    2.99
  -1   5   2  118.78    3.10
  -1   5   2  121.47    3.15
   0  -5  -2   29.99    0.87
   0  -5  -2   30.36    1.13
   0  -5  -2   32.04    0.92
   0  -5  -2   30.00    0.86
   0  -5  -2   31.20    0.96
   0   5   2   30.49    1.13
   0   5   2   30.71    0.91
  -1  -5  -2    0.72    0.10
  -1  -5  -2    0.53    0.10
  -1  -5  -2    0.59    0.26
  -1  -5  -2    1.13    0.34
   1   5   2    1.16    0.32
   1   5   2    0.74    0.12
   1   5   2    1.05    0.29
   1   5   2    0.63    0.12
  -2  -5  -2   58.15    1.73
  -2  -5  -2   56.96    1.67
   2   5   2   56.81    1.68
  -3  -5  -2  140.15    3.79
  -3  -5  -2  141.73    3.80
   3   5   2  144.86    3.77
  -4  -5  -2   35.66    0.99
  -4  -5  -2   36.05    0.99
  -4  -5  -2   36.72    1.01
  -4  -5  -2   35.18    1.00
  -4  -5  -2   36.53    1.28
   4   5   2   37.12    1.25
   4   5   2   36.10    1.02
   4   5   2   37.16    1.02
  -5  -5  -2   46.40    1.31
  -5  -5  -2   46.78    1.35
  -5  -5  -2   48.18    1.33
  -5  -5  -2   48.79    1.58
  -5  -5  -2   50.02    1.37
   5   5   2   42.53    1.36
   5   5   2   48.38    1.55
  -6  -5  -2   20.98    0.81
  -6  -5  -2   23.21    1.07
  -6  -5  -2   20.85    0.78
  -6  -5  -2   21.72    0.83
  -6  -5  -2   21.69    0.86
   6   5   2   21.40    1.03
   6   5   2   20.83    0.85
  -7  -5  -2   59.09    1.77
  -7  -5  -2   61.37    1.81
  -7  -5  -2   63.03    1.85
  -7  -5  -2   62.21    1.87
  -7  -5  -2   60.33    2.04
   7   5   2   62.85    1.87
   7   5   2   59.99    1.62
   7   5   2   59.61    2.00
  -8  -5  -2    8.35    0.74
  -8  -5  -2   10.18    0.83
  -8  -5  -2   10.46    0.81
  -8  -5  -2   10.47    0.73
  -8  -5  -2    7.05    0.97
   8   5   2    8.87    0.96
   8   5   2    8.68    0.52
   8   5   2    9.25    0.55
   8   5   2   10.03    0.82
  -9  -5  -2    4.18    0.56
  -9  -5  -2    5.79    0.63
  -9  -5  -2    4.19    0.50
  -9  -5  -2    6.44    0.77
   9   5   2    5.00    0.60
   9   5   2    6.95    0.59
   9   5   2    6.01    0.59
 -10  -5  -2    2.80    0.56
 -10  -5  -2    2.08    0.57
 -10  -5  -2    2.79    0.56
 -10  -5  -2    3.63    0.77
 -10  -5  -2    2.41    0.56
  10   5   2    3.20    0.67
  10   5   2    3.59    0.42
  10   5   2    3.10    0.60
 -11  -5  -2    6.07    0.77
 -11  -5  -2    4.72    0.65
 -11  -5  -2    5.37    0.77
 -11  -5  -2    4.88    0.66
 -11  -5  -2    6.60    0.98
  11   5   2    7.38    0.83
  11   5   2    8.99    1.22
  11   5   2    5.90    0.89
   7  -6  -2   23.99    1.56
   7  -6  -2   25.22    1.42
   7  -6  -2   23.50    1.52
  -7   6   2   23.71    1.24
  -7   6   2   21.66    1.61
  -7   6   2   25.11    1.73
  -7   6   2   21.75    1.52
   6  -6  -2    8.30    1.11
   6  -6  -2    6.30    0.67
   6  -6  -2    6.16    0.71
  -6   6   2    6.71    0.82
  -6   6   2    6.80    0.78
  -6   6   2    5.01    0.90
  -6   6   2    7.54    0.63
  -6   6   2    8.43    1.20
   5  -6  -2   17.33    1.04
   5  -6  -2   16.80    1.12
   5  -6  -2   15.64    1.13
   5  -6  -2   16.59    1.11
  -5   6   2   15.90    0.89
  -5   6   2   16.80    0.87
  -5   6   2   19.16    1.32
  -5   6   2   16.99    1.16
   4  -6  -2   49.86    1.70
   4  -6  -2   50.14    1.73
   4  -6  -2   51.04    1.65
   4  -6  -2   48.77    1.76
  -4   6   2   48.88    1.76
  -4   6   2   46.28    1.74
  -4   6   2   48.03    1.33
  -4   6   2   49.44    1.50
  -4   6   2   50.48    1.54
  -4   6   2   52.20    1.94
   3  -6  -2    2.87    0.41
   3  -6  -2    3.41    0.46
   3  -6  -2    2.77    0.39
   3  -6  -2    2.92    0.44
  -3   6   2    3.78    0.64
  -3   6   2    2.81    0.43
  -3   6   2    3.31    0.30
  -3   6   2    2.87    0.31
  -3   6   2    4.05    0.37
  -3   6   2    4.01    0.49
   2  -6  -2  124.77    3.32
   2  -6  -2  128.76    3.40
   2  -6  -2  127.74    3.35
   2  -6  -2  121.61    3.38
  -2   6   2  123.94    3.20
  -2   6   2  122.67    3.25
  -2   6   2  121.17    3.39
  -2   6   2  132.88    3.41
  -2   6   2  125.01    3.19
  -2   6   2  125.51    3.60
   1  -6  -2    3.16    0.43
   1  -6  -2    3.34    0.29
   1  -6  -2    3.44    0.34
   1  -6  -2    3.44    0.51
   1  -6  -2    3.20    0.31
  -1   6   2    3.69    0.43
  -1   6   2    2.77    0.33
  -1   6   2    3.43    0.55
  -1   6   2    3.56    0.35
   0  -6  -2   31.99    0.96
   0  -6  -2   31.04    1.04
   0  -6  -2   34.23    0.99
   0  -6  -2   33.16    0.95
   0  -6  -2   32.98    1.26
   0   6   2   32.21    1.07
   0   6   2   32.46    0.99
   0   6   2   32.59    1.27
  -1  -6  -2   95.72    2.44
  -1  -6  -2   98.44    2.44
  -1  -6  -2   95.31    2.44
  -1  -6  -2   95.66    2.63
  -1  -6  -2   94.00    2.76
  -1  -6  -2   96.97    2.44
   1   6   2   99.85    2.46
   1   6   2   95.45    2.46
   1   6   2   97.38    2.78
  -2  -6  -2    1.08    0.31
  -2  -6  -2    1.57    0.38
   2   6   2    1.30    0.34
  -3  -6  -2    3.06    0.42
  -3  -6  -2    3.22    0.46
   3   6   2    2.46    0.38
  -4  -6  -2   66.26    1.69
  -4  -6  -2   66.37    1.69
  -4  -6  -2   65.06    2.01
  -4  -6  -2   65.95    2.03
   4   6   2   67.25    1.69
   4   6   2   64.85    1.97
   4   6   2   66.03    1.68
  -5  -6  -2   63.17    1.72
  -5  -6  -2   64.77    1.72
  -5  -6  -2   63.25    1.70
  -5  -6  -2   62.29    1.71
  -5  -6  -2   65.16    2.03
   5   6   2   64.67    1.97
   5   6   2   65.09    1.73
   5   6   2   64.31    1.73
  -6  -6  -2  109.07    2.88
  -6  -6  -2  104.31    3.14
  -6  -6  -2  113.85    2.90
  -6  -6  -2  110.72    2.89
  -6  -6  -2  112.38    2.86
   6   6   2   95.80    2.88
   6   6   2  113.24    2.91
   6   6   2  110.99    3.11
  -7  -6  -2    6.72    0.62
  -7  -6  -2    5.82    0.57
  -7  -6  -2    5.77    0.54
  -7  -6  -2    3.59    0.67
  -7  -6  -2    6.16    0.59
   7   6   2    3.75    0.59
   7   6   2    5.90    0.61
  -8  -6  -2   -0.37    0.31
  -8  -6  -2    0.24    0.35
  -8  -6  -2   -0.05    0.34
  -8  -6  -2    0.16    0.33
  -8  -6  -2   -0.52    0.56
   8   6   2   -0.28    0.35
   8   6   2   -0.24    0.38
   8   6   2    0.13    0.52
  -9  -6  -2    2.91    0.46
  -9  -6  -2    2.47    0.48
  -9  -6  -2    2.31    0.45
  -9  -6  -2    2.58    0.49
   9   6   2    3.08    0.69
   9   6   2    2.58    0.51
   9   6   2    1.83    0.45
 -10  -6  -2    1.76    0.49
 -10  -6  -2    0.91    0.77
 -10  -6  -2    2.17    0.55
 -10  -6  -2    1.66    0.48
 -10  -6  -2    2.41    0.58
  10   6   2    1.54    0.53
  10   6   2    2.02    0.60
  10   6   2    1.90    0.70
 -11  -6  -2    2.39    0.69
 -11  -6  -2    1.75    0.60
 -11  -6  -2    1.82    0.63
 -11  -6  -2    1.85    0.91
 -11  -6  -2    1.59    0.58
  11   6   2    2.47    0.66
  11   6   2    0.76    0.73
  11   6   2    0.90    0.79
   6  -7  -2   23.90    1.51
   6  -7  -2   27.74    1.40
   6  -7  -2   23.83    1.49
  -6   7   2   22.97    1.11
  -6   7   2   25.41    1.57
  -6   7   2   25.28    1.18
  -6   7   2   23.41    1.69
  -6   7   2   22.24    1.51
   5  -7  -2   10.06    1.09
   5  -7  -2   10.27    1.08
   5  -7  -2   10.69    0.97
  -5   7   2   11.08    0.79
  -5   7   2   10.52    1.09
  -5   7   2   10.03    0.74
  -5   7   2    8.23    1.11
  -5   7   2   11.56    1.26
   4  -7  -2   -0.38    0.42
   4  -7  -2   -0.50    0.40
   4  -7  -2    0.36    0.46
   4  -7  -2   -0.41    0.44
  -4   7   2   -0.63    0.57
  -4   7   2   -0.39    0.59
  -4   7   2    0.18    0.27
  -4   7   2    0.21    0.21
  -4   7   2   -0.50    0.45
  -4   7   2   -0.17    0.30
   3  -7  -2   51.27    1.87
   3  -7  -2   57.15    1.80
   3  -7  -2   58.07    1.84
   3  -7  -2   60.71    1.88
  -3   7   2   58.57    1.90
  -3   7   2   58.39    1.90
  -3   7   2   58.31    2.13
  -3   7   2   58.30    1.59
  -3   7   2   56.58    1.59
  -3   7   2   56.05    1.61
   2  -7  -2  246.36    6.20
   2  -7  -2  242.05    6.13
   2  -7  -2  242.38    6.15
   2  -7  -2  238.52    6.18
  -2   7   2  234.62    5.92
  -2   7   2  212.38    6.17
  -2   7   2  241.11    6.47
  -2   7   2  236.27    5.91
  -2   7   2  249.33    6.22
  -2   7   2  240.67    6.07
   1  -7  -2  296.35    7.61
   1  -7  -2  305.51    7.95
   1  -7  -2  304.08    7.63
   1  -7  -2  300.62    7.66
   1  -7  -2  298.10    7.65
  -1   7   2  305.02    7.95
  -1   7   2  310.09    7.67
  -1   7   2  293.39    7.64
  -1   7   2  296.70    7.66
   0  -7  -2    2.68    0.26
   0  -7  -2    2.83    0.27
   0  -7  -2    2.68    0.28
   0  -7  -2    2.78    0.36
   0  -7  -2    3.35    0.56
   0   7   2    2.59    0.52
   0   7   2    2.46    0.28
   0   7   2    2.64    0.38
  -1  -7  -2   13.23    0.48
  -1  -7  -2   12.36    0.44
  -1  -7  -2   12.14    0.91
  -1  -7  -2   13.02    0.47
  -1  -7  -2   12.66    0.72
  -1  -7  -2   13.25    0.45
   1   7   2   12.77    0.93
   1   7   2   13.17    0.49
   1   7   2   13.48    0.48
  -2  -7  -2   24.11    1.14
  -2  -7  -2   23.13    0.98
  -2  -7  -2   25.09    0.66
   2   7   2   24.99    1.05
  -3  -7  -2   18.33    0.99
  -3  -7  -2   17.87    0.90
   3   7   2   18.95    0.90
  -4  -7  -2   13.24    0.92
  -4  -7  -2   12.95    0.85
   4   7   2   13.84    0.82
  -5  -7  -2   35.59    1.00
  -5  -7  -2   32.66    1.38
  -5  -7  -2   35.65    1.02
  -5  -7  -2   36.96    1.43
   5   7   2   35.32    0.98
   5   7   2   36.56    0.98
   5   7   2   34.52    1.34
  -6  -7  -2   21.66    0.75
  -6  -7  -2   22.93    1.19
  -6  -7  -2   19.92    0.73
  -6  -7  -2   21.58    0.78
  -6  -7  -2   20.64    0.74
   6   7   2   20.32    0.77
   6   7   2   20.10    0.76
   6   7   2   21.50    1.10
  -7  -7  -2   56.64    1.63
  -7  -7  -2   56.03    1.61
  -7  -7  -2   57.36    1.63
  -7  -7  -2   54.16    1.60
   7   7   2   48.53    1.63
   7   7   2   55.64    1.91
   7   7   2   56.49    1.64
  -8  -7  -2    6.11    0.63
  -8  -7  -2    6.98    0.68
  -8  -7  -2    6.05    0.67
  -8  -7  -2    6.79    0.64
   8   7   2    6.61    0.74
   8   7   2    7.50    0.70
   8   7   2    7.24    0.72
  -9  -7  -2    9.18    0.81
  -9  -7  -2    9.55    0.86
  -9  -7  -2    9.57    0.80
  -9  -7  -2    9.86    1.28
  -9  -7  -2    8.54    0.88
   9   7   2    9.44    1.05
   9   7   2    8.69    0.87
 -10  -7  -2   29.01    1.34
 -10  -7  -2   25.36    1.28
 -10  -7  -2   28.84    1.35
 -10  -7  -2   29.55    1.73
 -10  -7  -2   27.72    1.34
  10   7   2   26.16    1.34
  10   7   2   27.00    1.40
  10   7   2   31.02    1.59
 -11  -7  -2    0.51    0.59
 -11  -7  -2    1.26    0.56
 -11  -7  -2    0.89    0.86
 -11  -7  -2    1.31    0.60
 -11  -7  -2    1.35    0.60
  11   7   2    1.05    0.53
  11   7   2    1.49    0.81
  11   7   2   -0.93    0.66
   5  -8  -2   12.87    1.14
   5  -8  -2   14.16    1.19
   5  -8  -2   12.34    1.24
  -5   8   2   12.20    0.77
  -5   8   2   11.78    1.54
  -5   8   2   11.49    1.29
  -5   8   2   12.34    1.26
   4  -8  -2    0.42    0.46
   4  -8  -2    0.78    0.52
   4  -8  -2    0.57    0.44
  -4   8   2    0.09    0.20
  -4   8   2    0.54    0.26
  -4   8   2    0.29    0.54
  -4   8   2    1.46    0.57
  -4   8   2    1.23    0.72
   3  -8  -2    0.22    0.43
   3  -8  -2    0.68    0.40
   3  -8  -2    0.19    0.44
  -3   8   2    0.54    0.18
  -3   8   2    0.58    0.68
  -3   8   2    0.35    0.29
  -3   8   2    0.81    0.46
  -3   8   2   -0.08    0.41
   2  -8  -2    5.87    0.74
   2  -8  -2    7.18    0.74
   2  -8  -2    8.10    0.70
  -2   8   2    6.04    0.56
  -2   8   2    7.47    0.78
  -2   8   2    5.48    0.76
  -2   8   2    7.13    0.60
   1  -8  -2   11.10    1.13
   1  -8  -2   10.31    0.68
   1  -8  -2    9.13    0.65
   1  -8  -2    8.52    0.68
  -1   8   2   11.33    1.15
  -1   8   2    8.42    0.71
  -1   8   2    8.81    0.71
  -1   8   2   10.00    0.70
   0  -8  -2    7.55    0.53
   0  -8  -2    7.91    0.53
   0  -8  -2    7.00    0.52
   0  -8  -2    7.31    0.98
   0   8   2    6.76    0.99
   0   8   2    7.32    0.55
   0   8   2    6.88    0.70
  -1  -8  -2    7.16    0.44
  -1  -8  -2    6.92    0.70
  -1  -8  -2    7.00    0.36
  -1  -8  -2    7.63    0.37
  -1  -8  -2    7.02    0.44
  -1  -8  -2    7.34    0.95
   1   8   2    7.08    0.41
   1   8   2    7.68    0.43
  -2  -8  -2   70.00    2.30
  -2  -8  -2   66.34    1.78
  -2  -8  -2   69.06    2.10
  -2  -8  -2   68.72    1.79
  -3  -8  -2   14.61    0.94
  -3  -8  -2   17.04    1.12
   3   8   2   17.86    0.98
  -4  -8  -2    0.65    0.12
  -4  -8  -2    0.49    0.13
  -4  -8  -2    0.09    0.51
  -4  -8  -2    0.44    0.47
   4   8   2    0.17    0.41
  -5  -8  -2    0.74    0.53
  -5  -8  -2    1.13    0.18
  -5  -8  -2    1.03    0.20
  -5  -8  -2    0.83    0.53
   5   8   2    0.40    0.45
  -6  -8  -2   16.85    1.17
  -6  -8  -2   16.44    0.64
  -6  -8  -2   15.93    1.14
  -6  -8  -2   16.35    0.66
   6   8   2   15.77    0.56
   6   8   2   16.48    0.58
   6   8   2   17.18    1.04
  -7  -8  -2    0.64    0.29
  -7  -8  -2    0.77    0.24
  -7  -8  -2    0.60    0.22
  -7  -8  -2    0.39    0.27
   7   8   2    0.92    0.25
   7   8   2    0.22    0.50
   7   8   2    0.39    0.27
  -8  -8  -2   19.46    0.88
  -8  -8  -2   15.96    0.82
  -8  -8  -2   17.75    0.84
  -8  -8  -2   18.59    0.84
   8   8   2   18.40    0.87
   8   8   2   17.97    1.19
  -9  -8  -2    5.30    0.63
  -9  -8  -2    4.31    0.52
  -9  -8  -2    4.71    0.50
  -9  -8  -2    4.52    0.51
  -9  -8  -2    5.74    0.92
   9   8   2    4.22    0.51
   9   8   2    4.40    0.68
 -10  -8  -2    4.13    0.59
 -10  -8  -2    2.77    0.55
 -10  -8  -2    3.20    0.49
 -10  -8  -2    2.47    0.89
 -10  -8  -2    2.99    0.55
  10   8   2    3.22    0.76
  10   8   2    3.42    0.59
   4  -9  -2   23.41    1.31
   4  -9  -2   19.49    1.30
   4  -9  -2   18.93    1.35
  -4   9   2   20.72    1.76
  -4   9   2   21.64    1.41
  -4   9   2   21.55    1.40
   3  -9  -2    3.83    0.59
   3  -9  -2    3.01    0.55
   3  -9  -2    4.19    0.56
  -3   9   2    3.45    0.59
  -3   9   2    4.72    0.88
  -3   9   2    4.50    0.62
   2  -9  -2   31.86    1.31
   2  -9  -2   30.68    1.27
   2  -9  -2   32.86    1.29
  -2   9   2   32.72    1.78
  -2   9   2   31.89    1.33
   1  -9  -2   33.70    1.22
   1  -9  -2   33.18    1.75
   1  -9  -2   33.46    1.23
   1  -9  -2   33.07    1.25
  -1   9   2   32.40    1.27
  -1   9   2   35.01    1.26
  -1   9   2   33.45    1.73
   0  -9  -2   10.35    0.65
   0  -9  -2    8.60    0.58
   0  -9  -2   10.14    0.64
   0  -9  -2    9.26    0.59
   0  -9  -2    8.65    1.21
   0   9   2    9.16    1.18
   0   9   2    9.50    0.63
  -1  -9  -2    9.28    0.39
  -1  -9  -2    8.28    0.55
  -1  -9  -2    9.25    1.15
  -1  -9  -2    8.80    0.54
  -1  -9  -2    8.21    0.79
  -1  -9  -2    9.64    0.41
   1   9   2    8.85    0.48
   1   9   2    8.99    0.50
  -2  -9  -2    1.11    0.22
  -2  -9  -2    0.72    0.56
  -2  -9  -2    0.86    0.21
  -2  -9  -2    0.72    0.43
  -3  -9  -2    5.77    0.35
  -3  -9  -2    5.47    0.62
  -3  -9  -2    6.24    0.37
  -3  -9  -2    6.56    0.83
  -4  -9  -2   16.95    1.07
  -4  -9  -2   14.84    0.53
  -4  -9  -2   15.93    1.23
  -4  -9  -2   15.99    0.51
   4   9   2   15.67    1.02
  -5  -9  -2    5.58    0.79
  -5  -9  -2    4.17    0.33
  -5  -9  -2    5.02    0.70
  -5  -9  -2    5.41    0.37
   5   9   2    5.41    0.63
  -6  -9  -2    8.53    1.14
  -6  -9  -2    7.03    0.49
  -6  -9  -2    8.07    1.07
  -6  -9  -2    8.34    0.47
   6   9   2    8.79    0.91
  -7  -9  -2    5.46    0.51
  -7  -9  -2    4.89    0.85
  -7  -9  -2    5.82    0.84
  -7  -9  -2    4.48    0.53
   7   9   2    4.15    0.64
   7   9   2    4.58    0.37
  -8  -9  -2    8.99    0.48
  -8  -9  -2    9.72    0.52
  -8  -9  -2    8.72    0.68
  -8  -9  -2    9.54    1.33
  -8  -9  -2    9.57    0.69
   8   9   2    9.23    1.02
   8   9   2    8.78    0.62
  -9  -9  -2    2.11    0.85
  -9  -9  -2    0.57    0.41
  -9  -9  -2    1.06    0.35
  -9  -9  -2    0.98    0.34
  -9  -9  -2    0.79    0.40
   9   9   2   -0.03    0.62
   9   9   2    1.11    0.42
  -3  10   2   12.11    1.25
   2 -10  -2    1.64    0.50
   2 -10  -2    2.90    0.53
   2 -10  -2    3.07    0.60
   2 -10  -2    2.53    0.45
  -2  10   2    2.75    0.55
  -2  10   2    2.82    0.92
   1 -10  -2   24.28    1.79
   1 -10  -2   26.25    1.07
   1 -10  -2   23.23    1.14
   1 -10  -2   26.23    1.12
   1 -10  -2   23.77    1.02
  -1  10   2   28.04    1.77
   0 -10  -2    4.94    0.53
   0 -10  -2    4.57    0.46
   0 -10  -2    4.83    0.46
   0 -10  -2    5.60    0.55
   0 -10  -2    5.11    0.97
   0  10   2    5.96    0.64
   0  10   2    4.77    0.95
  -1 -10  -2    2.65    0.35
  -1 -10  -2    2.80    0.36
  -1 -10  -2    3.51    0.80
   1  10   2    2.41    0.28
  -2 -10  -2   14.08    1.02
  -2 -10  -2   14.70    1.35
  -2 -10  -2   14.24    0.64
  -2 -10  -2   13.25    0.62
  -3 -10  -2    2.56    0.26
  -3 -10  -2    2.39    0.77
  -3 -10  -2    2.22    0.25
  -3 -10  -2    2.52    0.59
  -4 -10  -2   40.59    1.87
  -4 -10  -2   40.32    1.67
  -4 -10  -2   39.43    1.13
  -4 -10  -2   38.64    1.11
  -5 -10  -2    2.47    0.25
  -5 -10  -2    2.98    0.33
  -5 -10  -2    2.04    0.83
  -5 -10  -2    2.54    0.62
   5  10   2    1.51    0.56
  -6 -10  -2    0.35    0.64
  -6 -10  -2   -0.31    0.71
  -6 -10  -2    0.85    0.24
  -6 -10  -2    0.60    0.22
   6  10   2   -0.02    0.53
  -7 -10  -2    0.03    0.27
  -7 -10  -2   -0.31    0.25
  -7 -10  -2   -1.04    0.69
  -7 -10  -2   -0.57    0.72
   7  10   2    0.20    0.53
  -8 -10  -2    4.81    0.46
  -8 -10  -2    4.58    0.43
  -8 -10  -2    4.31    0.98
  -8 -10  -2    4.63    0.93
   8  10   2    5.02    0.72
  -9 -10  -2    6.39    0.80
   0 -11  -2   18.74    1.01
   0 -11  -2   19.58    0.82
   0 -11  -2   18.68    0.79
   0 -11  -2   17.70    1.06
   0 -11  -2   24.19    1.82
   0  11   2   19.24    0.92
  -1 -11  -2    7.19    1.09
  -1 -11  -2    7.33    0.72
  -2 -11  -2    2.28    0.34
  -2 -11  -2    2.78    0.91
  -2 -11  -2    2.53    0.35
  -3 -11  -2    9.40    0.57
  -3 -11  -2    8.82    1.08
  -3 -11  -2   10.76    1.11
  -3 -11  -2    8.87    0.57
  -4 -11  -2    4.93    0.48
  -4 -11  -2    5.80    0.80
  -4 -11  -2    4.80    0.48
  -4 -11  -2    6.55    1.02
  -5 -11  -2   13.92    0.63
  -5 -11  -2   14.83    1.39
  -5 -11  -2   11.88    1.56
  -5 -11  -2   14.44    0.60
  -6 -11  -2    2.20    1.01
  -6 -11  -2    1.97    0.79
  -6 -11  -2    2.01    0.29
  -6 -11  -2    2.40    0.32
   6  11   2    1.68    0.64
  -7 -11  -2   -0.01    0.29
  -7 -11  -2   -0.94    0.73
  -7 -11  -2    0.70    0.95
  -7 -11  -2   -0.18    0.30
   7  11   2   -0.31    0.57
   6  10  -3    0.10    0.38
   6  10  -3    1.38    0.52
   6  10  -3    2.81    0.90
  -6 -10   3    1.65    0.50
  -6 -10   3    2.15    0.52
  -6 -10   3    1.27    0.38
   5  10  -3    5.91    0.66
   5  10  -3    6.45    0.96
  -5 -10   3    6.28    0.64
  -5 -10   3    7.39    1.11
  -5 -10   3    7.35    0.80
  -5 -10   3    8.92    0.90
  -5 -10   3    6.44    0.73
   4  10  -3    0.19    0.36
   4  10  -3    1.21    0.60
   4  10  -3    1.03    0.75
  -4 -10   3   -0.10    0.47
  -4 -10   3   -0.41    0.39
  -4 -10   3    0.32    0.47
  -4 -10   3    1.06    1.00
  -4 -10   3   -0.04    0.38
   3  10  -3    1.75    0.75
   3  10  -3    1.18    0.56
  -3 -10   3   -0.08    0.96
  -3 -10   3    1.25    0.49
  -3 -10   3    1.20    0.44
  -3 -10   3    1.69    0.53
  -3 -10   3    1.77    0.44
   2  10  -3    4.72    0.66
   2  10  -3    5.86    0.84
  -2 -10   3    4.79    0.58
  -2 -10   3    4.81    0.60
  -2 -10   3    4.42    1.05
  -2 -10   3    4.68    0.61
  -2 -10   3    5.04    0.56
   1  10  -3    0.71    0.44
   1  10  -3    2.12    0.65
   1  10  -3    2.81    0.76
  -1 -10   3    0.89    0.53
  -1 -10   3    2.89    0.54
  -1 -10   3    2.00    0.95
  -1 -10   3    2.18    0.54
  -1 -10   3    1.83    0.59
   8   9  -3   -0.08    0.41
   8   9  -3    0.16    0.58
  -8  -9   3   -0.22    0.46
  -8  -9   3    0.02    0.38
  -8  -9   3    0.00    0.49
  -8  -9   3    0.35    0.50
   7   9  -3   -1.45    0.66
   7   9  -3    0.26    0.37
   7   9  -3   -0.39    0.48
  -7  -9   3    0.56    0.43
  -7  -9   3    1.90    0.94
  -7  -9   3    0.77    0.48
  -7  -9   3   -0.08    0.38
  -7  -9   3   -0.66    0.40
  -7  -9   3   -0.75    0.82
   6   9  -3    0.27    0.33
   6   9  -3    2.36    0.75
  -6  -9   3    1.40    0.48
  -6  -9   3    1.13    0.89
  -6  -9   3    1.29    0.40
  -6  -9   3    1.25    0.43
   5   9  -3    7.98    0.91
  -5  -9   3    9.06    0.79
  -5  -9   3    8.53    0.79
  -5  -9   3   11.58    1.49
  -5  -9   3    9.30    0.86
  -5  -9   3    8.09    0.74
   4   9  -3    9.09    1.19
   4   9  -3    6.71    0.78
  -4  -9   3   10.46    1.45
  -4  -9   3    8.44    0.84
  -4  -9   3   10.12    0.80
  -4  -9   3    7.69    0.74
  -4  -9   3    8.50    0.73
   3   9  -3    4.51    0.51
   3   9  -3    5.18    0.76
  -3  -9   3    4.83    0.91
  -3  -9   3    4.34    0.50
  -3  -9   3    5.36    0.53
  -3  -9   3    4.63    0.53
  -3  -9   3    5.07    0.53
   2   9  -3    0.70    0.42
   2   9  -3    0.88    0.59
  -2  -9   3    1.02    0.39
  -2  -9   3    1.35    0.44
  -2  -9   3    0.79    0.80
  -2  -9   3    0.41    0.42
  -2  -9   3    0.99    0.45
   1   9  -3   15.99    1.04
   1   9  -3   13.08    1.22
  -1  -9   3   13.80    0.98
  -1  -9   3   13.67    0.97
  -1  -9   3   13.21    1.48
  -1  -9   3   15.45    0.99
  -1  -9   3   12.85    0.99
   0   9  -3   12.17    1.05
   0   9  -3   12.01    1.13
   0   9  -3   14.01    1.13
   0  -9   3   12.76    1.02
   0  -9   3   10.55    1.01
   0  -9   3   10.73    1.01
   0  -9   3   13.48    1.57
  -1   9  -3   19.90    1.39
  -1   9  -3   22.59    1.33
  -1   9  -3   21.72    1.32
   1  -9   3   20.83    1.27
   1  -9   3   18.28    1.23
   1  -9   3   21.67    1.26
   1  -9   3   20.72    1.81
   1  -9   3   19.62    1.30
  -2   9  -3    0.12    0.20
  -2   9  -3    1.90    0.72
  -2   9  -3    0.65    0.66
  -2   9  -3    0.37    0.61
  -2   9  -3   -0.07    0.20
   2  -9   3    1.03    0.58
   2  -9   3    0.71    0.63
   2  -9   3    1.25    0.60
   2  -9   3   -0.16    0.87
   2  -9   3    1.98    0.60
   9   8  -3   -0.76    0.45
   9   8  -3    0.22    0.60
   9   8  -3   -0.61    0.45
  -9  -8   3   -0.54    0.48
  -9  -8   3    0.14    0.53
  -9  -8   3   -0.34    0.49
  -9  -8   3    1.01    0.79
  -9  -8   3    0.08    0.50
   8   8  -3    6.76    0.91
   8   8  -3    9.41    1.04
   8   8  -3    8.76    0.83
  -8  -8   3    6.93    0.94
  -8  -8   3    8.47    0.92
  -8  -8   3    9.00    0.96
  -8  -8   3    8.69    0.90
  -8  -8   3    8.30    0.88
   7   8  -3    3.25    0.54
   7   8  -3    3.12    0.73
  -7  -8   3    2.20    0.44
  -7  -8   3    3.36    0.53
  -7  -8   3    2.54    0.47
  -7  -8   3    3.27    0.46
  -7  -8   3    2.89    0.83
   6   8  -3   24.78    1.43
   6   8  -3   21.86    1.11
   6   8  -3   21.27    1.09
  -6  -8   3   21.56    1.07
  -6  -8   3   22.22    1.00
  -6  -8   3   22.32    1.03
  -6  -8   3   23.02    1.07
   5   8  -3    6.26    0.76
   5   8  -3    5.71    0.81
   5   8  -3    5.95    0.78
  -5  -8   3    6.26    0.76
  -5  -8   3    5.81    0.70
  -5  -8   3    6.64    0.69
  -5  -8   3    7.42    0.72
   4   8  -3    0.67    0.38
   4   8  -3    1.47    0.40
   4   8  -3    0.31    0.60
  -4  -8   3    0.76    0.37
  -4  -8   3    1.12    0.34
  -4  -8   3    0.75    0.35
  -4  -8   3    0.69    0.36
   3   8  -3    1.37    0.62
   3   8  -3    0.44    0.38
   3   8  -3    1.10    0.37
  -3  -8   3    0.84    0.37
  -3  -8   3    1.25    0.36
  -3  -8   3    0.57    0.37
  -3  -8   3    0.70    0.35
   2   8  -3   15.35    1.12
   2   8  -3   15.12    0.96
   2   8  -3   15.97    0.92
  -2  -8   3   14.69    0.89
  -2  -8   3   14.89    0.88
  -2  -8   3   15.05    0.90
  -2  -8   3   15.03    0.89
   1   8  -3   15.56    1.02
   1   8  -3   16.23    1.13
   1   8  -3   15.68    0.98
  -1  -8   3   15.09    0.96
  -1  -8   3   13.68    0.89
  -1  -8   3   15.19    0.95
   0   8  -3    2.40    0.59
   0   8  -3    1.25    0.48
   0   8  -3    0.59    0.44
   0   8  -3    1.34    0.20
   0  -8   3    1.59    0.49
   0  -8   3    0.93    0.44
   0  -8   3    1.74    0.46
   0  -8   3    2.22    0.45
  -1   8  -3    7.42    0.75
  -1   8  -3    4.76    0.46
  -1   8  -3    5.54    0.64
   1  -8   3    5.77    0.63
   1  -8   3    4.89    0.90
   1  -8   3    4.97    0.58
   1  -8   3    5.63    0.66
   1  -8   3    5.25    0.57
  -2   8  -3    7.90    1.07
  -2   8  -3    9.95    1.14
  -2   8  -3    7.45    1.00
  -2   8  -3    8.92    0.61
   2  -8   3    8.36    1.01
   2  -8   3    7.32    0.75
   2  -8   3    8.06    0.97
   2  -8   3    8.17    1.02
   2  -8   3    8.23    0.96
  -3   8  -3    5.86    0.71
  -3   8  -3    5.50    0.77
  -3   8  -3    6.27    1.00
  -3   8  -3    5.28    0.66
  -3   8  -3    5.98    0.83
   3  -8   3    6.58    0.80
   3  -8   3    4.92    0.70
   3  -8   3    5.36    0.71
   3  -8   3    4.87    0.67
  -4   8  -3    1.55    0.87
  -4   8  -3    3.23    0.83
  -4   8  -3    2.83    0.48
  -4   8  -3    2.49    0.61
  -4   8  -3    1.28    0.83
   4  -8   3    2.13    0.67
   4  -8   3    1.19    0.70
   4  -8   3    1.81    0.71
   4  -8   3    1.96    0.72
  10   7  -3    0.61    0.67
  10   7  -3   -0.12    0.23
  10   7  -3    1.01    0.71
  10   7  -3    0.96    0.58
 -10  -7   3    0.29    0.61
 -10  -7   3    0.91    0.59
 -10  -7   3   -0.11    0.78
 -10  -7   3    0.86    0.59
 -10  -7   3    0.45    0.62
   9   7  -3    9.20    1.12
   9   7  -3    9.17    0.89
   9   7  -3    8.41    0.85
  -9  -7   3    9.11    1.00
  -9  -7   3    7.98    0.95
  -9  -7   3    9.52    1.04
  -9  -7   3   10.52    1.04
  -9  -7   3    9.05    1.05
   8   7  -3    1.63    0.51
   8   7  -3    0.88    0.44
  -8  -7   3    2.75    0.49
  -8  -7   3    2.59    0.51
  -8  -7   3    2.52    0.50
  -8  -7   3    2.08    0.71
  -8  -7   3    1.86    0.49
   7   7  -3    0.17    0.33
   7   7  -3   -0.40    0.42
   7   7  -3   -0.13    0.39
   7   7  -3   -0.11    0.56
  -7  -7   3   -0.43    0.35
  -7  -7   3   -0.52    0.38
  -7  -7   3   -0.15    0.68
  -7  -7   3   -0.03    0.37
  -7  -7   3    0.18    0.40
   6   7  -3    6.02    0.79
   6   7  -3    4.45    0.51
   6   7  -3    5.83    0.73
   6   7  -3    4.98    0.61
  -6  -7   3    5.06    0.51
  -6  -7   3    4.74    0.52
  -6  -7   3    4.56    0.46
  -6  -7   3    3.64    0.47
   5   7  -3   28.61    1.17
   5   7  -3   30.45    1.42
   5   7  -3   27.86    1.18
  -5  -7   3   27.93    1.13
  -5  -7   3   28.04    1.13
  -5  -7   3   27.69    1.11
  -5  -7   3   28.36    1.07
   4   7  -3   -0.48    0.33
   4   7  -3    0.13    0.34
   4   7  -3   -0.63    0.48
  -4  -7   3    0.36    0.82
  -4  -7   3   -0.39    0.31
  -4  -7   3   -0.30    0.28
  -4  -7   3    0.22    0.32
  -4  -7   3   -0.68    0.29
   3   7  -3   15.24    0.85
   3   7  -3   14.62    1.05
   3   7  -3   16.28    0.87
  -3  -7   3   15.70    1.19
  -3  -7   3   15.70    0.84
  -3  -7   3   15.92    0.83
  -3  -7   3   16.03    0.77
  -3  -7   3   16.34    0.83
   2   7  -3   79.07    2.34
   2   7  -3   78.03    2.33
   2   7  -3   80.41    2.50
  -2  -7   3   78.54    2.27
  -2  -7   3   78.25    2.32
  -2  -7   3   80.42    2.33
  -2  -7   3   81.83    2.64
  -2  -7   3   80.31    2.29
   1   7  -3    1.26    0.20
   1   7  -3    1.21    0.20
   1   7  -3    1.21    0.42
   1   7  -3    2.67    0.53
   1   7  -3    1.21    0.43
  -1  -7   3    0.78    0.37
  -1  -7   3    1.29    0.40
  -1  -7   3    0.99    0.63
  -1  -7   3    1.08    0.38
   0   7  -3   29.09    1.30
   0   7  -3   28.99    1.25
   0   7  -3   27.70    0.91
   0   7  -3   28.14    0.91
   0   7  -3   29.30    1.26
   0  -7   3   29.27    1.47
   0  -7   3   26.51    1.20
   0  -7   3   28.27    1.15
   0  -7   3   26.65    1.23
   0  -7   3   30.95    1.17
  -1   7  -3    5.77    0.63
  -1   7  -3    5.08    0.60
  -1   7  -3    5.97    0.82
  -1   7  -3    5.52    0.52
  -1   7  -3    5.19    0.52
   1  -7   3    6.03    0.57
   1  -7   3    6.30    0.77
   1  -7   3    5.15    0.56
   1  -7   3    6.16    0.81
   1  -7   3    5.79    0.62
  -2   7  -3   16.81    1.05
  -2   7  -3   18.38    1.17
  -2   7  -3   17.26    1.32
  -2   7  -3   17.87    0.80
  -2   7  -3   17.23    0.81
   2  -7   3   17.53    1.13
   2  -7   3   15.88    1.08
   2  -7   3   17.51    1.05
   2  -7   3   17.82    1.06
  -3   7  -3   10.83    0.79
  -3   7  -3   11.47    1.13
  -3   7  -3   12.88    0.97
  -3   7  -3   10.20    0.77
  -3   7  -3   12.88    1.27
  -3   7  -3   12.06    1.17
   3  -7   3   12.00    1.14
   3  -7   3   11.23    0.99
   3  -7   3   11.95    1.05
   3  -7   3   12.32    1.08
  -4   7  -3   25.39    1.54
  -4   7  -3   24.55    1.16
  -4   7  -3   25.83    1.27
  -4   7  -3   27.59    1.65
  -4   7  -3   26.04    1.57
  -4   7  -3   25.45    1.13
   4  -7   3   27.12    1.50
   4  -7   3   25.45    1.43
   4  -7   3   25.19    1.48
   4  -7   3   25.87    1.40
  -5   7  -3    0.98    0.81
  -5   7  -3   -0.18    0.50
  -5   7  -3   -0.57    0.72
  -5   7  -3    0.01    0.71
  -5   7  -3    0.42    0.47
  -5   7  -3   -0.15    0.42
   5  -7   3   -0.38    0.60
   5  -7   3   -1.15    0.67
   5  -7   3    0.14    0.74
   5  -7   3    0.90    0.66
  10   6  -3    6.64    0.86
  10   6  -3    5.17    0.75
  10   6  -3    6.02    0.70
  10   6  -3    6.65    0.73
 -10  -6   3    6.89    0.78
 -10  -6   3    4.84    0.65
 -10  -6   3    4.68    0.64
 -10  -6   3    5.41    0.93
 -10  -6   3    4.05    0.72
   9   6  -3   12.02    0.74
   9   6  -3   13.01    1.20
   9   6  -3   12.00    0.97
   9   6  -3   15.61    1.18
  -9  -6   3   14.60    1.03
  -9  -6   3   11.37    1.08
  -9  -6   3   12.52    1.30
  -9  -6   3   14.34    1.05
  -9  -6   3   12.62    1.09
   8   6  -3    0.21    0.27
   8   6  -3    0.24    0.42
   8   6  -3    0.51    0.47
   8   6  -3    0.24    0.32
  -8  -6   3    0.28    0.39
  -8  -6   3    0.22    0.44
  -8  -6   3    0.72    0.45
  -8  -6   3    1.29    0.49
   7   6  -3    6.93    0.52
   7   6  -3    7.17    0.87
   7   6  -3    7.82    1.00
   7   6  -3    7.37    0.67
   7   6  -3    8.15    0.66
  -7  -6   3    7.35    0.82
  -7  -6   3    6.97    0.83
  -7  -6   3    6.99    0.83
  -7  -6   3    5.95    0.72
  -7  -6   3    7.50    0.59
   6   6  -3   97.93    2.96
   6   6  -3   92.98    2.78
   6   6  -3   94.90    2.52
   6   6  -3   95.38    2.79
   6   6  -3   97.70    2.53
   6   6  -3   94.88    2.58
  -6  -6   3   95.60    2.74
  -6  -6   3   97.27    2.77
  -6  -6   3   97.15    2.77
  -6  -6   3   95.34    2.68
  -6  -6   3   99.84    2.95
   5   6  -3   21.46    1.19
   5   6  -3   23.14    0.81
   5   6  -3   20.07    0.68
   5   6  -3   20.65    0.70
   5   6  -3   20.86    1.00
   5   6  -3   16.51    0.97
  -5  -6   3   19.02    0.95
  -5  -6   3   21.24    1.17
  -5  -6   3   21.36    0.98
  -5  -6   3   20.25    0.89
  -5  -6   3   20.41    0.96
   4   6  -3  155.78    3.88
   4   6  -3  151.07    3.87
   4   6  -3  159.62    4.12
   4   6  -3  149.84    4.10
   4   6  -3  151.71    4.25
  -4  -6   3  153.88    4.05
  -4  -6   3  154.40    4.24
  -4  -6   3  152.04    4.09
  -4  -6   3  154.70    4.09
  -4  -6   3  149.04    4.01
   3   6  -3   -0.49    0.16
   3   6  -3   -0.02    0.16
   3   6  -3   -0.42    0.32
   3   6  -3   -0.73    0.30
   3   6  -3   -0.31    0.40
  -3  -6   3   -0.35    0.25
  -3  -6   3   -0.56    0.48
  -3  -6   3   -0.47    0.29
  -3  -6   3   -0.80    0.27
  -3  -6   3   -0.29    0.31
   2   6  -3    4.89    0.36
   2   6  -3    5.10    0.47
   2   6  -3    4.91    0.64
   2   6  -3    6.71    0.76
   2   6  -3    4.86    0.36
  -2  -6   3    3.93    0.43
  -2  -6   3    4.75    0.62
  -2  -6   3    4.19    0.52
  -2  -6   3    4.71    0.58
  -2  -6   3    4.39    0.59
   1   6  -3  124.08    3.45
   1   6  -3  120.32    3.16
   1   6  -3  122.64    3.37
   1   6  -3  122.15    3.17
   1   6  -3  120.97    3.36
  -1  -6   3  126.63    3.57
  -1  -6   3  122.47    3.36
  -1  -6   3  123.15    3.29
  -1  -6   3  121.44    3.36
   0   6  -3   -0.06    0.23
   0   6  -3   -0.16    0.33
   0   6  -3    0.31    0.36
   0   6  -3    0.99    0.42
   0   6  -3    0.33    0.23
   0  -6   3    0.42    0.32
   0  -6   3    0.23    0.49
   0  -6   3    0.39    0.32
   0  -6   3    0.45    0.35
   0  -6   3    0.19    0.37
  -1   6  -3   -0.05    0.40
  -1   6  -3    0.47    0.39
  -1   6  -3   -0.07    0.39
  -1   6  -3   -0.16    0.24
  -1   6  -3    0.20    0.27
   1  -6   3    0.41    0.34
   1  -6   3    0.89    0.38
   1  -6   3    0.00    0.38
   1  -6   3    0.21    0.48
   1  -6   3    0.05    0.39
  -2   6  -3   25.29    1.35
  -2   6  -3   24.65    0.96
  -2   6  -3   24.22    0.97
  -2   6  -3   23.89    1.22
  -2   6  -3   25.38    1.13
  -2   6  -3   25.47    1.25
   2  -6   3   26.25    1.22
   2  -6   3   25.44    1.13
   2  -6   3   25.89    1.21
   2  -6   3   23.88    1.11
   2  -6   3   26.73    1.35
  -3   6  -3    2.84    0.66
  -3   6  -3    3.64    0.43
  -3   6  -3    3.11    0.41
  -3   6  -3    4.12    0.54
  -3   6  -3    3.36    0.58
  -3   6  -3    1.68    0.51
   3  -6   3    3.41    0.53
   3  -6   3    3.32    0.56
   3  -6   3    3.46    0.60
   3  -6   3    3.45    0.66
   3  -6   3    3.14    0.51
  -4   6  -3   54.58    1.76
  -4   6  -3   54.33    2.11
  -4   6  -3   55.59    2.08
  -4   6  -3   53.72    1.77
   4  -6   3   55.24    1.94
   4  -6   3   54.71    2.04
   4  -6   3   54.74    2.05
   4  -6   3   52.42    1.94
  -5   6  -3    0.72    0.46
  -5   6  -3    3.05    0.77
  -5   6  -3    1.45    0.71
  -5   6  -3    1.40    0.47
  -5   6  -3    0.44    0.69
   5  -6   3    1.47    0.66
   5  -6   3    1.37    0.64
   5  -6   3    0.98    0.61
   5  -6   3    0.34    0.58
  -6   6  -3   30.63    1.42
  -6   6  -3   30.30    1.82
  -6   6  -3   31.69    1.80
  -6   6  -3   30.67    1.46
  -6   6  -3   30.87    1.80
   6  -6   3   28.05    1.72
   6  -6   3   29.28    1.77
   6  -6   3   32.75    1.78
   6  -6   3   31.68    1.64
  10   5  -3   -0.02    0.60
  10   5  -3    0.64    0.68
  10   5  -3    0.09    0.49
  10   5  -3    0.82    0.47
  10   5  -3    0.04    0.43
 -10  -5   3   -0.26    0.66
 -10  -5   3    0.24    0.57
 -10  -5   3    0.22    0.57
 -10  -5   3    0.45    0.59
 -10  -5   3   -0.03    0.49
   9   5  -3    1.38    0.39
   9   5  -3    1.84    0.49
   9   5  -3    1.35    0.60
   9   5  -3    1.66    0.44
   9   5  -3    1.61    0.58
  -9  -5   3    0.93    0.50
  -9  -5   3    1.73    0.56
  -9  -5   3    1.63    0.57
  -9  -5   3    0.91    0.49
   8   5  -3    3.79    0.49
   8   5  -3    4.63    0.44
   8   5  -3    5.08    0.63
   8   5  -3    5.26    0.66
  -8  -5   3    4.15    0.56
  -8  -5   3    4.87    0.61
  -8  -5   3    5.27    0.72
  -8  -5   3    4.12    0.49
  -8  -5   3    3.68    0.53
   7   5  -3    1.04    0.38
   7   5  -3    1.24    0.54
   7   5  -3    0.79    0.44
   7   5  -3    0.76    0.32
   7   5  -3    0.65    0.44
   7   5  -3    1.17    0.30
  -7  -5   3    0.40    0.48
  -7  -5   3    0.76    0.37
  -7  -5   3    0.70    0.42
  -7  -5   3    1.32    0.42
  -7  -5   3    1.05    0.37
   6   5  -3    2.60    0.44
   6   5  -3    2.10    0.44
   6   5  -3    3.67    0.37
   6   5  -3    3.39    0.34
   6   5  -3    3.73    0.60
   6   5  -3    3.06    0.32
  -6  -5   3    3.25    0.43
  -6  -5   3    2.09    0.49
  -6  -5   3    2.87    0.39
  -6  -5   3    3.04    0.44
   5   5  -3   32.53    1.24
   5   5  -3   35.53    1.26
   5   5  -3   33.92    1.38
   5   5  -3   34.75    1.05
   5   5  -3   34.22    1.04
  -5  -5   3   33.62    1.23
  -5  -5   3   34.70    1.19
  -5  -5   3   32.56    1.32
  -5  -5   3   34.59    1.23
  -5  -5   3   33.98    1.15
   4   5  -3   83.51    2.25
   4   5  -3   84.76    2.43
   4   5  -3   86.33    2.43
   4   5  -3   87.07    2.54
   4   5  -3   86.10    2.27
  -4  -5   3   86.06    2.38
  -4  -5   3   85.15    2.34
  -4  -5   3   84.80    2.51
  -4  -5   3   85.03    2.42
  -4  -5   3   85.19    2.42
   3   5  -3  220.54    5.74
   3   5  -3  224.60    5.59
   3   5  -3  220.04    5.83
   3   5  -3  230.42    5.75
   3   5  -3  217.97    5.58
  -3  -5   3  219.90    5.68
  -3  -5   3  220.71    5.73
  -3  -5   3  221.15    5.66
  -3  -5   3  218.48    5.73
   2   5  -3   17.43    0.82
   2   5  -3   17.44    0.81
   2   5  -3   17.68    0.63
   2   5  -3   19.99    0.90
   2   5  -3   16.89    0.64
  -2  -5   3   17.03    0.81
  -2  -5   3   16.88    0.72
  -2  -5   3   17.17    0.80
  -2  -5   3   17.57    0.98
  -2  -5   3   17.15    0.76
   1   5  -3  162.71    4.19
   1   5  -3  164.59    4.34
   1   5  -3  163.60    4.39
   1   5  -3  165.25    4.20
   1   5  -3  161.53    4.34
  -1  -5   3  159.60    4.33
  -1  -5   3  170.19    4.49
  -1  -5   3  163.74    4.27
  -1  -5   3  164.13    4.35
  -1  -5   3  167.83    4.29
   0   5  -3    6.81    0.65
   0   5  -3    6.93    0.47
   0   5  -3    6.84    0.48
   0   5  -3    7.24    0.66
   0   5  -3    7.01    0.67
   0  -5   3    7.37    0.75
   0  -5   3    6.28    0.56
   0  -5   3    7.38    0.62
   0  -5   3    8.00    0.59
   0  -5   3    6.84    0.62
  -1   5  -3   10.13    0.55
  -1   5  -3    8.90    0.75
  -1   5  -3    8.66    0.69
  -1   5  -3    9.41    0.57
  -1   5  -3    8.62    0.74
  -1   5  -3    9.99    0.82
   1  -5   3    9.88    0.75
   1  -5   3    9.58    0.67
   1  -5   3    9.24    0.65
   1  -5   3    9.74    0.72
   1  -5   3    9.84    0.81
  -2   5  -3    5.34    0.56
  -2   5  -3    6.45    0.82
  -2   5  -3    4.09    0.40
  -2   5  -3    3.80    0.49
  -2   5  -3    4.58    0.54
   2  -5   3    4.71    0.49
   2  -5   3    4.96    0.48
   2  -5   3    4.19    0.49
   2  -5   3    5.93    0.80
   2  -5   3    5.09    0.56
  -3   5  -3   26.74    1.29
  -3   5  -3   28.79    1.32
  -3   5  -3   28.23    1.09
  -3   5  -3   27.90    1.09
  -3   5  -3   28.48    1.34
   3  -5   3   27.12    1.29
   3  -5   3   26.25    1.16
   3  -5   3   27.14    1.31
   3  -5   3   27.57    1.29
   3  -5   3   30.18    1.20
  -4   5  -3   24.00    1.07
  -4   5  -3   23.13    1.08
  -4   5  -3   24.20    1.33
  -4   5  -3   23.57    1.33
   4  -5   3   24.63    1.21
   4  -5   3   24.22    1.29
   4  -5   3   23.02    1.30
   4  -5   3   24.75    1.21
  -5   5  -3   82.22    2.71
  -5   5  -3   81.80    2.47
  -5   5  -3   82.79    2.45
  -5   5  -3   81.37    2.72
   5  -5   3   80.81    2.67
   5  -5   3   74.97    2.67
   5  -5   3   83.31    2.58
   5  -5   3   83.18    2.60
  -6   5  -3   36.06    1.82
  -6   5  -3   35.64    1.74
  -6   5  -3   34.39    1.79
  -6   5  -3   35.02    1.52
   6  -5   3   36.07    1.69
   6  -5   3   36.92    1.63
   6  -5   3   35.90    1.79
   6  -5   3   36.45    1.74
  -7   5  -3   20.46    1.67
  -7   5  -3   21.51    1.67
  -7   5  -3   22.41    1.58
  -7   5  -3   21.52    1.36
  -7   5  -3   20.97    1.37
   7  -5   3   23.61    1.64
   7  -5   3   22.78    1.70
   7  -5   3   24.95    1.62
   7  -5   3   22.80    1.50
  11   4  -3    2.15    0.80
  11   4  -3    1.31    1.02
  11   4  -3    1.65    0.58
 -11  -4   3    1.14    0.77
 -11  -4   3    2.08    0.73
 -11  -4   3    1.67    0.70
 -11  -4   3    1.78    0.80
 -11  -4   3    1.31    0.66
  10   4  -3    6.89    0.64
  10   4  -3    5.21    0.62
  10   4  -3    6.29    0.84
  10   4  -3    6.79    0.89
 -10  -4   3    5.81    0.65
 -10  -4   3    6.05    0.79
 -10  -4   3    4.84    0.79
 -10  -4   3    5.00    0.65
   9   4  -3   57.36    2.10
   9   4  -3   54.54    1.81
   9   4  -3   55.97    1.86
  -9  -4   3   55.30    1.92
  -9  -4   3   56.18    2.01
  -9  -4   3   56.61    1.96
  -9  -4   3   57.39    2.07
  -9  -4   3   55.72    2.06
   8   4  -3   35.35    1.34
   8   4  -3   37.11    1.31
   8   4  -3   37.85    1.58
   8   4  -3   35.10    1.52
  -8  -4   3   37.73    1.45
  -8  -4   3   38.72    1.52
  -8  -4   3   36.01    1.52
  -8  -4   3   35.63    1.51
  -8  -4   3   38.84    1.42
   7   4  -3   38.52    1.46
   7   4  -3   36.47    1.23
   7   4  -3   36.82    1.26
   7   4  -3   37.51    1.45
   7   4  -3   35.49    1.44
   7   4  -3   35.85    1.24
  -7  -4   3   36.17    1.43
  -7  -4   3   37.22    1.43
  -7  -4   3   36.83    1.35
  -7  -4   3   32.98    1.29
  -7  -4   3   39.36    1.45
   6   4  -3    6.15    0.75
   6   4  -3    6.19    0.70
   6   4  -3    6.29    0.72
   6   4  -3    6.65    0.52
   6   4  -3    5.86    0.56
   6   4  -3    7.80    0.55
  -6  -4   3    7.15    0.75
  -6  -4   3    5.89    0.60
  -6  -4   3    6.37    0.64
  -6  -4   3    6.62    0.70
   5   4  -3   21.29    0.93
   5   4  -3   19.47    0.96
   5   4  -3   19.62    0.92
   5   4  -3   19.70    0.75
   5   4  -3   20.96    0.78
   5   4  -3   19.27    0.71
  -5  -4   3   19.78    0.89
  -5  -4   3   21.19    0.87
  -5  -4   3   20.23    0.81
  -5  -4   3   19.75    0.90
  -5  -4   3   20.52    0.96
   4   4  -3  106.86    2.72
   4   4  -3  106.42    2.92
   4   4  -3  106.01    2.92
   4   4  -3  106.28    2.79
   4   4  -3  104.68    2.98
   4   4  -3  108.74    2.81
  -4  -4   3  107.34    2.97
  -4  -4   3  104.89    2.91
  -4  -4   3  107.46    2.84
  -4  -4   3  106.61    2.87
  -4  -4   3  104.95    2.91
   3   4  -3   27.98    0.89
   3   4  -3   27.02    1.00
   3   4  -3   27.14    0.86
   3   4  -3   28.19    1.08
   3   4  -3   27.38    1.00
  -3  -4   3   28.43    1.07
  -3  -4   3   28.15    0.96
  -3  -4   3   27.35    0.99
  -3  -4   3   27.63    0.92
  -3  -4   3   26.83    0.99
   2   4  -3   47.13    1.54
   2   4  -3   49.97    1.50
   2   4  -3   49.70    1.36
   2   4  -3   48.69    1.38
   2   4  -3   48.13    1.49
  -2  -4   3   48.68    1.48
  -2  -4   3   48.91    1.41
  -2  -4   3   49.96    1.49
  -2  -4   3   49.05    1.44
   1   4  -3  120.58    3.22
   1   4  -3  117.58    3.25
   1   4  -3  121.40    3.23
   1   4  -3  119.24    3.11
   1   4  -3  119.82    3.10
  -1  -4   3  116.08    3.21
  -1  -4   3  120.48    3.15
  -1  -4   3  120.87    3.32
  -1  -4   3  126.11    3.23
  -1  -4   3  117.15    3.16
   0   4  -3   16.36    0.77
   0   4  -3   17.12    0.79
   0   4  -3   15.96    0.63
   0   4  -3   17.04    0.78
   0   4  -3   16.49    0.66
   0  -4   3   16.35    0.73
   0  -4   3   15.50    0.85
   0  -4   3   16.56    0.70
   0  -4   3   16.02    0.77
   0  -4   3   16.79    0.76
  -1   4  -3  365.10    9.34
  -1   4  -3  387.08    9.48
  -1   4  -3  371.71    9.47
  -1   4  -3  360.27    9.50
  -1   4  -3  370.92    9.35
   1  -4   3  386.98    9.47
   1  -4   3  370.36    9.39
   1  -4   3  363.51    9.46
   1  -4   3  369.23    9.51
   1  -4   3  373.28    9.39
  -2   4  -3    0.33    0.35
  -2   4  -3    0.04    0.24
  -2   4  -3   -0.17    0.33
  -2   4  -3   -0.01    0.25
  -2   4  -3    0.13    0.32
   2  -4   3   -0.20    0.32
   2  -4   3   -0.10    0.27
   2  -4   3    0.06    0.36
   2  -4   3    0.38    0.27
   2  -4   3    0.56    0.35
  -3   4  -3  103.89    3.01
  -3   4  -3  100.49    2.83
  -3   4  -3  106.06    3.00
  -3   4  -3  100.68    2.99
  -3   4  -3  100.99    2.82
   3  -4   3  104.78    3.01
   3  -4   3  104.37    2.89
   3  -4   3   98.50    2.98
   3  -4   3  110.69    3.01
   3  -4   3  101.08    2.88
  -4   4  -3   18.09    1.14
  -4   4  -3   17.00    1.07
  -4   4  -3   17.47    1.09
  -4   4  -3   18.61    0.96
  -4   4  -3   19.10    0.93
   4  -4   3   19.22    1.02
   4  -4   3   17.11    0.98
   4  -4   3   19.42    1.11
   4  -4   3   17.13    1.09
  -5   4  -3   -0.08    0.40
  -5   4  -3    0.20    0.52
  -5   4  -3   -0.20    0.44
  -5   4  -3    0.20    0.44
  -5   4  -3    0.49    0.54
   5  -4   3    0.32    0.48
   5  -4   3   -0.25    0.51
   5  -4   3   -0.26    0.47
   5  -4   3   -0.25    0.45
  -6   4  -3    2.32    0.65
  -6   4  -3    1.88    0.55
  -6   4  -3    1.94    0.69
  -6   4  -3    2.25    0.63
  -6   4  -3    1.26    0.49
   6  -4   3    1.85    0.52
   6  -4   3    1.70    0.64
   6  -4   3    1.08    0.52
   6  -4   3    1.13    0.63
  -7   4  -3   43.02    1.74
  -7   4  -3   43.12    2.03
  -7   4  -3   43.39    1.76
  -7   4  -3   45.88    1.91
  -7   4  -3   46.25    2.02
   7  -4   3   47.27    1.87
   7  -4   3   42.25    1.98
   7  -4   3   45.38    2.02
   7  -4   3   39.93    1.87
  -8   4  -3   13.23    1.53
  -8   4  -3   12.89    1.28
  -8   4  -3   12.64    1.34
  -8   4  -3   11.58    1.31
  -8   4  -3   12.36    1.57
   8  -4   3   12.00    1.62
   8  -4   3   13.01    1.43
   8  -4   3   12.63    1.56
   8  -4   3   11.71    1.45
  11   3  -3    2.79    0.61
  11   3  -3    1.82    0.68
  11   3  -3    2.99    0.81
  11   3  -3    2.35    0.80
 -11  -3   3    1.88    0.69
 -11  -3   3    3.24    0.78
 -11  -3   3    3.27    0.81
 -11  -3   3    2.40    0.89
  10   3  -3    1.14    0.69
  10   3  -3    0.35    0.45
  10   3  -3    0.79    0.52
  10   3  -3    0.90    0.72
 -10  -3   3    1.53    0.58
 -10  -3   3    1.08    0.66
 -10  -3   3    0.87    0.69
 -10  -3   3    1.38    0.59
 -10  -3   3    0.29    0.52
   9   3  -3   10.24    1.14
   9   3  -3    8.44    0.90
   9   3  -3    8.34    0.92
  -9  -3   3    8.81    1.07
  -9  -3   3    5.98    0.62
  -9  -3   3    7.30    0.91
  -9  -3   3    7.90    0.93
  -9  -3   3    6.10    0.72
   8   3  -3   24.93    1.30
   8   3  -3   24.81    1.07
   8   3  -3   22.80    1.10
  -8  -3   3   22.92    1.11
  -8  -3   3   24.21    1.15
  -8  -3   3   22.42    1.25
  -8  -3   3   23.61    1.26
  -8  -3   3   24.72    1.17
   7   3  -3   21.21    1.09
   7   3  -3   18.92    0.88
   7   3  -3   16.54    0.90
   7   3  -3   18.41    1.06
  -7  -3   3   18.48    0.96
  -7  -3   3   17.81    1.04
  -7  -3   3   18.88    1.03
  -7  -3   3   18.14    0.96
  -7  -3   3   16.13    0.89
   6   3  -3   18.21    0.96
   6   3  -3   19.74    0.87
   6   3  -3   19.29    0.99
   6   3  -3   19.51    0.82
   6   3  -3   21.38    0.96
  -6  -3   3   18.27    0.86
  -6  -3   3   20.92    0.94
  -6  -3   3   19.31    0.97
  -6  -3   3   18.74    0.88
  -6  -3   3   19.79    0.96
   5   3  -3   11.78    0.74
   5   3  -3   12.70    0.65
   5   3  -3   13.28    0.77
   5   3  -3   13.00    0.62
   5   3  -3   12.40    0.74
  -5  -3   3   12.88    0.74
  -5  -3   3   13.43    0.75
  -5  -3   3   13.42    0.71
  -5  -3   3   12.89    0.74
  -5  -3   3   12.30    0.64
   4   3  -3    0.73    0.21
   4   3  -3    0.44    0.31
   4   3  -3    0.40    0.18
   4   3  -3    0.65    0.27
   4   3  -3    0.22    0.26
   4   3  -3    0.55    0.22
  -4  -3   3    0.42    0.21
  -4  -3   3    0.43    0.23
  -4  -3   3    0.66    0.27
  -4  -3   3    0.46    0.26
  -4  -3   3    0.66    0.31
   3   3  -3   91.83    2.43
   3   3  -3   86.68    2.52
   3   3  -3   92.62    2.56
   3   3  -3   94.08    2.32
   3   3  -3   91.30    2.52
   3   3  -3   94.31    2.45
  -3  -3   3   93.41    2.48
  -3  -3   3   94.45    2.55
  -3  -3   3   89.66    2.52
  -3  -3   3   93.02    2.45
  -3  -3   3   91.14    2.52
   2   3  -3   13.34    0.67
   2   3  -3   13.25    0.53
   2   3  -3   13.49    0.63
   2   3  -3   13.61    0.65
  -2  -3   3   13.96    0.60
  -2  -3   3   12.75    0.63
  -2  -3   3   12.95    0.56
  -2  -3   3   12.73    0.43
  -2  -3   3   13.79    0.63
   1   3  -3  139.62    3.69
   1   3  -3  138.93    3.59
   1   3  -3  143.37    3.68
   1   3  -3  135.33    3.67
   1   3  -3  140.24    3.58
  -1  -3   3  138.96    3.72
  -1  -3   3  138.93    3.66
  -1  -3   3  136.45    3.60
  -1  -3   3  142.53    3.68
  -1  -3   3  140.95    3.62
   0   3  -3  182.33    4.56
   0   3  -3  167.35    4.63
   0   3  -3  176.07    4.64
   0   3  -3  178.83    4.55
   0  -3   3  178.70    4.67
   0  -3   3  179.91    4.65
   0  -3   3  178.54    4.64
   0  -3   3  184.73    4.58
  -1   3  -3  123.85    3.25
  -1   3  -3  129.27    3.37
  -1   3  -3  123.22    3.36
  -1   3  -3  125.37    3.36
  -1   3  -3  124.54    3.26
   1  -3   3  122.03    3.36
   1  -3   3  123.11    3.35
   1  -3   3  125.23    3.28
   1  -3   3  121.72    3.29
   1  -3   3  127.14    3.36
  -2   3  -3   13.98    0.78
  -2   3  -3   15.25    0.78
  -2   3  -3   13.20    0.73
  -2   3  -3   13.60    0.67
  -2   3  -3   14.93    0.65
   2  -3   3   14.01    0.76
   2  -3   3   13.81    0.69
   2  -3   3   12.35    0.67
   2  -3   3   14.97    0.78
   2  -3   3   13.13    0.74
  -3   3  -3  134.62    3.64
  -3   3  -3  141.64    3.79
  -3   3  -3  139.00    3.78
  -3   3  -3  131.88    3.74
  -3   3  -3  139.21    3.66
   3  -3   3  135.69    3.68
   3  -3   3  138.36    3.69
   3  -3   3  138.36    3.77
   3  -3   3  138.63    3.78
  -4   3  -3   73.01    2.25
  -4   3  -3   72.12    2.15
  -4   3  -3   71.47    2.28
  -4   3  -3   70.93    2.28
  -4   3  -3   72.55    2.13
   4  -3   3   76.76    2.30
   4  -3   3   72.38    2.18
   4  -3   3   76.74    2.30
   4  -3   3   73.44    2.18
  -5   3  -3   57.22    1.94
  -5   3  -3   58.68    1.83
  -5   3  -3   58.27    2.01
  -5   3  -3   57.37    2.02
  -5   3  -3   60.15    1.86
   5  -3   3   59.59    1.90
   5  -3   3   55.84    1.88
   5  -3   3   55.59    1.99
   5  -3   3   56.10    1.99
  -6   3  -3    1.07    0.44
  -6   3  -3    1.21    0.48
  -6   3  -3    1.05    0.50
  -6   3  -3    1.61    0.61
  -6   3  -3    1.07    0.57
   6  -3   3    1.35    0.59
   6  -3   3    1.31    0.46
   6  -3   3   -0.40    0.53
  -7   3  -3   11.95    1.26
  -7   3  -3   12.64    1.11
  -7   3  -3   11.32    1.03
  -7   3  -3   10.65    1.27
   7  -3   3    9.93    1.20
   7  -3   3   11.51    1.11
   7  -3   3   11.13    1.27
  -8   3  -3    9.49    1.01
  -8   3  -3   11.72    1.41
  -8   3  -3   10.41    1.26
  -8   3  -3    9.37    1.16
  -8   3  -3    9.48    1.16
   8  -3   3    8.43    0.83
   8  -3   3    8.59    0.97
   8  -3   3   11.45    1.40
   8  -3   3    8.63    0.92
  -9   3  -3    4.06    0.77
  -9   3  -3    6.42    0.94
  -9   3  -3    6.84    0.97
  -9   3  -3    4.47    0.95
  -9   3  -3    6.19    0.79
   9  -3   3    4.97    1.06
   9  -3   3    4.60    0.80
   9  -3   3    6.22    1.09
  11   2  -3    1.00    0.63
  11   2  -3    1.25    0.75
  11   2  -3    2.73    0.83
  11   2  -3    1.60    0.84
 -11  -2   3    1.59    0.68
 -11  -2   3    1.61    0.79
 -11  -2   3    1.87    0.71
 -11  -2   3    1.23    0.79
 -11  -2   3    0.63    0.56
  10   2  -3    4.09    0.78
  10   2  -3    4.85    0.67
  10   2  -3    4.98    0.82
 -10  -2   3    3.69    0.65
 -10  -2   3    4.60    0.69
 -10  -2   3    4.11    0.82
 -10  -2   3    4.01    0.80
 -10  -2   3    4.32    0.60
   9   2  -3    0.40    0.45
   9   2  -3    0.76    0.51
   9   2  -3    1.62    0.66
  -9  -2   3    1.32    0.50
  -9  -2   3    1.40    0.62
  -9  -2   3    0.57    0.45
  -9  -2   3    1.05    0.44
  -9  -2   3    1.19    0.59
   8   2  -3   34.20    1.33
   8   2  -3   34.78    1.54
   8   2  -3   33.97    1.37
  -8  -2   3   34.22    1.38
  -8  -2   3   33.02    1.30
  -8  -2   3   34.42    1.51
  -8  -2   3   34.23    1.51
  -8  -2   3   34.33    1.35
   7   2  -3    5.40    0.52
   7   2  -3    4.25    0.43
   7   2  -3    4.05    0.55
   7   2  -3    4.41    0.59
  -7  -2   3    4.01    0.54
  -7  -2   3    3.02    0.41
  -7  -2   3    4.57    0.51
  -7  -2   3    5.00    0.63
  -7  -2   3    3.83    0.53
   6   2  -3  133.43    3.66
   6   2  -3  135.21    3.68
   6   2  -3  131.41    3.53
   6   2  -3  131.22    3.55
  -6  -2   3  129.16    3.58
  -6  -2   3  136.24    3.58
  -6  -2   3  130.94    3.66
  -6  -2   3  131.75    3.55
  -6  -2   3  132.87    3.67
   5   2  -3   14.77    0.72
   5   2  -3   14.06    0.78
   5   2  -3   15.00    0.71
   5   2  -3   14.26    0.80
   5   2  -3   14.35    0.66
  -5  -2   3   14.76    0.70
  -5  -2   3   13.88    0.68
  -5  -2   3   12.60    0.77
  -5  -2   3   14.06    0.72
   4   2  -3   33.23    1.14
   4   2  -3   30.17    1.08
   4   2  -3   33.38    1.06
   4   2  -3   32.34    1.02
   4   2  -3   31.57    1.12
  -4  -2   3   32.81    1.13
  -4  -2   3   32.31    1.12
  -4  -2   3   35.35    1.09
  -4  -2   3   30.84    1.03
  -4  -2   3   32.16    1.08
   3   2  -3    8.41    0.30
   3   2  -3    7.21    0.47
   3   2  -3    8.58    0.55
   3   2  -3    7.69    0.46
   3   2  -3    7.84    0.53
   3   2  -3    7.46    0.55
  -3  -2   3    7.64    0.54
  -3  -2   3    8.22    0.46
  -3  -2   3    8.66    0.55
  -3  -2   3    7.87    0.49
  -3  -2   3    8.92    0.53
   2   2  -3   53.35    1.50
   2   2  -3   48.38    1.48
   2   2  -3   51.44    1.41
   2   2  -3   51.73    1.43
   2   2  -3   49.55    1.49
  -2  -2   3   53.96    1.50
  -2  -2   3   49.99    1.42
  -2  -2   3   49.87    1.48
  -2  -2   3   51.77    1.45
   1   2  -3    1.39    0.20
   1   2  -3    1.21    0.24
   1   2  -3    1.05    0.23
   1   2  -3    1.75    0.27
  -1  -2   3    1.44    0.25
  -1  -2   3    1.51    0.21
  -1  -2   3    1.52    0.24
  -1  -2   3    1.30    0.23
   0   2  -3  521.61   13.13
   0   2  -3  515.10   13.20
   0   2  -3  523.16   13.20
   0   2  -3  532.89   13.14
   0  -2   3  534.75   13.15
   0  -2   3  541.01   13.21
   0  -2   3  536.60   13.16
   0  -2   3  537.32   13.20
   0  -2   3  510.35   13.19
  -1   2  -3   16.88    0.66
  -1   2  -3   16.76    0.70
  -1   2  -3   18.15    0.74
  -1   2  -3   16.73    0.75
  -1   2  -3   16.83    0.64
   1  -2   3   16.89    0.66
   1  -2   3   18.37    0.69
   1  -2   3   18.30    0.75
   1  -2   3   17.98    0.75
   1  -2   3   16.63    0.69
  -2   2  -3  106.69    3.03
  -2   2  -3  112.96    2.96
  -2   2  -3  108.93    3.00
  -2   2  -3  116.27    3.06
  -2   2  -3  113.36    2.96
   2  -2   3  111.49    3.05
   2  -2   3  111.09    3.00
   2  -2   3  113.41    2.98
   2  -2   3  109.57    2.96
   2  -2   3  113.25    3.05
  -3   2  -3   79.22    2.31
  -3   2  -3   77.67    2.31
  -3   2  -3   80.27    2.21
  -3   2  -3   81.18    2.22
  -3   2  -3   79.47    2.26
   3  -2   3   79.31    2.31
   3  -2   3   77.89    2.23
   3  -2   3   81.72    2.32
   3  -2   3   78.21    2.22
  -4   2  -3    2.02    0.35
  -4   2  -3    2.64    0.38
  -4   2  -3    1.93    0.40
  -4   2  -3    2.31    0.45
  -4   2  -3    1.69    0.31
   4  -2   3    2.47    0.44
   4  -2   3    2.58    0.37
   4  -2   3    1.77    0.33
   4  -2   3    2.01    0.39
  -5   2  -3   17.02    0.89
  -5   2  -3   17.65    1.03
  -5   2  -3   17.14    1.02
  -5   2  -3   17.33    0.88
  -5   2  -3   17.11    0.92
   5  -2   3   15.97    0.89
   5  -2   3   15.69    1.00
   5  -2   3   15.94    1.00
   5  -2   3   16.75    0.90
  -6   2  -3   24.95    1.19
  -6   2  -3   26.15    1.16
  -6   2  -3   25.55    1.32
  -6   2  -3   25.86    1.34
  -6   2  -3   26.71    1.17
   6  -2   3   21.30    1.27
   6  -2   3   24.98    1.36
   6  -2   3   23.71    1.18
   6  -2   3   25.91    1.18
  -7   2  -3   -0.59    0.58
  -7   2  -3    0.19    0.54
  -7   2  -3    0.32    0.44
  -7   2  -3    1.03    0.45
  -7   2  -3    0.03    0.48
   7  -2   3    0.02    0.55
   7  -2   3    0.06    0.46
   7  -2   3    0.16    0.57
  -8   2  -3   -0.09    0.65
  -8   2  -3    0.23    0.56
  -8   2  -3    0.21    0.65
  -8   2  -3    0.70    0.54
  -8   2  -3   -0.19    0.51
   8  -2   3    0.74    0.57
   8  -2   3   -0.20    0.67
   8  -2   3    0.57    0.67
   8  -2   3   -0.04    0.61
  -9   2  -3    5.55    0.81
  -9   2  -3    3.53    0.77
  -9   2  -3    4.40    0.92
  -9   2  -3    4.54    0.71
  -9   2  -3    4.98    0.89
   9  -2   3    4.90    0.96
   9  -2   3    4.58    0.78
   9  -2   3    5.29    0.79
   9  -2   3    4.25    0.88
  11   1  -3   -0.51    0.92
  11   1  -3   -0.39    0.86
  11   1  -3    1.17    0.70
  11   1  -3    0.23    0.77
 -11  -1   3    0.51    0.80
 -11  -1   3    0.50    0.83
 -11  -1   3    0.34    0.43
 -11  -1   3    1.22    0.72
  10   1  -3    2.20    0.81
  10   1  -3    1.88    0.67
  10   1  -3    2.57    0.63
  10   1  -3    2.69    0.78
 -10  -1   3    2.03    0.62
 -10  -1   3    2.18    0.50
 -10  -1   3    2.48    0.61
 -10  -1   3    2.88    0.74
 -10  -1   3    2.38    0.76
   9   1  -3    0.01    0.62
   9   1  -3    0.09    0.49
   9   1  -3   -0.36    0.58
   9   1  -3    0.71    0.48
  -9  -1   3   -0.13    0.60
  -9  -1   3   -0.06    0.51
  -9  -1   3    0.63    0.58
  -9  -1   3    0.19    0.39
   8   1  -3    3.66    0.49
   8   1  -3    3.31    0.61
   8   1  -3    3.83    0.63
   8   1  -3    3.11    0.53
  -8  -1   3    3.47    0.45
  -8  -1   3    3.18    0.47
  -8  -1   3    3.53    0.52
  -8  -1   3    3.13    0.58
  -8  -1   3    3.28    0.62
   7   1  -3   18.27    1.10
   7   1  -3   18.56    0.93
   7   1  -3   17.86    1.07
   7   1  -3   18.39    0.99
  -7  -1   3   18.13    0.97
  -7  -1   3   18.14    1.08
  -7  -1   3   18.54    1.09
  -7  -1   3   18.66    0.84
  -7  -1   3   18.49    0.92
   6   1  -3   34.73    1.36
   6   1  -3   34.26    1.35
   6   1  -3   34.34    1.22
   6   1  -3   36.14    1.26
  -6  -1   3   34.27    1.26
  -6  -1   3   36.28    1.36
  -6  -1   3   35.40    1.34
  -6  -1   3   36.23    1.17
  -6  -1   3   34.30    1.21
   5   1  -3   32.89    1.10
   5   1  -3   32.72    1.13
   5   1  -3   33.20    1.10
   5   1  -3   34.32    1.23
   5   1  -3   33.65    1.23
  -5  -1   3   30.61    1.20
  -5  -1   3   34.17    1.08
  -5  -1   3   33.00    1.20
  -5  -1   3   32.32    1.14
  -5  -1   3   33.64    1.11
   4   1  -3  261.82    6.88
   4   1  -3  259.88    6.88
   4   1  -3  261.00    6.81
   4   1  -3  265.52    6.79
   4   1  -3  268.48    6.82
  -4  -1   3  267.68    6.80
  -4  -1   3  269.74    6.83
  -4  -1   3  267.27    6.80
  -4  -1   3  282.00    6.90
  -4  -1   3  280.69    6.90
   3   1  -3    0.30    0.25
   3   1  -3    0.55    0.19
   3   1  -3    0.06    0.20
   3   1  -3    0.24    0.22
   3   1  -3    0.28    0.20
  -3  -1   3    0.18    0.17
  -3  -1   3    0.74    0.24
  -3  -1   3    0.39    0.24
  -3  -1   3    0.43    0.23
  -3  -1   3    0.34    0.21
   2   1  -3   55.15    1.53
   2   1  -3   55.56    1.50
   2   1  -3   57.69    1.38
   2   1  -3   54.29    1.57
   2   1  -3   51.61    1.55
   2   1  -3   54.77    1.51
  -2  -1   3   52.79    1.56
  -2  -1   3   53.65    1.50
  -2  -1   3   56.49    1.57
  -2  -1   3   55.21    1.52
   1   1  -3  140.73    3.64
   1   1  -3  133.19    3.64
   1   1  -3  143.49    3.60
   1   1  -3  139.86    3.58
  -1  -1   3  139.24    3.64
  -1  -1   3  143.51    3.61
  -1  -1   3  142.44    3.65
  -1  -1   3  141.70    3.48
  -1  -1   3  141.23    3.59
   0   1  -3  357.22    9.11
   0   1  -3  378.26    9.12
   0   1  -3  354.39    9.05
   0  -1   3  362.63    9.07
   0  -1   3  375.19    9.12
   0  -1   3  355.27    9.11
   0  -1   3  358.58    9.06
  -1   1  -3  258.88    6.48
  -1   1  -3  251.56    6.47
  -1   1  -3  260.98    6.42
  -1   1  -3  254.93    6.41
  -1   1  -3  246.82    6.40
   1  -1   3  255.92    6.47
   1  -1   3  248.12    6.40
   1  -1   3  256.35    6.48
   1  -1   3  259.13    6.42
  -2   1  -3   43.71    1.29
  -2   1  -3   42.54    1.36
  -2   1  -3   43.80    1.27
  -2   1  -3   43.31    1.35
  -2   1  -3   43.83    1.29
   2  -1   3   44.57    1.30
   2  -1   3   45.09    1.27
   2  -1   3   44.21    1.36
   2  -1   3   44.09    1.37
   2  -1   3   45.34    1.29
  -3   1  -3    9.07    0.57
  -3   1  -3   10.34    0.67
  -3   1  -3   10.13    0.54
  -3   1  -3    9.99    0.57
  -3   1  -3   10.45    0.65
   3  -1   3   11.22    0.68
   3  -1   3    9.67    0.64
   3  -1   3    9.16    0.58
   3  -1   3    9.83    0.58
  -4   1  -3   32.95    1.20
  -4   1  -3   29.58    1.07
  -4   1  -3   31.43    1.07
  -4   1  -3   30.29    1.06
  -4   1  -3   30.81    1.18
   4  -1   3   31.31    1.19
   4  -1   3   29.88    1.08
   4  -1   3   30.34    1.08
   4  -1   3   29.96    1.18
  -5   1  -3    3.62    0.42
  -5   1  -3    3.87    0.50
  -5   1  -3    3.90    0.53
  -5   1  -3    4.13    0.57
  -5   1  -3    3.70    0.42
   5  -1   3    3.65    0.52
   5  -1   3    4.45    0.47
   5  -1   3    3.49    0.49
   5  -1   3    2.88    0.38
  -6   1  -3  244.71    6.30
  -6   1  -3  237.07    6.19
  -6   1  -3  236.86    6.13
  -6   1  -3  236.23    6.28
  -6   1  -3  232.55    6.14
   6  -1   3  232.00    6.26
   6  -1   3  230.29    6.14
   6  -1   3  237.10    6.16
   6  -1   3  226.35    6.26
  -7   1  -3   14.80    1.00
  -7   1  -3   13.55    1.13
  -7   1  -3   11.04    1.11
  -7   1  -3   14.93    1.02
   7  -1   3   14.96    1.01
   7  -1   3   13.27    1.05
   7  -1   3   15.63    1.13
   7  -1   3   12.83    1.11
  -8   1  -3    4.76    0.71
  -8   1  -3    6.14    0.68
  -8   1  -3    5.35    0.75
  -8   1  -3    4.66    0.65
   8  -1   3    5.33    0.64
   8  -1   3    6.16    0.82
   8  -1   3    5.49    0.73
  -9   1  -3   14.65    1.45
  -9   1  -3   15.89    1.26
  -9   1  -3   17.66    1.29
  -9   1  -3   16.72    1.48
  -9   1  -3   15.99    1.26
   9  -1   3   17.95    1.51
   9  -1   3   15.88    1.44
   9  -1   3   15.98    1.37
   9  -1   3   14.29    1.30
 -10   1  -3    1.26    0.75
 -10   1  -3   -0.53    0.79
 -10   1  -3    2.21    0.65
 -10   1  -3    0.37    0.69
 -10   1  -3    1.39    0.85
  10  -1   3   -0.16    0.74
  10  -1   3    1.67    0.79
  10  -1   3    0.30    0.76
  10  -1   3    1.00    0.96
  10   0  -3    5.76    0.93
  10   0  -3    8.41    0.86
  10   0  -3    8.18    1.07
  10   0  -3    8.79    0.91
 -10   0   3    8.26    0.86
 -10   0   3    6.37    0.78
 -10   0   3    7.74    0.96
 -10   0   3    8.60    1.02
   9   0  -3   80.15    2.85
   9   0  -3   84.90    2.67
   9   0  -3   90.70    2.94
  -9   0   3   85.55    2.87
  -9   0   3   85.35    2.46
  -9   0   3   86.05    2.73
  -9   0   3   88.39    2.91
   8   0  -3   52.61    1.98
   8   0  -3   51.86    2.01
   8   0  -3   51.53    1.78
   8   0  -3   51.66    1.85
  -8   0   3   50.79    1.97
  -8   0   3   49.61    1.97
  -8   0   3   51.44    1.84
  -8   0   3   52.49    1.60
   7   0  -3   39.57    1.43
   7   0  -3   39.08    1.46
   7   0  -3   44.19    1.62
   7   0  -3   38.45    1.56
  -7   0   3   37.14    1.57
  -7   0   3   39.05    1.27
  -7   0   3   39.25    1.46
  -7   0   3   38.59    1.57
  -7   0   3   39.23    1.40
   6   0  -3   66.49    2.10
   6   0  -3   64.66    1.99
   6   0  -3   67.48    2.08
   6   0  -3   63.41    1.94
  -6   0   3   66.79    1.85
  -6   0   3   66.39    1.94
  -6   0   3   65.96    2.08
  -6   0   3   64.23    2.07
  -6   0   3   66.32    1.99
   5   0  -3   10.99    0.76
   5   0  -3   11.71    0.68
   5   0  -3   11.52    0.64
   5   0  -3   11.27    0.74
  -5   0   3   11.01    0.53
  -5   0   3   11.10    0.63
  -5   0   3   10.58    0.73
  -5   0   3   10.68    0.73
  -5   0   3   10.76    0.67
   4   0  -3    5.52    0.53
   4   0  -3    6.06    0.57
   4   0  -3    5.23    0.59
   4   0  -3    4.70    0.40
   4   0  -3    6.07    0.47
  -4   0   3    5.48    0.38
  -4   0   3    5.57    0.55
  -4   0   3    6.17    0.47
  -4   0   3    6.03    0.51
   3   0  -3    2.63    0.31
   3   0  -3    2.91    0.30
   3   0  -3    2.42    0.31
   3   0  -3    2.47    0.25
   3   0  -3    3.62    0.45
  -3   0   3    2.08    0.30
  -3   0   3    1.86    0.24
  -3   0   3    2.81    0.32
  -3   0   3    2.95    0.35
   2   0  -3  635.28   16.23
   2   0  -3  651.21   16.22
   2   0  -3  679.81   16.29
   2   0  -3  657.21   16.28
  -2   0   3  646.50   16.22
  -2   0   3  654.03   16.24
  -2   0   3  664.72   16.28
  -2   0   3  643.12   16.28
   0   0  -3  338.42    8.90
   0   0  -3  368.54    8.91
   0   0  -3  358.46    8.87
   0   0  -3  362.14    8.86
   0   0   3  366.60    8.88
   0   0   3  371.36    8.83
   0   0   3  351.00    8.91
   0   0   3  334.78    8.90
   0   0   3  349.81    8.86
  -2   0  -3  330.74    8.53
  -2   0  -3  329.12    8.43
  -2   0  -3  335.15    8.48
  -2   0  -3  328.91    8.48
  -2   0  -3  354.32    8.55
   2   0   3  343.90    8.54
   2   0   3  344.53    8.48
   2   0   3  343.13    8.48
   2   0   3  336.21    8.54
  -3   0  -3  124.61    3.30
  -3   0  -3  120.22    3.22
  -3   0  -3  125.56    3.23
  -3   0  -3  122.66    3.29
  -3   0  -3  123.39    3.19
   3   0   3  123.12    3.29
   3   0   3  118.23    3.29
   3   0   3  127.58    3.23
   3   0   3  122.54    3.22
  -4   0  -3  405.98   10.21
  -4   0  -3  406.01   10.29
  -4   0  -3  402.63   10.20
  -4   0  -3  410.28   10.30
   4   0   3  393.54   10.29
   4   0   3  403.42   10.20
   4   0   3  418.59   10.30
   4   0   3  404.07   10.21
  -5   0  -3  124.37    3.39
  -5   0  -3  131.70    3.50
  -5   0  -3  132.47    3.50
  -5   0  -3  121.54    3.37
   5   0   3  125.51    3.38
   5   0   3  125.99    3.38
   5   0   3  123.69    3.48
   5   0   3  120.64    3.48
  -6   0  -3    0.58    0.42
  -6   0  -3   -0.19    0.34
  -6   0  -3   -0.32    0.31
  -6   0  -3    0.37    0.41
   6   0   3    0.34    0.45
   6   0   3   -0.18    0.32
   6   0   3    0.34    0.42
   6   0   3   -0.48    0.35
  -7   0  -3   33.11    1.35
  -7   0  -3   32.45    1.49
  -7   0  -3   33.93    1.48
  -7   0  -3   34.65    1.32
   7   0   3   34.17    1.49
   7   0   3   33.58    1.34
   7   0   3   33.46    1.36
   7   0   3   32.97    1.47
  -8   0  -3   40.70    1.57
  -8   0  -3   36.73    1.70
  -8   0  -3   40.50    1.72
   8   0   3   37.97    1.56
   8   0   3   40.63    1.73
   8   0   3   38.71    1.70
   8   0   3   39.49    1.54
  -9   0  -3    0.34    0.55
  -9   0  -3    0.09    0.67
  -9   0  -3   -0.59    0.67
   9   0   3   -1.22    0.55
   9   0   3   -0.11    0.65
   9   0   3   -0.69    0.58
   9   0   3   -0.19    0.66
 -10   0  -3    4.83    0.96
 -10   0  -3    5.05    0.81
 -10   0  -3    4.44    0.76
 -10   0  -3    5.54    0.95
  10   0   3    4.60    0.77
  10   0   3    4.08    0.78
  10   0   3    4.62    0.92
  10   0   3    3.04    0.77
  10  -1  -3    1.56    0.82
  10  -1  -3    2.12    0.69
  10  -1  -3    3.24    0.93
  10  -1  -3    1.64    0.82
 -10   1   3    1.41    0.70
 -10   1   3    2.34    0.66
 -10   1   3    1.55    0.84
 -10   1   3    2.95    0.89
   9  -1  -3   70.40    2.33
   9  -1  -3   70.30    2.56
   9  -1  -3   68.28    2.53
   9  -1  -3   66.70    2.38
  -9   1   3   71.49    2.55
  -9   1   3   67.50    2.28
  -9   1   3   67.32    2.53
  -9   1   3   68.30    2.35
   8  -1  -3    9.72    1.19
   8  -1  -3    6.64    0.77
   8  -1  -3    9.00    0.96
   8  -1  -3    8.85    1.14
  -8   1   3    9.61    1.01
  -8   1   3   10.54    1.17
  -8   1   3   10.74    1.15
  -8   1   3   10.17    0.62
   7  -1  -3  133.14    3.77
   7  -1  -3  138.26    3.82
   7  -1  -3  130.05    3.90
   7  -1  -3  138.94    3.95
  -7   1   3  138.03    3.58
  -7   1   3  135.74    3.75
  -7   1   3  135.96    3.80
  -7   1   3  143.31    3.95
  -7   1   3  139.93    3.93
   6  -1  -3    1.72    0.37
   6  -1  -3    2.26    0.46
   6  -1  -3    2.87    0.52
   6  -1  -3    2.31    0.41
  -6   1   3    2.53    0.51
  -6   1   3    2.35    0.47
  -6   1   3    2.16    0.41
  -6   1   3    2.47    0.37
  -6   1   3    2.77    0.36
   5  -1  -3  129.67    3.49
   5  -1  -3  127.91    3.56
   5  -1  -3  128.59    3.45
   5  -1  -3  128.28    3.56
  -5   1   3  126.69    3.31
  -5   1   3  135.05    3.58
  -5   1   3  127.12    3.43
  -5   1   3  125.52    3.47
  -5   1   3  133.24    3.57
   4  -1  -3   16.78    0.80
   4  -1  -3   18.43    0.76
   4  -1  -3   17.11    0.82
   4  -1  -3   17.34    0.72
  -4   1   3   17.77    0.82
  -4   1   3   16.52    0.81
  -4   1   3   17.60    0.57
  -4   1   3   17.08    0.71
  -4   1   3   16.70    0.74
   3  -1  -3   40.68    1.10
   3  -1  -3   39.12    1.27
   3  -1  -3   40.64    1.22
   3  -1  -3   39.81    1.28
   3  -1  -3   41.45    1.20
  -3   1   3   38.94    1.21
  -3   1   3   39.45    1.27
  -3   1   3   39.47    1.18
   2  -1  -3  590.56   14.66
   2  -1  -3  593.75   14.62
   2  -1  -3  580.92   14.60
   2  -1  -3  570.53   14.66
  -2   1   3  592.82   14.61
  -2   1   3  591.40   14.59
  -2   1   3  579.10   14.66
  -2   1   3  601.70   14.66
   1  -1  -3  399.17   10.05
   1  -1  -3  409.73   10.09
   1  -1  -3  405.08   10.09
   1  -1  -3  407.66   10.04
  -1   1   3  391.67   10.08
  -1   1   3  406.72   10.03
  -1   1   3  415.47   10.05
  -1   1   3  392.87   10.08
   0  -1  -3  548.20   13.94
   0   1   3  563.06   13.91
   0   1   3  592.85   13.91
   0   1   3  540.84   13.94
  -2  -1  -3  367.25    9.17
  -2  -1  -3  359.38    9.12
  -2  -1  -3  371.69    9.12
  -2  -1  -3  355.73    9.16
   2   1   3  362.02    9.17
   2   1   3  370.39    9.17
   2   1   3  371.38    9.12
   2   1   3  365.86    9.11
  -4  -1  -3  139.96    3.58
  -4  -1  -3  136.00    3.64
  -4  -1  -3  136.19    3.57
  -4  -1  -3  136.69    3.65
   4   1   3  132.32    3.64
   4   1   3  139.57    3.57
   4   1   3  135.16    3.64
   4   1   3  135.44    3.56
  -5  -1  -3  124.73    3.32
  -5  -1  -3  127.14    3.42
  -5  -1  -3  124.57    3.33
  -5  -1  -3  119.63    3.40
   5   1   3  123.45    3.31
   5   1   3  125.72    3.32
   5   1   3  120.22    3.40
   5   1   3  129.23    3.43
  -6  -1  -3    6.19    0.64
  -6  -1  -3    5.47    0.64
  -6  -1  -3    6.06    0.59
  -6  -1  -3    5.96    0.75
   6   1   3    6.08    0.76
   6   1   3    4.94    0.45
   6   1   3    5.27    0.72
   6   1   3    6.09    0.50
  -7  -1  -3   17.90    1.11
  -7  -1  -3   18.96    1.13
  -7  -1  -3   18.00    0.98
  -7  -1  -3   17.99    0.96
   7   1   3   18.78    1.10
   7   1   3   18.68    1.08
   7   1   3   16.81    0.96
   7   1   3   17.67    0.97
  -8  -1  -3    0.98    0.51
  -8  -1  -3    0.21    0.42
  -8  -1  -3    0.05    0.45
  -8  -1  -3    0.81    0.55
   8   1   3    0.32    0.49
   8   1   3    0.96    0.44
   8   1   3    0.82    0.44
   8   1   3    0.37    0.53
  -9  -1  -3    5.63    0.75
  -9  -1  -3    5.73    0.62
  -9  -1  -3    5.61    0.64
  -9  -1  -3    6.65    0.80
   9   1   3    7.94    0.74
   9   1   3    5.68    0.76
   9   1   3    5.70    0.77
 -10  -1  -3    1.12    0.65
 -10  -1  -3    2.08    0.76
 -10  -1  -3    1.59    0.61
 -10  -1  -3    1.86    0.75
  10   1   3    2.21    0.67
  10   1   3    1.44    0.77
  10   1   3    1.49    0.61
  10   1   3    1.89    0.72
  10  -2  -3    1.08    0.73
  10  -2  -3    0.28    0.66
  10  -2  -3    0.03    0.82
  10  -2  -3    0.48    0.87
 -10   2   3    0.22    0.25
 -10   2   3    0.56    0.79
 -10   2   3   -0.48    0.64
 -10   2   3    0.42    0.60
 -10   2   3    0.72    0.92
   9  -2  -3    1.13    0.63
   9  -2  -3    1.31    0.74
   9  -2  -3    1.64    0.75
   9  -2  -3    1.84    0.64
  -9   2   3    1.36    0.71
  -9   2   3    0.62    0.53
  -9   2   3    1.60    0.79
  -9   2   3    2.10    0.63
   8  -2  -3   -0.41    0.57
   8  -2  -3   -0.33    0.48
   8  -2  -3    0.83    0.66
  -8   2   3    0.30    0.23
  -8   2   3   -0.67    0.57
  -8   2   3   -0.56    0.59
  -8   2   3   -0.26    0.45
   7  -2  -3    0.31    0.54
   7  -2  -3    0.09    0.52
   7  -2  -3    0.77    0.42
  -7   2   3    0.58    0.54
  -7   2   3    1.13    0.44
  -7   2   3    0.23    0.44
  -7   2   3    0.73    0.57
   6  -2  -3   10.47    0.91
   6  -2  -3    8.97    0.91
   6  -2  -3    9.87    0.81
   6  -2  -3   10.94    0.77
  -6   2   3    8.20    0.87
  -6   2   3   11.10    0.93
  -6   2   3   10.93    0.80
  -6   2   3   11.33    0.75
  -6   2   3   10.54    0.43
   5  -2  -3   25.08    1.01
   5  -2  -3   23.81    1.09
   5  -2  -3   25.14    1.08
   5  -2  -3   23.28    0.96
  -5   2   3   24.61    0.70
  -5   2   3   22.87    0.93
  -5   2   3   23.60    1.07
  -5   2   3   24.18    1.08
  -5   2   3   24.76    0.98
   4  -2  -3  133.05    3.52
   4  -2  -3  136.09    3.59
   4  -2  -3  128.94    3.48
   4  -2  -3  131.16    3.58
  -4   2   3  133.24    3.47
  -4   2   3  135.42    3.50
  -4   2   3  126.36    3.57
  -4   2   3  130.53    3.58
   3  -2  -3  212.44    5.60
   3  -2  -3  231.29    5.70
   3  -2  -3  220.94    5.63
   3  -2  -3  216.48    5.68
  -3   2   3  218.73    5.61
  -3   2   3  221.70    5.59
  -3   2   3  223.73    5.69
  -3   2   3  216.96    5.68
   2  -2  -3  147.89    3.78
   2  -2  -3  153.14    3.79
   2  -2  -3  144.55    3.73
   2  -2  -3  147.19    3.72
   2  -2  -3  141.49    3.61
  -2   2   3  140.40    3.70
  -2   2   3  143.84    3.72
  -2   2   3  142.54    3.77
   1  -2  -3  712.37   17.39
  -1   2   3  677.32   17.38
  -1   2   3  711.77   17.34
   0  -2  -3  282.67    7.10
   0  -2  -3  289.50    7.07
   0  -2  -3  282.97    7.06
   0  -2  -3  287.36    7.10
   0   2   3  277.12    7.10
   0   2   3  290.21    7.12
   0   2   3  278.72    7.05
   0   2   3  284.70    7.05
   0   2   3  278.65    7.09
   0   2   3  285.34    7.10
  -1  -2  -3   12.23    0.43
  -1  -2  -3   12.85    0.41
  -1  -2  -3   12.61    0.46
  -1  -2  -3   13.41    0.47
  -1  -2  -3   12.78    0.43
   1   2   3   13.04    0.41
   1   2   3   12.75    0.53
   1   2   3   12.94    0.41
   1   2   3   13.12    0.41
   1   2   3   12.67    0.47
   1   2   3   12.93    0.47
  -2  -2  -3   80.68    2.25
  -2  -2  -3   87.97    2.26
  -2  -2  -3   85.70    2.21
   2   2   3   87.66    2.31
   2   2   3   84.24    2.25
   2   2   3   85.32    2.20
   2   2   3   87.64    2.26
   2   2   3   87.46    2.20
  -3  -2  -3  422.29   10.47
  -3  -2  -3  415.33   10.52
  -3  -2  -3  409.39   10.52
  -3  -2  -3  417.77   10.48
   3   2   3  418.68   10.46
   3   2   3  439.77   10.53
   3   2   3  432.34   10.46
   3   2   3  407.35   10.52
  -4  -2  -3  390.06    9.96
  -4  -2  -3  396.04   10.01
  -4  -2  -3  394.51    9.95
  -4  -2  -3  384.06   10.01
   4   2   3  411.86   10.02
   4   2   3  393.06    9.93
   4   2   3  397.71    9.94
   4   2   3  413.19   10.02
  -5  -2  -3   11.73    0.61
  -5  -2  -3   10.68    0.61
  -5  -2  -3   10.80    0.67
  -5  -2  -3   11.85    0.68
   5   2   3   10.22    0.59
   5   2   3   10.83    0.68
   5   2   3   10.23    0.57
   5   2   3   11.08    0.69
  -6  -2  -3  106.47    2.89
  -6  -2  -3  104.90    2.98
  -6  -2  -3  105.46    2.97
  -6  -2  -3  105.94    2.87
   6   2   3  105.03    2.86
   6   2   3  108.17    2.86
   6   2   3   98.14    2.96
   6   2   3  107.18    2.97
  -7  -2  -3   73.82    2.19
  -7  -2  -3   76.78    2.31
  -7  -2  -3   72.62    2.28
  -7  -2  -3   71.73    2.16
   7   2   3   72.58    2.14
   7   2   3   74.02    2.30
   7   2   3   70.92    2.27
   7   2   3   74.16    2.15
  -8  -2  -3   21.19    1.22
  -8  -2  -3   21.17    1.06
  -8  -2  -3   21.00    1.21
  -8  -2  -3   18.03    1.05
   8   2   3   22.37    1.05
   8   2   3   17.43    1.00
   8   2   3   19.27    1.20
  -9  -2  -3   19.59    1.15
  -9  -2  -3   19.41    1.32
  -9  -2  -3   19.58    1.15
  -9  -2  -3   20.51    1.30
   9   2   3   20.04    1.12
   9   2   3   18.69    1.11
   9   2   3   19.21    1.30
 -10  -2  -3    1.54    0.57
 -10  -2  -3    0.63    0.72
 -10  -2  -3    1.65    0.76
 -10  -2  -3    0.61    0.59
  10   2   3    1.01    0.54
  10   2   3    0.85    0.75
  10   2   3    0.68    0.70
 -11  -2  -3    0.12    0.62
 -11  -2  -3   -0.17    0.77
 -11  -2  -3   -0.27    0.76
 -11  -2  -3    1.15    0.65
  11   2   3    0.35    0.74
  11   2   3    0.80    0.68
  11   2   3    0.40    0.84
  11   2   3    0.18    0.64
   9  -3  -3    8.90    0.87
   9  -3  -3    8.08    1.04
   9  -3  -3    8.97    1.05
   9  -3  -3    7.72    0.89
  -9   3   3    9.78    1.22
  -9   3   3    7.80    0.97
  -9   3   3   11.15    1.18
  -9   3   3    7.56    0.99
   8  -3  -3   14.53    1.35
   8  -3  -3   13.11    1.29
   8  -3  -3   14.64    1.11
  -8   3   3   15.90    1.36
  -8   3   3   14.19    1.33
  -8   3   3   15.35    1.12
   7  -3  -3    2.41    0.47
   7  -3  -3    2.22    0.56
   7  -3  -3    3.38    0.70
   7  -3  -3    1.57    0.53
  -7   3   3    2.31    0.60
  -7   3   3    2.36    0.48
  -7   3   3    2.19    0.67
  -7   3   3    1.74    0.49
   6  -3  -3   70.66    2.28
   6  -3  -3   68.46    2.11
   6  -3  -3   64.72    2.23
   6  -3  -3   69.73    2.16
  -6   3   3   67.62    2.06
  -6   3   3   69.25    2.26
  -6   3   3   68.14    2.11
  -6   3   3   70.46    2.28
   5  -3  -3   40.49    1.45
   5  -3  -3   37.33    1.41
   5  -3  -3   37.53    1.35
   5  -3  -3   36.94    1.29
  -5   3   3   38.02    1.31
  -5   3   3   35.94    1.41
  -5   3   3   36.33    1.41
  -5   3   3   38.50    1.26
   4  -3  -3    0.75    0.31
   4  -3  -3    1.05    0.36
   4  -3  -3    0.66    0.28
   4  -3  -3    0.45    0.34
  -4   3   3    0.68    0.36
  -4   3   3    0.71    0.25
  -4   3   3    0.45    0.28
  -4   3   3    0.48    0.34
   3  -3  -3  183.47    4.68
   3  -3  -3  177.41    4.65
   3  -3  -3  175.86    4.73
   3  -3  -3  182.87    4.74
  -3   3   3  182.49    4.65
  -3   3   3  180.96    4.73
  -3   3   3  179.95    4.74
  -3   3   3  183.15    4.63
   2  -3  -3  313.92    7.81
   2  -3  -3  305.77    7.79
   2  -3  -3  315.39    7.86
   2  -3  -3  320.05    7.86
  -2   3   3  307.62    7.91
  -2   3   3  304.84    7.78
  -2   3   3  303.61    7.76
  -2   3   3  305.76    7.85
  -2   3   3  315.92    7.86
   1  -3  -3    0.40    0.18
   1  -3  -3    0.32    0.15
   1  -3  -3    0.42    0.14
   1  -3  -3    0.41    0.18
  -1   3   3    0.32    0.14
  -1   3   3    0.26    0.22
  -1   3   3    0.43    0.12
  -1   3   3    0.41    0.18
   0  -3  -3  524.40   12.71
   0  -3  -3  515.43   12.80
   0  -3  -3  517.43   12.74
   0  -3  -3  487.59   12.73
   0   3   3  515.09   12.74
   0   3   3  509.92   12.80
   0   3   3  514.21   12.74
   0   3   3  521.74   12.80
  -1  -3  -3   -0.06    0.09
  -1  -3  -3   -0.14    0.10
  -1  -3  -3   -0.06    0.14
  -1  -3  -3    0.05    0.11
  -1  -3  -3   -0.09    0.09
   1   3   3   -0.05    0.20
   1   3   3   -0.13    0.15
   1   3   3   -0.05    0.12
   1   3   3   -0.03    0.11
  -2  -3  -3   21.32    0.65
  -2  -3  -3   21.77    0.62
  -2  -3  -3   22.32    0.66
  -2  -3  -3   21.83    0.62
  -2  -3  -3   21.00    0.68
   2   3   3   21.43    0.78
   2   3   3   21.78    0.66
   2   3   3   20.50    0.65
  -3  -3  -3  111.66    2.86
  -3  -3  -3  111.35    2.86
  -3  -3  -3  111.66    2.90
  -3  -3  -3  110.36    2.90
   3   3   3  111.35    2.81
   3   3   3  112.20    2.81
   3   3   3  113.07    2.91
   3   3   3  112.02    2.90
   3   3   3  113.62    3.01
  -4  -3  -3  152.13    3.87
  -4  -3  -3  151.17    3.82
  -4  -3  -3  145.53    3.87
  -4  -3  -3  148.47    3.82
   4   3   3  145.14    3.87
   4   3   3  150.29    3.78
   4   3   3  149.03    3.78
   4   3   3  150.77    3.88
  -5  -3  -3    8.47    0.58
  -5  -3  -3    8.31    0.52
  -5  -3  -3    8.93    0.53
  -5  -3  -3    7.95    0.57
   5   3   3    8.86    0.60
   5   3   3    7.21    0.57
   5   3   3    8.99    0.48
   5   3   3    8.63    0.47
  -6  -3  -3    2.58    0.32
  -6  -3  -3    3.50    0.35
  -6  -3  -3    2.53    0.37
  -6  -3  -3    3.50    0.41
   6   3   3    3.52    0.32
   6   3   3    3.71    0.33
   6   3   3    3.01    0.39
   6   3   3    2.90    0.39
  -7  -3  -3    1.80    0.44
  -7  -3  -3    1.69    0.35
  -7  -3  -3    1.77    0.44
  -7  -3  -3    1.35    0.34
   7   3   3    1.56    0.41
   7   3   3    1.41    0.41
   7   3   3    2.01    0.35
   7   3   3    1.96    0.34
  -8  -3  -3   43.97    1.68
  -8  -3  -3   44.36    1.54
  -8  -3  -3   45.29    1.57
  -8  -3  -3   44.04    1.66
   8   3   3   43.39    1.68
   8   3   3   45.19    1.49
   8   3   3   45.41    1.69
   8   3   3   44.61    1.48
  -9  -3  -3    7.81    0.88
  -9  -3  -3    5.00    0.66
  -9  -3  -3    6.11    0.70
  -9  -3  -3    7.77    0.86
   9   3   3    8.45    0.83
   9   3   3    6.54    0.59
   9   3   3    8.00    1.04
 -10  -3  -3    9.58    1.02
 -10  -3  -3    7.83    0.86
 -10  -3  -3    7.85    0.74
 -10  -3  -3    8.96    1.20
  10   3   3    8.63    0.99
  10   3   3    9.03    0.97
  10   3   3    7.54    0.96
  10   3   3    9.28    1.22
 -11  -3  -3    5.90    0.88
 -11  -3  -3    5.76    0.75
 -11  -3  -3    6.44    0.90
 -11  -3  -3    6.49    0.84
 -11  -3  -3    6.73    1.00
  11   3   3    6.18    0.93
  11   3   3    5.36    0.67
  11   3   3    6.28    0.93
   9  -4  -3    0.16    0.74
   9  -4  -3    0.55    0.77
   9  -4  -3    0.81    0.72
   9  -4  -3    1.97    0.89
  -9   4   3   -0.89    0.75
  -9   4   3    1.42    0.76
  -9   4   3    1.17    0.70
  -9   4   3    0.40    0.67
  -9   4   3   -0.06    0.83
   8  -4  -3   22.48    1.51
   8  -4  -3   21.87    1.56
   8  -4  -3   26.28    1.38
   8  -4  -3   22.25    1.55
  -8   4   3   23.42    1.27
  -8   4   3   20.51    1.56
  -8   4   3   21.31    1.57
  -8   4   3   22.80    1.60
  -8   4   3   26.39    1.35
   7  -4  -3    2.51    0.55
   7  -4  -3    1.86    0.62
   7  -4  -3    1.51    0.57
   7  -4  -3    2.21    0.65
  -7   4   3    2.23    0.51
  -7   4   3    1.26    0.48
  -7   4   3    1.37    0.65
  -7   4   3    1.76    0.67
   6  -4  -3    0.73    0.54
   6  -4  -3   -0.13    0.42
   6  -4  -3    0.07    0.43
   6  -4  -3    0.18    0.52
  -6   4   3    0.16    0.42
  -6   4   3   -0.57    0.51
  -6   4   3    0.31    0.37
  -6   4   3    0.28    0.56
   5  -4  -3    2.73    0.43
   5  -4  -3    2.29    0.47
   5  -4  -3    1.81    0.46
   5  -4  -3    1.64    0.43
  -5   4   3    2.29    0.39
  -5   4   3    2.14    0.45
  -5   4   3    1.90    0.55
  -5   4   3    1.99    0.36
  -5   4   3    2.15    0.50
   4  -4  -3  161.26    4.37
   4  -4  -3  163.85    4.40
   4  -4  -3  164.44    4.31
   4  -4  -3  161.41    4.28
  -4   4   3  159.11    4.25
  -4   4   3  165.47    4.23
  -4   4   3  158.57    4.37
  -4   4   3  161.32    4.48
  -4   4   3  166.68    4.39
   3  -4  -3  213.89    5.54
   3  -4  -3  212.29    5.44
   3  -4  -3  209.80    5.52
   3  -4  -3  212.00    5.47
  -3   4   3  218.08    5.54
  -3   4   3  211.31    5.42
  -3   4   3  214.40    5.40
  -3   4   3  208.13    5.53
  -3   4   3  211.24    5.63
   2  -4  -3    6.55    0.44
   2  -4  -3    5.97    0.47
   2  -4  -3    7.64    0.51
   2  -4  -3    5.60    0.51
  -2   4   3    6.75    0.53
  -2   4   3    6.56    0.52
  -2   4   3    6.14    0.61
  -2   4   3    6.63    0.42
  -2   4   3    6.36    0.37
   1  -4  -3    2.25    0.25
   1  -4  -3    2.65    0.36
   1  -4  -3    2.23    0.22
   1  -4  -3    2.92    0.33
   1  -4  -3    2.76    0.23
  -1   4   3    2.82    0.38
  -1   4   3    2.90    0.25
  -1   4   3    2.74    0.37
  -1   4   3    2.65    0.22
  -1   4   3    2.36    0.26
   0  -4  -3   96.72    2.39
   0  -4  -3   93.94    2.37
   0  -4  -3   93.13    2.55
   0  -4  -3   93.93    2.41
   0  -4  -3   93.12    2.43
   0  -4  -3   96.25    2.42
   0   4   3   96.16    2.42
   0   4   3   80.37    2.40
   0   4   3   95.41    2.53
   0   4   3   91.84    2.54
  -1  -4  -3    4.09    0.20
  -1  -4  -3    3.98    0.20
  -1  -4  -3    4.27    0.24
  -1  -4  -3    3.79    0.40
  -1  -4  -3    4.30    0.24
   1   4   3    3.64    0.44
   1   4   3    4.45    0.25
   1   4   3    4.46    0.42
   1   4   3    3.88    0.29
  -2  -4  -3   16.58    0.67
  -2  -4  -3   17.05    0.47
  -2  -4  -3   17.16    0.51
  -2  -4  -3   17.21    0.47
  -2  -4  -3   17.30    0.51
   2   4   3   17.29    0.51
   2   4   3   16.41    0.73
   2   4   3   17.43    0.52
  -3  -4  -3   17.91    0.58
  -3  -4  -3   18.33    0.58
  -3  -4  -3   17.89    0.55
   3   4   3   17.84    0.59
   3   4   3   17.78    0.80
  -4  -4  -3   19.65    0.64
  -4  -4  -3   19.36    0.69
  -4  -4  -3   19.71    0.65
  -4  -4  -3   18.83    0.68
   4   4   3   20.51    0.70
   4   4   3   19.19    0.69
   4   4   3   19.13    0.88
  -5  -4  -3    5.10    0.42
  -5  -4  -3    4.61    0.42
  -5  -4  -3    4.93    0.46
  -5  -4  -3    4.37    0.44
   5   4   3    5.18    0.46
   5   4   3    4.87    0.30
   5   4   3    4.80    0.47
   5   4   3    5.04    0.54
   5   4   3    4.84    0.29
  -6  -4  -3   64.31    1.80
  -6  -4  -3   61.41    1.86
  -6  -4  -3   63.90    1.82
  -6  -4  -3   64.08    1.88
   6   4   3   63.26    1.71
   6   4   3   62.46    1.88
   6   4   3   62.48    1.87
  -7  -4  -3    0.49    0.30
  -7  -4  -3    0.82    0.36
  -7  -4  -3    0.53    0.35
  -7  -4  -3    0.26    0.30
   7   4   3    0.69    0.25
   7   4   3    0.74    0.37
   7   4   3    0.72    0.26
   7   4   3    0.90    0.38
  -8  -4  -3   20.29    1.02
  -8  -4  -3   24.87    1.09
  -8  -4  -3   25.17    1.17
  -8  -4  -3   20.63    1.14
   8   4   3   24.06    1.17
   8   4   3   25.40    0.96
   8   4   3   25.51    1.18
   8   4   3   23.83    0.95
  -9  -4  -3   10.98    1.00
  -9  -4  -3   10.78    0.88
  -9  -4  -3   11.05    1.00
  -9  -4  -3   11.75    0.91
   9   4   3   11.08    0.80
   9   4   3   12.57    1.06
   9   4   3   11.56    0.80
 -10  -4  -3   -1.32    0.53
 -10  -4  -3    0.23    0.47
 -10  -4  -3    0.12    0.46
 -10  -4  -3   -0.50    0.56
 -10  -4  -3    0.44    1.00
  10   4   3   -0.65    0.56
  10   4   3    0.07    0.41
  10   4   3    0.37    0.42
  10   4   3   -0.47    0.60
 -11  -4  -3    0.77    0.54
 -11  -4  -3    1.22    0.76
 -11  -4  -3    0.86    0.72
 -11  -4  -3    1.30    0.78
 -11  -4  -3    1.34    0.60
  11   4   3    2.30    0.79
  11   4   3    1.11    0.52
  11   4   3    1.35    0.66
  11   4   3    0.80    0.53
   8  -5  -3   23.13    1.68
   8  -5  -3   21.92    1.62
   8  -5  -3   24.20    1.68
   8  -5  -3   26.79    1.48
  -8   5   3   20.50    1.66
  -8   5   3   25.22    1.76
  -8   5   3   25.14    1.68
  -8   5   3   24.15    1.36
  -8   5   3   22.57    1.32
   7  -5  -3   58.54    2.09
   7  -5  -3   60.54    2.27
   7  -5  -3   57.79    2.18
  -7   5   3   61.53    2.31
  -7   5   3   60.46    2.03
  -7   5   3   61.49    2.39
   6  -5  -3   10.09    1.08
   6  -5  -3   10.76    1.03
   6  -5  -3   12.28    0.97
   6  -5  -3   12.55    1.13
  -6   5   3   11.24    0.90
  -6   5   3   11.77    0.82
  -6   5   3   11.02    1.19
  -6   5   3   11.03    1.13
   5  -5  -3    3.21    0.48
   5  -5  -3    2.92    0.57
   5  -5  -3    2.73    0.51
   5  -5  -3    3.05    0.51
  -5   5   3    2.52    0.38
  -5   5   3    2.89    0.44
  -5   5   3    4.97    0.73
  -5   5   3    2.58    0.53
  -5   5   3    3.29    0.62
   4  -5  -3   15.44    0.92
   4  -5  -3   16.62    0.82
   4  -5  -3   15.93    0.95
   4  -5  -3   15.32    0.86
  -4   5   3   15.86    0.77
  -4   5   3   15.13    1.06
  -4   5   3   16.88    0.94
  -4   5   3   15.66    0.72
  -4   5   3   15.96    0.96
   3  -5  -3  129.05    3.43
   3  -5  -3  129.47    3.50
   3  -5  -3  128.12    3.48
   3  -5  -3  128.73    3.41
  -3   5   3  127.80    3.49
  -3   5   3  127.41    3.50
  -3   5   3  127.59    3.35
  -3   5   3  127.94    3.32
  -3   5   3  123.95    3.61
   2  -5  -3    2.66    0.33
   2  -5  -3    2.48    0.32
   2  -5  -3    2.88    0.28
   2  -5  -3    2.56    0.30
  -2   5   3    2.57    0.33
  -2   5   3    2.89    0.48
  -2   5   3    2.19    0.32
  -2   5   3    3.22    0.30
  -2   5   3    2.82    0.34
   1  -5  -3  270.97    6.85
   1  -5  -3  270.86    6.81
   1  -5  -3  273.53    6.89
   1  -5  -3  273.75    6.83
   1  -5  -3  278.73    6.89
  -1   5   3  266.06    6.73
  -1   5   3  276.46    6.89
  -1   5   3  260.79    6.73
  -1   5   3  277.85    6.89
  -1   5   3  272.39    7.05
   0  -5  -3   81.86    2.34
   0  -5  -3   80.70    2.12
   0  -5  -3   83.30    2.11
   0  -5  -3   80.56    2.17
   0  -5  -3   79.41    2.14
   0  -5  -3   81.86    2.15
   0   5   3   82.01    2.34
   0   5   3   83.25    2.15
  -1  -5  -3  380.62    9.49
  -1  -5  -3  388.39    9.72
  -1  -5  -3  386.38    9.48
  -1  -5  -3  382.60    9.63
  -1  -5  -3  380.34    9.47
  -1  -5  -3  379.41    9.49
   1   5   3  379.62    9.50
   1   5   3  391.62    9.70
   1   5   3  376.78    9.50
   1   5   3  389.60    9.72
  -2  -5  -3   86.94    2.42
  -2  -5  -3   88.29    2.45
   2   5   3   88.87    2.46
  -3  -5  -3   97.13    2.64
  -3  -5  -3   92.91    2.66
   3   5   3   94.33    2.65
   3   5   3   98.54    2.41
   3   5   3   95.21    2.41
  -4  -5  -3  186.36    4.71
  -4  -5  -3  188.90    4.73
  -4  -5  -3  186.02    4.95
  -4  -5  -3  182.20    4.71
  -4  -5  -3  189.32    4.72
   4   5   3  190.10    4.94
   4   5   3  190.44    4.74
  -5  -5  -3   31.58    0.99
  -5  -5  -3   31.18    1.00
  -5  -5  -3   30.80    0.96
  -5  -5  -3   31.35    0.97
   5   5   3   33.03    1.23
   5   5   3   31.55    1.01
   5   5   3   32.83    1.01
  -6  -5  -3   68.70    1.92
  -6  -5  -3   66.95    1.87
  -6  -5  -3   63.61    1.89
  -6  -5  -3   65.85    1.85
   6   5   3   66.40    1.92
   6   5   3   67.62    1.91
   6   5   3   64.83    2.09
  -7  -5  -3   43.66    1.38
  -7  -5  -3   44.18    1.40
  -7  -5  -3   42.97    1.44
  -7  -5  -3   41.53    1.66
  -7  -5  -3   42.64    1.45
   7   5   3   44.09    1.20
   7   5   3   41.49    1.61
   7   5   3   44.56    1.47
   7   5   3   43.64    1.18
   7   5   3   43.38    1.45
  -8  -5  -3    6.98    0.73
  -8  -5  -3    8.24    0.72
  -8  -5  -3    7.89    0.85
  -8  -5  -3    6.90    0.76
  -8  -5  -3    8.26    0.82
   8   5   3    7.95    0.82
   8   5   3    6.49    0.71
   8   5   3    7.79    0.51
   8   5   3    7.60    0.80
  -9  -5  -3   10.96    0.98
  -9  -5  -3   11.05    0.84
  -9  -5  -3   12.45    0.90
  -9  -5  -3   11.30    0.95
   9   5   3   10.94    0.67
   9   5   3   11.23    0.98
 -10  -5  -3   12.03    1.34
 -10  -5  -3   11.24    1.00
 -10  -5  -3   11.19    1.02
 -10  -5  -3   10.67    1.09
 -10  -5  -3   11.98    1.11
  10   5   3    9.95    1.10
  10   5   3   11.21    0.79
 -11  -5  -3    0.27    0.64
 -11  -5  -3   -0.65    0.63
 -11  -5  -3    0.52    0.51
 -11  -5  -3   -0.80    0.77
 -11  -5  -3   -0.49    0.56
  11   5   3    0.17    0.43
  11   5   3   -0.71    0.37
  11   5   3   -0.12    0.64
   7  -6  -3   12.49    1.36
   7  -6  -3   10.26    1.26
   7  -6  -3   11.79    1.18
   7  -6  -3   11.99    1.33
  -7   6   3   10.87    1.42
  -7   6   3    9.14    1.01
  -7   6   3   11.22    1.43
  -7   6   3   10.47    1.32
   6  -6  -3   10.54    1.15
   6  -6  -3    9.30    0.82
   6  -6  -3    9.22    1.01
   6  -6  -3    9.38    1.14
  -6   6   3    9.33    0.83
  -6   6   3    8.24    1.13
  -6   6   3   10.93    1.18
  -6   6   3   10.83    1.29
  -6   6   3    9.39    0.89
   5  -6  -3   19.30    1.05
   5  -6  -3   19.35    1.13
   5  -6  -3   18.40    1.17
   5  -6  -3   18.06    1.16
  -5   6   3   18.42    1.19
  -5   6   3   17.87    0.87
  -5   6   3   18.97    0.93
  -5   6   3   19.07    1.33
   4  -6  -3    1.45    0.41
   4  -6  -3    1.61    0.47
   4  -6  -3    1.06    0.41
   4  -6  -3    0.78    0.45
  -4   6   3    1.52    0.31
  -4   6   3    1.64    0.62
  -4   6   3    0.70    0.44
  -4   6   3    1.67    0.35
  -4   6   3    1.27    0.45
   3  -6  -3   73.03    2.17
   3  -6  -3   71.83    2.06
   3  -6  -3   72.41    2.11
   3  -6  -3   70.53    2.15
  -3   6   3   70.84    2.17
  -3   6   3   66.39    2.14
  -3   6   3   71.87    1.96
  -3   6   3   70.56    1.93
  -3   6   3   73.31    2.36
   2  -6  -3   78.84    2.24
   2  -6  -3   79.86    2.22
   2  -6  -3   81.96    2.28
   2  -6  -3   78.61    2.29
  -2   6   3   81.51    2.30
  -2   6   3   80.82    2.30
  -2   6   3   80.93    2.50
  -2   6   3   79.43    2.08
  -2   6   3   79.19    2.07
   1  -6  -3  207.90    5.34
   1  -6  -3  207.64    5.32
   1  -6  -3  210.35    5.61
   1  -6  -3  208.35    5.39
   1  -6  -3  213.10    5.39
   1  -6  -3  211.43    5.36
  -1   6   3  211.36    5.61
  -1   6   3  207.15    5.40
  -1   6   3  215.45    5.40
   0  -6  -3  133.53    3.46
   0  -6  -3  135.21    3.43
   0  -6  -3  133.58    3.46
   0  -6  -3  136.59    3.51
   0  -6  -3  135.83    3.44
   0  -6  -3  134.63    3.72
   0   6   3  134.57    3.47
   0   6   3  133.94    3.72
  -1  -6  -3    8.72    0.31
  -1  -6  -3    9.10    0.33
  -1  -6  -3   10.24    0.71
  -1  -6  -3    9.35    0.32
  -1  -6  -3    9.66    0.34
  -1  -6  -3    8.59    0.55
   1   6   3    8.53    0.68
   1   6   3    9.26    0.35
   1   6   3    9.10    0.35
   1   6   3    9.09    0.72
  -2  -6  -3    7.51    0.58
  -2  -6  -3    7.05    0.63
   2   6   3    6.83    0.62
  -3  -6  -3  196.03    5.19
  -3  -6  -3  199.38    5.21
   3   6   3  198.35    5.20
  -4  -6  -3   29.44    0.80
  -4  -6  -3   29.28    0.79
  -4  -6  -3   28.61    1.13
  -4  -6  -3   30.21    1.17
   4   6   3   29.74    0.79
   4   6   3   27.99    1.13
   4   6   3   28.94    0.79
  -5  -6  -3   38.63    1.42
  -5  -6  -3   37.00    1.07
  -5  -6  -3   36.73    1.07
  -5  -6  -3   36.93    1.07
  -5  -6  -3   37.46    1.08
   5   6   3   36.48    1.08
   5   6   3   37.47    1.39
  -6  -6  -3   -0.57    0.23
  -6  -6  -3   -0.43    0.24
  -6  -6  -3    0.21    0.46
  -6  -6  -3    0.03    0.23
   6   6   3   -0.48    0.25
   6   6   3    0.50    0.44
  -7  -6  -3    0.81    0.30
  -7  -6  -3    0.89    0.30
  -7  -6  -3    0.31    0.52
  -7  -6  -3    1.16    0.32
  -7  -6  -3    0.87    0.29
   7   6   3    0.47    0.31
   7   6   3    0.82    0.53
  -8  -6  -3    0.26    0.38
  -8  -6  -3    0.20    0.33
  -8  -6  -3   -0.18    0.31
  -8  -6  -3    0.30    0.58
  -8  -6  -3   -0.17    0.31
   8   6   3    0.18    0.36
   8   6   3   -0.69    0.53
  -9  -6  -3   18.85    1.09
  -9  -6  -3   17.84    1.04
  -9  -6  -3   19.88    1.04
  -9  -6  -3   19.77    0.99
   9   6   3   18.13    1.30
   9   6   3   18.26    1.08
 -10  -6  -3    0.06    0.49
 -10  -6  -3    1.17    0.50
 -10  -6  -3    1.73    0.81
 -10  -6  -3    1.41    0.55
 -10  -6  -3    2.11    0.51
  10   6   3    1.28    0.28
  10   6   3    1.24    0.73
  10   6   3    0.66    0.52
  10   6   3    0.59    0.58
 -11  -6  -3    0.68    0.58
 -11  -6  -3   -0.49    0.63
 -11  -6  -3   -0.17    0.52
 -11  -6  -3    1.27    0.95
 -11  -6  -3    1.30    0.66
  11   6   3    0.08    0.27
  11   6   3    0.21    0.70
  11   6   3    1.08    0.63
  11   6   3   -0.24    0.83
   6  -7  -3   -0.49    0.57
   6  -7  -3   -0.96    0.57
   6  -7  -3   -0.37    0.48
   6  -7  -3   -1.18    0.58
  -6   7   3    0.35    0.64
  -6   7   3    0.32    0.41
  -6   7   3    0.48    0.68
  -6   7   3   -0.61    0.40
  -6   7   3    0.51    0.75
   5  -7  -3   22.29    1.29
   5  -7  -3   21.55    1.27
   5  -7  -3   23.32    1.20
   5  -7  -3   23.70    1.30
  -5   7   3   22.55    1.52
  -5   7   3   22.28    1.29
  -5   7   3   22.09    0.95
  -5   7   3   21.32    1.34
  -5   7   3   21.26    0.98
   4  -7  -3    0.43    0.45
   4  -7  -3   -0.22    0.40
   4  -7  -3   -0.25    0.42
   4  -7  -3   -0.21    0.43
  -4   7   3   -0.33    0.61
  -4   7   3   -0.12    0.47
  -4   7   3   -0.04    0.28
  -4   7   3    0.63    0.46
  -4   7   3    0.04    0.24
   3  -7  -3   59.72    1.88
   3  -7  -3   57.95    1.93
   3  -7  -3   59.23    1.84
   3  -7  -3   59.37    1.92
  -3   7   3   59.99    1.94
  -3   7   3   62.99    2.21
  -3   7   3   60.57    1.94
  -3   7   3   58.49    1.64
  -3   7   3   59.07    1.63
   2  -7  -3   55.95    1.72
   2  -7  -3   55.45    1.67
   2  -7  -3   56.55    1.72
   2  -7  -3   54.98    1.75
  -2   7   3   51.68    1.74
  -2   7   3   58.25    2.02
  -2   7   3   54.80    1.75
   1  -7  -3  212.34    5.36
   1  -7  -3  209.16    5.37
   1  -7  -3  209.81    5.33
   1  -7  -3  211.18    5.39
   1  -7  -3  197.83    5.65
  -1   7   3  206.93    5.39
  -1   7   3  209.32    5.67
  -1   7   3  212.52    5.39
   0  -7  -3   13.16    0.59
   0  -7  -3   13.78    0.69
   0  -7  -3   15.28    0.58
   0  -7  -3   14.12    0.59
   0  -7  -3   14.67    0.59
   0  -7  -3   15.06    0.97
   0   7   3   14.10    0.98
   0   7   3   15.51    0.62
  -1  -7  -3  183.05    4.58
  -1  -7  -3  180.21    4.76
  -1  -7  -3  183.35    4.59
  -1  -7  -3  186.75    4.96
   1   7   3  183.28    4.58
   1   7   3  180.82    4.58
   1   7   3  180.80    4.95
  -2  -7  -3   23.08    0.96
  -2  -7  -3   22.83    1.10
   2   7   3   23.86    1.04
  -3  -7  -3    8.29    0.70
  -3  -7  -3    7.12    0.76
   3   7   3    8.09    0.73
  -4  -7  -3    1.82    0.49
  -4  -7  -3    1.50    0.43
   4   7   3    2.07    0.48
  -5  -7  -3    3.20    0.32
  -5  -7  -3    3.88    0.56
  -5  -7  -3    3.51    0.31
  -5  -7  -3    3.08    0.55
   5   7   3    3.72    0.25
   5   7   3    3.51    0.55
   5   7   3    3.32    0.24
  -6  -7  -3  139.67    3.61
  -6  -7  -3  137.62    3.56
  -6  -7  -3  136.64    3.59
  -6  -7  -3  141.73    3.96
  -6  -7  -3  141.77    3.57
   6   7   3  135.99    3.89
   6   7   3  141.07    3.60
   6   7   3  140.05    3.60
  -7  -7  -3    0.23    0.26
  -7  -7  -3    0.37    0.25
  -7  -7  -3   -0.33    0.25
  -7  -7  -3   -0.23    0.26
   7   7   3    0.13    0.34
   7   7   3   -0.27    0.48
   7   7   3   -0.11    0.27
  -8  -7  -3    0.53    0.31
  -8  -7  -3   -0.24    0.30
  -8  -7  -3   -0.27    0.30
  -8  -7  -3    0.25    0.32
   8   7   3    0.05    0.53
   8   7   3   -0.36    0.33
   8   7   3   -0.12    0.34
  -9  -7  -3   95.88    2.80
  -9  -7  -3   99.80    2.83
  -9  -7  -3   98.96    2.78
  -9  -7  -3   94.89    2.78
  -9  -7  -3  101.48    3.20
   9   7   3   96.84    3.06
   9   7   3   94.46    2.83
 -10  -7  -3    3.98    0.60
 -10  -7  -3    4.62    0.94
 -10  -7  -3    3.40    0.58
 -10  -7  -3    3.23    0.56
 -10  -7  -3    2.45    0.52
  10   7   3    3.04    0.56
  10   7   3    2.74    0.62
  10   7   3    4.00    0.83
 -11  -7  -3   27.56    1.46
   5  -8  -3    2.07    0.64
   5  -8  -3    3.07    0.66
   5  -8  -3    2.64    0.56
   5  -8  -3    2.41    0.65
  -5   8   3    1.83    0.90
  -5   8   3    2.56    0.67
  -5   8   3    2.04    0.66
  -5   8   3    2.71    0.40
   4  -8  -3   11.48    0.96
   4  -8  -3   10.95    1.02
   4  -8  -3   12.19    1.04
   4  -8  -3   12.58    1.07
  -4   8   3   12.27    0.61
  -4   8   3   12.31    1.11
  -4   8   3   13.75    1.41
  -4   8   3   11.20    1.06
   3  -8  -3   10.55    0.88
   3  -8  -3   10.81    0.83
   3  -8  -3   11.42    0.93
   3  -8  -3    8.83    0.85
  -3   8   3   10.93    1.22
  -3   8   3    9.81    0.91
   2  -8  -3    3.45    0.42
   2  -8  -3    4.16    0.47
   2  -8  -3    4.17    0.47
   2  -8  -3    3.78    0.45
  -2   8   3    4.84    0.51
  -2   8   3    5.63    0.80
  -2   8   3    4.47    0.49
   1  -8  -3   -0.21    0.29
   1  -8  -3   -0.55    0.28
   1  -8  -3   -0.17    0.58
   1  -8  -3   -0.33    0.26
   1  -8  -3   -0.05    0.27
  -1   8   3   -0.34    0.31
  -1   8   3   -0.56    0.31
  -1   8   3   -0.40    0.51
   0  -8  -3    4.38    0.58
   0  -8  -3    3.97    0.64
   0  -8  -3    5.78    0.47
   0  -8  -3    5.55    0.49
   0  -8  -3    5.23    0.46
   0  -8  -3    5.70    0.45
   0   8   3    5.90    0.49
   0   8   3    5.52    0.74
  -1  -8  -3   11.98    0.49
  -1  -8  -3   10.63    0.99
  -1  -8  -3   11.48    0.75
  -1  -8  -3   11.65    0.50
   1   8   3   10.28    0.98
   1   8   3   11.28    0.44
   1   8   3   10.99    0.45
  -2  -8  -3   77.07    2.26
  -2  -8  -3   78.10    1.93
  -2  -8  -3   78.58    1.94
  -2  -8  -3   68.34    2.39
  -3  -8  -3   18.85    0.97
  -3  -8  -3   16.27    1.08
   3   8   3   16.85    1.00
  -4  -8  -3   70.19    2.25
  -4  -8  -3   68.13    2.16
   4   8   3   65.52    2.15
  -5  -8  -3   31.37    0.88
  -5  -8  -3   33.15    1.39
  -5  -8  -3   31.24    0.87
  -5  -8  -3   27.51    1.35
   5   8   3   31.19    1.32
  -6  -8  -3   46.59    1.77
  -6  -8  -3   46.56    1.78
  -6  -8  -3   45.73    1.31
  -6  -8  -3   44.46    1.29
   6   8   3   45.07    1.68
  -7  -8  -3    1.83    0.61
  -7  -8  -3    3.57    0.40
  -7  -8  -3    3.49    0.32
  -7  -8  -3    3.77    0.36
  -7  -8  -3    2.94    0.34
   7   8   3    3.67    0.46
   7   8   3    2.91    0.61
   7   8   3    3.86    0.44
  -8  -8  -3    0.04    0.30
  -8  -8  -3    0.14    0.31
  -8  -8  -3    0.71    0.30
  -8  -8  -3    0.37    0.34
   8   8   3    0.19    0.32
   8   8   3   -0.77    0.55
  -9  -8  -3    6.64    0.92
  -9  -8  -3    6.76    0.66
  -9  -8  -3    5.78    0.72
  -9  -8  -3    7.94    0.76
  -9  -8  -3    7.46    0.79
   9   8   3    7.97    0.80
   9   8   3    6.57    0.85
 -10  -8  -3    1.01    0.47
 -10  -8  -3    0.67    0.41
 -10  -8  -3    0.79    0.89
 -10  -8  -3   -0.13    0.46
 -10  -8  -3   -0.35    0.44
  10   8   3    0.44    0.51
  10   8   3    0.10    0.38
  10   8   3    0.37    0.71
   4  -9  -3    9.17    1.10
   4  -9  -3    9.47    1.03
   4  -9  -3    9.73    1.09
   4  -9  -3   10.95    1.17
  -4   9   3   10.76    1.18
  -4   9   3   10.41    1.18
  -4   9   3   10.79    1.53
   3  -9  -3    5.95    0.62
   3  -9  -3    5.39    0.63
   3  -9  -3    5.04    0.58
   3  -9  -3    6.06    0.64
  -3   9   3    5.93    0.97
  -3   9   3    5.05    0.63
  -3   9   3    6.41    0.68
   2  -9  -3   45.07    1.54
   2  -9  -3   41.38    1.48
   2  -9  -3   43.70    1.50
   2  -9  -3   41.47    1.53
  -2   9   3   45.19    1.56
  -2   9   3   40.47    1.53
  -2   9   3   44.41    1.97
   1  -9  -3   83.38    2.40
   1  -9  -3   82.84    2.37
   1  -9  -3   82.77    2.37
   1  -9  -3   82.19    2.35
   1  -9  -3   89.48    2.91
  -1   9   3   83.35    2.40
  -1   9   3   87.07    2.87
  -1   9   3   79.98    2.40
   0  -9  -3    1.99    0.29
   0  -9  -3    1.95    0.32
   0  -9  -3    2.30    0.34
   0  -9  -3    2.43    0.73
   0  -9  -3    1.89    0.27
   0   9   3    2.89    0.74
   0   9   3    1.92    0.30
   0   9   3    2.35    0.31
  -1  -9  -3    0.11    0.54
  -1  -9  -3    0.18    0.22
  -1  -9  -3   -0.20    0.21
  -1  -9  -3   -0.20    0.37
   1   9   3    0.06    0.16
   1   9   3   -0.01    0.17
  -2  -9  -3    7.98    0.40
  -2  -9  -3    7.91    1.04
  -2  -9  -3    7.97    0.41
  -2  -9  -3    8.56    0.81
  -3  -9  -3   23.97    1.35
  -3  -9  -3   26.10    1.19
   3   9   3   24.85    1.25
  -4  -9  -3    3.23    0.60
  -4  -9  -3    2.80    0.62
   4   9   3    2.86    0.59
  -5  -9  -3    0.10    0.13
  -5  -9  -3   -0.57    0.51
  -5  -9  -3   -0.02    0.52
   5   9   3    0.15    0.49
  -6  -9  -3   20.89    1.30
  -6  -9  -3   20.64    0.72
  -6  -9  -3   20.66    1.32
  -6  -9  -3   21.17    0.69
   6   9   3   20.38    1.16
  -7  -9  -3   -0.14    0.63
  -7  -9  -3    0.61    0.25
  -7  -9  -3    0.36    0.66
  -7  -9  -3    0.37    0.24
   7   9   3   -0.90    0.51
  -8  -9  -3   16.02    1.41
  -8  -9  -3   16.01    0.56
  -8  -9  -3   16.08    0.54
  -8  -9  -3   14.32    0.79
  -8  -9  -3   15.05    0.76
   8   9   3   15.00    1.19
   8   9   3   16.04    0.71
  -9  -9  -3    4.60    0.50
  -9  -9  -3    4.09    0.56
  -9  -9  -3    2.67    0.46
  -9  -9  -3    3.15    0.39
  -9  -9  -3    3.87    0.95
   9   9   3    3.79    0.46
   9   9   3    2.63    0.73
   3 -10  -3   -0.01    0.51
   3 -10  -3    0.25    0.46
   3 -10  -3   -0.26    0.56
   3 -10  -3   -0.50    0.47
  -3  10   3    0.19    0.44
  -3  10   3   -0.88    0.54
  -3  10   3   -0.69    0.84
   2 -10  -3    8.50    0.78
   2 -10  -3    8.34    0.98
   2 -10  -3    9.42    0.90
   2 -10  -3    9.21    0.85
  -2  10   3    8.89    0.92
  -2  10   3   10.48    1.50
   1 -10  -3   15.10    0.94
   1 -10  -3   13.81    0.86
   1 -10  -3   12.04    0.80
   1 -10  -3   14.31    0.83
  -1  10   3   15.55    1.53
  -1  10   3   14.11    0.86
   0 -10  -3    5.71    0.65
   0 -10  -3    5.57    0.61
   0 -10  -3    5.95    0.49
   0 -10  -3    6.64    0.92
   0 -10  -3    5.16    0.45
   0  10   3    5.61    0.57
   0  10   3    7.17    0.98
  -1 -10  -3    3.48    0.77
  -1 -10  -3    4.40    0.50
  -1 -10  -3    4.95    0.53
  -2 -10  -3    7.31    0.88
  -2 -10  -3    7.48    0.48
  -2 -10  -3    7.98    0.47
  -2 -10  -3    9.13    1.24
  -3 -10  -3   -0.48    0.16
  -3 -10  -3    0.06    0.47
  -3 -10  -3   -0.36    0.64
  -3 -10  -3   -0.46    0.16
  -4 -10  -3   37.34    1.59
  -4 -10  -3   36.28    1.80
   4  10   3   38.71    1.58
  -5 -10  -3   12.71    1.19
  -5 -10  -3   15.03    1.32
  -5 -10  -3   13.75    0.45
   5  10   3   11.67    1.08
  -6 -10  -3    0.81    0.67
  -6 -10  -3    0.22    0.18
  -6 -10  -3   -0.01    0.68
  -6 -10  -3    0.12    0.20
   6  10   3    0.22    0.59
  -7 -10  -3   -0.13    0.24
  -7 -10  -3    0.01    0.78
  -7 -10  -3    0.03    0.23
  -7 -10  -3    0.08    0.66
   7  10   3   -0.37    0.57
  -8 -10  -3   -0.53    0.30
  -8 -10  -3    0.17    0.33
  -8 -10  -3   -1.18    0.81
  -8 -10  -3   -0.43    0.72
   8  10   3    0.53    0.65
  -9 -10  -3    2.12    0.45
  -9 -10  -3    1.92    0.43
   9  10   3    2.39    0.74
   1 -11  -3   12.93    1.05
   1 -11  -3   11.34    0.80
   1 -11  -3   11.02    0.79
   1 -11  -3   11.74    0.97
   0 -11  -3   18.17    1.00
   0 -11  -3   17.99    0.66
   0 -11  -3   20.48    1.80
   0 -11  -3   18.00    0.95
   0 -11  -3   18.59    0.68
  -1 -11  -3   14.72    0.82
  -1 -11  -3   16.91    1.66
  -1 -11  -3   14.39    0.78
  -2 -11  -3    4.03    0.64
  -2 -11  -3    5.40    0.53
  -2 -11  -3    4.80    0.52
  -2 -11  -3    4.68    0.88
  -3 -11  -3    2.75    0.82
  -3 -11  -3    3.29    0.66
  -3 -11  -3    2.64    0.28
  -3 -11  -3    3.05    0.28
  -4 -11  -3   10.98    1.42
  -4 -11  -3    9.47    1.16
  -4 -11  -3    9.45    0.44
  -5 -11  -3    9.14    0.45
  -5 -11  -3    9.89    1.24
  -5 -11  -3    7.74    1.02
  -5 -11  -3    9.48    0.40
   5  11   3   11.59    1.17
  -6 -11  -3    0.00    0.75
  -6 -11  -3    0.36    0.86
  -6 -11  -3    0.32    0.20
  -6 -11  -3   -0.15    0.23
   6  11   3   -0.70    0.57
  -7 -11  -3   16.40    1.55
  -7 -11  -3   16.80    0.71
  -7 -11  -3   18.40    1.71
  -7 -11  -3   17.14    0.75
   7  11   3   19.07    1.36
   7   9  -4    3.24    0.84
   7   9  -4    2.19    0.65
  -7  -9   4    1.40    0.51
  -7  -9   4    3.08    0.56
  -7  -9   4    2.63    0.59
   6   9  -4   -0.82    0.37
   6   9  -4   -0.20    0.51
   6   9  -4   -0.76    0.73
  -6  -9   4    0.83    0.52
  -6  -9   4    0.02    0.46
  -6  -9   4    0.04    0.46
  -6  -9   4   -0.69    0.89
  -6  -9   4   -0.24    0.45
   5   9  -4    0.65    0.51
   5   9  -4   -1.32    0.71
   5   9  -4    0.05    0.36
  -5  -9   4   -0.08    0.41
  -5  -9   4    0.14    0.86
  -5  -9   4    0.19    0.42
  -5  -9   4    0.50    0.51
  -5  -9   4    0.10    0.43
   4   9  -4    6.87    0.96
   4   9  -4    9.30    1.24
  -4  -9   4    8.12    0.87
  -4  -9   4    7.80    0.84
  -4  -9   4    8.06    0.93
  -4  -9   4    7.03    1.04
  -4  -9   4    6.77    0.65
   3   9  -4   -0.41    0.69
   3   9  -4   -0.23    0.52
   3   9  -4    0.10    0.41
  -3  -9   4    1.12    0.48
  -3  -9   4    0.21    0.47
  -3  -9   4    0.23    0.89
  -3  -9   4   -0.01    0.43
  -3  -9   4    0.37    0.43
   2   9  -4   14.18    1.29
   2   9  -4   10.89    0.99
   2   9  -4   13.54    1.11
  -2  -9   4   11.88    1.59
  -2  -9   4   11.51    1.02
  -2  -9   4   11.53    1.05
  -2  -9   4   12.54    0.97
  -2  -9   4   11.55    1.02
   1   9  -4    0.84    0.61
   1   9  -4    1.04    0.70
   1   9  -4    1.09    0.55
  -1  -9   4    0.56    0.47
  -1  -9   4   -0.04    0.53
  -1  -9   4    0.91    0.49
  -1  -9   4    0.93    0.88
  -1  -9   4    0.49    0.50
   0   9  -4    5.00    0.77
   0   9  -4    5.64    0.76
   0   9  -4    4.71    0.71
   0  -9   4    5.59    0.70
   0  -9   4    5.24    1.10
   0  -9   4    4.90    0.67
   0  -9   4    4.96    0.71
   0  -9   4    4.10    0.65
  -1   9  -4    4.82    0.74
  -1   9  -4    3.53    0.78
  -1   9  -4    4.76    0.77
   1  -9   4    3.83    0.70
   1  -9   4    3.32    0.67
   1  -9   4    4.27    0.75
   1  -9   4    3.92    1.01
   8   8  -4   -0.60    0.47
   8   8  -4    0.30    0.61
   8   8  -4   -0.78    0.78
  -8  -8   4    0.24    0.52
  -8  -8   4   -0.21    0.75
  -8  -8   4   -0.48    0.47
  -8  -8   4    0.10    0.49
  -8  -8   4   -0.41    0.52
   7   8  -4    8.43    1.00
   7   8  -4    7.63    0.75
   7   8  -4    6.52    0.90
  -7  -8   4    7.00    0.69
  -7  -8   4    8.05    0.88
  -7  -8   4    8.48    0.89
   6   8  -4    1.93    0.51
   6   8  -4    2.09    0.72
  -6  -8   4    2.01    0.50
  -6  -8   4    2.52    0.49
  -6  -8   4    2.66    0.50
  -6  -8   4    2.27    0.51
   5   8  -4    0.04    0.42
   5   8  -4   -0.76    0.64
  -5  -8   4   -0.36    0.75
  -5  -8   4   -0.17    0.39
  -5  -8   4   -0.16    0.40
  -5  -8   4    0.44    0.39
  -5  -8   4   -0.42    0.38
   4   8  -4   20.08    1.08
   4   8  -4   19.04    1.35
  -4  -8   4   21.36    1.03
  -4  -8   4   19.70    1.06
  -4  -8   4   19.25    1.50
  -4  -8   4   20.44    1.05
  -4  -8   4   21.06    1.06
   3   8  -4   17.14    1.01
   3   8  -4   17.61    1.28
  -3  -8   4   17.21    1.02
  -3  -8   4   14.82    1.55
  -3  -8   4   16.31    0.97
  -3  -8   4   17.84    1.00
  -3  -8   4   16.12    0.98
   2   8  -4   49.77    1.75
   2   8  -4   49.63    1.92
  -2  -8   4   44.83    2.53
  -2  -8   4   50.88    1.73
  -2  -8   4   48.32    1.70
  -2  -8   4   50.74    1.72
  -2  -8   4   49.17    1.74
   1   8  -4   -0.33    0.46
   1   8  -4   -0.34    0.55
   1   8  -4   -0.27    0.19
   1   8  -4    0.03    0.14
  -1  -8   4   -0.07    0.46
  -1  -8   4    0.06    0.40
  -1  -8   4   -0.13    0.69
  -1  -8   4   -1.17    0.44
   0   8  -4    4.94    0.64
   0   8  -4    6.12    0.73
   0   8  -4    4.93    0.47
   0   8  -4    4.53    0.68
   0  -8   4    5.92    0.62
   0  -8   4    7.27    0.95
   0  -8   4    5.66    0.67
   0  -8   4    4.73    0.62
  -1   8  -4   -0.04    0.58
  -1   8  -4    0.01    0.55
  -1   8  -4    0.09    0.23
  -1   8  -4    0.78    0.57
  -1   8  -4    0.12    0.28
   1  -8   4    0.48    0.51
   1  -8   4    0.52    0.55
   1  -8   4    1.22    0.78
   1  -8   4   -0.01    0.50
  -2   8  -4    0.31    0.62
  -2   8  -4    0.46    0.34
  -2   8  -4   -0.84    0.52
  -2   8  -4   -0.03    0.65
  -2   8  -4    0.21    0.27
   2  -8   4    0.25    0.81
   2  -8   4   -0.83    0.57
   2  -8   4    0.07    0.52
   2  -8   4    0.14    0.51
   2  -8   4   -0.50    0.52
  -3   8  -4   -0.16    0.38
  -3   8  -4    0.13    0.35
  -3   8  -4    1.52    0.69
  -3   8  -4    0.88    0.59
  -3   8  -4    0.36    0.72
   3  -8   4    0.06    0.65
   3  -8   4    0.11    0.67
   3  -8   4    1.59    0.68
   3  -8   4    0.27    0.62
   9   7  -4    9.90    1.31
   9   7  -4    4.71    0.53
   9   7  -4    7.81    0.81
   9   7  -4    6.12    0.77
  -9  -7   4    9.52    1.11
  -9  -7   4    9.20    1.06
  -9  -7   4   10.63    1.12
  -9  -7   4    6.42    0.73
   8   7  -4    9.25    1.16
   8   7  -4    9.36    0.56
   8   7  -4    8.97    0.72
   8   7  -4   12.39    1.29
   8   7  -4   11.00    1.08
  -8  -7   4   10.05    1.02
  -8  -7   4   10.83    0.99
  -8  -7   4    7.18    1.01
  -8  -7   4   10.37    1.32
  -8  -7   4    8.89    0.99
   7   7  -4    0.36    0.46
   7   7  -4    0.01    0.17
   7   7  -4    0.59    0.63
   7   7  -4    0.43    0.22
  -7  -7   4    0.44    0.43
  -7  -7   4    0.56    0.40
  -7  -7   4    0.02    0.44
  -7  -7   4    0.35    0.68
   6   7  -4    1.80    0.20
   6   7  -4    2.47    0.24
   6   7  -4    1.19    0.45
   6   7  -4    2.44    0.63
   6   7  -4    2.40    0.49
  -6  -7   4    3.09    0.50
  -6  -7   4    2.61    0.42
  -6  -7   4    2.41    0.45
  -6  -7   4    2.66    0.48
   5   7  -4    4.33    0.66
   5   7  -4    3.50    0.52
   5   7  -4    4.23    0.55
   5   7  -4    5.06    0.36
   5   7  -4    4.37    0.35
  -5  -7   4    4.95    0.55
  -5  -7   4    4.88    0.49
  -5  -7   4    4.48    0.50
  -5  -7   4    4.72    0.51
   4   7  -4    2.32    0.67
   4   7  -4    3.11    0.50
   4   7  -4    2.66    0.33
   4   7  -4    2.58    0.23
   4   7  -4    2.78    0.46
  -4  -7   4    2.62    0.43
  -4  -7   4    2.08    0.45
  -4  -7   4    1.20    0.64
  -4  -7   4    3.09    0.46
  -4  -7   4    2.30    0.38
   3   7  -4    5.66    0.79
   3   7  -4    5.80    0.39
   3   7  -4    5.87    0.69
   3   7  -4    6.53    0.40
   3   7  -4    5.94    0.57
  -3  -7   4    6.52    0.70
  -3  -7   4    5.89    0.73
  -3  -7   4    6.56    0.57
  -3  -7   4    5.17    0.55
  -3  -7   4    6.35    0.85
   2   7  -4   62.73    2.03
   2   7  -4   64.87    2.03
   2   7  -4   63.07    1.73
   2   7  -4   65.67    2.17
   2   7  -4   59.99    1.71
  -2  -7   4   65.47    2.32
  -2  -7   4   64.68    1.96
  -2  -7   4   63.86    2.02
  -2  -7   4   62.76    1.97
  -2  -7   4   60.38    2.01
   1   7  -4   76.85    2.38
   1   7  -4   75.22    2.35
   1   7  -4   75.82    2.05
   1   7  -4   74.39    2.43
   1   7  -4   74.97    2.06
  -1  -7   4   73.68    2.33
  -1  -7   4   76.20    2.28
  -1  -7   4   77.30    2.60
  -1  -7   4   73.43    2.33
  -1  -7   4   78.27    2.28
   0   7  -4    1.11    0.29
   0   7  -4    0.43    0.29
   0   7  -4    0.02    0.50
   0   7  -4    0.27    0.44
   0   7  -4    1.02    0.49
   0  -7   4    1.33    0.41
   0  -7   4    0.84    0.47
   0  -7   4    1.39    0.66
   0  -7   4    1.30    0.44
  -1   7  -4    8.83    0.98
  -1   7  -4    7.90    0.97
  -1   7  -4    8.12    0.66
  -1   7  -4    7.93    0.62
   1  -7   4    7.73    0.91
   1  -7   4    7.62    0.88
   1  -7   4    7.45    0.88
   1  -7   4    8.51    0.96
  -2   7  -4    1.28    0.59
  -2   7  -4    1.21    0.56
  -2   7  -4    1.01    0.37
  -2   7  -4    1.25    0.36
  -2   7  -4    0.77    0.61
   2  -7   4    1.04    0.57
   2  -7   4    1.23    0.52
   2  -7   4    0.79    0.47
   2  -7   4    1.08    0.50
  -3   7  -4    5.03    0.80
  -3   7  -4    4.64    0.50
  -3   7  -4    4.13    0.48
  -3   7  -4    5.04    0.86
  -3   7  -4    5.30    0.75
  -3   7  -4    4.98    0.68
   3  -7   4    4.70    0.85
   3  -7   4    4.71    0.65
   3  -7   4    4.20    0.67
   3  -7   4    5.00    0.65
   3  -7   4    3.15    0.68
  -4   7  -4    0.74    0.75
  -4   7  -4    1.13    0.80
  -4   7  -4    1.13    0.45
  -4   7  -4    0.67    0.56
  -4   7  -4   -0.01    0.66
  -4   7  -4    0.63    0.47
   4  -7   4    0.42    0.57
   4  -7   4    0.65    0.58
   4  -7   4    1.06    0.69
   4  -7   4    0.23    0.61
  10   6  -4    2.58    0.47
  10   6  -4    2.16    0.59
  10   6  -4    2.66    0.80
  10   6  -4    2.79    0.75
 -10  -6   4    2.40    0.71
 -10  -6   4    2.40    0.63
 -10  -6   4    1.64    0.63
 -10  -6   4    1.45    0.82
 -10  -6   4    1.92    0.68
   9   6  -4    2.54    0.71
   9   6  -4    3.08    0.42
   9   6  -4    3.20    0.52
   9   6  -4    2.54    0.65
  -9  -6   4    3.08    0.60
  -9  -6   4    2.24    0.59
  -9  -6   4    2.41    0.62
  -9  -6   4    2.65    0.56
  -9  -6   4    3.01    0.82
   8   6  -4   -0.50    0.53
   8   6  -4    0.71    0.32
   8   6  -4    1.04    0.37
   8   6  -4    0.51    0.60
   8   6  -4   -0.03    0.52
   8   6  -4    0.20    0.34
  -8  -6   4    0.36    0.42
  -8  -6   4    0.55    0.53
  -8  -6   4    0.72    0.47
  -8  -6   4   -0.32    0.62
  -8  -6   4    0.43    0.48
   7   6  -4    2.00    0.52
   7   6  -4    2.32    0.33
   7   6  -4    1.65    0.32
   7   6  -4    2.19    0.61
  -7  -6   4    2.49    0.50
  -7  -6   4    1.84    0.42
  -7  -6   4    2.15    0.51
   6   6  -4    1.77    0.50
   6   6  -4    2.27    0.64
   6   6  -4    2.31    0.31
   6   6  -4    1.63    0.48
   6   6  -4    2.66    0.33
  -6  -6   4    2.72    0.42
  -6  -6   4    2.07    0.47
  -6  -6   4    2.50    0.48
  -6  -6   4    2.22    0.45
  -6  -6   4    1.82    0.62
   5   6  -4   12.56    0.91
   5   6  -4   15.29    0.95
   5   6  -4   12.59    1.03
   5   6  -4   13.71    0.63
   5   6  -4   12.99    0.61
  -5  -6   4   15.07    0.89
  -5  -6   4   13.74    0.80
  -5  -6   4   11.45    0.84
  -5  -6   4   12.45    0.87
   4   6  -4    1.97    0.44
   4   6  -4    1.11    0.41
   4   6  -4    0.54    0.54
   4   6  -4    1.97    0.27
   4   6  -4    1.63    0.28
  -4  -6   4    1.38    0.40
  -4  -6   4    0.87    0.38
  -4  -6   4    1.81    0.35
  -4  -6   4    1.11    0.39
   3   6  -4   27.10    0.89
   3   6  -4   26.70    1.13
   3   6  -4   26.54    1.29
   3   6  -4   25.29    1.13
   3   6  -4   26.35    0.87
  -3  -6   4   25.39    1.07
  -3  -6   4   26.89    1.03
  -3  -6   4   27.97    1.12
  -3  -6   4   26.48    1.38
  -3  -6   4   24.88    1.13
   2   6  -4   26.77    0.92
   2   6  -4   28.67    1.27
   2   6  -4   26.29    1.15
   2   6  -4   27.23    0.91
   2   6  -4   26.23    1.17
  -2  -6   4   27.77    1.07
  -2  -6   4   25.89    1.10
  -2  -6   4   27.42    1.16
  -2  -6   4   27.82    1.36
  -2  -6   4   26.29    1.15
   1   6  -4   69.74    2.17
   1   6  -4   69.50    2.16
   1   6  -4   70.10    2.22
   1   6  -4   69.21    1.94
   1   6  -4   68.56    1.92
  -1  -6   4   71.91    2.32
  -1  -6   4   67.06    2.14
  -1  -6   4   68.87    2.08
  -1  -6   4   69.83    2.15
  -1  -6   4   70.08    2.08
   0   6  -4    2.22    0.34
   0   6  -4    2.40    0.50
   0   6  -4    2.48    0.53
   0   6  -4    2.27    0.50
   0   6  -4    2.28    0.33
   0  -6   4    2.15    0.47
   0  -6   4    2.76    0.59
   0  -6   4    2.09    0.41
   0  -6   4    2.13    0.45
  -1   6  -4   17.71    1.08
  -1   6  -4   17.48    0.81
  -1   6  -4   17.43    0.83
  -1   6  -4   19.00    1.12
  -1   6  -4   18.43    1.06
   1  -6   4   17.36    1.08
   1  -6   4   15.49    0.95
   1  -6   4   17.18    1.04
   1  -6   4   18.01    1.19
   1  -6   4   19.34    0.99
  -2   6  -4    1.48    0.63
  -2   6  -4    1.30    0.49
  -2   6  -4    2.16    0.51
  -2   6  -4    1.64    0.52
  -2   6  -4    1.54    0.35
  -2   6  -4    1.90    0.39
   2  -6   4    2.14    0.65
   2  -6   4    1.17    0.54
   2  -6   4    1.22    0.46
   2  -6   4    1.70    0.49
   2  -6   4    1.39    0.46
  -3   6  -4   26.44    1.49
  -3   6  -4   27.66    1.16
  -3   6  -4   26.45    1.13
  -3   6  -4   24.51    1.27
  -3   6  -4   28.23    1.46
   3  -6   4   27.65    1.32
   3  -6   4   29.41    1.51
   3  -6   4   27.06    1.31
   3  -6   4   25.82    1.37
   3  -6   4   25.94    1.42
  -4   6  -4    0.20    0.61
  -4   6  -4   -0.46    0.42
  -4   6  -4   -0.23    0.57
  -4   6  -4    0.24    0.43
   4  -6   4    0.53    0.61
   4  -6   4   -0.68    0.50
   4  -6   4    0.23    0.58
   4  -6   4   -0.51    0.55
  -5   6  -4   21.76    1.19
  -5   6  -4   18.16    1.57
  -5   6  -4   21.50    1.54
  -5   6  -4   20.97    1.55
   5  -6   4   19.95    1.45
   5  -6   4   21.47    1.56
   5  -6   4   20.14    1.49
   5  -6   4   22.43    1.41
  -6   6  -4    4.44    0.89
  -6   6  -4    1.41    0.78
  -6   6  -4    2.40    0.67
  -6   6  -4    3.05    0.61
   6  -6   4    2.76    0.89
   6  -6   4    2.75    0.79
   6  -6   4    1.82    0.78
   6  -6   4    3.11    0.87
  10   5  -4    0.05    0.65
  10   5  -4   -0.10    0.51
  10   5  -4   -0.09    0.49
  10   5  -4    1.31    0.74
  10   5  -4    0.81    0.46
 -10  -5   4    0.23    0.63
 -10  -5   4    0.37    0.59
 -10  -5   4   -0.30    0.67
 -10  -5   4    0.12    0.66
 -10  -5   4   -0.35    0.57
   9   5  -4   15.45    1.27
   9   5  -4   14.40    0.90
   9   5  -4   15.99    0.94
   9   5  -4   13.78    1.31
   9   5  -4   14.31    0.99
  -9  -5   4   15.15    1.20
  -9  -5   4   17.14    1.16
  -9  -5   4   15.54    1.10
  -9  -5   4   17.35    1.26
   8   5  -4   14.77    0.91
   8   5  -4   16.25    1.19
   8   5  -4   16.81    1.18
   8   5  -4   15.85    0.87
   8   5  -4   16.57    0.87
  -8  -5   4   16.34    1.03
  -8  -5   4   15.01    1.14
  -8  -5   4   15.02    1.11
  -8  -5   4   14.97    1.06
   7   5  -4    7.42    0.68
   7   5  -4    8.61    0.94
   7   5  -4    8.09    0.97
   7   5  -4    7.56    0.66
   7   5  -4    7.14    0.94
   7   5  -4    8.15    0.60
  -7  -5   4    8.32    0.90
  -7  -5   4    7.94    0.84
  -7  -5   4    8.34    0.79
  -7  -5   4    7.31    0.97
   6   5  -4    3.70    0.51
   6   5  -4    5.23    0.68
   6   5  -4    5.36    0.60
   6   5  -4    4.74    0.55
   6   5  -4    4.52    0.57
   6   5  -4    5.36    0.44
  -6  -5   4    4.61    0.48
  -6  -5   4    4.92    0.58
  -6  -5   4    4.91    0.65
  -6  -5   4    4.29    0.46
  -6  -5   4    4.15    0.51
   5   5  -4   19.74    0.78
   5   5  -4   19.49    1.01
   5   5  -4   18.09    1.08
   5   5  -4   19.10    0.99
  -5  -5   4   18.30    0.97
  -5  -5   4   19.72    0.87
  -5  -5   4   20.38    0.94
  -5  -5   4   17.77    0.96
  -5  -5   4   17.33    1.08
   4   5  -4  131.46    3.71
   4   5  -4  135.72    3.80
   4   5  -4  138.37    3.72
   4   5  -4  135.05    3.55
   4   5  -4  135.42    3.53
  -4  -5   4  133.76    3.65
  -4  -5   4  133.38    3.61
  -4  -5   4  142.94    3.71
  -4  -5   4  133.33    3.69
   3   5  -4  125.88    3.36
   3   5  -4  120.93    3.16
   3   5  -4  121.46    3.34
   3   5  -4  120.57    3.42
   3   5  -4  120.84    3.18
  -3  -5   4  120.80    3.24
  -3  -5   4  124.91    3.29
  -3  -5   4  117.39    3.33
  -3  -5   4  115.58    3.31
   2   5  -4   16.07    0.89
   2   5  -4   17.58    0.69
   2   5  -4   16.62    0.72
   2   5  -4   15.51    0.88
   2   5  -4   18.26    0.96
  -2  -5   4   15.69    0.86
  -2  -5   4   17.67    1.04
  -2  -5   4   16.77    0.77
  -2  -5   4   16.72    0.88
  -2  -5   4   16.99    0.83
   1   5  -4  116.71    3.28
   1   5  -4  119.40    3.11
   1   5  -4  117.43    3.31
   1   5  -4  113.33    3.27
   1   5  -4  117.62    3.12
  -1  -5   4  116.18    3.20
  -1  -5   4  120.70    3.20
  -1  -5   4  122.21    3.29
  -1  -5   4  119.28    3.38
  -1  -5   4  116.10    3.26
   0   5  -4    0.71    0.28
   0   5  -4    0.62    0.40
   0   5  -4    0.80    0.39
   0   5  -4    0.85    0.27
   0   5  -4    0.41    0.38
   0  -5   4    0.36    0.36
   0  -5   4    0.18    0.32
   0  -5   4    0.73    0.46
   0  -5   4    0.55    0.37
  -1   5  -4   24.85    1.16
  -1   5  -4   22.94    1.07
  -1   5  -4   23.16    0.93
  -1   5  -4   23.97    1.12
  -1   5  -4   23.88    0.92
   1  -5   4   23.64    1.03
   1  -5   4   22.28    1.01
   1  -5   4   23.41    1.13
   1  -5   4   23.03    1.08
   1  -5   4   23.85    1.17
  -2   5  -4   -0.07    0.46
  -2   5  -4    0.44    0.47
  -2   5  -4    0.32    0.33
  -2   5  -4    0.79    0.33
  -2   5  -4   -0.31    0.44
   2  -5   4    1.14    0.40
   2  -5   4    0.60    0.40
   2  -5   4    0.53    0.45
   2  -5   4    0.55    0.48
   2  -5   4    0.57    0.49
  -3   5  -4    2.94    0.43
  -3   5  -4    2.74    0.42
  -3   5  -4    1.70    0.57
  -3   5  -4    2.40    0.57
   3  -5   4    2.29    0.52
   3  -5   4    3.32    0.56
   3  -5   4    2.37    0.55
   3  -5   4    2.32    0.53
   3  -5   4    2.31    0.50
  -4   5  -4    3.60    0.66
  -4   5  -4    5.42    0.75
  -4   5  -4    5.55    0.57
  -4   5  -4    4.99    0.55
   4  -5   4    5.29    0.73
   4  -5   4    3.87    0.67
   4  -5   4    4.74    0.62
   4  -5   4    3.77    0.58
  -5   5  -4    0.86    0.60
  -5   5  -4    0.26    0.44
  -5   5  -4    0.07    0.42
  -5   5  -4    0.59    0.69
   5  -5   4    0.32    0.61
   5  -5   4    0.02    0.61
   5  -5   4   -0.11    0.51
   5  -5   4   -0.22    0.53
  -6   5  -4    2.33    0.59
  -6   5  -4    2.32    0.80
  -6   5  -4    2.21    0.55
  -6   5  -4    3.71    0.81
  -6   5  -4    2.33    0.79
   6  -5   4    2.77    0.74
   6  -5   4    1.73    0.73
   6  -5   4    2.43    0.68
   6  -5   4    3.12    0.65
  -7   5  -4   33.50    1.70
  -7   5  -4   37.31    2.05
  -7   5  -4   37.46    1.95
  -7   5  -4   34.43    1.69
   7  -5   4   34.53    1.85
   7  -5   4   36.88    2.09
   7  -5   4   38.60    2.01
  10   4  -4   16.02    1.12
  10   4  -4   13.66    1.12
  10   4  -4   14.82    1.45
  10   4  -4   16.16    1.48
 -10  -4   4   16.16    1.39
 -10  -4   4   19.39    1.28
 -10  -4   4   15.92    1.23
 -10  -4   4   16.30    1.39
   9   4  -4    1.65    0.50
   9   4  -4    1.82    0.48
   9   4  -4    1.18    0.58
   9   4  -4    1.95    1.02
  -9  -4   4    1.04    0.53
  -9  -4   4    2.25    0.65
  -9  -4   4    1.12    0.59
  -9  -4   4    1.22    0.51
  -9  -4   4    2.83    0.59
   8   4  -4   75.95    2.31
   8   4  -4   75.71    2.21
   8   4  -4   77.60    2.27
   8   4  -4   73.23    2.51
  -8  -4   4   80.09    2.50
  -8  -4   4   77.78    2.40
  -8  -4   4   76.12    2.45
  -8  -4   4   76.00    2.35
  -8  -4   4   77.24    2.50
   7   4  -4    3.03    0.41
   7   4  -4    3.47    0.39
   7   4  -4    3.82    0.58
   7   4  -4    3.48    0.44
   7   4  -4    2.93    0.53
   7   4  -4    2.98    0.56
  -7  -4   4    3.09    0.51
  -7  -4   4    3.65    0.57
  -7  -4   4    3.63    0.46
  -7  -4   4    2.15    0.42
   6   4  -4   19.07    1.04
   6   4  -4   18.03    1.05
   6   4  -4   18.59    0.82
   6   4  -4   19.32    0.71
   6   4  -4   18.10    1.03
   6   4  -4   18.43    0.86
  -6  -4   4   17.87    1.01
  -6  -4   4   19.25    0.97
  -6  -4   4   16.91    1.00
  -6  -4   4   17.54    0.88
  -6  -4   4   18.92    1.02
   5   4  -4    1.27    0.38
   5   4  -4    0.81    0.28
   5   4  -4    1.37    0.42
   5   4  -4    1.41    0.20
   5   4  -4    1.58    0.31
   5   4  -4    1.34    0.41
  -5  -4   4    1.54    0.40
  -5  -4   4    0.93    0.28
  -5  -4   4    0.65    0.36
  -5  -4   4    0.88    0.36
  -5  -4   4    1.39    0.36
   4   4  -4    6.09    0.50
   4   4  -4    6.16    0.64
   4   4  -4    5.43    0.66
   4   4  -4    6.21    0.65
   4   4  -4    5.69    0.52
  -4  -4   4    5.66    0.59
  -4  -4   4    6.50    0.63
  -4  -4   4    5.42    0.53
  -4  -4   4    6.42    0.61
   3   4  -4    1.13    0.35
   3   4  -4    1.44    0.34
   3   4  -4    1.35    0.25
   3   4  -4    1.02    0.31
  -3  -4   4    1.51    0.31
  -3  -4   4    1.14    0.31
  -3  -4   4    1.26    0.27
  -3  -4   4    0.93    0.31
   2   4  -4    2.32    0.34
   2   4  -4    3.65    0.44
   2   4  -4    2.29    0.35
   2   4  -4    3.19    0.30
   2   4  -4    3.00    0.42
  -2  -4   4    2.17    0.35
  -2  -4   4    2.10    0.31
  -2  -4   4    2.01    0.34
  -2  -4   4    1.95    0.27
   1   4  -4    0.30    0.32
   1   4  -4    0.26    0.34
   1   4  -4    0.72    0.25
   1   4  -4    0.40    0.22
   1   4  -4    0.46    0.31
  -1  -4   4    0.59    0.29
  -1  -4   4    0.85    0.31
  -1  -4   4    0.45    0.25
  -1  -4   4    0.63    0.40
  -1  -4   4    0.63    0.25
   0   4  -4    0.92    0.34
   0   4  -4    0.54    0.33
   0   4  -4    1.67    0.30
   0   4  -4    1.58    0.27
   0   4  -4    0.41    0.35
   0  -4   4    1.48    0.31
   0  -4   4    1.15    0.33
   0  -4   4    1.17    0.30
   0  -4   4    1.31    0.33
   0  -4   4    1.04    0.41
  -1   4  -4    7.88    0.56
  -1   4  -4    7.45    0.74
  -1   4  -4    7.14    0.57
  -1   4  -4    7.33    0.72
   1  -4   4    7.62    0.71
   1  -4   4    7.41    0.65
   1  -4   4    6.88    0.61
   1  -4   4    6.84    0.67
   1  -4   4    7.73    0.70
  -2   4  -4   30.44    1.31
  -2   4  -4   30.61    1.28
  -2   4  -4   31.76    1.30
  -2   4  -4   33.18    1.16
  -2   4  -4   31.77    1.13
   2  -4   4   33.93    1.29
   2  -4   4   33.23    1.22
   2  -4   4   30.66    1.26
   2  -4   4   33.78    1.31
   2  -4   4   32.42    1.19
  -3   4  -4   27.65    1.12
  -3   4  -4   27.97    1.28
  -3   4  -4   27.32    1.30
  -3   4  -4   28.48    1.10
  -3   4  -4   27.49    1.26
   3  -4   4   28.51    1.17
   3  -4   4   28.02    1.29
   3  -4   4   27.70    1.19
   3  -4   4   28.42    1.26
   3  -4   4   28.24    1.28
  -4   4  -4   71.88    2.56
  -4   4  -4   80.14    2.43
  -4   4  -4   87.21    2.67
  -4   4  -4   82.00    2.43
  -4   4  -4   85.71    2.60
   4  -4   4   86.64    2.52
   4  -4   4   83.79    2.51
   4  -4   4   81.69    2.62
   4  -4   4   83.87    2.64
  -5   4  -4    2.98    0.51
  -5   4  -4    3.85    0.64
  -5   4  -4    2.77    0.64
  -5   4  -4    2.33    0.58
  -5   4  -4    2.94    0.52
   5  -4   4    3.39    0.61
   5  -4   4    4.43    0.65
   5  -4   4    3.34    0.65
   5  -4   4    3.30    0.57
  -6   4  -4    0.30    0.62
  -6   4  -4    0.02    0.53
  -6   4  -4   -0.69    0.52
  -6   4  -4    0.88    0.64
   6  -4   4   -0.25    0.50
   6  -4   4   -0.41    0.53
   6  -4   4   -0.79    0.56
   6  -4   4    0.18    0.63
  -7   4  -4    1.20    0.75
  -7   4  -4    0.55    0.70
  -7   4  -4    0.44    0.60
  -7   4  -4    1.16    0.76
  -7   4  -4    0.86    0.65
   7  -4   4   -0.57    0.74
   7  -4   4    1.02    0.70
   7  -4   4    1.52    0.74
   7  -4   4    0.67    0.62
 -11  -3   4    1.29    0.65
  10   3  -4    0.26    0.51
  10   3  -4    0.58    0.70
  10   3  -4    0.89    0.73
 -10  -3   4   -0.47    0.65
 -10  -3   4    0.75    0.68
 -10  -3   4   -0.26    0.55
 -10  -3   4    0.05    0.52
 -10  -3   4    0.69    0.54
   9   3  -4    3.92    0.59
   9   3  -4    4.32    0.54
   9   3  -4    3.47    0.71
  -9  -3   4    3.11    0.56
  -9  -3   4    4.04    0.59
  -9  -3   4    3.81    0.70
  -9  -3   4    3.76    0.68
  -9  -3   4    3.98    0.61
   8   3  -4   -0.12    0.39
   8   3  -4    0.14    0.41
   8   3  -4   -0.65    0.52
  -8  -3   4    0.05    0.42
  -8  -3   4   -0.03    0.53
  -8  -3   4   -0.35    0.40
  -8  -3   4    0.51    0.44
  -8  -3   4   -0.50    0.45
   7   3  -4    2.52    0.52
   7   3  -4    2.16    0.45
   7   3  -4    2.32    0.50
   7   3  -4    2.81    0.53
   7   3  -4    2.58    0.43
  -7  -3   4    1.92    0.50
  -7  -3   4    1.95    0.45
  -7  -3   4    2.58    0.49
  -7  -3   4    2.51    0.44
  -7  -3   4    2.72    0.53
   6   3  -4   -0.09    0.39
   6   3  -4   -0.45    0.32
   6   3  -4   -0.22    0.37
   6   3  -4   -0.19    0.30
   6   3  -4   -0.59    0.37
  -6  -3   4   -0.36    0.37
  -6  -3   4   -0.22    0.32
  -6  -3   4   -0.58    0.37
  -6  -3   4    0.09    0.38
  -6  -3   4   -0.81    0.32
   5   3  -4    0.59    0.21
   5   3  -4   -0.03    0.34
   5   3  -4    0.57    0.36
   5   3  -4   -0.08    0.26
   5   3  -4    0.40    0.33
   5   3  -4    0.18    0.28
  -5  -3   4   -0.03    0.32
  -5  -3   4    0.37    0.33
  -5  -3   4    0.09    0.31
  -5  -3   4    0.23    0.28
  -5  -3   4    0.18    0.33
   4   3  -4  117.16    3.14
   4   3  -4  115.36    3.23
   4   3  -4  118.35    3.24
   4   3  -4  119.06    3.12
   4   3  -4  121.86    3.26
  -4  -3   4  118.08    3.24
  -4  -3   4  117.42    3.24
  -4  -3   4  115.99    3.17
  -4  -3   4  116.29    3.14
   3   3  -4    5.23    0.45
   3   3  -4    4.79    0.48
   3   3  -4    5.34    0.58
   3   3  -4    6.16    0.59
   3   3  -4    6.16    0.57
  -3  -3   4    4.98    0.47
  -3  -3   4    5.10    0.54
  -3  -3   4    5.18    0.56
  -3  -3   4    5.74    0.52
   2   3  -4   27.37    1.02
   2   3  -4   26.43    1.01
   2   3  -4   27.35    0.90
   2   3  -4   26.61    1.02
  -2  -3   4   27.48    1.02
  -2  -3   4   27.63    0.92
  -2  -3   4   27.33    0.96
  -2  -3   4   27.93    1.01
   1   3  -4  144.21    3.71
   1   3  -4  140.66    3.68
   1   3  -4  149.32    3.81
   1   3  -4  137.20    3.79
   1   3  -4  146.66    3.80
  -1  -3   4  139.25    3.81
  -1  -3   4  137.82    3.78
  -1  -3   4  140.96    3.71
  -1  -3   4  141.74    3.73
  -1  -3   4  144.24    3.80
   0   3  -4   30.87    1.11
   0   3  -4   30.52    1.00
   0   3  -4   29.51    0.98
   0   3  -4   30.10    1.11
   0  -3   4   30.09    1.10
   0  -3   4   29.60    1.09
   0  -3   4   29.92    1.11
   0  -3   4   30.81    1.04
   0  -3   4   29.25    1.01
  -1   3  -4    2.44    0.31
  -1   3  -4    3.34    0.42
  -1   3  -4    3.73    0.44
  -1   3  -4    3.62    0.45
   1  -3   4    2.53    0.35
   1  -3   4    2.94    0.32
   1  -3   4    2.66    0.38
   1  -3   4    3.66    0.53
  -2   3  -4   62.23    1.93
  -2   3  -4   61.15    1.89
  -2   3  -4   61.96    1.81
  -2   3  -4   62.41    1.93
  -2   3  -4   61.47    1.80
   2  -3   4   63.51    1.84
   2  -3   4   62.55    1.85
   2  -3   4   62.64    1.94
   2  -3   4   60.40    1.87
   2  -3   4   58.93    1.91
  -3   3  -4   12.00    0.75
  -3   3  -4   12.23    0.78
  -3   3  -4   10.65    0.84
  -3   3  -4   10.86    0.70
  -3   3  -4   12.56    0.88
   3  -3   4   13.20    0.89
   3  -3   4   11.44    0.77
   3  -3   4   10.72    0.86
   3  -3   4   11.00    0.74
   3  -3   4   10.48    0.76
  -4   3  -4   40.32    1.48
  -4   3  -4   39.47    1.56
  -4   3  -4   37.46    1.39
  -4   3  -4   40.63    1.60
  -4   3  -4   39.95    1.42
   4  -3   4   43.52    1.59
   4  -3   4   38.62    1.45
   4  -3   4   39.32    1.56
   4  -3   4   38.40    1.44
  -5   3  -4    3.23    0.55
  -5   3  -4    3.97    0.68
  -5   3  -4    4.82    0.55
  -5   3  -4    3.29    0.47
  -5   3  -4    3.70    0.64
   5  -3   4    2.91    0.58
   5  -3   4    2.84    0.51
   5  -3   4    2.83    0.55
   5  -3   4    2.44    0.58
  -6   3  -4   22.68    1.40
  -6   3  -4   23.87    1.28
  -6   3  -4   22.11    1.21
  -6   3  -4   21.77    1.42
   6  -3   4   23.66    1.41
   6  -3   4   22.25    1.23
   6  -3   4   24.00    1.38
  -7   3  -4    3.86    0.79
  -7   3  -4    4.20    0.66
  -7   3  -4    4.83    0.66
  -7   3  -4    4.97    0.88
  -7   3  -4    3.85    0.66
   7  -3   4    3.11    0.70
   7  -3   4    3.60    0.65
   7  -3   4    3.87    0.80
  -8   3  -4   10.57    1.24
  -8   3  -4   10.78    1.21
  -8   3  -4    5.92    0.76
  -8   3  -4    7.20    0.96
  -8   3  -4   10.05    1.11
   8  -3   4    7.13    0.95
   8  -3   4    6.50    0.94
   8  -3   4    8.01    1.02
  11   2  -4    2.05    0.84
  11   2  -4    1.12    0.77
  11   2  -4    1.48    0.67
 -11  -2   4    2.74    0.77
 -11  -2   4    0.48    0.83
 -11  -2   4    1.89    0.93
  10   2  -4    4.04    0.83
  10   2  -4    5.07    0.89
  10   2  -4    3.94    0.64
  10   2  -4    4.79    0.74
 -10  -2   4    5.13    0.75
 -10  -2   4    5.33    0.90
 -10  -2   4    4.62    0.62
 -10  -2   4    4.27    0.71
 -10  -2   4    4.93    0.88
   9   2  -4    0.04    0.44
   9   2  -4    0.17    0.58
   9   2  -4   -0.63    0.42
   9   2  -4   -0.22    0.57
  -9  -2   4   -0.11    0.56
  -9  -2   4   -0.15    0.58
  -9  -2   4    0.06    0.46
  -9  -2   4    0.26    0.43
  -9  -2   4   -0.37    0.50
   8   2  -4   41.38    1.48
   8   2  -4   40.74    1.70
   8   2  -4   37.68    1.50
  -8  -2   4   38.24    1.49
  -8  -2   4   38.38    1.65
  -8  -2   4   38.44    1.65
  -8  -2   4   40.73    1.46
  -8  -2   4   39.94    1.55
   7   2  -4   10.77    0.84
   7   2  -4   11.85    0.82
   7   2  -4   10.34    0.95
   7   2  -4    9.92    1.00
  -7  -2   4   10.49    0.79
  -7  -2   4    9.97    0.96
  -7  -2   4   12.03    0.79
  -7  -2   4   12.15    0.96
  -7  -2   4   11.18    0.87
   6   2  -4   54.97    1.70
   6   2  -4   55.42    1.88
   6   2  -4   55.40    1.86
   6   2  -4   56.59    1.75
   6   2  -4   55.76    1.76
  -6  -2   4   56.16    1.72
  -6  -2   4   57.85    1.75
  -6  -2   4   56.60    1.77
  -6  -2   4   54.37    1.85
   5   2  -4   14.14    0.74
   5   2  -4   14.48    0.86
   5   2  -4   13.60    0.75
   5   2  -4   12.69    0.81
   5   2  -4   12.67    0.69
  -5  -2   4   13.69    0.71
  -5  -2   4   14.86    0.76
  -5  -2   4   14.03    0.73
  -5  -2   4   13.17    0.83
  -5  -2   4   14.91    0.83
   4   2  -4   23.21    0.98
   4   2  -4   24.34    0.90
   4   2  -4   22.83    0.93
   4   2  -4   25.03    0.88
   4   2  -4   23.52    0.98
  -4  -2   4   24.12    0.98
  -4  -2   4   23.47    0.87
  -4  -2   4   23.35    0.97
  -4  -2   4   24.45    0.93
   3   2  -4   72.77    1.99
   3   2  -4   71.95    2.07
   3   2  -4   71.26    1.97
   3   2  -4   70.42    2.04
   3   2  -4   69.69    2.07
  -3  -2   4   70.91    2.06
  -3  -2   4   72.25    1.98
  -3  -2   4   73.07    2.07
  -3  -2   4   70.95    2.02
   2   2  -4    0.73    0.27
   2   2  -4    0.61    0.27
   2   2  -4    0.31    0.27
   2   2  -4    0.66    0.20
   2   2  -4    0.77    0.23
  -2  -2   4    0.42    0.23
  -2  -2   4    1.03    0.29
  -2  -2   4    0.59    0.21
  -2  -2   4    0.91    0.29
   1   2  -4    0.23    0.25
   1   2  -4    0.18    0.20
   1   2  -4    0.17    0.26
  -1  -2   4   -0.03    0.24
  -1  -2   4   -0.19    0.25
  -1  -2   4    0.39    0.24
  -1  -2   4    0.25    0.21
   0   2  -4   14.09    0.70
   0   2  -4   13.61    0.58
   0   2  -4   13.14    0.61
   0   2  -4   12.55    0.67
   0  -2   4   12.80    0.63
   0  -2   4   13.14    0.67
   0  -2   4   12.00    0.59
   0  -2   4   13.32    0.63
   0  -2   4   12.72    0.67
  -1   2  -4   26.06    0.89
  -1   2  -4   26.31    1.00
  -1   2  -4   25.77    0.99
  -1   2  -4   24.81    0.90
   1  -2   4   25.55    0.90
   1  -2   4   24.93    0.99
   1  -2   4   26.48    0.92
   1  -2   4   26.57    0.99
  -2   2  -4   10.03    0.59
  -2   2  -4   10.70    0.61
  -2   2  -4    9.86    0.70
  -2   2  -4    9.43    0.69
  -2   2  -4   10.62    0.61
   2  -2   4   11.12    0.60
   2  -2   4   10.62    0.65
   2  -2   4   10.61    0.72
   2  -2   4   10.63    0.69
   2  -2   4   10.54    0.62
  -3   2  -4   11.80    0.69
  -3   2  -4   11.63    0.67
  -3   2  -4   10.66    0.78
  -3   2  -4   11.12    0.66
  -3   2  -4   11.51    0.81
   3  -2   4   11.42    0.68
   3  -2   4   11.00    0.78
   3  -2   4   11.32    0.70
   3  -2   4   11.93    0.78
  -4   2  -4    0.07    0.37
  -4   2  -4    0.07    0.30
  -4   2  -4    0.10    0.30
  -4   2  -4   -0.05    0.38
  -4   2  -4    0.06    0.31
   4  -2   4    0.22    0.30
   4  -2   4    0.14    0.37
   4  -2   4   -0.03    0.39
   4  -2   4    0.12    0.31
  -5   2  -4   10.01    0.96
  -5   2  -4   11.55    1.00
  -5   2  -4   10.23    0.82
  -5   2  -4    8.74    0.81
  -5   2  -4    9.59    0.82
   5  -2   4   13.24    1.00
   5  -2   4   10.96    0.93
   5  -2   4    9.30    0.86
   5  -2   4   10.72    0.85
  -6   2  -4   26.06    1.24
  -6   2  -4   26.72    1.39
  -6   2  -4   27.49    1.23
  -6   2  -4   28.69    1.24
  -6   2  -4   26.37    1.42
   6  -2   4   28.86    1.28
   6  -2   4   25.40    1.38
   6  -2   4   24.79    1.39
  -7   2  -4   13.17    1.05
  -7   2  -4   11.29    1.25
  -7   2  -4   12.16    1.23
  -7   2  -4   11.43    1.05
   7  -2   4   12.56    1.24
   7  -2   4   12.19    1.07
   7  -2   4   13.70    1.25
  -8   2  -4   -0.06    0.55
  -8   2  -4    0.12    0.50
  -8   2  -4    0.06    0.62
  -8   2  -4   -0.62    0.65
  -8   2  -4    0.23    0.59
   8  -2   4   -0.55    0.61
   8  -2   4   -0.66    0.64
   8  -2   4    0.14    0.56
   8  -2   4    0.37    0.67
  -9   2  -4    0.16    0.81
  -9   2  -4    0.76    0.69
  -9   2  -4    0.43    0.88
  -9   2  -4    1.07    0.64
  -9   2  -4    0.85    0.62
   9  -2   4    0.33    0.85
   9  -2   4    0.04    0.76
   9  -2   4    0.70    0.74
   9  -2   4    0.55    0.73
  10   1  -4    8.70    0.82
  10   1  -4    9.19    1.02
  10   1  -4    8.79    0.91
  10   1  -4    8.22    1.06
 -10  -1   4    7.84    0.84
 -10  -1   4    9.15    0.88
 -10  -1   4   10.27    1.40
 -10  -1   4    7.49    0.95
   9   1  -4    1.99    0.68
   9   1  -4    2.33    0.78
   9   1  -4    2.16    0.51
  -9  -1   4    3.05    0.72
  -9  -1   4    2.39    0.46
  -9  -1   4    2.54    0.63
  -9  -1   4    2.52    0.71
   8   1  -4    1.56    0.58
   8   1  -4    0.70    0.56
   8   1  -4    1.47    0.50
   8   1  -4    1.42    0.45
  -8  -1   4    1.83    0.52
  -8  -1   4    1.87    0.62
  -8  -1   4    1.58    0.54
  -8  -1   4    1.33    0.39
   7   1  -4   15.11    1.07
   7   1  -4   15.72    0.99
   7   1  -4   14.80    0.92
   7   1  -4   15.92    1.10
  -7  -1   4   16.95    0.98
  -7  -1   4   15.23    0.91
  -7  -1   4   15.99    0.81
  -7  -1   4   16.16    1.05
  -7  -1   4   15.52    1.08
   6   1  -4    6.23    0.69
   6   1  -4    5.35    0.57
   6   1  -4    6.27    0.63
   6   1  -4    6.01    0.59
   6   1  -4    4.30    0.52
  -6  -1   4    4.27    0.45
  -6  -1   4    6.60    0.77
  -6  -1   4    6.23    0.63
  -6  -1   4    5.77    0.76
  -6  -1   4    6.37    0.56
   5   1  -4   55.23    1.71
   5   1  -4   55.82    1.80
   5   1  -4   58.36    1.82
   5   1  -4   56.67    1.68
   5   1  -4   55.65    1.68
  -5  -1   4   56.60    1.73
  -5  -1   4   55.99    1.66
  -5  -1   4   57.09    1.69
  -5  -1   4   56.81    1.80
  -5  -1   4   57.41    1.82
   4   1  -4    0.27    0.28
   4   1  -4    0.44    0.33
   4   1  -4   -0.26    0.25
   4   1  -4    0.14    0.31
   4   1  -4   -0.33    0.24
  -4  -1   4    0.37    0.29
  -4  -1   4   -0.12    0.24
  -4  -1   4    0.46    0.31
  -4  -1   4    0.29    0.22
   3   1  -4  339.95    8.71
   3   1  -4  349.02    8.69
   3   1  -4  337.77    8.77
   3   1  -4  345.07    8.77
   3   1  -4  346.74    8.71
  -3  -1   4  342.86    8.77
  -3  -1   4  347.98    8.77
  -3  -1   4  345.58    8.69
  -3  -1   4  352.12    8.72
   2   1  -4   75.49    2.15
   2   1  -4   77.61    2.07
   2   1  -4   76.06    2.16
   2   1  -4   72.44    2.08
   2   1  -4   77.32    2.11
  -2  -1   4   76.05    2.15
  -2  -1   4   76.63    2.11
  -2  -1   4   79.72    2.16
  -2  -1   4   78.06    2.08
   1   1  -4  196.07    4.97
   1   1  -4  188.62    4.91
   1   1  -4  187.49    4.89
   1   1  -4  193.56    4.97
  -1  -1   4  192.77    4.96
  -1  -1   4  189.18    4.90
  -1  -1   4  191.85    4.97
  -1  -1   4  192.90    4.92
  -1  -1   4  196.23    4.78
   0   1  -4    1.42    0.27
   0   1  -4    1.27    0.28
   0   1  -4    0.85    0.18
   0  -1   4    1.47    0.27
   0  -1   4    0.85    0.25
   0  -1   4    1.18    0.24
   0  -1   4    1.17    0.23
  -1   1  -4   35.73    1.11
  -1   1  -4   35.09    1.09
  -1   1  -4   33.65    1.17
  -1   1  -4   34.30    1.17
   1  -1   4   37.02    1.18
   1  -1   4   37.19    1.13
   1  -1   4   35.94    1.06
   1  -1   4   35.54    1.10
   1  -1   4   37.42    1.20
  -2   1  -4  179.12    4.74
  -2   1  -4  178.18    4.65
  -2   1  -4  179.91    4.66
  -2   1  -4  185.73    4.74
  -2   1  -4  176.04    4.62
   2  -1   4  177.60    4.65
   2  -1   4  185.47    4.74
   2  -1   4  182.50    4.62
   2  -1   4  179.17    4.73
  -3   1  -4   -0.01    0.25
  -3   1  -4    0.27    0.24
  -3   1  -4   -0.13    0.26
  -3   1  -4    0.04    0.32
  -3   1  -4    0.13    0.31
   3  -1   4   -0.15    0.31
   3  -1   4    0.56    0.26
   3  -1   4   -0.40    0.29
   3  -1   4    0.33    0.27
  -4   1  -4   45.72    1.47
  -4   1  -4   44.96    1.44
  -4   1  -4   46.80    1.48
  -4   1  -4   45.11    1.59
  -4   1  -4   47.63    1.59
   4  -1   4   47.48    1.59
   4  -1   4   46.32    1.48
   4  -1   4   47.37    1.49
   4  -1   4   46.79    1.59
  -5   1  -4   87.46    2.50
  -5   1  -4   87.16    2.49
  -5   1  -4   85.51    2.62
  -5   1  -4   86.64    2.48
  -5   1  -4   84.62    2.61
   5  -1   4   88.22    2.51
   5  -1   4   85.25    2.61
   5  -1   4   82.83    2.60
   5  -1   4   90.17    2.51
  -6   1  -4   -0.37    0.41
  -6   1  -4   -0.43    0.51
  -6   1  -4    0.41    0.39
  -6   1  -4   -0.53    0.48
  -6   1  -4   -0.44    0.38
   6  -1   4   -0.28    0.49
   6  -1   4   -0.44    0.39
   6  -1   4   -0.55    0.49
   6  -1   4    0.15    0.44
  -7   1  -4   31.74    1.38
  -7   1  -4   32.54    1.57
  -7   1  -4   32.01    1.36
  -7   1  -4   29.91    1.54
   7  -1   4   33.96    1.56
   7  -1   4   29.71    1.56
   7  -1   4   34.25    1.43
   7  -1   4   33.51    1.42
  -8   1  -4   30.50    1.44
  -8   1  -4   30.30    1.43
  -8   1  -4   30.31    1.64
  -8   1  -4   29.05    1.62
   8  -1   4   31.77    1.68
   8  -1   4   30.05    1.64
   8  -1   4   28.55    1.46
   8  -1   4   27.33    1.63
  -9   1  -4    0.73    0.61
  -9   1  -4    2.05    0.79
  -9   1  -4    1.10    0.75
  -9   1  -4    1.25    0.63
  -9   1  -4    1.14    0.68
   9  -1   4    0.24    0.78
   9  -1   4    0.64    0.73
   9  -1   4    2.42    0.74
   9  -1   4    0.66    0.67
  10   0  -4    4.81    0.90
  10   0  -4    5.85    0.89
  10   0  -4    4.14    0.70
  10   0  -4    6.11    0.96
 -10   0   4    5.00    0.84
 -10   0   4    5.04    0.92
 -10   0   4    3.57    0.70
 -10   0   4    5.16    0.93
   9   0  -4   12.99    1.38
   9   0  -4   13.42    1.11
   9   0  -4   10.41    1.34
   9   0  -4   13.18    1.24
  -9   0   4   13.19    1.35
  -9   0   4   13.82    1.19
  -9   0   4   13.26    1.33
  -9   0   4   12.56    0.79
   8   0  -4   31.56    1.56
   8   0  -4   30.43    1.36
   8   0  -4   28.99    1.59
   8   0  -4   31.41    1.44
  -8   0   4   31.87    1.14
  -8   0   4   32.64    1.42
  -8   0   4   33.95    1.57
  -8   0   4   32.65    1.58
   7   0  -4   81.14    2.39
   7   0  -4   81.23    2.57
   7   0  -4   83.09    2.56
   7   0  -4   76.70    2.43
  -7   0   4   81.16    2.44
  -7   0   4   82.64    2.38
  -7   0   4   79.26    2.56
  -7   0   4   79.77    2.23
  -7   0   4   70.22    2.49
   6   0  -4   30.17    1.35
   6   0  -4   33.54    1.27
   6   0  -4   31.96    1.36
   6   0  -4   32.38    1.20
  -6   0   4   33.36    1.08
  -6   0   4   33.11    1.35
  -6   0   4   34.03    1.25
  -6   0   4   31.90    1.18
  -6   0   4   32.20    1.33
   5   0  -4   38.46    1.38
   5   0  -4   35.85    1.17
   5   0  -4   39.12    1.37
   5   0  -4   37.88    1.29
   5   0  -4   37.09    1.24
  -5   0   4   37.81    1.15
  -5   0   4   37.37    1.23
  -5   0   4   36.81    1.37
  -5   0   4   36.66    1.28
   4   0  -4    2.74    0.31
   4   0  -4    3.19    0.43
   4   0  -4    2.90    0.37
   4   0  -4    2.96    0.33
   4   0  -4    2.24    0.36
  -4   0   4    2.39    0.31
  -4   0   4    2.94    0.33
  -4   0   4    3.05    0.39
  -4   0   4    2.04    0.39
   3   0  -4  292.85    7.43
   3   0  -4  293.44    7.52
   3   0  -4  303.42    7.53
   3   0  -4  292.14    7.46
   3   0  -4  281.37    7.41
  -3   0   4  293.16    7.52
  -3   0   4  292.68    7.43
  -3   0   4  304.04    7.53
  -3   0   4  296.39    7.46
   2   0  -4  549.59   13.93
   2   0  -4  555.51   13.86
   2   0  -4  570.67   13.94
   2   0  -4  555.62   13.88
  -2   0   4  562.25   13.86
  -2   0   4  570.89   13.88
  -2   0   4  539.93   13.93
  -2   0   4  548.25   13.93
   1   0  -4    0.91    0.23
   1   0  -4    1.48    0.27
   1   0  -4    1.49    0.23
   1   0  -4    1.44    0.21
  -1   0   4    1.38    0.23
  -1   0   4    1.22    0.23
  -1   0   4    1.14    0.26
  -1   0   4    1.35    0.21
  -1   0   4    1.52    0.15
   0   0  -4   83.25    2.32
   0   0  -4   81.84    2.26
   0   0  -4   84.07    2.25
   0   0  -4   83.24    2.31
   0   0   4   86.38    2.27
   0   0   4   88.37    2.21
   0   0   4   89.53    2.33
   0   0   4   82.87    2.25
   0   0   4   84.26    2.31
  -1   0  -4  259.25    6.66
  -1   0  -4  266.89    6.67
  -1   0  -4  258.66    6.60
   1   0   4  266.21    6.60
   1   0   4  262.84    6.61
   1   0   4  246.58    6.52
   1   0   4  264.22    6.67
   1   0   4  267.01    6.67
  -2   0  -4   10.29    0.61
  -2   0  -4    9.74    0.53
  -2   0  -4    9.44    0.42
  -2   0  -4   10.61    0.61
  -2   0  -4   10.98    0.54
   2   0   4   11.26    0.62
   2   0   4   10.07    0.55
   2   0   4   10.73    0.53
   2   0   4   10.78    0.62
  -3   0  -4   97.06    2.70
  -3   0  -4  100.75    2.79
  -3   0  -4  106.18    2.81
  -3   0  -4   99.21    2.64
  -3   0  -4  102.77    2.72
   3   0   4   99.15    2.79
   3   0   4  100.26    2.72
   3   0   4   99.52    2.79
   3   0   4  101.13    2.71
  -4   0  -4   42.38    1.46
  -4   0  -4   40.49    1.44
  -4   0  -4   42.03    1.29
  -4   0  -4   41.90    1.36
  -4   0  -4   42.94    1.36
   4   0   4   44.68    1.46
   4   0   4   44.09    1.37
   4   0   4   42.31    1.36
   4   0   4   43.91    1.46
  -5   0  -4    0.83    0.31
  -5   0  -4    1.21    0.32
  -5   0  -4    0.92    0.41
  -5   0  -4    0.61    0.31
  -5   0  -4    0.72    0.38
   5   0   4    0.52    0.33
   5   0   4    1.00    0.40
   5   0   4    0.55    0.33
   5   0   4    1.55    0.42
  -6   0  -4   14.56    0.83
  -6   0  -4   14.61    0.90
  -6   0  -4   12.54    0.98
  -6   0  -4   15.30    1.03
  -6   0  -4   14.32    0.88
   6   0   4   15.03    1.03
   6   0   4   14.90    0.90
   6   0   4   15.88    0.91
   6   0   4   12.33    0.99
  -7   0  -4   -0.81    0.39
  -7   0  -4    0.47    0.42
  -7   0  -4   -0.68    0.48
  -7   0  -4    0.07    0.39
  -7   0  -4   -0.21    0.51
   7   0   4    0.45    0.48
   7   0   4   -0.08    0.51
   7   0   4    0.36    0.52
   7   0   4   -0.51    0.42
  -8   0  -4    4.71    0.71
  -8   0  -4    4.26    0.58
  -8   0  -4    5.29    0.64
  -8   0  -4    3.61    0.69
   8   0   4    4.70    0.75
   8   0   4    4.97    0.78
   8   0   4    3.59    0.57
  -9   0  -4   16.79    1.25
  -9   0  -4   15.76    1.23
  -9   0  -4   16.44    1.25
  -9   0  -4   17.62    1.44
  -9   0  -4   19.76    1.50
   9   0   4   18.31    1.30
   9   0   4   17.59    1.47
   9   0   4   16.62    1.29
   9   0   4   15.74    1.41
 -10   0  -4    0.16    0.76
 -10   0  -4   -0.72    0.80
 -10   0  -4    0.23    0.66
 -10   0  -4    0.11    0.65
 -10   0  -4   -0.30    0.63
  10   0   4   -0.52    0.74
  10   0   4   -0.35    0.81
  10   0   4    0.00    0.68
  10   0   4   -0.37    0.62
  10  -1  -4    3.92    1.00
  10  -1  -4    3.70    0.93
  10  -1  -4    3.67    0.84
  10  -1  -4    3.88    0.72
 -10   1   4    4.68    0.79
 -10   1   4    4.87    0.90
 -10   1   4    3.92    0.72
 -10   1   4    5.26    0.98
   9  -1  -4    4.38    0.87
   9  -1  -4    4.99    0.71
   9  -1  -4    6.34    0.76
   9  -1  -4    4.68    0.84
  -9   1   4    4.88    0.71
  -9   1   4    6.14    0.88
  -9   1   4    5.86    0.91
  -9   1   4    4.17    0.67
   8  -1  -4  107.48    3.37
   8  -1  -4  110.22    3.16
   8  -1  -4  110.41    3.35
  -8   1   4  105.39    2.88
  -8   1   4  101.33    3.30
  -8   1   4  108.99    3.19
  -8   1   4  109.16    3.35
   7  -1  -4    1.22    0.48
   7  -1  -4    0.72    0.56
   7  -1  -4    0.53    0.57
   7  -1  -4    0.81    0.44
  -7   1   4    0.38    0.39
  -7   1   4    1.60    0.58
  -7   1   4    0.82    0.55
  -7   1   4    1.35    0.50
  -7   1   4    0.96    0.28
   6  -1  -4   65.94    2.08
   6  -1  -4   63.55    2.08
   6  -1  -4   62.44    1.91
   6  -1  -4   53.66    1.93
  -6   1   4   64.24    2.06
  -6   1   4   62.55    1.90
  -6   1   4   59.46    2.05
  -6   1   4   63.29    1.72
  -6   1   4   65.32    1.96
   5  -1  -4   66.51    1.95
   5  -1  -4   64.13    1.90
   5  -1  -4   63.46    2.01
   5  -1  -4   65.70    2.04
  -5   1   4   63.25    1.92
  -5   1   4   65.50    2.02
  -5   1   4   64.05    2.02
  -5   1   4   64.76    1.89
   4  -1  -4   11.23    0.62
   4  -1  -4   10.01    0.72
   4  -1  -4    9.75    0.47
   4  -1  -4   10.31    0.71
   4  -1  -4   10.24    0.66
  -4   1   4   10.70    0.64
  -4   1   4   10.39    0.58
  -4   1   4    9.67    0.70
   3  -1  -4  358.80    9.02
   3  -1  -4  361.67    9.04
   3  -1  -4  356.14    9.10
   3  -1  -4  345.51    8.95
   3  -1  -4  363.40    9.11
  -3   1   4  357.20    9.10
  -3   1   4  368.44    9.04
  -3   1   4  361.88    9.11
  -3   1   4  355.01    9.01
   2  -1  -4  154.74    3.96
   2  -1  -4  151.35    3.95
   2  -1  -4  152.97    3.90
   2  -1  -4  148.33    3.88
  -2   1   4  148.59    3.90
  -2   1   4  147.15    3.95
  -2   1   4  149.83    3.95
  -2   1   4  150.07    3.87
   1  -1  -4  130.70    3.44
   1  -1  -4  130.70    3.38
   1  -1  -4  132.72    3.40
   1  -1  -4  135.59    3.45
  -1   1   4  127.09    3.44
  -1   1   4  131.24    3.38
  -1   1   4  127.12    3.39
  -1   1   4  133.38    3.45
  -1   1   4  134.69    3.35
   0  -1  -4  417.35   10.51
   0  -1  -4  410.59   10.56
   0  -1  -4  407.07   10.52
   0  -1  -4  419.64   10.57
   0   1   4  438.91   10.51
   0   1   4  431.70   10.57
   0   1   4  430.15   10.57
   0   1   4  424.93   10.51
   0   1   4  417.27   10.52
  -1  -1  -4    5.00    0.40
  -1  -1  -4    4.66    0.37
  -1  -1  -4    3.90    0.39
  -1  -1  -4    4.31    0.33
   1   1   4    4.43    0.40
   1   1   4    4.55    0.37
   1   1   4    4.15    0.33
   1   1   4    4.60    0.41
   1   1   4    4.39    0.36
  -2  -1  -4   49.79    1.41
  -2  -1  -4   52.67    1.47
  -2  -1  -4   50.98    1.48
  -2  -1  -4   47.50    1.42
   2   1   4   48.64    1.47
   2   1   4   49.50    1.47
   2   1   4   48.34    1.40
   2   1   4   50.61    1.40
  -3  -1  -4  362.18    9.42
  -3  -1  -4  376.15    9.37
  -3  -1  -4  374.76    9.37
  -3  -1  -4  383.88    9.44
  -3  -1  -4  363.49    9.27
   3   1   4  378.79    9.36
   3   1   4  361.65    9.43
   3   1   4  381.79    9.44
  -4  -1  -4  390.50   10.02
  -4  -1  -4  383.04   10.09
  -4  -1  -4  400.36   10.11
  -4  -1  -4  398.00   10.02
   4   1   4  413.88   10.11
   4   1   4  404.04   10.01
   4   1   4  398.77   10.01
   4   1   4  396.36   10.10
  -5  -1  -4  172.88    4.57
  -5  -1  -4  172.43    4.66
  -5  -1  -4  176.06    4.67
  -5  -1  -4  173.71    4.58
   5   1   4  176.65    4.67
   5   1   4  172.19    4.55
   5   1   4  173.25    4.56
   5   1   4  176.28    4.67
  -6  -1  -4   74.64    2.32
  -6  -1  -4   74.12    2.21
  -6  -1  -4   71.03    2.30
  -6  -1  -4   74.93    2.20
   6   1   4   78.60    2.35
   6   1   4   71.64    2.32
   6   1   4   76.91    2.21
   6   1   4   77.53    2.21
  -7  -1  -4    7.09    0.81
  -7  -1  -4    7.21    0.74
  -7  -1  -4    6.66    0.80
  -7  -1  -4    5.98    0.66
   7   1   4    6.11    0.59
   7   1   4    7.71    0.92
   7   1   4    7.25    0.60
   7   1   4    5.56    0.66
  -8  -1  -4    4.93    0.69
  -8  -1  -4    7.06    0.68
  -8  -1  -4    6.10    0.67
  -8  -1  -4    5.32    0.69
   8   1   4    6.82    0.67
   8   1   4    6.75    0.66
   8   1   4    4.62    0.66
  -9  -1  -4    2.46    0.69
  -9  -1  -4    2.25    0.71
  -9  -1  -4    3.05    0.66
  -9  -1  -4    2.74    0.58
   9   1   4    3.05    0.63
   9   1   4    2.84    0.71
   9   1   4    2.27    0.66
 -10  -1  -4    4.78    0.86
 -10  -1  -4    6.79    0.82
 -10  -1  -4    4.62    0.84
 -10  -1  -4    5.46    0.79
  10   1   4    6.89    1.00
  10   1   4    4.62    0.90
  10   1   4    9.90    1.21
  10   1   4    5.44    0.75
  10  -2  -4   15.85    1.83
  10  -2  -4   21.62    1.89
  10  -2  -4   20.23    1.83
  10  -2  -4   21.14    1.53
 -10   2   4   21.45    1.78
 -10   2   4   19.64    1.52
 -10   2   4   21.92    1.79
 -10   2   4   18.13    1.38
   9  -2  -4    1.86    0.59
   9  -2  -4    1.83    0.66
   9  -2  -4    1.01    0.77
   9  -2  -4    2.02    0.81
  -9   2   4    1.72    0.72
  -9   2   4    1.22    0.80
  -9   2   4    2.53    0.63
  -9   2   4    0.95    0.55
   8  -2  -4    5.98    0.83
   8  -2  -4    3.10    0.70
   8  -2  -4    4.72    0.63
  -8   2   4    4.63    0.74
  -8   2   4    5.08    0.67
  -8   2   4    5.83    0.80
   7  -2  -4    4.20    0.53
   7  -2  -4    4.89    0.71
   7  -2  -4    3.27    0.60
  -7   2   4    3.25    0.63
  -7   2   4    3.24    0.55
  -7   2   4    3.83    0.52
  -7   2   4    3.47    0.62
   6  -2  -4    2.03    0.51
   6  -2  -4    1.88    0.44
   6  -2  -4    1.78    0.51
   6  -2  -4    2.33    0.43
  -6   2   4    2.45    0.43
  -6   2   4    1.68    0.41
  -6   2   4    2.70    0.54
  -6   2   4    2.17    0.52
   5  -2  -4    1.95    0.34
   5  -2  -4    2.58    0.48
   5  -2  -4    2.28    0.44
   5  -2  -4    3.02    0.41
  -5   2   4    2.64    0.45
  -5   2   4    2.32    0.43
  -5   2   4    1.96    0.32
  -5   2   4    2.67    0.40
   4  -2  -4   43.44    1.40
   4  -2  -4   46.08    1.50
   4  -2  -4   43.52    1.47
   4  -2  -4   42.98    1.36
  -4   2   4   45.38    1.48
  -4   2   4   42.36    1.46
  -4   2   4   42.72    1.34
  -4   2   4   42.69    1.38
   3  -2  -4    0.43    0.29
   3  -2  -4    1.01    0.30
   3  -2  -4    0.83    0.14
   3  -2  -4    0.68    0.24
   3  -2  -4    0.63    0.26
  -3   2   4    0.45    0.27
  -3   2   4    0.28    0.22
  -3   2   4    0.73    0.23
   2  -2  -4  216.09    5.55
   2  -2  -4  226.91    5.62
   2  -2  -4  216.27    5.57
   2  -2  -4  218.55    5.62
  -2   2   4  216.44    5.55
  -2   2   4  214.26    5.61
  -2   2   4  212.62    5.53
  -2   2   4  227.33    5.63
   1  -2  -4  272.06    6.85
   1  -2  -4  251.60    6.89
   1  -2  -4  275.44    6.87
   1  -2  -4  291.71    6.93
  -1   2   4  279.41    6.91
  -1   2   4  275.23    6.84
  -1   2   4  245.91    6.85
  -1   2   4  270.96    6.85
  -1   2   4  292.50    6.92
   0  -2  -4  299.66    7.55
   0  -2  -4  314.79    7.61
   0  -2  -4  303.26    7.61
   0  -2  -4  303.40    7.56
   0   2   4  302.80    7.60
   0   2   4  288.59    7.60
   0   2   4  297.81    7.54
   0   2   4  301.34    7.55
   0   2   4  306.80    7.59
  -1  -2  -4   36.49    1.05
  -1  -2  -4   35.08    1.09
  -1  -2  -4   35.01    1.08
  -1  -2  -4   37.63    1.04
   1   2   4   38.10    1.10
   1   2   4   36.86    0.96
   1   2   4   38.80    1.03
   1   2   4   33.98    1.08
   1   2   4   37.81    1.11
   1   2   4   37.81    1.04
  -2  -2  -4  183.84    4.86
  -2  -2  -4  197.88    4.87
  -2  -2  -4  191.13    4.82
  -2  -2  -4  191.91    4.82
   2   2   4  193.22    4.80
   2   2   4  175.89    4.85
   2   2   4  188.32    4.80
   2   2   4  195.96    4.88
   2   2   4  192.75    4.89
  -3  -2  -4   42.02    1.25
  -3  -2  -4   42.34    1.30
  -3  -2  -4   43.75    1.25
  -3  -2  -4   41.83    1.30
   3   2   4   43.40    1.23
   3   2   4   44.12    1.23
   3   2   4   41.82    1.30
   3   2   4   41.70    1.31
  -4  -2  -4   96.84    2.62
  -4  -2  -4   96.86    2.69
  -4  -2  -4   97.19    2.62
  -4  -2  -4   97.37    2.69
   4   2   4  100.05    2.70
   4   2   4   94.97    2.69
   4   2   4  100.87    2.60
  -5  -2  -4  113.06    3.07
  -5  -2  -4  113.37    3.16
  -5  -2  -4  114.31    3.08
  -5  -2  -4  116.92    3.16
   5   2   4  115.72    3.06
   5   2   4  112.03    3.16
   5   2   4  117.47    3.17
   5   2   4  112.92    3.05
  -6  -2  -4   42.98    1.51
  -6  -2  -4   43.83    1.42
  -6  -2  -4   41.27    1.51
  -6  -2  -4   44.36    1.43
   6   2   4   42.78    1.51
   6   2   4   43.08    1.38
   6   2   4   42.38    1.38
   6   2   4   41.93    1.53
  -7  -2  -4    9.57    0.82
  -7  -2  -4   10.76    0.83
  -7  -2  -4    9.29    0.92
  -7  -2  -4    8.57    0.91
   7   2   4    9.62    0.91
   7   2   4   10.68    0.79
   7   2   4   10.72    0.93
   7   2   4   10.16    0.79
  -8  -2  -4   18.98    1.08
  -8  -2  -4   19.69    1.23
  -8  -2  -4   18.07    1.19
  -8  -2  -4   18.76    1.09
   8   2   4   20.22    1.05
   8   2   4   19.59    1.04
   8   2   4   18.32    1.19
  -9  -2  -4    1.08    0.58
  -9  -2  -4    0.33    0.49
  -9  -2  -4    1.39    0.65
  -9  -2  -4    1.67    0.53
   9   2   4    1.75    0.49
   9   2   4    1.27    0.58
   9   2   4    1.94    0.51
 -10  -2  -4   13.27    1.41
 -10  -2  -4   12.94    1.24
 -10  -2  -4   12.04    1.24
 -10  -2  -4   12.04    1.35
  10   2   4   13.32    1.35
  10   2   4   12.40    1.45
  10   2   4   14.54    1.17
   9  -3  -4   14.77    1.49
   9  -3  -4   16.52    1.33
   9  -3  -4   15.62    1.60
   9  -3  -4   16.09    1.59
  -9   3   4   14.82    1.62
  -9   3   4   15.62    1.53
  -9   3   4   16.66    1.32
  -9   3   4   17.46    1.36
   8  -3  -4    5.57    0.82
   8  -3  -4    6.23    0.71
   8  -3  -4    5.21    0.82
  -8   3   4    4.61    0.62
  -8   3   4    6.46    0.84
  -8   3   4    5.96    0.82
   7  -3  -4    9.16    1.11
   7  -3  -4    9.69    1.11
   7  -3  -4   10.47    0.94
  -7   3   4    9.91    1.13
  -7   3   4    9.93    0.90
  -7   3   4    8.98    1.12
  -7   3   4   10.23    0.97
   6  -3  -4    4.28    0.52
   6  -3  -4    4.61    0.56
   6  -3  -4    3.14    0.60
   6  -3  -4    5.48    0.67
  -6   3   4    4.63    0.52
  -6   3   4    4.77    0.60
  -6   3   4    5.31    0.69
  -6   3   4    4.73    0.49
   5  -3  -4    6.75    0.67
   5  -3  -4    7.90    0.80
   5  -3  -4    7.26    0.72
   5  -3  -4    6.89    0.80
  -5   3   4    6.55    0.80
  -5   3   4    6.89    0.61
  -5   3   4    6.87    0.68
  -5   3   4    7.48    0.79
   4  -3  -4  105.55    2.90
   4  -3  -4  108.93    2.98
   4  -3  -4  104.43    2.87
   4  -3  -4  102.91    2.97
  -4   3   4  106.31    2.84
  -4   3   4  105.72    2.87
  -4   3   4  101.85    2.96
  -4   3   4  106.15    2.98
   3  -3  -4   10.89    0.69
   3  -3  -4   11.17    0.61
   3  -3  -4   11.16    0.63
   3  -3  -4   11.33    0.69
  -3   3   4   11.28    0.68
  -3   3   4   10.84    0.59
  -3   3   4   11.18    0.68
  -3   3   4   11.30    0.55
   2  -3  -4   77.40    2.23
   2  -3  -4   80.29    2.18
   2  -3  -4   82.61    2.16
   2  -3  -4   75.84    2.21
  -2   3   4   82.22    2.13
  -2   3   4   77.04    2.14
  -2   3   4   83.14    2.24
   1  -3  -4   93.21    2.55
   1  -3  -4   95.98    2.49
   1  -3  -4   97.18    2.55
   1  -3  -4   96.80    2.51
  -1   3   4   96.04    2.55
  -1   3   4   92.86    2.55
  -1   3   4   94.16    2.58
  -1   3   4   95.48    2.48
  -1   3   4   95.17    2.46
   0  -3  -4  102.70    2.63
   0  -3  -4   98.69    2.66
   0  -3  -4  101.45    2.67
   0  -3  -4  101.44    2.62
   0   3   4  100.40    2.67
   0   3   4  100.50    2.59
   0   3   4  101.99    2.59
   0   3   4  102.38    2.71
   0   3   4  103.81    2.67
   0   3   4  101.68    2.67
  -1  -3  -4   48.03    1.32
  -1  -3  -4   47.59    1.27
  -1  -3  -4   46.47    1.29
  -1  -3  -4   46.75    1.28
  -1  -3  -4   49.56    1.32
   1   3   4   46.18    1.32
   1   3   4   47.61    1.23
   1   3   4   45.11    1.29
   1   3   4   45.42    1.38
   1   3   4   46.79    1.23
   1   3   4   46.34    1.31
  -2  -3  -4    8.78    0.39
  -2  -3  -4    8.99    0.43
  -2  -3  -4    8.29    0.43
  -2  -3  -4    8.34    0.36
  -2  -3  -4    8.46    0.38
   2   3   4    8.67    0.44
   2   3   4    8.46    0.57
   2   3   4    8.25    0.44
   2   3   4    8.38    0.33
   2   3   4    8.39    0.33
  -3  -3  -4   11.44    0.50
  -3  -3  -4   12.09    0.56
  -3  -3  -4   12.08    0.55
  -3  -3  -4   10.83    0.50
   3   3   4   11.92    0.55
   3   3   4   11.56    0.56
   3   3   4   11.73    0.45
   3   3   4   12.30    0.44
   3   3   4   11.05    0.67
  -4  -3  -4   75.18    2.04
  -4  -3  -4   75.23    2.10
  -4  -3  -4   75.16    2.04
  -4  -3  -4   74.98    2.09
   4   3   4   77.32    1.99
   4   3   4   76.01    1.99
   4   3   4   71.84    2.09
   4   3   4   72.71    2.09
   4   3   4   75.07    2.18
  -5  -3  -4    6.59    0.57
  -5  -3  -4    7.84    0.59
  -5  -3  -4    7.35    0.54
  -5  -3  -4    7.07    0.53
   5   3   4    7.36    0.47
   5   3   4    7.70    0.60
   5   3   4    6.51    0.58
   5   3   4    7.35    0.49
  -6  -3  -4   54.01    1.66
  -6  -3  -4   49.83    1.64
  -6  -3  -4   49.09    1.56
  -6  -3  -4   50.23    1.56
   6   3   4   50.07    1.65
   6   3   4   50.11    1.50
   6   3   4   50.52    1.64
  -7  -3  -4    8.36    0.84
  -7  -3  -4    8.25    0.74
  -7  -3  -4    8.10    0.72
  -7  -3  -4    9.15    0.84
   7   3   4    8.12    0.82
   7   3   4    8.57    0.68
   7   3   4    8.02    0.67
   7   3   4    9.13    0.83
  -8  -3  -4    0.47    0.45
  -8  -3  -4    0.77    0.49
  -8  -3  -4    0.13    0.37
  -8  -3  -4    0.09    0.39
   8   3   4    0.50    0.37
   8   3   4   -0.17    0.42
   8   3   4    0.17    0.38
   8   3   4    0.25    0.45
  -9  -3  -4    1.80    0.47
  -9  -3  -4    1.97    0.58
  -9  -3  -4    3.31    0.61
  -9  -3  -4    2.26    0.54
   9   3   4    1.92    0.46
   9   3   4    1.86    0.54
   9   3   4    2.84    0.49
 -10  -3  -4   23.05    1.51
 -10  -3  -4   23.18    1.35
 -10  -3  -4   25.14    1.49
 -10  -3  -4   24.29    1.37
  10   3   4   26.40    1.28
  10   3   4   22.85    1.28
  10   3   4   24.79    1.50
  10   3   4   26.30    1.62
 -11  -3  -4    3.84    0.73
 -11  -3  -4    6.10    0.97
 -11  -3  -4    4.91    0.82
 -11  -3  -4    4.32    0.87
  11   3   4    6.27    0.82
  11   3   4    4.60    0.82
  11   3   4    6.36    0.74
   9  -4  -4    3.60    0.92
   9  -4  -4    4.95    0.75
   9  -4  -4    3.99    0.95
  -9   4   4    4.40    1.02
  -9   4   4    2.43    0.88
  -9   4   4    4.94    0.78
  -9   4   4    1.96    0.85
  -9   4   4    4.47    0.79
   8  -4  -4   21.78    1.50
   8  -4  -4   21.32    1.35
   8  -4  -4   22.97    1.56
   8  -4  -4   23.52    1.59
  -8   4   4   22.98    1.28
  -8   4   4   24.68    1.63
  -8   4   4   20.65    1.60
  -8   4   4   24.79    1.37
  -8   4   4   22.77    1.65
   7  -4  -4   23.70    1.38
   7  -4  -4   24.76    1.48
   7  -4  -4   27.40    1.49
   7  -4  -4   25.91    1.27
  -7   4   4   23.84    1.17
  -7   4   4   26.03    1.28
  -7   4   4   26.35    1.48
   6  -4  -4    2.26    0.55
   6  -4  -4    2.16    0.50
   6  -4  -4    1.64    0.53
   6  -4  -4    2.11    0.57
  -6   4   4    2.00    0.42
  -6   4   4    0.74    0.53
  -6   4   4    2.12    0.46
   5  -4  -4   -0.10    0.42
   5  -4  -4    0.32    0.35
   5  -4  -4   -0.07    0.42
   5  -4  -4    0.36    0.36
  -5   4   4    0.22    0.44
  -5   4   4    0.14    0.34
  -5   4   4    0.10    0.41
  -5   4   4    0.29    0.30
   4  -4  -4   -0.08    0.29
   4  -4  -4    0.17    0.36
   4  -4  -4   -0.54    0.28
   4  -4  -4   -0.20    0.34
  -4   4   4   -0.24    0.28
  -4   4   4   -0.37    0.35
  -4   4   4    0.01    0.25
  -4   4   4    0.28    0.35
  -4   4   4   -0.02    0.40
   3  -4  -4    3.07    0.40
   3  -4  -4    3.17    0.41
   3  -4  -4    3.38    0.35
   3  -4  -4    3.10    0.37
  -3   4   4    2.93    0.41
  -3   4   4    2.88    0.45
  -3   4   4    2.47    0.38
  -3   4   4    2.75    0.32
  -3   4   4    2.93    0.28
   2  -4  -4   58.35    1.72
   2  -4  -4   57.61    1.67
   2  -4  -4   58.07    1.64
   2  -4  -4   58.88    1.73
  -2   4   4   56.20    1.71
  -2   4   4   60.32    1.73
  -2   4   4   59.02    1.62
  -2   4   4   59.57    1.60
  -2   4   4   57.68    1.81
   1  -4  -4   17.56    0.62
   1  -4  -4   17.89    0.65
   1  -4  -4   16.82    0.68
   1  -4  -4   17.01    0.69
  -1   4   4   17.37    0.69
  -1   4   4   17.51    0.55
  -1   4   4   17.37    0.77
  -1   4   4   17.50    0.58
   0  -4  -4    0.34    0.17
   0  -4  -4    0.12    0.14
   0  -4  -4    0.09    0.16
   0   4   4    0.27    0.18
   0   4   4    0.27    0.18
   0   4   4    0.07    0.25
   0   4   4    0.08    0.08
   0   4   4    0.18    0.08
   0   4   4    0.00    0.23
  -1  -4  -4   53.02    1.41
  -1  -4  -4   53.49    1.38
  -1  -4  -4   52.07    1.49
  -1  -4  -4   51.84    1.41
  -1  -4  -4   52.50    1.37
   1   4   4   48.17    1.40
   1   4   4   50.25    1.53
   1   4   4   50.29    1.41
   1   4   4   51.98    1.49
  -2  -4  -4   53.34    1.45
  -2  -4  -4   52.82    1.41
  -2  -4  -4   52.72    1.51
  -2  -4  -4   53.15    1.45
  -2  -4  -4   53.97    1.42
   2   4   4   52.56    1.60
   2   4   4   52.94    1.45
   2   4   4   56.93    1.61
  -3  -4  -4   26.63    0.82
  -3  -4  -4   26.46    0.78
  -3  -4  -4   24.86    0.84
  -3  -4  -4   25.07    0.81
  -3  -4  -4   25.83    0.78
   3   4   4   27.61    0.83
   3   4   4   25.50    1.01
   3   4   4   25.78    0.83
  -4  -4  -4    7.48    0.47
  -4  -4  -4    7.72    0.44
  -4  -4  -4    7.86    0.48
  -4  -4  -4    8.18    0.43
   4   4   4    8.56    0.50
   4   4   4    7.24    0.68
   4   4   4    8.41    0.51
  -5  -4  -4   37.95    1.17
  -5  -4  -4   36.25    1.21
  -5  -4  -4   38.47    1.17
  -5  -4  -4   39.68    1.23
   5   4   4   38.16    1.06
   5   4   4   36.92    1.23
   5   4   4   38.86    1.24
   5   4   4   37.13    1.37
   5   4   4   38.39    1.07
  -6  -4  -4   39.79    1.31
  -6  -4  -4   42.79    1.39
  -6  -4  -4   42.63    1.33
  -6  -4  -4   42.14    1.38
   6   4   4   40.73    1.21
   6   4   4   41.86    1.23
   6   4   4   41.32    1.40
   6   4   4   43.20    1.40
  -7  -4  -4   10.85    0.72
  -7  -4  -4    9.96    0.78
  -7  -4  -4    9.38    0.70
  -7  -4  -4    9.53    0.79
   7   4   4   10.48    0.80
   7   4   4    9.89    0.59
   7   4   4   10.80    0.79
  -8  -4  -4    0.37    0.35
  -8  -4  -4    1.38    0.41
  -8  -4  -4    1.00    0.44
  -8  -4  -4    0.79    0.45
   8   4   4    1.08    0.33
   8   4   4    0.58    0.42
   8   4   4    1.35    0.47
  -9  -4  -4    0.26    0.49
  -9  -4  -4   -0.40    0.40
  -9  -4  -4    0.08    0.40
  -9  -4  -4    0.29    0.48
   9   4   4   -0.45    0.37
   9   4   4   -0.78    0.46
   9   4   4    0.03    0.35
 -10  -4  -4    3.06    0.56
 -10  -4  -4    4.52    0.70
 -10  -4  -4    2.95    0.55
 -10  -4  -4    4.04    0.69
  10   4   4    3.63    0.52
  10   4   4    3.43    0.65
  10   4   4    2.81    0.69
  10   4   4    3.14    0.51
 -11  -4  -4    2.43    0.71
 -11  -4  -4    1.84    0.74
 -11  -4  -4    1.44    0.61
 -11  -4  -4    1.82    0.75
  11   4   4    2.54    0.57
  11   4   4    2.53    0.75
  11   4   4    1.34    0.79
  11   4   4    1.20    0.55
   8  -5  -4    6.72    0.97
   8  -5  -4    5.05    0.88
   8  -5  -4    8.69    0.87
   8  -5  -4    5.40    0.86
  -8   5   4    7.28    0.74
  -8   5   4    5.01    0.84
  -8   5   4    6.18    1.07
  -8   5   4    6.49    0.74
  -8   5   4    6.97    0.98
   7  -5  -4   58.58    2.24
   7  -5  -4   60.21    2.04
   7  -5  -4   57.34    2.16
   7  -5  -4   58.33    2.21
  -7   5   4   57.58    1.98
  -7   5   4   51.15    2.22
  -7   5   4   54.98    2.72
  -7   5   4   58.92    2.33
   6  -5  -4    1.94    0.63
   6  -5  -4    1.85    0.58
   6  -5  -4    1.75    0.47
   6  -5  -4    3.07    0.65
  -6   5   4    2.32    0.70
  -6   5   4    3.01    0.64
  -6   5   4    2.83    0.51
  -6   5   4    2.21    0.43
   5  -5  -4   42.86    1.57
   5  -5  -4   41.63    1.51
   5  -5  -4   45.06    1.67
   5  -5  -4   41.98    1.64
  -5   5   4   41.47    1.65
  -5   5   4   41.81    1.76
  -5   5   4   42.19    1.39
  -5   5   4   41.82    1.90
  -5   5   4   41.86    1.45
   4  -5  -4    1.03    0.37
   4  -5  -4    0.23    0.32
   4  -5  -4    0.57    0.38
   4  -5  -4    0.25    0.40
  -4   5   4    0.79    0.32
  -4   5   4    0.64    0.28
  -4   5   4   -0.15    0.52
  -4   5   4    0.49    0.38
  -4   5   4    0.53    0.38
   3  -5  -4    5.10    0.63
   3  -5  -4    4.03    0.44
   3  -5  -4    4.36    0.54
   3  -5  -4    4.84    0.59
  -3   5   4    4.65    0.47
  -3   5   4    5.51    0.75
  -3   5   4    4.55    0.44
  -3   5   4    4.73    0.49
  -3   5   4    4.05    0.46
   2  -5  -4   -0.02    0.25
   2  -5  -4    0.42    0.23
   2  -5  -4   -0.25    0.25
   2  -5  -4   -0.35    0.25
  -2   5   4   -0.11    0.36
  -2   5   4   -0.09    0.19
  -2   5   4   -0.02    0.26
  -2   5   4   -0.19    0.26
  -2   5   4   -0.10    0.15
   1  -5  -4   19.67    0.70
   1  -5  -4   18.29    0.72
   1  -5  -4   19.34    0.68
   1  -5  -4   17.66    0.61
   1  -5  -4   17.53    0.73
  -1   5   4   19.26    0.75
  -1   5   4   18.57    0.74
  -1   5   4   18.31    0.53
  -1   5   4   18.27    0.55
  -1   5   4   19.69    0.90
   0  -5  -4   49.05    1.43
   0  -5  -4   51.26    1.39
   0  -5  -4   49.77    1.58
   0  -5  -4   51.16    1.37
   0  -5  -4   52.18    1.43
   0  -5  -4   51.39    1.42
   0   5   4   49.47    1.42
   0   5   4   50.14    1.58
   0   5   4   52.30    1.43
   0   5   4   50.42    1.58
  -1  -5  -4    1.94    0.26
  -1  -5  -4    1.67    0.30
  -1  -5  -4    1.90    0.19
  -1  -5  -4    2.29    0.22
  -1  -5  -4    1.87    0.23
   1   5   4    2.15    0.37
   1   5   4    2.30    0.33
   1   5   4    2.55    0.27
  -2  -5  -4   27.28    0.75
  -2  -5  -4   27.49    0.97
  -2  -5  -4   27.27    0.77
  -2  -5  -4   28.05    0.77
  -2  -5  -4   27.89    0.76
   2   5   4   27.57    0.78
   2   5   4   27.36    0.78
   2   5   4   25.93    1.03
  -3  -5  -4  234.96    5.98
  -3  -5  -4  234.83    5.84
  -3  -5  -4  230.84    5.83
  -3  -5  -4  233.73    5.82
  -3  -5  -4  236.28    5.82
   3   5   4  232.23    5.85
   3   5   4  233.08    6.05
   3   5   4  231.29    5.85
  -4  -5  -4   20.57    0.67
  -4  -5  -4   20.21    0.70
  -4  -5  -4   20.55    0.67
  -4  -5  -4   20.28    0.70
  -4  -5  -4   20.35    0.83
   4   5   4   21.35    0.71
   4   5   4   21.54    0.97
  -5  -5  -4  163.64    4.24
  -5  -5  -4  162.02    4.20
  -5  -5  -4  164.93    4.21
  -5  -5  -4  166.18    4.25
   5   5   4  170.80    4.26
   5   5   4  161.10    4.24
   5   5   4  159.10    4.42
  -6  -5  -4    6.42    0.57
  -6  -5  -4    6.14    0.57
  -6  -5  -4    6.40    0.53
  -6  -5  -4    6.24    0.54
   6   5   4    6.21    0.58
   6   5   4    5.91    0.60
   6   5   4    5.97    0.80
  -7  -5  -4    0.55    0.34
  -7  -5  -4    0.52    0.32
  -7  -5  -4    0.77    0.30
  -7  -5  -4    0.34    0.33
   7   5   4    0.11    0.50
   7   5   4    0.67    0.20
   7   5   4    0.22    0.34
   7   5   4    0.16    0.18
   7   5   4    0.48    0.35
  -8  -5  -4    3.13    0.43
  -8  -5  -4    4.47    0.48
  -8  -5  -4    4.25    0.53
  -8  -5  -4    3.09    0.48
   8   5   4    4.61    0.74
   8   5   4    2.86    0.49
   8   5   4    3.75    0.49
   8   5   4    3.89    0.47
   8   5   4    3.89    0.49
  -9  -5  -4    0.11    0.39
  -9  -5  -4    0.52    0.41
  -9  -5  -4    1.29    0.48
  -9  -5  -4    0.28    0.44
   9   5   4    0.86    0.33
   9   5   4    0.00    0.41
 -10  -5  -4    0.25    0.54
 -10  -5  -4    0.92    0.49
 -10  -5  -4    0.06    0.50
 -10  -5  -4    0.79    0.54
 -10  -5  -4    0.59    0.80
  10   5   4    0.37    0.31
  10   5   4    0.33    0.65
  10   5   4   -0.72    0.49
 -11  -5  -4    0.26    0.56
 -11  -5  -4    0.07    0.63
 -11  -5  -4    0.02    0.84
 -11  -5  -4    0.47    0.60
 -11  -5  -4    0.82    0.65
  11   5   4    1.85    0.76
  11   5   4    0.06    0.38
  11   5   4    2.05    0.69
   7  -6  -4    0.32    0.71
   7  -6  -4    1.84    0.69
   7  -6  -4    0.16    0.55
   7  -6  -4    1.07    0.73
  -7   6   4    0.91    0.73
  -7   6   4    0.50    0.78
  -7   6   4    1.67    0.53
  -7   6   4    0.75    0.69
  -7   6   4    0.00    0.44
   6  -6  -4   17.81    1.28
   6  -6  -4   16.77    1.27
   6  -6  -4   18.09    1.11
   6  -6  -4   19.36    1.30
  -6   6   4   16.10    1.31
  -6   6   4   17.70    1.46
  -6   6   4   17.58    0.96
  -6   6   4   18.63    1.04
  -6   6   4   17.07    1.32
   5  -6  -4    1.28    0.51
   5  -6  -4    0.51    0.42
   5  -6  -4    1.00    0.45
   5  -6  -4    1.28    0.55
  -5   6   4    1.18    0.66
  -5   6   4    1.60    0.36
  -5   6   4    0.91    0.55
  -5   6   4    0.75    0.38
   4  -6  -4    0.30    0.43
   4  -6  -4   -0.53    0.37
   4  -6  -4   -0.13    0.41
   4  -6  -4   -0.63    0.34
  -4   6   4   -0.17    0.30
  -4   6   4   -0.39    0.53
  -4   6   4   -0.22    0.42
  -4   6   4   -0.37    0.39
  -4   6   4    0.02    0.25
   3  -6  -4   39.51    1.41
   3  -6  -4   36.54    1.32
   3  -6  -4   38.52    1.30
   3  -6  -4   36.88    1.37
  -3   6   4   39.05    1.15
  -3   6   4   37.72    1.17
  -3   6   4   38.12    1.40
  -3   6   4   38.27    1.57
  -3   6   4   39.19    1.40
   2  -6  -4    5.84    0.57
   2  -6  -4    6.69    0.63
   2  -6  -4    5.67    0.54
   2  -6  -4    7.00    0.60
  -2   6   4    5.60    0.62
  -2   6   4    6.02    0.33
  -2   6   4    6.86    0.78
  -2   6   4    5.93    0.37
  -2   6   4    6.12    0.63
   1  -6  -4   97.79    2.65
   1  -6  -4   97.38    2.55
   1  -6  -4   98.09    2.60
   1  -6  -4   95.31    2.64
   1  -6  -4   99.25    2.62
  -1   6   4   94.35    2.65
  -1   6   4  102.19    2.66
  -1   6   4   98.91    2.86
   0  -6  -4   82.31    2.25
   0  -6  -4   83.35    2.21
   0  -6  -4   83.01    2.45
   0  -6  -4   81.83    2.18
   0  -6  -4   80.97    2.19
   0  -6  -4   81.23    2.21
   0   6   4   79.71    2.44
   0   6   4   91.90    2.42
   0   6   4   84.09    2.23
  -1  -6  -4    6.18    0.30
  -1  -6  -4    5.95    0.31
  -1  -6  -4    5.87    0.31
  -1  -6  -4    6.11    0.60
  -1  -6  -4    5.86    0.51
  -1  -6  -4    5.93    0.30
   1   6   4    6.17    0.33
   1   6   4    4.89    0.61
   1   6   4    6.20    0.32
   1   6   4    6.03    0.64
  -2  -6  -4    1.04    0.32
  -2  -6  -4    0.47    0.31
  -2  -6  -4    0.52    0.10
  -2  -6  -4    0.62    0.10
   2   6   4    0.31    0.34
  -3  -6  -4   26.86    1.10
  -3  -6  -4   28.37    1.08
  -3  -6  -4   28.71    0.76
  -3  -6  -4   29.09    0.76
   3   6   4   28.08    1.14
  -4  -6  -4   55.75    1.46
  -4  -6  -4   54.60    1.78
  -4  -6  -4   54.19    1.43
  -4  -6  -4   55.15    1.43
  -4  -6  -4   54.86    1.71
   4   6   4   56.27    1.46
   4   6   4   54.87    1.46
   4   6   4   55.05    1.79
  -5  -6  -4   78.88    2.12
  -5  -6  -4   78.57    2.12
  -5  -6  -4   77.73    2.11
  -5  -6  -4   80.72    2.12
  -5  -6  -4   78.34    2.41
   5   6   4   80.71    2.43
   5   6   4   82.41    2.14
  -6  -6  -4   91.68    2.46
  -6  -6  -4   88.59    2.44
  -6  -6  -4   90.83    2.44
  -6  -6  -4   91.29    2.43
   6   6   4   89.92    2.71
   6   6   4   87.18    2.46
   6   6   4   89.84    2.46
  -7  -6  -4    0.40    0.30
  -7  -6  -4    0.56    0.30
  -7  -6  -4    0.47    0.29
  -7  -6  -4    0.62    0.29
   7   6   4    0.14    0.32
   7   6   4    0.44    0.52
   7   6   4    0.25    0.32
  -8  -6  -4    0.17    0.37
  -8  -6  -4    1.58    0.36
  -8  -6  -4    1.59    0.38
  -8  -6  -4    1.24    0.37
   8   6   4    1.11    0.42
   8   6   4    1.66    0.64
   8   6   4    1.39    0.40
  -9  -6  -4   14.75    0.97
  -9  -6  -4   12.61    0.91
  -9  -6  -4   14.46    0.93
  -9  -6  -4   13.81    0.98
  -9  -6  -4   15.29    1.37
   9   6   4   13.49    1.24
   9   6   4   12.52    0.96
 -10  -6  -4    1.56    0.55
 -10  -6  -4    0.21    0.50
 -10  -6  -4    0.26    0.46
 -10  -6  -4    0.49    0.50
 -10  -6  -4    2.36    0.90
  10   6   4    0.72    0.74
  10   6   4   -0.07    0.18
  10   6   4    0.94    0.53
  10   6   4    0.42    0.23
 -11  -6  -4    4.77    0.69
 -11  -6  -4    6.73    1.08
 -11  -6  -4    5.96    0.78
 -11  -6  -4    5.16    0.74
 -11  -6  -4    5.68    0.69
  11   6   4    4.92    0.96
  11   6   4    5.14    0.75
   6  -7  -4    2.79    0.69
   6  -7  -4    3.24    0.64
   6  -7  -4    3.10    0.69
   6  -7  -4    1.12    0.63
  -6   7   4    1.71    0.46
  -6   7   4    1.34    0.71
  -6   7   4    2.29    0.71
  -6   7   4    2.16    0.83
  -6   7   4    2.59    0.45
   5  -7  -4    7.35    0.99
   5  -7  -4    6.39    0.68
   5  -7  -4    7.45    0.87
   5  -7  -4    7.98    1.02
  -5   7   4    7.77    1.08
  -5   7   4    7.03    0.76
  -5   7   4    7.39    0.65
  -5   7   4    6.66    0.90
  -5   7   4    7.39    0.69
   4  -7  -4   -0.25    0.45
   4  -7  -4   -0.07    0.39
   4  -7  -4    0.22    0.44
   4  -7  -4   -0.98    0.37
  -4   7   4   -0.19    0.24
  -4   7   4   -0.06    0.43
  -4   7   4    0.19    0.27
  -4   7   4   -0.09    0.56
   3  -7  -4   41.06    1.39
   3  -7  -4   38.98    1.47
   3  -7  -4   34.96    1.46
   3  -7  -4   41.41    1.44
  -3   7   4   40.75    1.17
  -3   7   4   41.85    1.74
  -3   7   4   39.58    1.15
  -3   7   4   41.84    1.49
  -3   7   4   41.57    1.51
   2  -7  -4    1.17    0.36
   2  -7  -4    0.50    0.37
   2  -7  -4    0.84    0.35
   2  -7  -4    1.19    0.34
  -2   7   4    0.30    0.35
  -2   7   4    2.54    0.64
  -2   7   4    1.04    0.39
   1  -7  -4   -0.66    0.27
   1  -7  -4   -0.36    0.27
   1  -7  -4   -0.37    0.27
   1  -7  -4   -0.01    0.22
   1  -7  -4   -0.64    0.25
  -1   7   4    1.04    0.51
  -1   7   4   -0.34    0.30
  -1   7   4   -0.34    0.27
   0  -7  -4  132.96    3.74
   0  -7  -4  134.50    3.40
   0  -7  -4  134.05    3.42
   0  -7  -4  130.48    3.41
   0  -7  -4  130.58    3.48
   0   7   4  134.06    3.43
   0   7   4  127.17    3.72
  -1  -7  -4   10.72    0.38
  -1  -7  -4   11.27    0.85
  -1  -7  -4   10.74    0.67
  -1  -7  -4   11.60    0.39
  -1  -7  -4   11.27    0.46
  -1  -7  -4   10.83    0.44
   1   7   4   11.27    0.85
   1   7   4   11.50    0.44
   1   7   4   12.42    0.89
   1   7   4   11.13    0.43
  -2  -7  -4  111.36    3.08
  -2  -7  -4  112.33    3.17
  -2  -7  -4  110.24    2.79
   2   7   4  112.62    3.16
  -3  -7  -4    2.56    0.45
  -3  -7  -4    3.72    0.47
   3   7   4    4.00    0.54
  -4  -7  -4    9.17    0.32
  -4  -7  -4    8.28    0.79
  -4  -7  -4    7.55    0.75
  -4  -7  -4    8.77    0.33
   4   7   4    7.76    0.81
  -5  -7  -4   53.76    1.81
  -5  -7  -4   54.36    1.47
  -5  -7  -4   53.80    1.47
  -5  -7  -4   54.36    1.88
   5   7   4   55.59    1.44
   5   7   4   53.97    1.85
   5   7   4   54.32    1.43
  -6  -7  -4   11.43    0.58
  -6  -7  -4   12.34    0.54
  -6  -7  -4   11.24    0.53
  -6  -7  -4   12.18    0.57
  -6  -7  -4   10.76    1.01
   6   7   4   11.73    0.57
   6   7   4   11.99    1.00
  -7  -7  -4   12.33    0.68
  -7  -7  -4   11.81    0.64
  -7  -7  -4   12.63    0.67
  -7  -7  -4   11.17    0.65
   7   7   4   11.66    1.03
   7   7   4   12.46    0.74
  -8  -7  -4   12.02    0.76
  -8  -7  -4   12.50    0.77
  -8  -7  -4   12.89    0.79
  -8  -7  -4   11.16    0.72
   8   7   4   11.04    1.08
   8   7   4   13.20    0.83
  -9  -7  -4    4.20    0.51
  -9  -7  -4    3.98    0.86
  -9  -7  -4    3.73    0.48
  -9  -7  -4    4.26    0.51
  -9  -7  -4    3.53    0.47
   9   7   4    3.91    0.75
   9   7   4    3.96    0.53
 -10  -7  -4   18.39    1.13
 -10  -7  -4   19.78    1.14
 -10  -7  -4   15.80    1.11
 -10  -7  -4   16.98    1.10
 -10  -7  -4   19.39    1.68
  10   7   4   17.76    1.25
  10   7   4   19.15    1.52
   5  -8  -4    3.63    0.66
   5  -8  -4    4.91    0.63
   5  -8  -4    5.25    0.71
   5  -8  -4    6.31    0.74
  -5   8   4    4.88    0.73
  -5   8   4    5.02    1.03
  -5   8   4    4.51    0.45
  -5   8   4    4.04    0.68
   4  -8  -4   12.97    1.08
   4  -8  -4   15.10    0.99
   4  -8  -4   14.17    1.07
   4  -8  -4   15.79    1.09
  -4   8   4   15.73    1.12
  -4   8   4   15.58    1.47
  -4   8   4   14.78    1.14
  -4   8   4   14.76    0.65
   3  -8  -4   24.91    1.15
   3  -8  -4   23.59    1.09
   3  -8  -4   25.26    1.19
   3  -8  -4   24.75    1.16
  -3   8   4   24.78    1.18
  -3   8   4   24.09    1.53
   2  -8  -4   50.95    1.68
   2  -8  -4   51.43    1.67
   2  -8  -4   52.59    1.71
   2  -8  -4   52.42    1.63
  -2   8   4   52.59    2.06
  -2   8   4   55.29    1.73
  -2   8   4   51.97    1.70
   1  -8  -4    4.14    0.38
   1  -8  -4    4.49    0.43
   1  -8  -4    4.19    0.40
   1  -8  -4    4.50    0.52
  -1   8   4    3.35    0.66
  -1   8   4    3.80    0.41
  -1   8   4    4.31    0.41
   0  -8  -4   56.24    1.99
   0  -8  -4   55.15    1.53
   0  -8  -4   54.03    1.54
   0  -8  -4   55.59    1.57
   0  -8  -4   55.38    1.64
   0  -8  -4   54.71    1.54
   0   8   4   55.93    1.57
   0   8   4   56.48    1.99
   0   8   4   46.91    1.55
  -1  -8  -4    6.23    0.90
  -1  -8  -4    6.81    0.40
  -1  -8  -4    5.70    0.62
  -1  -8  -4    7.28    0.42
   1   8   4    6.46    0.91
   1   8   4    6.85    0.35
   1   8   4    6.84    0.34
  -2  -8  -4   66.26    2.05
  -2  -8  -4   67.10    1.73
  -2  -8  -4   67.27    1.73
  -2  -8  -4   68.11    2.21
   2   8   4   67.84    2.16
  -3  -8  -4    0.19    0.46
  -3  -8  -4    0.04    0.40
   3   8   4   -0.31    0.44
  -4  -8  -4   19.83    1.11
  -4  -8  -4   17.36    1.06
   4   8   4   19.09    1.08
  -5  -8  -4    8.02    0.90
  -5  -8  -4    6.39    0.34
  -5  -8  -4    5.99    0.70
  -5  -8  -4    6.02    0.35
   5   8   4    7.15    0.89
  -6  -8  -4   23.43    0.80
  -6  -8  -4   24.74    1.26
  -6  -8  -4   24.29    0.82
  -6  -8  -4   24.90    1.35
   6   8   4   25.39    1.27
  -7  -8  -4    0.25    0.64
  -7  -8  -4    0.04    0.21
  -7  -8  -4    0.02    0.51
  -7  -8  -4    0.16    0.18
  -7  -8  -4    0.07    0.26
  -7  -8  -4    0.11    0.24
   7   8   4    0.03    0.22
   7   8   4    0.23    0.24
   7   8   4   -0.38    0.52
  -8  -8  -4   11.45    0.70
  -8  -8  -4   12.19    0.75
  -8  -8  -4   12.22    0.74
  -8  -8  -4   12.74    0.70
   8   8   4   12.27    1.21
   8   8   4   11.90    0.75
  -9  -8  -4    1.47    0.41
  -9  -8  -4    0.81    0.80
  -9  -8  -4    1.10    0.43
  -9  -8  -4    0.74    0.34
  -9  -8  -4    1.49    0.40
   9   8   4    0.08    0.30
   9   8   4    0.79    0.68
   9   8   4    0.77    0.40
 -10  -8  -4   11.43    1.49
 -10  -8  -4   10.27    0.97
 -10  -8  -4    9.24    0.84
 -10  -8  -4    9.08    0.97
 -10  -8  -4    8.32    0.89
  10   8   4    7.65    1.06
  10   8   4    8.43    1.04
   4  -9  -4    0.39    0.54
   4  -9  -4    0.24    0.56
   4  -9  -4   -0.12    0.54
   4  -9  -4   -0.55    0.53
  -4   9   4    0.76    0.84
  -4   9   4    0.77    0.58
  -4   9   4    0.10    0.57
   3  -9  -4   41.55    1.59
   3  -9  -4   41.22    1.55
   3  -9  -4   41.93    1.60
   3  -9  -4   41.36    1.54
  -3   9   4   40.11    1.61
  -3   9   4   43.80    2.04
  -3   9   4   39.43    1.59
   2  -9  -4   19.53    0.98
   2  -9  -4   19.04    1.04
   2  -9  -4   20.88    1.01
   2  -9  -4   19.68    0.96
  -2   9   4   22.20    1.07
  -2   9   4   18.37    1.04
  -2   9   4   22.44    1.49
   1  -9  -4    8.12    0.64
   1  -9  -4    9.28    0.69
   1  -9  -4    9.64    0.73
   1  -9  -4    9.42    0.69
  -1   9   4    9.18    1.22
  -1   9   4    7.55    0.73
  -1   9   4    8.34    0.70
   0  -9  -4   13.90    0.70
   0  -9  -4   12.87    0.59
   0  -9  -4   12.99    1.22
   0  -9  -4   13.41    0.66
   0  -9  -4   12.94    0.77
   0  -9  -4   12.60    0.57
   0   9   4   13.35    1.20
   0   9   4   12.41    0.63
   0   9   4   13.00    0.64
  -1  -9  -4    9.25    0.52
  -1  -9  -4    9.99    1.08
  -1  -9  -4    8.49    0.49
  -1  -9  -4    9.24    0.75
   1   9   4    9.94    1.09
  -2  -9  -4   15.08    0.91
  -2  -9  -4   14.62    0.53
  -2  -9  -4   14.25    0.51
  -2  -9  -4   14.78    1.15
  -3  -9  -4    0.04    0.42
  -3  -9  -4    0.77    0.55
   3   9   4   -0.15    0.46
  -4  -9  -4   46.94    1.73
  -4  -9  -4   45.62    1.80
   4   9   4   45.20    1.72
  -5  -9  -4    0.07    0.52
  -5  -9  -4    1.12    0.53
   5   9   4    1.20    0.54
  -6  -9  -4   -0.34    0.55
  -6  -9  -4   -0.09    0.54
  -6  -9  -4   -0.08    0.18
  -6  -9  -4    0.03    0.20
   6   9   4   -0.82    0.52
  -7  -9  -4    1.51    0.63
  -7  -9  -4    0.76    0.65
  -7  -9  -4    1.38    0.28
  -7  -9  -4    1.55    0.27
   7   9   4    0.44    0.59
  -8  -9  -4    8.21    0.90
  -8  -9  -4    7.69    0.63
  -8  -9  -4    7.26    0.95
  -8  -9  -4    7.47    0.66
   8   9   4    7.60    0.56
   8   9   4    5.98    0.81
  -9  -9  -4    3.41    0.90
  -9  -9  -4    3.00    0.35
  -9  -9  -4    3.16    0.37
  -9  -9  -4    3.28    0.47
  -9  -9  -4    3.21    0.46
   9   9   4    2.89    0.82
   9   9   4    4.01    0.46
   3 -10  -4    3.55    0.54
   3 -10  -4    3.21    0.63
   3 -10  -4    3.66    0.59
   3 -10  -4    3.95    0.59
  -3  10   4    3.64    0.93
  -3  10   4    2.96    0.66
   2 -10  -4    7.31    0.91
   2 -10  -4    7.66    0.87
   2 -10  -4    5.91    0.73
   2 -10  -4    5.81    0.78
  -2  10   4    5.53    0.69
  -2  10   4    5.34    0.97
   1 -10  -4   -0.01    0.38
   1 -10  -4    0.47    0.34
   1 -10  -4    1.05    0.38
   1 -10  -4    0.61    0.33
  -1  10   4   -0.49    0.76
  -1  10   4   -0.20    0.36
   0 -10  -4   22.25    0.73
   0 -10  -4   23.15    0.90
   0 -10  -4   22.77    0.94
   0 -10  -4   22.12    0.75
   0 -10  -4   19.67    1.52
   0  10   4   22.80    1.59
   0  10   4   18.08    0.81
  -1 -10  -4    0.86    0.64
  -1 -10  -4    0.15    0.27
  -1 -10  -4   -0.10    0.41
  -1 -10  -4    0.21    0.23
  -2 -10  -4    0.62    0.21
  -2 -10  -4    0.80    0.66
  -2 -10  -4    0.96    0.21
  -2 -10  -4    0.18    0.45
  -3 -10  -4    5.74    0.85
  -3 -10  -4    6.27    0.88
  -4 -10  -4    1.03    0.65
  -4 -10  -4    0.19    0.56
   4  10   4    1.58    0.60
  -5 -10  -4   -0.21    0.56
  -5 -10  -4   -0.90    0.61
   5  10   4   -0.52    0.54
  -6 -10  -4    3.37    0.75
  -6 -10  -4    3.12    0.32
  -6 -10  -4    2.77    0.76
  -6 -10  -4    3.16    0.35
   6  10   4    2.88    0.65
  -7 -10  -4    1.77    0.27
  -7 -10  -4    1.96    0.29
  -7 -10  -4    1.39    0.76
  -7 -10  -4    0.58    0.72
   7  10   4    2.17    0.68
  -8 -10  -4   -0.18    0.71
  -8 -10  -4    0.58    0.80
  -8 -10  -4    0.11    0.31
  -8 -10  -4    0.56    0.32
   8  10   4    0.39    0.70
   1 -11  -4   11.63    0.93
   1 -11  -4   12.09    0.76
   1 -11  -4   12.49    0.76
   1 -11  -4   14.39    1.04
  -1  11   4   11.17    1.64
   0 -11  -4    4.52    0.48
   0 -11  -4    5.66    0.54
   0 -11  -4    6.28    1.04
   0  11   4    6.92    1.02
  -1 -11  -4    9.37    0.65
  -1 -11  -4    9.22    1.12
  -1 -11  -4   10.85    0.72
  -2 -11  -4    1.32    0.56
  -2 -11  -4    2.05    0.86
  -2 -11  -4    1.70    0.30
  -2 -11  -4    1.50    0.27
  -3 -11  -4   15.78    1.17
  -3 -11  -4   14.60    0.57
  -3 -11  -4   15.06    0.58
  -3 -11  -4   14.74    1.48
  -4 -11  -4    1.19    0.63
  -4 -11  -4    1.12    0.75
  -5 -11  -4   -0.07    0.62
  -5 -11  -4   -0.82    0.73
   5  11   4    0.71    0.58
  -6 -11  -4   10.34    1.36
  -6 -11  -4    9.04    0.40
  -6 -11  -4    8.67    0.43
  -6 -11  -4    7.65    0.95
   6  11   4   11.23    1.26
  -7 -11  -4    0.77    0.27
  -7 -11  -4    1.33    0.26
  -7 -11  -4    1.53    0.89
  -7 -11  -4    1.23    0.86
   7  11   4    1.24    0.73
   5   9  -5    3.32    0.68
   5   9  -5    3.39    0.87
  -5  -9   5    4.47    0.64
  -5  -9   5    3.00    0.58
  -5  -9   5    2.86    0.59
  -5  -9   5    3.61    0.59
  -5  -9   5    2.79    0.94
   4   9  -5   -0.38    0.79
   4   9  -5   -0.08    0.56
   4   9  -5   -0.44    0.42
  -4  -9   5   -0.21    0.53
  -4  -9   5   -0.31    0.96
  -4  -9   5    0.22    0.54
  -4  -9   5   -0.23    0.46
  -4  -9   5    0.42    0.55
   3   9  -5   15.22    1.47
   3   9  -5   15.11    1.29
  -3  -9   5   14.21    1.14
  -3  -9   5   14.72    1.75
  -3  -9   5   13.30    1.19
  -3  -9   5   16.09    1.24
  -3  -9   5   14.83    1.09
   2   9  -5    1.28    0.79
   2   9  -5   -0.11    0.54
   2   9  -5    0.83    0.64
  -2  -9   5    0.04    0.58
  -2  -9   5    0.01    0.95
  -2  -9   5   -0.15    0.50
  -2  -9   5    0.09    0.55
  -2  -9   5   -0.16    0.59
   1   9  -5    4.89    0.81
   1   9  -5    7.22    0.96
   1   9  -5    6.12    0.77
  -1  -9   5    6.34    1.03
  -1  -9   5    6.09    0.71
  -1  -9   5    8.57    1.13
  -1  -9   5    6.51    0.74
  -1  -9   5    6.38    0.81
   7   8  -5    0.63    0.64
   7   8  -5    1.86    0.64
   7   8  -5    1.11    0.83
  -7  -8   5    0.54    0.53
  -7  -8   5    1.61    0.57
  -7  -8   5    1.90    0.59
  -7  -8   5    0.49    0.51
   6   8  -5   -0.30    0.73
   6   8  -5   -0.37    0.50
   6   8  -5    0.01    0.56
  -6  -8   5   -0.32    0.48
  -6  -8   5   -0.37    0.47
  -6  -8   5   -0.81    0.45
  -6  -8   5   -0.58    0.48
  -6  -8   5    0.38    0.85
   5   8  -5    0.13    0.51
   5   8  -5   -0.61    0.50
   5   8  -5    0.59    0.66
  -5  -8   5   -0.46    0.89
  -5  -8   5   -0.47    0.47
  -5  -8   5   -0.54    0.43
  -5  -8   5   -0.76    0.43
  -5  -8   5   -0.21    0.43
   4   8  -5   12.86    1.04
   4   8  -5   12.88    1.11
   4   8  -5   11.46    1.27
  -4  -8   5   11.65    1.02
  -4  -8   5   12.86    0.99
  -4  -8   5   14.17    1.51
  -4  -8   5   13.86    1.00
  -4  -8   5   13.00    1.04
   3   8  -5    1.01    0.70
   3   8  -5    0.01    0.19
   3   8  -5    0.09    0.15
   3   8  -5   -0.20    0.46
   3   8  -5    0.30    0.51
  -3  -8   5   -0.26    0.46
  -3  -8   5    0.74    0.48
  -3  -8   5   -0.39    0.45
  -3  -8   5    0.01    0.77
  -3  -8   5    0.01    0.44
   2   8  -5   42.61    1.83
   2   8  -5   38.52    1.17
   2   8  -5   39.38    1.62
   2   8  -5   39.86    1.70
  -2  -8   5   37.50    1.60
  -2  -8   5   41.62    1.60
  -2  -8   5   41.31    2.02
  -2  -8   5   40.46    1.60
  -2  -8   5   40.00    1.59
   1   8  -5    0.34    0.56
   1   8  -5    0.65    0.52
   1   8  -5    2.05    0.66
   1   8  -5    0.06    0.21
   1   8  -5    0.94    0.28
  -1  -8   5   -0.14    0.47
  -1  -8   5    0.34    0.48
  -1  -8   5    1.34    0.59
  -1  -8   5    1.97    0.54
  -1  -8   5    1.70    0.82
   0   8  -5    6.51    0.77
   0   8  -5    8.26    0.61
   0   8  -5    6.64    0.80
   0   8  -5    6.59    0.83
   0  -8   5    8.23    1.00
   0  -8   5    9.36    1.16
   0  -8   5    8.65    1.05
   0  -8   5    6.19    0.69
   0  -8   5    6.39    0.69
  -1   8  -5   -1.15    0.59
  -1   8  -5   -0.14    0.33
  -1   8  -5   -0.19    0.27
  -1   8  -5    0.43    0.66
  -1   8  -5   -0.17    0.65
   1  -8   5    0.48    0.84
   1  -8   5    0.60    0.55
   1  -8   5   -0.10    0.50
   1  -8   5   -0.17    0.61
   1  -8   5    0.62    0.57
  -2   8  -5    2.29    0.73
  -2   8  -5    1.57    0.70
  -2   8  -5    1.60    0.72
  -2   8  -5    1.44    0.41
   2  -8   5    1.64    0.67
   2  -8   5    2.22    0.91
   2  -8   5    0.61    0.69
   2  -8   5    1.69    0.68
   8   7  -5    0.12    0.58
   8   7  -5    1.10    0.34
   8   7  -5    2.67    0.79
   8   7  -5   -0.14    0.64
  -8  -7   5    0.59    0.53
  -8  -7   5    1.27    0.54
  -8  -7   5    1.22    0.57
   7   7  -5   11.61    1.26
   7   7  -5   14.56    1.24
   7   7  -5   13.20    0.68
   7   7  -5   13.21    1.14
  -7  -7   5   12.22    1.06
  -7  -7   5   14.69    1.12
  -7  -7   5   12.63    1.09
  -7  -7   5   14.68    1.04
   6   7  -5   12.29    1.24
   6   7  -5   11.64    0.61
   6   7  -5   10.85    1.05
   6   7  -5   10.80    1.12
  -6  -7   5   10.85    0.97
  -6  -7   5   12.16    0.99
  -6  -7   5   10.23    0.96
  -6  -7   5   11.08    0.95
   5   7  -5    0.82    0.25
   5   7  -5    1.22    0.66
   5   7  -5    0.40    0.25
   5   7  -5    0.66    0.49
  -5  -7   5    0.38    0.42
  -5  -7   5    0.81    0.46
  -5  -7   5    0.54    0.38
  -5  -7   5    1.14    0.45
   4   7  -5    0.47    0.45
   4   7  -5   -0.24    0.56
   4   7  -5   -0.26    0.23
   4   7  -5    0.00    0.26
  -4  -7   5    0.22    0.41
  -4  -7   5   -0.11    0.41
  -4  -7   5    0.21    0.43
  -4  -7   5    0.39    0.37
   3   7  -5   55.88    1.60
   3   7  -5   53.87    1.57
   3   7  -5   55.31    1.90
   3   7  -5   57.53    2.07
  -3  -7   5   56.34    1.87
  -3  -7   5   58.23    1.84
  -3  -7   5   53.34    1.90
  -3  -7   5   51.58    1.84
   2   7  -5   12.31    1.00
   2   7  -5   12.43    1.10
   2   7  -5   12.45    0.64
   2   7  -5   11.52    0.67
  -2  -7   5   11.51    0.95
  -2  -7   5   12.41    0.94
  -2  -7   5   12.20    0.99
  -2  -7   5   12.12    0.96
   1   7  -5   -0.06    0.54
   1   7  -5    0.66    0.49
   1   7  -5    0.54    0.27
   1   7  -5    0.60    0.31
  -1  -7   5    0.24    0.70
  -1  -7   5    1.16    0.45
  -1  -7   5    0.10    0.41
  -1  -7   5    1.30    0.48
  -1  -7   5    0.44    0.46
   0   7  -5    9.43    0.72
   0   7  -5    9.60    1.05
   0   7  -5    9.74    1.02
   0   7  -5   10.58    0.68
   0  -7   5    8.71    0.96
   0  -7   5    9.81    0.92
   0  -7   5    8.28    1.02
   0  -7   5    7.99    0.92
  -1   7  -5   22.35    1.36
  -1   7  -5   22.77    1.40
  -1   7  -5   23.46    0.98
  -1   7  -5   22.66    1.31
  -1   7  -5   21.39    1.01
   1  -7   5   22.18    1.28
   1  -7   5   23.41    1.36
   1  -7   5   22.10    1.25
  -2   7  -5    3.06    0.44
  -2   7  -5    3.16    0.63
  -2   7  -5    1.69    0.68
  -2   7  -5    2.99    0.67
  -2   7  -5    3.69    0.49
   2  -7   5    4.15    0.82
   2  -7   5    4.35    0.72
   2  -7   5    2.37    0.57
   2  -7   5    2.81    0.61
  -3   7  -5   12.41    1.41
  -3   7  -5   13.43    0.93
  -3   7  -5   12.48    1.17
  -3   7  -5   13.81    1.47
  -3   7  -5   11.10    0.98
   3  -7   5   10.16    1.47
   3  -7   5   11.14    1.36
   3  -7   5   12.34    1.23
   3  -7   5   11.84    1.26
   3  -7   5   11.81    1.21
  -4   7  -5    6.22    0.96
  -4   7  -5    4.27    0.58
  -4   7  -5    5.74    0.95
  -4   7  -5    6.96    0.82
   4  -7   5    5.87    0.96
   4  -7   5    6.15    0.86
   4  -7   5    6.92    0.85
   4  -7   5    5.40    0.81
   9   6  -5    3.23    0.73
   9   6  -5    3.58    0.49
   9   6  -5    3.06    0.79
  -9  -6   5    3.56    0.72
  -9  -6   5    4.63    0.68
  -9  -6   5    3.75    0.83
  -9  -6   5    3.19    0.65
  -9  -6   5    2.96    0.66
   8   6  -5    2.79    0.43
   8   6  -5    3.14    0.72
   8   6  -5    2.99    0.66
   8   6  -5    2.94    0.70
  -8  -6   5    2.80    0.58
  -8  -6   5    2.38    0.58
  -8  -6   5    2.19    0.58
   7   6  -5   -0.92    0.60
   7   6  -5   -0.38    0.31
   7   6  -5    0.37    0.51
   7   6  -5   -0.48    0.54
  -7  -6   5    0.41    0.48
  -7  -6   5   -0.08    0.47
  -7  -6   5    0.42    0.43
  -7  -6   5   -0.90    0.43
   6   6  -5    0.13    0.28
   6   6  -5   -0.13    0.57
   6   6  -5   -0.20    0.45
   6   6  -5   -0.25    0.31
  -6  -6   5   -0.24    0.41
  -6  -6   5   -0.32    0.43
  -6  -6   5    0.57    0.39
  -6  -6   5    0.31    0.43
   5   6  -5    1.30    0.56
   5   6  -5    2.12    0.53
   5   6  -5    1.31    0.33
   5   6  -5    1.18    0.31
   5   6  -5    1.19    0.49
  -5  -6   5    2.41    0.48
  -5  -6   5    1.55    0.44
  -5  -6   5    2.05    0.42
  -5  -6   5    0.89    0.40
   4   6  -5   13.04    0.67
   4   6  -5   14.03    0.99
   4   6  -5   13.70    0.95
   4   6  -5   10.84    1.07
   4   6  -5   12.95    0.71
  -4  -6   5   14.47    0.94
  -4  -6   5   11.91    0.91
  -4  -6   5   13.70    0.93
  -4  -6   5   14.25    0.82
   3   6  -5    7.26    0.86
   3   6  -5    7.23    0.62
   3   6  -5    6.77    0.57
   3   6  -5    7.67    0.86
   3   6  -5    5.20    0.67
  -3  -6   5    7.04    0.80
  -3  -6   5    7.16    0.83
  -3  -6   5    7.28    0.83
  -3  -6   5    6.71    0.80
  -3  -6   5    7.00    0.72
   2   6  -5   43.51    1.63
   2   6  -5   45.43    1.62
   2   6  -5   45.39    1.40
   2   6  -5   42.85    1.36
   2   6  -5   42.86    1.70
  -2  -6   5   44.63    1.57
  -2  -6   5   44.20    1.62
  -2  -6   5   44.82    1.80
  -2  -6   5   45.10    1.54
  -2  -6   5   42.00    1.62
   1   6  -5   13.98    1.01
   1   6  -5   13.92    0.76
   1   6  -5   12.35    0.98
   1   6  -5   13.80    1.02
   1   6  -5   13.82    0.72
  -1  -6   5   14.98    1.14
  -1  -6   5   13.56    0.90
  -1  -6   5   13.95    1.01
  -1  -6   5   13.20    0.91
  -1  -6   5   12.87    1.00
   0   6  -5   11.29    0.75
   0   6  -5   10.81    1.00
   0   6  -5   10.57    0.99
   0   6  -5   10.72    1.00
   0   6  -5   11.28    0.71
   0  -6   5    9.33    0.94
   0  -6   5   10.74    0.96
   0  -6   5   10.88    1.10
   0  -6   5   11.01    0.86
   0  -6   5   10.99    0.90
  -1   6  -5   -0.52    0.35
  -1   6  -5    0.03    0.63
  -1   6  -5   -0.14    0.32
  -1   6  -5   -0.30    0.51
  -1   6  -5   -0.12    0.49
   1  -6   5    0.35    0.59
   1  -6   5   -0.62    0.38
   1  -6   5   -0.31    0.46
   1  -6   5   -0.15    0.48
  -2   6  -5   30.37    1.25
  -2   6  -5   32.60    1.43
  -2   6  -5   33.68    1.57
  -2   6  -5   31.15    1.22
   2  -6   5   31.16    1.43
   2  -6   5   30.24    1.44
   2  -6   5   30.88    1.51
   2  -6   5   31.27    1.41
   2  -6   5   31.98    1.59
  -3   6  -5   40.60    1.76
  -3   6  -5   34.18    1.41
  -3   6  -5   38.85    1.47
   3  -6   5   35.87    1.66
   3  -6   5   38.80    1.74
   3  -6   5   37.57    1.61
   3  -6   5   38.19    1.62
  -4   6  -5    5.37    0.82
  -4   6  -5    7.67    0.98
  -4   6  -5    4.75    0.83
  -4   6  -5    5.51    0.60
   4  -6   5    5.68    0.78
   4  -6   5    5.73    0.82
   4  -6   5    7.69    0.88
   4  -6   5    6.02    0.72
  -5   6  -5   12.74    1.52
  -5   6  -5   13.34    1.10
  -5   6  -5   10.99    1.44
  -5   6  -5   10.34    1.44
  -5   6  -5   11.53    1.17
   5  -6   5    9.35    0.96
   5  -6   5   16.08    1.36
   5  -6   5   13.29    1.43
   5  -6   5   12.15    1.54
  10   5  -5    6.97    0.90
  10   5  -5    4.87    0.65
  10   5  -5    7.21    1.42
  10   5  -5    7.34    0.69
  10   5  -5    6.59    0.64
 -10  -5   5    7.62    0.84
 -10  -5   5    6.91    0.96
 -10  -5   5    7.23    0.82
 -10  -5   5    7.61    0.91
 -10  -5   5    4.74    0.84
   9   5  -5    0.87    0.69
   9   5  -5    0.41    0.66
   9   5  -5    1.20    0.45
   9   5  -5    1.21    0.44
   9   5  -5    0.74    0.49
  -9  -5   5    1.13    0.68
  -9  -5   5   -0.36    0.51
  -9  -5   5    0.82    0.54
  -9  -5   5    1.27    0.60
  -9  -5   5    0.28    0.55
   8   5  -5    2.88    0.67
   8   5  -5    3.13    0.38
   8   5  -5    2.02    0.63
   8   5  -5    3.01    0.46
   8   5  -5    2.30    0.61
   8   5  -5    2.64    0.48
  -8  -5   5    2.65    0.60
  -8  -5   5    1.71    0.57
  -8  -5   5    3.66    0.58
  -8  -5   5    2.97    0.56
   7   5  -5   -0.02    0.52
   7   5  -5    0.03    0.54
   7   5  -5    0.08    0.35
   7   5  -5    0.63    0.22
   7   5  -5    0.03    0.39
  -7  -5   5    0.17    0.42
  -7  -5   5    0.97    0.48
  -7  -5   5    0.29    0.49
  -7  -5   5    1.11    0.49
   6   5  -5    3.69    0.60
   6   5  -5    3.99    0.43
   6   5  -5    4.80    0.62
   6   5  -5    2.56    0.57
   6   5  -5    4.32    0.46
  -6  -5   5    3.80    0.57
  -6  -5   5    4.27    0.58
  -6  -5   5    3.61    0.53
  -6  -5   5    3.72    0.48
   5   5  -5   69.97    2.30
   5   5  -5   73.68    2.08
   5   5  -5   76.91    2.33
   5   5  -5   73.18    2.37
  -5  -5   5   71.04    2.28
  -5  -5   5   72.58    2.29
  -5  -5   5   71.27    2.17
  -5  -5   5   76.24    2.24
   4   5  -5   85.56    2.60
   4   5  -5   85.06    2.38
   4   5  -5   84.71    2.41
   4   5  -5   88.56    2.60
   4   5  -5   84.70    2.66
  -4  -5   5   83.78    2.57
  -4  -5   5   85.67    2.47
  -4  -5   5   90.35    2.53
  -4  -5   5   88.43    2.59
   3   5  -5   27.26    1.23
   3   5  -5   28.45    1.29
   3   5  -5   27.14    1.03
   3   5  -5   28.63    1.22
   3   5  -5   27.66    1.00
  -3  -5   5   28.27    1.19
  -3  -5   5   26.52    1.08
  -3  -5   5   28.04    1.16
  -3  -5   5   26.34    1.20
   2   5  -5  152.01    4.27
   2   5  -5  147.89    4.22
   2   5  -5  154.53    4.07
   2   5  -5  156.10    4.05
   2   5  -5  149.22    4.23
  -2  -5   5  155.11    4.14
  -2  -5   5  158.95    4.17
  -2  -5   5  157.38    4.25
  -2  -5   5  160.48    4.36
  -2  -5   5  158.50    4.24
   1   5  -5    8.09    0.84
   1   5  -5    7.37    0.61
   1   5  -5    7.51    0.82
   1   5  -5    7.60    0.67
   1   5  -5    7.02    0.82
  -1  -5   5    8.18    0.82
  -1  -5   5    6.76    0.78
  -1  -5   5    8.94    0.76
  -1  -5   5    8.43    0.92
  -1  -5   5    7.71    0.84
   0   5  -5    2.12    0.38
   0   5  -5    1.64    0.50
   0   5  -5    1.50    0.33
   0   5  -5    1.11    0.45
   0   5  -5    1.29    0.48
   0  -5   5    2.06    0.56
   0  -5   5    1.40    0.39
   0  -5   5    1.07    0.43
   0  -5   5    1.55    0.46
   0  -5   5    1.77    0.40
  -1   5  -5   84.17    2.51
  -1   5  -5   79.29    2.49
  -1   5  -5   78.81    2.44
  -1   5  -5   77.79    2.28
  -1   5  -5   77.92    2.26
   1  -5   5   80.98    2.50
   1  -5   5   73.62    2.43
   1  -5   5   76.79    2.46
   1  -5   5   79.06    2.36
  -2   5  -5    1.96    0.55
  -2   5  -5    1.94    0.39
  -2   5  -5    2.92    0.44
   2  -5   5    1.56    0.45
   2  -5   5    2.08    0.58
   2  -5   5    2.13    0.56
   2  -5   5    2.23    0.53
   2  -5   5    2.74    0.54
  -3   5  -5   49.57    1.73
  -3   5  -5   52.20    1.94
  -3   5  -5   52.37    1.99
  -3   5  -5   50.97    1.71
   3  -5   5   49.75    1.82
   3  -5   5   51.01    1.92
   3  -5   5   49.30    1.82
   3  -5   5   52.37    1.94
   3  -5   5   55.22    1.99
  -4   5  -5   -0.18    0.52
  -4   5  -5    0.50    0.44
  -4   5  -5   -0.03    0.64
  -4   5  -5   -0.65    0.44
   4  -5   5    0.26    0.51
   4  -5   5    1.05    0.63
   4  -5   5    0.30    0.58
   4  -5   5    0.01    0.50
  -5   5  -5    1.51    0.50
  -5   5  -5    2.52    0.72
  -5   5  -5    2.77    0.76
  -5   5  -5    3.37    0.79
   5  -5   5    1.82    0.68
   5  -5   5    1.83    0.68
   5  -5   5    2.28    0.73
   5  -5   5    1.25    0.65
  -6   5  -5   16.95    1.60
  -6   5  -5   17.07    1.25
  -6   5  -5   17.25    1.47
  -6   5  -5   18.96    1.59
  -6   5  -5   16.66    1.30
   6  -5   5   16.83    1.59
   6  -5   5   13.35    1.46
   6  -5   5   17.87    1.41
   6  -5   5   16.57    1.64
  10   4  -5   -0.03    0.52
  10   4  -5   -0.51    0.73
  10   4  -5   -0.01    0.71
 -10  -4   5    0.67    0.67
 -10  -4   5    0.42    0.63
 -10  -4   5    0.23    0.67
 -10  -4   5    1.37    0.74
 -10  -4   5    1.27    0.66
   9   4  -5   11.26    1.06
   9   4  -5   10.34    1.28
   9   4  -5   10.24    1.29
   9   4  -5    9.86    0.81
   9   4  -5   10.86    0.98
  -9  -4   5    9.38    1.24
  -9  -4   5   11.96    1.10
  -9  -4   5    9.42    1.09
  -9  -4   5   10.60    1.18
   8   4  -5    2.40    0.47
   8   4  -5    2.24    0.63
   8   4  -5    1.41    0.47
   8   4  -5    2.24    0.40
   8   4  -5    1.76    0.58
  -8  -4   5    1.37    0.58
  -8  -4   5    1.09    0.56
  -8  -4   5    1.70    0.51
  -8  -4   5    2.41    0.51
  -8  -4   5    1.45    0.55
   7   4  -5   13.99    0.90
   7   4  -5   14.86    1.13
   7   4  -5   14.55    0.87
   7   4  -5   12.24    1.04
   7   4  -5   15.04    0.67
  -7  -4   5   14.22    1.06
  -7  -4   5   13.31    0.93
  -7  -4   5   13.53    1.08
  -7  -4   5   14.78    1.00
   6   4  -5    3.79    0.57
   6   4  -5    4.41    0.60
   6   4  -5    4.16    0.60
   6   4  -5    4.22    0.44
   6   4  -5    3.72    0.45
  -6  -4   5    5.03    0.62
  -6  -4   5    3.78    0.55
  -6  -4   5    4.37    0.47
  -6  -4   5    4.41    0.53
   5   4  -5   12.97    0.74
   5   4  -5   13.74    0.94
   5   4  -5   14.15    0.96
   5   4  -5   13.98    0.78
   5   4  -5   14.06    0.95
  -5  -4   5   13.09    0.91
  -5  -4   5   12.64    0.87
  -5  -4   5   13.47    0.92
  -5  -4   5   13.37    0.80
   4   4  -5   52.42    1.80
   4   4  -5   54.12    1.62
   4   4  -5   51.43    1.78
   4   4  -5   55.12    1.66
   4   4  -5   56.35    1.83
  -4  -4   5   56.95    1.79
  -4  -4   5   54.56    1.79
  -4  -4   5   55.10    1.72
  -4  -4   5   53.80    1.68
   3   4  -5   11.56    0.82
   3   4  -5   11.40    0.64
   3   4  -5   10.83    0.81
   3   4  -5   10.15    0.80
  -3  -4   5   12.99    0.79
  -3  -4   5   11.16    0.79
  -3  -4   5   10.05    0.67
  -3  -4   5   10.22    0.73
   2   4  -5   31.93    1.06
   2   4  -5   31.25    1.09
   2   4  -5   31.60    1.25
   2   4  -5   30.65    1.22
   2   4  -5   29.76    1.21
  -2  -4   5   30.74    1.21
  -2  -4   5   30.98    1.15
  -2  -4   5   31.69    1.10
  -2  -4   5   32.95    1.22
   1   4  -5   54.95    1.79
   1   4  -5   56.11    1.79
   1   4  -5   55.67    1.63
   1   4  -5   57.37    1.66
   1   4  -5   54.19    1.79
  -1  -4   5   53.71    1.71
  -1  -4   5   56.81    1.79
  -1  -4   5   53.32    1.68
  -1  -4   5   55.36    1.79
  -1  -4   5   54.59    1.82
   0   4  -5    8.37    0.64
   0   4  -5    8.37    0.79
   0   4  -5    8.09    0.75
   0   4  -5    7.61    0.61
   0  -4   5    7.88    0.66
   0  -4   5    8.50    0.76
   0  -4   5    8.17    0.69
   0  -4   5    7.50    0.77
   0  -4   5    8.84    0.76
  -1   4  -5   42.77    1.41
  -1   4  -5   38.12    1.53
  -1   4  -5   43.26    1.38
  -1   4  -5   42.56    1.57
   1  -4   5   42.62    1.47
   1  -4   5   43.08    1.54
   1  -4   5   43.06    1.44
   1  -4   5   43.73    1.56
   1  -4   5   45.28    1.55
  -2   4  -5   52.93    1.87
  -2   4  -5   51.53    1.65
  -2   4  -5   52.57    1.68
  -2   4  -5   52.78    1.84
   2  -4   5   51.32    1.85
   2  -4   5   52.66    1.84
   2  -4   5   51.45    1.72
   2  -4   5   52.30    1.79
   2  -4   5   55.13    1.77
  -3   4  -5   16.50    0.95
  -3   4  -5   17.20    1.06
  -3   4  -5   16.04    1.09
  -3   4  -5   18.11    0.97
  -3   4  -5   17.30    1.18
   3  -4   5   15.91    1.12
   3  -4   5   17.56    1.04
   3  -4   5   18.87    1.03
   3  -4   5   18.11    1.18
   3  -4   5   18.28    1.06
  -4   4  -5   71.74    2.40
  -4   4  -5   69.82    2.29
  -4   4  -5   64.00    2.15
  -4   4  -5   72.22    2.19
   4  -4   5   71.84    2.26
   4  -4   5   60.29    2.32
   4  -4   5   70.46    2.25
   4  -4   5   71.76    2.38
  -5   4  -5    4.82    0.70
  -5   4  -5    2.80    0.74
  -5   4  -5    3.72    0.72
  -5   4  -5    3.70    0.56
   5  -4   5    3.80    0.62
   5  -4   5    5.06    0.74
   5  -4   5    4.19    0.60
   5  -4   5    4.05    0.75
  -6   4  -5    6.75    0.74
  -6   4  -5    8.35    1.03
  -6   4  -5    8.20    1.13
  -6   4  -5    8.16    0.93
  -6   4  -5    6.73    0.90
   6  -4   5    6.54    0.76
   6  -4   5    6.03    0.85
   6  -4   5    7.31    0.85
   6  -4   5    6.22    0.87
  -7   4  -5   18.93    1.41
  -7   4  -5   17.05    1.37
  -7   4  -5   18.73    1.44
  -7   4  -5   20.26    1.73
  -7   4  -5   17.85    1.66
   7  -4   5   17.42    1.67
   7  -4   5   18.92    1.50
   7  -4   5   21.16    1.69
   7  -4   5   15.94    1.46
  10   3  -5    2.16    0.84
  10   3  -5    2.68    0.61
  10   3  -5    1.28    0.64
  10   3  -5    1.72    0.78
 -10  -3   5    2.19    0.63
 -10  -3   5    2.28    0.76
 -10  -3   5    3.92    0.72
 -10  -3   5    2.37    0.77
   9   3  -5    0.19    0.48
   9   3  -5    0.44    0.47
   9   3  -5    0.57    0.65
  -9  -3   5    0.72    0.53
  -9  -3   5   -0.68    0.58
  -9  -3   5   -0.35    0.56
  -9  -3   5   -0.53    0.49
  -9  -3   5    0.48    0.49
   8   3  -5   30.55    1.36
   8   3  -5   35.21    1.44
   8   3  -5   37.01    1.66
  -8  -3   5   33.95    1.47
  -8  -3   5   34.02    1.44
  -8  -3   5   36.98    1.47
  -8  -3   5   36.27    1.59
  -8  -3   5   33.88    1.60
   7   3  -5    3.66    0.46
   7   3  -5    3.32    0.59
   7   3  -5    3.05    0.49
   7   3  -5    5.02    0.63
  -7  -3   5    4.57    0.60
  -7  -3   5    4.78    0.55
  -7  -3   5    4.07    0.55
  -7  -3   5    3.70    0.62
   6   3  -5   16.68    0.91
   6   3  -5   16.37    0.99
   6   3  -5   16.52    0.88
   6   3  -5   16.31    1.06
   6   3  -5   17.27    1.08
   6   3  -5   17.51    0.64
  -6  -3   5   15.30    0.89
  -6  -3   5   16.66    1.06
  -6  -3   5   18.14    0.98
  -6  -3   5   16.54    1.05
   5   3  -5   65.33    1.93
   5   3  -5   66.07    2.03
   5   3  -5   66.66    2.07
   5   3  -5   54.07    2.00
   5   3  -5   66.77    1.91
  -5  -3   5   66.42    1.99
  -5  -3   5   64.53    1.93
  -5  -3   5   67.45    2.06
  -5  -3   5   61.90    2.04
   4   3  -5    1.08    0.38
   4   3  -5    1.27    0.40
   4   3  -5    1.20    0.40
   4   3  -5    0.66    0.29
   4   3  -5    0.96    0.30
  -4  -3   5    0.76    0.35
  -4  -3   5    1.18    0.32
  -4  -3   5    1.58    0.38
  -4  -3   5    1.05    0.33
   3   3  -5   24.84    0.92
   3   3  -5   24.76    0.95
   3   3  -5   24.49    1.04
   3   3  -5   25.11    1.06
   3   3  -5   26.20    1.07
  -3  -3   5   24.25    1.04
  -3  -3   5   26.76    1.00
  -3  -3   5   25.30    0.95
  -3  -3   5   25.76    1.06
   2   3  -5   97.36    2.59
   2   3  -5   97.68    2.72
   2   3  -5   97.09    2.73
   2   3  -5   95.45    2.71
  -2  -3   5   92.98    2.61
  -2  -3   5   97.36    2.71
  -2  -3   5   90.73    2.70
  -2  -3   5   96.34    2.65
   1   3  -5   35.27    1.26
   1   3  -5   36.21    1.28
   1   3  -5   35.62    1.14
   1   3  -5   35.06    1.17
   1   3  -5   35.38    1.27
  -1  -3   5   35.35    1.28
  -1  -3   5   34.76    1.26
  -1  -3   5   34.28    1.26
  -1  -3   5   35.08    1.17
  -1  -3   5   34.28    1.20
   0   3  -5   87.43    2.49
   0   3  -5   83.35    2.35
   0   3  -5   86.92    2.38
   0   3  -5   86.17    2.49
   0  -3   5   83.73    2.40
   0  -3   5   87.57    2.50
   0  -3   5   86.52    2.39
   0  -3   5   84.98    2.44
   0  -3   5   79.83    2.45
  -1   3  -5   13.40    0.86
  -1   3  -5   13.69    0.75
  -1   3  -5   14.00    0.84
  -1   3  -5   14.23    0.72
   1  -3   5   14.74    0.78
   1  -3   5   14.55    0.78
   1  -3   5   13.86    0.87
   1  -3   5   12.71    0.81
   1  -3   5   14.07    0.74
  -2   3  -5   48.93    1.55
  -2   3  -5   46.50    1.52
  -2   3  -5   49.32    1.70
  -2   3  -5   50.33    1.70
   2  -3   5   48.47    1.68
   2  -3   5   49.03    1.68
   2  -3   5   48.05    1.56
   2  -3   5   46.94    1.58
  -3   3  -5  204.03    5.42
  -3   3  -5  199.45    5.50
  -3   3  -5  203.66    5.52
  -3   3  -5  204.79    5.36
  -3   3  -5  204.70    5.36
   3  -3   5  214.92    5.54
   3  -3   5  199.13    5.41
   3  -3   5  207.35    5.40
   3  -3   5  200.88    5.50
   3  -3   5  203.90    5.40
  -4   3  -5    4.49    0.50
  -4   3  -5    3.72    0.48
  -4   3  -5    4.68    0.66
  -4   3  -5    4.72    0.69
  -4   3  -5    4.24    0.54
   4  -3   5    2.70    0.47
   4  -3   5    3.33    0.49
   4  -3   5    3.11    0.58
   4  -3   5    4.27    0.61
  -5   3  -5   71.61    2.23
  -5   3  -5   71.34    2.28
  -5   3  -5   69.65    2.23
  -5   3  -5   70.32    2.44
  -5   3  -5   69.36    2.44
   5  -3   5   67.87    2.42
   5  -3   5   71.95    2.28
   5  -3   5   70.58    2.43
  -6   3  -5   13.43    1.07
  -6   3  -5   13.24    1.32
  -6   3  -5   12.27    1.30
  -6   3  -5   13.63    1.08
   6  -3   5   14.04    1.30
   6  -3   5   14.94    1.16
   6  -3   5   12.99    1.30
  -7   3  -5    7.62    0.94
  -7   3  -5   10.32    1.40
  -7   3  -5    8.62    0.85
  -7   3  -5    8.15    0.83
  -7   3  -5    9.63    1.16
   7  -3   5    9.96    1.34
   7  -3   5    6.91    0.81
   7  -3   5    8.42    0.90
   7  -3   5    8.46    0.96
  -8   3  -5    4.25    0.80
  -8   3  -5    4.47    0.91
  -8   3  -5    5.92    1.04
  -8   3  -5    4.12    0.84
  -8   3  -5    3.64    0.74
   8  -3   5    3.10    0.88
   8  -3   5    2.42    0.75
   8  -3   5    3.71    0.80
   8  -3   5    2.36    0.92
  10   2  -5    3.87    0.64
  10   2  -5    3.69    0.91
  10   2  -5    4.93    0.76
  10   2  -5    5.37    0.87
 -10  -2   5    3.54    0.74
 -10  -2   5    3.48    0.81
 -10  -2   5    3.35    0.66
 -10  -2   5    4.17    0.86
 -10  -2   5    4.71    0.64
   9   2  -5    1.28    0.71
   9   2  -5    0.35    0.62
   9   2  -5    0.75    0.54
  -9  -2   5    0.69    0.64
  -9  -2   5    1.24    0.69
  -9  -2   5    1.84    0.54
  -9  -2   5    0.96    0.47
  -9  -2   5    0.72    0.55
   8   2  -5    0.50    0.52
   8   2  -5   -0.19    0.41
   8   2  -5    0.24    0.52
   8   2  -5    0.59    0.58
  -8  -2   5    0.27    0.43
  -8  -2   5    0.26    0.51
  -8  -2   5    0.93    0.53
  -8  -2   5    0.18    0.43
  -8  -2   5   -0.21    0.44
   7   2  -5    2.47    0.47
   7   2  -5    2.68    0.57
   7   2  -5    2.91    0.60
   7   2  -5    3.38    0.51
   7   2  -5    3.85    0.51
  -7  -2   5    2.33    0.49
  -7  -2   5    2.38    0.58
  -7  -2   5    2.79    0.55
  -7  -2   5    2.90    0.47
  -7  -2   5    3.08    0.47
   6   2  -5   74.23    2.24
   6   2  -5   70.32    2.34
   6   2  -5   71.77    2.33
   6   2  -5   76.34    2.23
   6   2  -5   75.87    2.18
  -6  -2   5   74.28    2.20
  -6  -2   5   73.67    2.34
  -6  -2   5   75.59    2.35
  -6  -2   5   74.65    2.25
   5   2  -5   10.72    0.74
   5   2  -5   10.30    0.84
   5   2  -5   11.01    0.75
   5   2  -5   11.00    0.69
   5   2  -5   10.07    0.83
  -5  -2   5   11.00    0.83
  -5  -2   5   10.11    0.83
  -5  -2   5   10.73    0.70
  -5  -2   5   12.59    0.78
   4   2  -5   30.76    1.21
   4   2  -5   30.57    1.14
   4   2  -5   30.20    1.22
   4   2  -5   32.31    1.09
   4   2  -5   29.85    1.11
  -4  -2   5   32.83    1.23
  -4  -2   5   31.84    1.15
  -4  -2   5   31.66    1.09
  -4  -2   5   33.14    1.22
   3   2  -5   19.18    0.81
   3   2  -5   18.51    0.90
   3   2  -5   19.05    0.78
   3   2  -5   19.26    0.86
   3   2  -5   20.07    0.92
  -3  -2   5   18.45    0.78
  -3  -2   5   19.61    0.90
  -3  -2   5   19.93    0.86
  -3  -2   5   19.16    0.90
   2   2  -5    0.49    0.30
   2   2  -5    0.69    0.32
   2   2  -5    0.50    0.31
   2   2  -5    0.33    0.23
   2   2  -5    0.77    0.25
  -2  -2   5    0.27    0.22
  -2  -2   5    0.92    0.33
  -2  -2   5    0.67    0.30
  -2  -2   5    0.23    0.27
   1   2  -5   50.11    1.47
   1   2  -5   48.66    1.58
   1   2  -5   48.82    1.58
  -1  -2   5   48.76    1.57
  -1  -2   5   51.45    1.52
  -1  -2   5   49.96    1.58
  -1  -2   5   50.22    1.48
   0   2  -5  174.80    4.52
   0   2  -5  177.95    4.64
   0   2  -5  175.87    4.55
   0   2  -5  173.25    4.63
   0  -2   5  174.02    4.54
   0  -2   5  173.77    4.56
   0  -2   5  172.93    4.56
   0  -2   5  178.11    4.64
   0  -2   5  172.84    4.63
  -1   2  -5   -0.07    0.24
  -1   2  -5   -0.16    0.34
  -1   2  -5   -0.19    0.25
  -1   2  -5   -0.16    0.29
   1  -2   5    0.09    0.25
   1  -2   5   -0.07    0.29
   1  -2   5   -0.44    0.27
   1  -2   5   -0.18    0.34
   1  -2   5    0.04    0.26
  -2   2  -5   27.66    1.05
  -2   2  -5   28.33    1.16
  -2   2  -5   28.49    1.03
  -2   2  -5   28.44    1.16
   2  -2   5   28.42    1.01
   2  -2   5   28.61    1.14
   2  -2   5   27.79    1.05
   2  -2   5   29.15    1.17
  -3   2  -5   14.31    0.92
  -3   2  -5   14.97    0.81
  -3   2  -5   15.25    0.79
  -3   2  -5   15.41    0.92
  -3   2  -5   13.33    0.75
   3  -2   5   15.85    0.82
   3  -2   5   15.57    0.85
   3  -2   5   14.49    0.92
   3  -2   5   14.15    0.90
  -4   2  -5  123.13    3.47
  -4   2  -5  119.56    3.31
  -4   2  -5  119.57    3.45
  -4   2  -5  119.87    3.31
  -4   2  -5  107.41    3.28
   4  -2   5  120.72    3.46
   4  -2   5  121.17    3.34
   4  -2   5  120.93    3.33
   4  -2   5  123.16    3.47
  -5   2  -5   18.70    1.05
  -5   2  -5   19.79    1.21
  -5   2  -5   21.14    1.25
  -5   2  -5   19.24    1.01
  -5   2  -5   17.88    1.04
   5  -2   5   19.76    1.10
   5  -2   5   19.99    1.22
   5  -2   5   19.47    1.10
   5  -2   5   20.02    1.23
  -6   2  -5   20.93    1.36
  -6   2  -5   20.59    1.15
  -6   2  -5   19.95    1.37
  -6   2  -5   23.15    1.20
   6  -2   5   24.75    1.23
   6  -2   5   19.91    1.36
   6  -2   5   21.29    1.35
  -7   2  -5    0.18    0.50
  -7   2  -5    0.29    0.56
  -7   2  -5    0.40    0.66
  -7   2  -5    0.19    0.52
  -7   2  -5    0.11    0.61
   7  -2   5    1.50    0.72
   7  -2   5    1.61    0.62
   7  -2   5    0.90    0.55
   7  -2   5    0.63    0.67
  -8   2  -5    5.60    0.83
  -8   2  -5    3.77    0.69
  -8   2  -5    2.81    0.62
  -8   2  -5    2.42    0.85
  -8   2  -5    3.46    0.81
   8  -2   5    4.47    0.79
   8  -2   5    4.90    0.83
   8  -2   5    3.89    0.86
   8  -2   5    4.25    0.78
  10   1  -5   -0.02    0.59
  10   1  -5    0.27    0.84
  10   1  -5   -0.43    0.76
  10   1  -5    1.37    0.76
 -10  -1   5    0.79    0.78
 -10  -1   5   -0.37    0.73
 -10  -1   5    0.06    0.39
 -10  -1   5   -0.19    0.57
 -10  -1   5    0.34    0.61
   9   1  -5   35.03    1.62
   9   1  -5   31.89    1.72
   9   1  -5   32.88    1.49
   9   1  -5   31.51    1.73
  -9  -1   5   29.20    1.93
  -9  -1   5   32.98    1.73
  -9  -1   5   34.73    1.58
  -9  -1   5   32.11    1.30
  -9  -1   5   33.22    1.72
   8   1  -5    2.70    0.72
   8   1  -5    3.33    0.60
   8   1  -5    4.19    0.70
   8   1  -5    3.43    0.51
  -8  -1   5    5.36    0.66
  -8  -1   5    3.04    0.65
  -8  -1   5    3.21    0.64
  -8  -1   5    4.70    0.51
   7   1  -5   42.75    1.49
   7   1  -5   41.80    1.69
   7   1  -5   41.89    1.55
   7   1  -5   41.32    1.67
  -7  -1   5   37.91    1.64
  -7  -1   5   41.85    1.56
  -7  -1   5   41.46    1.65
  -7  -1   5   34.14    1.41
   6   1  -5    0.29    0.33
   6   1  -5    0.60    0.40
   6   1  -5    0.87    0.36
   6   1  -5    0.75    0.46
   6   1  -5    0.24    0.42
  -6  -1   5    0.57    0.46
  -6  -1   5    0.68    0.37
  -6  -1   5    0.84    0.39
   5   1  -5    6.21    0.77
   5   1  -5    6.39    0.62
   5   1  -5    6.63    0.73
   5   1  -5    6.21    0.65
   5   1  -5    5.61    0.57
  -5  -1   5    5.52    0.65
  -5  -1   5    5.86    0.73
  -5  -1   5    6.72    0.74
  -5  -1   5    6.12    0.59
   4   1  -5    4.88    0.60
   4   1  -5    4.46    0.55
   4   1  -5    4.26    0.48
   4   1  -5    3.93    0.45
   4   1  -5    3.95    0.52
  -4  -1   5    4.74    0.45
  -4  -1   5    4.32    0.48
  -4  -1   5    5.13    0.52
  -4  -1   5    4.55    0.41
   3   1  -5  317.81    8.10
   3   1  -5  317.86    8.14
   3   1  -5  313.55    7.93
   3   1  -5  318.45    8.13
   3   1  -5  333.35    8.22
   3   1  -5  320.80    8.21
  -3  -1   5  311.70    8.10
  -3  -1   5  326.32    8.22
  -3  -1   5  319.16    8.14
  -3  -1   5  324.67    8.21
   2   1  -5  298.96    7.70
   2   1  -5  305.70    7.76
   2   1  -5  309.76    7.76
   2   1  -5  301.27    7.65
   2   1  -5  305.94    7.68
  -2  -1   5  308.25    7.75
  -2  -1   5  293.82    7.75
  -2  -1   5  300.96    7.66
  -2  -1   5  300.26    7.69
   1   1  -5  354.03    9.02
   1   1  -5  353.84    9.12
   1   1  -5  369.12    9.13
   1   1  -5  358.29    9.05
  -1  -1   5  352.21    9.05
  -1  -1   5  358.99    8.89
  -1  -1   5  359.07    9.03
  -1  -1   5  370.76    9.13
  -1  -1   5  352.13    9.11
   0   1  -5   67.17    1.95
   0   1  -5   65.88    1.85
   0   1  -5   66.53    1.96
   0  -1   5   67.44    1.96
   0  -1   5   64.56    1.88
   0  -1   5   64.76    1.95
   0  -1   5   66.21    1.86
  -1   1  -5  285.65    7.36
  -1   1  -5  285.64    7.44
  -1   1  -5  300.65    7.46
  -1   1  -5  283.02    7.34
   1  -1   5  290.78    7.36
   1  -1   5  293.19    7.37
   1  -1   5  297.16    7.45
   1  -1   5  292.36    7.44
   1  -1   5  278.73    7.30
  -2   1  -5   88.37    2.62
  -2   1  -5   90.65    2.53
  -2   1  -5   91.56    2.64
  -2   1  -5   94.90    2.55
   2  -1   5   93.71    2.55
   2  -1   5   92.98    2.56
   2  -1   5   92.48    2.47
   2  -1   5   93.00    2.63
   2  -1   5   93.08    2.65
  -3   1  -5    6.92    0.61
  -3   1  -5    6.94    0.60
  -3   1  -5    6.79    0.50
  -3   1  -5    6.33    0.68
  -3   1  -5    5.87    0.70
   3  -1   5    6.13    0.69
   3  -1   5    6.44    0.70
   3  -1   5    6.57    0.61
  -4   1  -5   32.51    1.14
  -4   1  -5   33.90    1.22
  -4   1  -5   35.12    1.37
  -4   1  -5   33.62    1.35
  -4   1  -5   33.94    1.23
   4  -1   5   34.65    1.26
   4  -1   5   33.20    1.23
   4  -1   5   32.95    1.36
   4  -1   5   30.56    1.33
  -5   1  -5  104.26    3.07
  -5   1  -5  103.86    3.09
  -5   1  -5  100.60    2.88
  -5   1  -5  104.97    2.93
  -5   1  -5  103.91    2.92
   5  -1   5  104.42    3.08
   5  -1   5  103.29    2.94
   5  -1   5   96.24    3.04
   5  -1   5  102.53    2.95
  -6   1  -5   10.44    1.06
  -6   1  -5    9.51    1.09
  -6   1  -5    9.64    0.91
  -6   1  -5   11.31    0.82
   6  -1   5   10.12    0.95
   6  -1   5   10.61    1.08
   6  -1   5   12.64    1.06
   6  -1   5   10.66    0.95
  -7   1  -5   23.25    1.19
  -7   1  -5   23.34    1.43
  -7   1  -5   23.21    1.23
  -7   1  -5   24.28    1.44
   7  -1   5   24.37    1.41
   7  -1   5   23.46    1.43
   7  -1   5   23.39    1.27
  -8   1  -5    1.72    0.56
  -8   1  -5    1.16    0.57
  -8   1  -5    0.29    0.65
  -8   1  -5    0.31    0.71
  -8   1  -5    2.12    0.95
   8  -1   5    1.65    0.67
   8  -1   5    0.75    0.67
   8  -1   5    0.80    0.68
   8  -1   5    0.95    0.58
  -9   1  -5    4.01    0.75
  -9   1  -5    3.76    0.76
  -9   1  -5    3.50    0.76
  -9   1  -5    1.52    0.76
  -9   1  -5    4.68    0.88
   9  -1   5    4.23    0.94
   9  -1   5    4.13    0.72
   9  -1   5    3.94    0.86
   9  -1   5    3.43    0.80
  10   0  -5    2.97    0.70
  10   0  -5    2.04    0.88
  10   0  -5    1.82    0.80
  10   0  -5    2.95    0.93
 -10   0   5    2.21    0.68
 -10   0   5    2.22    0.66
 -10   0   5    3.82    0.88
 -10   0   5    2.76    0.91
   9   0  -5   -0.34    0.64
   9   0  -5   -0.19    0.52
   9   0  -5   -0.65    0.66
   9   0  -5   -0.07    0.59
  -9   0   5   -0.14    0.69
  -9   0   5   -0.12    0.74
  -9   0   5    0.50    0.59
  -9   0   5   -1.35    0.70
   8   0  -5   49.89    2.02
   8   0  -5   50.05    2.03
   8   0  -5   51.45    1.82
  -8   0   5   47.46    2.00
  -8   0   5   51.94    1.88
  -8   0   5   53.29    2.05
   7   0  -5   17.62    1.14
   7   0  -5   19.68    1.21
   7   0  -5   21.16    1.29
   7   0  -5   19.69    1.06
  -7   0   5   17.53    1.19
  -7   0   5   19.17    1.24
  -7   0   5   19.77    1.11
   6   0  -5   49.55    1.66
   6   0  -5   47.60    1.50
   6   0  -5   49.39    1.76
   6   0  -5   49.34    1.61
   6   0  -5   48.32    1.77
  -6   0   5   47.29    1.65
  -6   0   5   46.18    1.74
  -6   0   5   48.44    1.75
  -6   0   5   47.45    1.58
   5   0  -5    0.41    0.41
   5   0  -5    0.51    0.38
   5   0  -5    0.38    0.33
   5   0  -5    0.21    0.33
   5   0  -5    0.75    0.28
  -5   0   5    0.30    0.31
  -5   0   5    0.38    0.37
  -5   0   5    0.34    0.31
  -5   0   5    0.26    0.39
   4   0  -5   96.88    2.73
   4   0  -5   91.63    2.73
   4   0  -5   92.47    2.57
   4   0  -5   94.64    2.65
   4   0  -5   96.91    2.62
  -4   0   5   96.41    2.62
  -4   0   5   96.05    2.74
  -4   0   5   96.24    2.66
  -4   0   5   96.46    2.74
   3   0  -5  324.92    8.12
   3   0  -5  319.98    8.14
   3   0  -5  332.69    8.23
   3   0  -5  313.78    8.20
   3   0  -5  317.01    8.10
  -3   0   5  315.55    8.21
  -3   0   5  318.19    8.14
  -3   0   5  319.79    8.21
  -3   0   5  323.84    8.11
   2   0  -5  106.72    2.89
   2   0  -5  105.31    2.78
   2   0  -5  102.40    2.81
   2   0  -5  107.19    2.88
  -2   0   5  101.81    2.86
  -2   0   5  106.22    2.78
  -2   0   5  100.57    2.87
  -2   0   5  104.92    2.81
   1   0  -5    0.68    0.28
   1   0  -5    0.28    0.20
   1   0  -5    0.70    0.30
   1   0  -5    1.08    0.28
  -1   0   5    0.67    0.28
  -1   0   5    1.04    0.27
  -1   0   5    0.79    0.21
  -1   0   5    0.90    0.28
   0   0  -5   64.43    1.80
   0   0  -5   60.26    1.85
   0   0  -5   64.25    1.86
   0   0  -5   63.65    1.77
   0   0   5   62.06    1.77
   0   0   5   65.20    1.72
   0   0   5   65.25    1.80
   0   0   5   62.36    1.86
   0   0   5   64.80    1.86
  -1   0  -5  130.35    3.38
  -1   0  -5  126.09    3.37
  -1   0  -5  125.08    3.28
   1   0   5  126.03    3.30
   1   0   5  120.76    3.19
   1   0   5  123.59    3.29
   1   0   5  126.84    3.37
   1   0   5  121.22    3.36
  -2   0  -5   30.63    1.11
  -2   0  -5   28.15    0.99
  -2   0  -5   29.52    1.01
  -2   0  -5   29.35    1.09
   2   0   5   29.47    0.86
   2   0   5   29.56    1.02
   2   0   5   30.02    1.00
   2   0   5   28.82    1.08
   2   0   5   28.97    1.09
  -3   0  -5   10.39    0.71
  -3   0  -5    9.24    0.47
  -3   0  -5   10.76    0.64
  -3   0  -5   10.36    0.62
  -3   0  -5    8.73    0.71
   3   0   5    9.54    0.63
   3   0   5    8.71    0.68
   3   0   5    9.44    0.61
   3   0   5   10.02    0.71
  -4   0  -5   35.37    1.32
  -4   0  -5   34.64    1.21
  -4   0  -5   32.46    1.08
  -4   0  -5   33.78    1.20
  -4   0  -5   35.74    1.33
   4   0   5   33.01    1.31
   4   0   5   32.61    1.22
   4   0   5   35.46    1.21
   4   0   5   35.39    1.33
  -5   0  -5   39.08    1.27
  -5   0  -5   38.95    1.50
  -5   0  -5   38.36    1.37
  -5   0  -5   40.42    1.38
  -5   0  -5   38.20    1.49
   5   0   5   38.27    1.48
   5   0   5   36.62    1.49
   5   0   5   38.85    1.39
   5   0   5   37.27    1.36
  -6   0  -5   55.67    1.82
  -6   0  -5   54.47    1.97
  -6   0  -5   56.50    1.84
  -6   0  -5   55.97    1.97
  -6   0  -5   54.55    1.73
   6   0   5   54.98    1.84
   6   0   5   56.37    1.98
   6   0   5   55.99    1.83
   6   0   5   50.56    1.94
  -7   0  -5    3.18    0.60
  -7   0  -5    3.79    0.58
  -7   0  -5    3.75    0.51
  -7   0  -5    2.83    0.61
   7   0   5    3.82    0.61
   7   0   5    3.55    0.56
   7   0   5    4.31    0.70
   7   0   5    4.71    0.73
  -8   0  -5   47.37    1.74
  -8   0  -5   47.11    1.98
  -8   0  -5   45.58    2.00
  -8   0  -5   45.20    1.77
   8   0   5   49.78    2.02
   8   0   5   47.58    1.82
   8   0   5   43.75    1.96
  -9   0  -5    0.35    0.68
  -9   0  -5    0.02    0.63
  -9   0  -5   -0.03    0.58
  -9   0  -5   -0.34    0.55
  -9   0  -5   -0.02    0.73
   9   0   5    0.46    0.63
   9   0   5   -0.41    0.60
   9   0   5   -0.46    0.65
   9   0   5    0.57    0.78
 -10   0  -5   21.58    1.54
  10  -1  -5   14.86    1.77
  10  -1  -5   14.72    1.53
  10  -1  -5   17.96    1.47
  10  -1  -5   18.65    1.72
 -10   1   5   18.73    1.73
 -10   1   5   17.08    1.50
 -10   1   5   18.08    1.73
 -10   1   5   17.21    1.35
   9  -1  -5   12.42    1.48
   9  -1  -5   12.87    1.49
   9  -1  -5   15.06    1.22
   9  -1  -5   13.56    1.38
  -9   1   5   14.54    1.28
  -9   1   5   15.52    1.46
  -9   1   5   12.56    1.43
  -9   1   5   11.18    1.16
   8  -1  -5    0.13    0.63
   8  -1  -5    0.23    0.45
   8  -1  -5   -0.60    0.60
  -8   1   5    0.42    0.59
  -8   1   5    0.32    0.62
  -8   1   5   -0.39    0.49
   7  -1  -5  180.93    4.80
   7  -1  -5  182.16    4.98
   7  -1  -5  161.70    4.93
  -7   1   5  177.22    4.83
  -7   1   5  174.99    4.96
  -7   1   5  181.08    4.78
  -7   1   5  185.69    4.99
   6  -1  -5   64.76    2.17
   6  -1  -5   64.50    2.01
   6  -1  -5   65.59    2.07
   6  -1  -5   65.48    2.16
  -6   1   5   64.13    1.98
  -6   1   5   61.62    2.15
  -6   1   5   65.74    2.04
  -6   1   5   66.67    2.16
   5  -1  -5   72.00    2.23
   5  -1  -5   70.44    2.14
   5  -1  -5   72.68    2.24
   5  -1  -5   71.54    2.10
   5  -1  -5   69.41    1.97
  -5   1   5   74.46    2.24
  -5   1   5   71.39    2.13
  -5   1   5   71.54    2.08
   4  -1  -5   12.80    0.56
   4  -1  -5   13.82    0.83
   4  -1  -5   12.73    0.70
   4  -1  -5   11.16    0.73
   4  -1  -5   12.61    0.79
  -4   1   5   13.00    0.81
  -4   1   5   11.16    0.80
  -4   1   5   12.65    0.72
  -4   1   5   12.85    0.67
   3  -1  -5  442.05   10.88
   3  -1  -5  433.30   10.77
   3  -1  -5  414.23   10.85
   3  -1  -5  423.09   10.71
   3  -1  -5  434.79   10.80
  -3   1   5  431.31   10.86
  -3   1   5  424.54   10.79
  -3   1   5  426.10   10.87
  -3   1   5  428.61   10.76
   2  -1  -5  346.83    8.78
   2  -1  -5  370.73    8.86
   2  -1  -5  349.53    8.76
   2  -1  -5  333.48    8.83
  -2   1   5  340.07    8.84
  -2   1   5  346.90    8.75
  -2   1   5  343.70    8.83
  -2   1   5  351.72    8.78
   1  -1  -5   53.50    1.62
   1  -1  -5   51.97    1.53
   1  -1  -5   54.14    1.62
   1  -1  -5   55.05    1.57
  -1   1   5   56.17    1.53
  -1   1   5   53.87    1.61
  -1   1   5   52.67    1.55
  -1   1   5   54.33    1.48
  -1   1   5   55.35    1.62
   0  -1  -5  302.00    7.80
   0  -1  -5  309.05    7.83
   0  -1  -5  319.25    7.89
   0  -1  -5  309.23    7.88
   0   1   5  304.52    7.80
   0   1   5  306.87    7.88
   0   1   5  315.58    7.79
   0   1   5  309.18    7.82
   0   1   5  317.99    7.88
  -1  -1  -5  140.79    3.66
  -1  -1  -5  141.23    3.64
  -1  -1  -5  141.48    3.72
  -1  -1  -5  145.62    3.72
   1   1   5  147.25    3.72
   1   1   5  134.36    3.51
   1   1   5  141.23    3.64
   1   1   5  140.28    3.65
   1   1   5  132.09    3.71
   1   1   5  141.76    3.65
  -2  -1  -5    3.10    0.32
  -2  -1  -5    2.05    0.26
  -2  -1  -5    1.89    0.31
  -2  -1  -5    2.61    0.36
   2   1   5    2.52    0.36
   2   1   5    1.82    0.30
   2   1   5    2.06    0.26
   2   1   5    2.13    0.28
  -3  -1  -5  735.33   19.70
  -3  -1  -5  785.55   19.72
  -3  -1  -5  802.96   19.65
  -3  -1  -5  795.68   19.65
   3   1   5  799.60   19.73
   3   1   5  790.36   19.63
   3   1   5  801.57   19.73
   3   1   5  804.12   19.64
  -4  -1  -5  345.24    8.69
  -4  -1  -5  346.27    8.79
  -4  -1  -5  349.71    8.70
  -4  -1  -5  338.25    8.78
  -4  -1  -5  323.89    8.56
   4   1   5  342.41    8.68
   4   1   5  344.42    8.79
   4   1   5  350.16    8.79
  -5  -1  -5  163.42    4.38
  -5  -1  -5  168.57    4.58
  -5  -1  -5  161.18    4.57
  -5  -1  -5  165.76    4.48
  -5  -1  -5  170.97    4.48
   5   1   5  169.67    4.47
   5   1   5  173.46    4.47
   5   1   5  179.65    4.61
   5   1   5  169.79    4.59
  -6  -1  -5  149.30    4.02
  -6  -1  -5  146.84    4.02
  -6  -1  -5  148.36    3.94
  -6  -1  -5  148.93    4.15
  -6  -1  -5  151.21    4.16
   6   1   5  150.16    4.01
   6   1   5  147.75    4.14
   6   1   5  151.10    4.01
   6   1   5  138.97    4.12
  -7  -1  -5   29.58    1.43
  -7  -1  -5   31.38    1.31
  -7  -1  -5   30.26    1.30
  -7  -1  -5   32.52    1.21
  -7  -1  -5   31.57    1.46
   7   1   5   30.43    1.31
   7   1   5   27.48    1.41
   7   1   5   30.56    1.47
   7   1   5   31.52    1.32
  -8  -1  -5    3.73    0.64
  -8  -1  -5    2.37    0.60
  -8  -1  -5    3.47    0.56
  -8  -1  -5    2.73    0.64
  -8  -1  -5    3.25    0.55
   8   1   5    2.71    0.55
   8   1   5    1.53    0.58
   8   1   5    2.60    0.62
   8   1   5    4.04    0.63
  -9  -1  -5   15.96    1.26
  -9  -1  -5   16.13    1.38
  -9  -1  -5   16.04    1.42
  -9  -1  -5   14.96    1.12
  -9  -1  -5   16.13    1.19
   9   1   5   16.21    1.22
   9   1   5   14.15    1.36
   9   1   5   15.54    1.43
 -10  -1  -5    0.54    0.76
 -10  -1  -5    0.58    0.61
 -10  -1  -5    1.15    0.58
 -10  -1  -5   -0.08    0.83
 -10  -1  -5    0.08    0.68
  10   1   5    0.56    0.76
  10   1   5    0.57    0.63
  10   1   5   -0.49    0.64
  10   1   5    0.23    0.79
   9  -2  -5   12.56    1.43
   9  -2  -5   10.53    1.07
   9  -2  -5    7.87    0.87
   9  -2  -5   11.31    1.18
  -9   2   5   10.54    1.46
  -9   2   5   10.19    1.15
  -9   2   5   12.12    1.46
  -9   2   5    7.57    0.80
   8  -2  -5    2.96    0.73
   8  -2  -5    3.16    0.58
   8  -2  -5    5.12    0.77
  -8   2   5    2.97    0.62
  -8   2   5    2.42    0.69
  -8   2   5    3.26    0.64
  -8   2   5    3.29    0.75
   7  -2  -5    5.48    0.60
   7  -2  -5    8.21    1.09
   7  -2  -5    7.35    0.83
  -7   2   5    6.30    0.76
  -7   2   5    6.23    0.63
  -7   2   5    6.57    0.82
  -7   2   5    5.61    0.69
   6  -2  -5   15.16    0.93
   6  -2  -5   14.50    1.10
   6  -2  -5   13.75    1.09
   6  -2  -5   14.43    1.01
  -6   2   5   14.48    0.86
  -6   2   5   15.20    1.07
  -6   2   5   14.38    0.94
  -6   2   5   13.96    1.05
   5  -2  -5   68.72    2.12
   5  -2  -5   69.68    2.06
   5  -2  -5   68.75    2.20
   5  -2  -5   70.08    2.19
  -5   2   5   68.17    2.19
  -5   2   5   70.14    2.19
  -5   2   5   69.20    2.03
  -5   2   5   69.03    2.08
   4  -2  -5   80.65    2.40
   4  -2  -5   80.29    2.12
   4  -2  -5   81.56    2.30
   4  -2  -5   80.11    2.41
   4  -2  -5   81.39    2.34
  -4   2   5   80.10    2.30
  -4   2   5   81.40    2.40
  -4   2   5   83.55    2.27
   3  -2  -5  190.60    4.96
   3  -2  -5  192.06    5.06
   3  -2  -5  186.50    4.84
   3  -2  -5  194.74    4.99
   3  -2  -5  190.57    5.05
  -3   2   5  194.01    5.06
  -3   2   5  196.38    4.94
  -3   2   5  191.41    4.97
  -3   2   5  190.92    5.05
   2  -2  -5   90.40    2.43
   2  -2  -5   91.72    2.49
   2  -2  -5   77.56    2.45
   2  -2  -5   87.14    2.40
  -2   2   5   92.41    2.49
  -2   2   5   92.48    2.49
  -2   2   5   87.77    2.41
  -2   2   5   91.70    2.39
   1  -2  -5    8.72    0.57
   1  -2  -5    8.15    0.52
   1  -2  -5    7.47    0.54
   1  -2  -5    8.62    0.48
  -1   2   5    8.20    0.57
  -1   2   5    7.70    0.54
  -1   2   5    8.56    0.49
  -1   2   5    8.22    0.45
  -1   2   5    8.79    0.48
   0  -2  -5  309.06    8.11
   0  -2  -5  323.31    8.07
   0  -2  -5  322.94    8.12
   0  -2  -5  318.31    8.05
   0   2   5  324.36    8.12
   0   2   5  322.81    8.12
   0   2   5  320.67    8.05
   0   2   5  318.76    8.04
   0   2   5  327.93    8.08
  -1  -2  -5    9.29    0.56
  -1  -2  -5    9.53    0.48
  -1  -2  -5   10.39    0.56
  -1  -2  -5    9.76    0.52
   1   2   5   10.14    0.56
   1   2   5   10.48    0.33
   1   2   5   10.40    0.56
   1   2   5   10.21    0.47
   1   2   5    9.99    0.56
   1   2   5    9.84    0.50
  -2  -2  -5  222.95    5.63
  -2  -2  -5  217.67    5.56
  -2  -2  -5  224.60    5.63
  -2  -2  -5  214.69    5.57
   2   2   5  216.39    5.54
   2   2   5  210.60    5.62
   2   2   5  218.78    5.55
   2   2   5  221.37    5.63
   2   2   5  221.77    5.63
  -3  -2  -5   78.42    2.16
  -3  -2  -5   79.88    2.24
  -3  -2  -5   77.97    2.23
  -3  -2  -5   77.01    2.17
   3   2   5   78.95    2.23
   3   2   5   81.72    2.24
   3   2   5   77.33    2.14
   3   2   5   79.92    2.14
  -4  -2  -5    4.19    0.51
  -4  -2  -5    4.35    0.56
  -4  -2  -5    4.30    0.51
  -4  -2  -5    4.49    0.57
   4   2   5    3.69    0.42
   4   2   5    4.81    0.59
   4   2   5    4.13    0.49
  -5  -2  -5   70.15    2.05
  -5  -2  -5   72.14    2.05
  -5  -2  -5   71.66    2.15
  -5  -2  -5   70.15    2.14
   5   2   5   72.54    2.15
   5   2   5   70.66    2.02
   5   2   5   65.87    2.12
  -6  -2  -5   -0.15    0.32
  -6  -2  -5    0.72    0.43
  -6  -2  -5    0.00    0.31
  -6  -2  -5    0.82    0.44
   6   2   5    0.81    0.42
   6   2   5    0.58    0.35
   6   2   5    0.38    0.40
  -7  -2  -5    0.13    0.43
  -7  -2  -5   -0.74    0.39
  -7  -2  -5    0.02    0.44
  -7  -2  -5   -0.39    0.45
   7   2   5    0.08    0.55
   7   2   5   -0.42    0.47
   7   2   5   -0.12    0.40
   7   2   5   -0.42    0.38
  -8  -2  -5    2.11    0.58
  -8  -2  -5    2.50    0.56
  -8  -2  -5    1.59    0.57
  -8  -2  -5    1.63    0.48
   8   2   5    2.36    0.62
   8   2   5    2.57    0.49
   8   2   5    1.88    0.46
  -9  -2  -5    0.56    0.63
  -9  -2  -5    0.85    0.60
  -9  -2  -5    0.83    0.52
  -9  -2  -5    1.33    0.57
   9   2   5    1.22    0.52
   9   2   5    1.03    0.51
   9   2   5    0.87    0.68
 -10  -2  -5   13.91    1.42
 -10  -2  -5   16.26    1.39
 -10  -2  -5   15.67    1.54
 -10  -2  -5   14.09    1.29
  10   2   5   11.88    1.23
  10   2   5   10.06    1.09
  10   2   5   14.56    1.48
  10   2   5   15.21    1.22
   9  -3  -5    0.75    0.63
   9  -3  -5   -1.42    0.72
   9  -3  -5    0.91    0.87
   9  -3  -5    1.06    0.84
  -9   3   5   -0.18    0.62
  -9   3   5   -0.15    0.60
  -9   3   5   -0.37    0.73
  -9   3   5   -0.42    0.69
   8  -3  -5   24.73    1.36
   8  -3  -5   24.16    1.58
   8  -3  -5   20.86    1.42
   8  -3  -5   24.75    1.58
  -8   3   5   23.36    1.38
  -8   3   5   24.64    1.55
  -8   3   5   25.07    1.57
  -8   3   5   24.95    1.28
   7  -3  -5    2.31    0.67
   7  -3  -5    1.00    0.55
   7  -3  -5    2.28    0.50
   7  -3  -5    1.90    0.65
  -7   3   5    1.95    0.48
  -7   3   5    2.00    0.58
  -7   3   5    1.71    0.54
  -7   3   5    2.06    0.61
   6  -3  -5    0.89    0.44
   6  -3  -5    1.21    0.54
   6  -3  -5    0.28    0.50
   6  -3  -5    0.26    0.39
  -6   3   5    0.73    0.41
  -6   3   5    1.03    0.37
  -6   3   5    0.55    0.51
  -6   3   5    0.78    0.52
   5  -3  -5   78.68    2.28
   5  -3  -5   77.56    2.42
   5  -3  -5   76.67    2.41
   5  -3  -5   75.45    2.32
  -5   3   5   81.11    2.43
  -5   3   5   75.76    2.40
  -5   3   5   78.49    2.24
  -5   3   5   75.61    2.27
   4  -3  -5   16.55    0.79
   4  -3  -5   17.23    0.86
   4  -3  -5   15.28    0.90
   4  -3  -5   15.59    0.90
  -4   3   5   16.20    0.80
  -4   3   5   15.81    0.90
  -4   3   5   15.98    0.74
  -4   3   5   16.72    0.91
   3  -3  -5   78.63    2.31
   3  -3  -5   75.11    2.31
   3  -3  -5   80.09    2.22
   3  -3  -5   82.26    2.26
   3  -3  -5   78.08    2.03
  -3   3   5   80.17    2.22
  -3   3   5   81.27    2.19
  -3   3   5   82.07    2.32
   2  -3  -5   65.32    1.89
   2  -3  -5   65.63    1.94
   2  -3  -5   68.44    1.86
   2  -3  -5   63.29    1.93
  -2   3   5   67.66    1.85
  -2   3   5   68.94    1.83
  -2   3   5   65.39    1.94
  -2   3   5   66.43    1.94
   1  -3  -5   79.13    2.22
   1  -3  -5   85.74    2.27
   1  -3  -5   82.55    2.20
   1  -3  -5   78.43    2.26
  -1   3   5   82.07    2.25
  -1   3   5   83.58    2.17
  -1   3   5   81.09    2.27
  -1   3   5   81.66    2.19
  -1   3   5   83.13    2.27
   0  -3  -5  123.72    3.25
   0  -3  -5  123.79    3.24
   0  -3  -5  126.22    3.20
   0  -3  -5  121.80    3.18
   0   3   5  122.80    3.16
   0   3   5  119.09    3.24
   0   3   5  121.45    3.24
   0   3   5  120.58    3.20
   0   3   5  125.24    3.15
   0   3   5  124.94    3.25
  -1  -3  -5  273.32    6.90
  -1  -3  -5  278.75    6.91
  -1  -3  -5  276.26    6.86
  -1  -3  -5  268.66    6.84
   1   3   5  276.54    6.91
   1   3   5  273.53    6.94
   1   3   5  274.50    6.82
   1   3   5  275.88    6.91
   1   3   5  269.20    6.82
   1   3   5  259.43    6.81
  -2  -3  -5   59.09    1.64
  -2  -3  -5   59.47    1.70
  -2  -3  -5   59.04    1.65
  -2  -3  -5   59.86    1.70
   2   3   5   59.53    1.77
   2   3   5   59.52    1.60
   2   3   5   62.60    1.71
   2   3   5   59.22    1.61
   2   3   5   60.96    1.70
  -3  -3  -5  159.88    4.33
  -3  -3  -5  174.45    4.35
  -3  -3  -5  168.50    4.28
  -3  -3  -5  162.90    4.17
   3   3   5  163.87    4.34
   3   3   5  167.25    4.41
   3   3   5  165.83    4.34
   3   3   5  170.37    4.24
   3   3   5  167.21    4.24
  -4  -3  -5   36.89    1.26
  -4  -3  -5   38.61    1.27
  -4  -3  -5   38.36    1.20
  -4  -3  -5   38.92    1.20
   4   3   5   39.02    1.28
   4   3   5   39.24    1.16
   4   3   5   37.94    1.36
   4   3   5   38.87    1.16
   4   3   5   40.36    1.29
  -5  -3  -5    1.99    0.32
  -5  -3  -5    2.97    0.40
  -5  -3  -5    1.50    0.33
  -5  -3  -5    1.77    0.31
   5   3   5    1.53    0.34
   5   3   5    1.87    0.38
   5   3   5    2.43    0.30
   5   3   5    2.34    0.30
  -6  -3  -5  107.25    3.00
  -6  -3  -5  111.34    3.00
  -6  -3  -5  108.49    3.08
  -6  -3  -5  111.63    3.10
   6   3   5  107.78    3.09
   6   3   5  107.17    3.08
   6   3   5  107.78    2.94
   6   3   5  108.57    2.94
  -7  -3  -5   29.52    1.23
  -7  -3  -5   32.02    1.25
  -7  -3  -5   30.92    1.33
  -7  -3  -5   30.81    1.35
   7   3   5   30.12    1.33
   7   3   5   31.26    1.16
   7   3   5   33.35    1.37
  -8  -3  -5   21.68    1.11
  -8  -3  -5   21.47    1.23
  -8  -3  -5   22.11    1.21
  -8  -3  -5   19.04    1.10
   8   3   5   19.69    1.23
   8   3   5   21.31    1.04
   8   3   5   19.90    1.01
  -9  -3  -5    3.03    0.63
  -9  -3  -5    3.82    0.59
  -9  -3  -5    4.60    0.71
  -9  -3  -5    4.29    0.64
   9   3   5    3.15    0.64
   9   3   5    3.80    0.53
   9   3   5    4.67    0.58
 -10  -3  -5    5.26    0.71
 -10  -3  -5    5.35    0.87
 -10  -3  -5    4.96    0.78
 -10  -3  -5    4.09    0.69
  10   3   5    4.22    0.81
  10   3   5    3.68    0.59
  10   3   5    3.24    0.60
  10   3   5    4.09    0.76
   8  -4  -5    0.03    0.69
   8  -4  -5    0.60    0.63
   8  -4  -5    0.25    0.57
   8  -4  -5    0.54    0.70
  -8   4   5    0.83    0.70
  -8   4   5   -0.26    0.48
  -8   4   5    0.24    0.52
  -8   4   5   -1.27    0.67
   7  -4  -5   57.54    2.14
   7  -4  -5   52.70    1.89
   7  -4  -5   55.16    2.03
  -7   4   5   47.27    2.08
  -7   4   5   53.12    1.88
   6  -4  -5    4.46    0.57
   6  -4  -5    6.13    0.75
   6  -4  -5    5.55    0.70
   6  -4  -5    4.67    0.53
  -6   4   5    5.77    0.54
  -6   4   5    6.38    0.62
  -6   4   5    6.86    0.74
   5  -4  -5   33.29    1.50
   5  -4  -5   39.56    1.46
   5  -4  -5   40.18    1.54
   5  -4  -5   38.41    1.40
  -5   4   5   39.81    1.55
  -5   4   5   38.06    1.31
  -5   4   5   37.92    1.49
  -5   4   5   39.32    1.39
   4  -4  -5   82.71    2.35
   4  -4  -5   83.46    2.48
   4  -4  -5   80.84    2.47
   4  -4  -5   87.24    2.41
  -4   4   5   83.51    2.30
  -4   4   5   82.62    2.33
  -4   4   5   69.77    2.41
  -4   4   5   87.51    2.49
   3  -4  -5    7.43    0.69
   3  -4  -5    7.65    0.66
   3  -4  -5    8.17    0.63
   3  -4  -5    8.45    0.59
  -3   4   5    8.19    0.76
  -3   4   5    7.17    0.68
  -3   4   5    8.21    0.52
  -3   4   5    8.53    0.57
  -3   4   5    9.04    0.69
   2  -4  -5   36.34    1.24
   2  -4  -5   36.44    1.19
   2  -4  -5   39.19    1.17
   2  -4  -5   36.22    1.24
  -2   4   5   37.58    1.10
  -2   4   5   36.39    1.31
  -2   4   5   37.26    1.25
  -2   4   5   37.44    1.13
   1  -4  -5   90.80    2.47
   1  -4  -5   92.50    2.45
   1  -4  -5   88.20    2.51
   1  -4  -5   99.03    2.53
  -1   4   5   93.56    2.40
  -1   4   5   94.64    2.53
  -1   4   5   92.71    2.41
  -1   4   5   87.75    2.51
  -1   4   5   90.00    2.56
   0  -4  -5    0.48    0.18
   0  -4  -5    0.78    0.23
   0  -4  -5    0.81    0.21
   0  -4  -5    0.46    0.19
   0   4   5    0.52    0.24
   0   4   5    0.90    0.24
   0   4   5    0.63    0.22
   0   4   5    0.65    0.14
   0   4   5    0.59    0.29
   0   4   5    0.62    0.15
  -1  -4  -5    4.48    0.37
  -1  -4  -5    4.98    0.40
  -1  -4  -5    4.62    0.34
  -1  -4  -5    4.62    0.38
   1   4   5    4.00    0.40
   1   4   5    5.01    0.40
   1   4   5    4.90    0.40
   1   4   5    4.63    0.22
   1   4   5    4.62    0.23
   1   4   5    3.88    0.51
  -2  -4  -5  316.22    7.78
  -2  -4  -5  300.77    7.78
  -2  -4  -5  327.66    7.82
  -2  -4  -5  305.51    7.81
  -2  -4  -5  309.58    7.77
   2   4   5  306.82    7.81
   2   4   5  309.94    7.92
   2   4   5  307.90    7.81
  -3  -4  -5  137.93    3.60
  -3  -4  -5  131.89    3.65
  -3  -4  -5  144.98    3.63
  -3  -4  -5  140.69    3.66
  -3  -4  -5  141.49    3.62
   3   4   5  140.66    3.80
   3   4   5  138.72    3.51
   3   4   5  143.41    3.67
   3   4   5  144.37    3.67
   3   4   5  142.38    3.51
  -4  -4  -5   37.93    1.14
  -4  -4  -5   37.43    1.19
  -4  -4  -5   37.90    1.19
  -4  -4  -5   37.50    1.14
   4   4   5   37.52    1.04
   4   4   5   37.42    1.20
   4   4   5   35.82    1.33
   4   4   5   38.48    1.03
   4   4   5   36.10    1.20
  -5  -4  -5   20.20    0.80
  -5  -4  -5   18.96    0.79
  -5  -4  -5   21.03    0.86
  -5  -4  -5   20.33    0.86
   5   4   5   19.83    0.87
   5   4   5   20.23    0.68
   5   4   5   20.36    0.87
   5   4   5   20.44    0.70
   5   4   5   18.73    1.00
  -6  -4  -5    4.23    0.42
  -6  -4  -5    6.09    0.65
  -6  -4  -5    5.54    0.47
  -6  -4  -5    5.33    0.64
   6   4   5    6.05    0.69
   6   4   5    4.13    0.59
   6   4   5    6.64    0.49
   6   4   5    5.55    0.46
   6   4   5    5.47    0.65
  -7  -4  -5    7.61    0.73
  -7  -4  -5    6.15    0.77
  -7  -4  -5    7.25    0.72
  -7  -4  -5    6.19    0.77
   7   4   5    7.86    0.81
   7   4   5    6.80    0.61
   7   4   5    5.93    0.79
   7   4   5    7.74    0.58
  -8  -4  -5   -0.49    0.37
  -8  -4  -5   -0.51    0.40
  -8  -4  -5   -0.85    0.42
  -8  -4  -5   -0.06    0.38
   8   4   5   -0.11    0.31
   8   4   5    0.09    0.34
   8   4   5   -0.11    0.44
   8   4   5   -0.03    0.46
  -9  -4  -5    2.79    0.60
  -9  -4  -5    3.57    0.53
  -9  -4  -5    2.72    0.53
  -9  -4  -5    2.43    0.54
   9   4   5    3.30    0.45
   9   4   5    2.77    0.61
   9   4   5    2.51    0.59
 -10  -4  -5    4.39    0.75
 -10  -4  -5    5.32    0.74
 -10  -4  -5    5.53    0.79
 -10  -4  -5    5.15    0.67
  10   4   5    5.41    0.59
  10   4   5    4.86    0.81
  10   4   5    4.64    0.76
   8  -5  -5    8.20    0.91
   8  -5  -5    6.96    0.99
   8  -5  -5    5.31    0.94
   8  -5  -5    6.82    0.78
  -8   5   5    7.10    0.95
  -8   5   5    6.86    0.96
  -8   5   5    8.56    1.13
  -8   5   5    6.58    0.76
  -8   5   5    5.25    0.67
   7  -5  -5   -0.74    0.52
   7  -5  -5   -1.05    0.56
   7  -5  -5   -0.41    0.66
   7  -5  -5   -0.63    0.66
  -7   5   5    0.57    0.72
  -7   5   5   -0.78    0.46
  -7   5   5   -0.58    0.60
  -7   5   5   -0.27    0.42
  -7   5   5   -0.17    0.66
   6  -5  -5   37.68    1.50
   6  -5  -5   38.56    1.71
   6  -5  -5   40.83    1.72
   6  -5  -5   38.03    1.62
  -6   5   5   40.86    1.73
  -6   5   5   38.18    1.40
  -6   5   5   39.56    1.48
  -6   5   5   37.72    1.81
   5  -5  -5   63.64    2.02
   5  -5  -5   63.05    2.14
   5  -5  -5   61.96    2.06
   5  -5  -5   63.47    2.15
  -5   5   5   63.51    1.89
  -5   5   5   64.04    1.95
  -5   5   5   63.61    2.27
  -5   5   5   63.97    2.16
   4  -5  -5   69.14    2.09
   4  -5  -5   69.68    2.14
   4  -5  -5   71.50    2.22
   4  -5  -5   69.22    2.22
  -4   5   5   70.40    2.00
  -4   5   5   69.46    2.34
  -4   5   5   71.46    2.22
  -4   5   5   72.11    2.21
  -4   5   5   68.91    2.03
   3  -5  -5  128.26    3.59
   3  -5  -5  131.87    3.54
   3  -5  -5  126.59    3.58
   3  -5  -5  131.03    3.50
  -3   5   5  131.80    3.60
  -3   5   5  133.90    3.61
  -3   5   5  131.95    3.42
  -3   5   5  131.91    3.71
  -3   5   5  130.38    3.44
   2  -5  -5    0.11    0.27
   2  -5  -5   -0.13    0.28
   2  -5  -5   -0.14    0.24
   2  -5  -5   -0.22    0.23
  -2   5   5    0.18    0.28
  -2   5   5   -0.03    0.28
  -2   5   5   -0.40    0.36
  -2   5   5    0.15    0.20
  -2   5   5   -0.14    0.16
   1  -5  -5  408.01   10.23
   1  -5  -5  391.50   10.21
   1  -5  -5  417.84   10.16
   1  -5  -5  396.90   10.11
   1  -5  -5  414.41   10.18
  -1   5   5  411.04   10.33
  -1   5   5  411.19   10.23
  -1   5   5  401.02   10.08
  -1   5   5  405.96   10.22
  -1   5   5  401.09   10.07
   0  -5  -5   18.12    0.69
   0  -5  -5   17.67    0.67
   0  -5  -5   18.06    0.64
   0  -5  -5   18.65    0.70
   0   5   5   17.22    0.85
   0   5   5   18.57    0.71
   0   5   5   17.76    0.82
   0   5   5   18.86    0.71
  -1  -5  -5   10.36    0.47
  -1  -5  -5    9.97    0.58
  -1  -5  -5   10.13    0.48
  -1  -5  -5    9.94    0.45
  -1  -5  -5    9.71    0.42
   1   5   5   10.53    0.49
   1   5   5    8.81    0.48
   1   5   5    9.43    0.59
   1   5   5    9.68    0.66
  -2  -5  -5    5.45    0.37
  -2  -5  -5    6.15    0.38
  -2  -5  -5    5.96    0.34
  -2  -5  -5    6.03    0.36
  -2  -5  -5    5.94    0.47
   2   5   5    5.97    0.39
   2   5   5    6.12    0.59
  -3  -5  -5   42.33    1.18
  -3  -5  -5   41.47    1.27
  -3  -5  -5   42.51    1.20
  -3  -5  -5   41.29    1.20
  -3  -5  -5   41.49    1.17
   3   5   5   42.61    1.22
   3   5   5   40.15    1.41
   3   5   5   42.45    1.23
  -4  -5  -5   46.28    1.37
  -4  -5  -5   46.67    1.40
  -4  -5  -5   44.55    1.34
  -4  -5  -5   47.78    1.34
  -4  -5  -5   49.01    1.38
   4   5   5   46.01    1.38
   4   5   5   46.71    1.60
   4   5   5   49.66    1.39
  -5  -5  -5   54.57    1.63
  -5  -5  -5   56.17    1.63
  -5  -5  -5   55.28    1.59
  -5  -5  -5   56.27    1.59
   5   5   5   53.40    1.84
   5   5   5   57.73    1.65
   5   5   5   54.05    1.64
  -6  -5  -5   34.83    1.20
  -6  -5  -5   32.51    1.18
  -6  -5  -5   35.10    1.15
  -6  -5  -5   32.99    1.14
   6   5   5   31.81    1.43
   6   5   5   33.41    0.91
   6   5   5   33.57    1.21
   6   5   5   33.83    0.91
   6   5   5   35.03    1.22
  -7  -5  -5   20.17    0.91
  -7  -5  -5   20.40    0.92
  -7  -5  -5   19.99    0.96
  -7  -5  -5   20.10    0.98
   7   5   5   18.96    1.17
   7   5   5   19.53    0.69
   7   5   5   19.59    0.68
   7   5   5   20.77    0.99
   7   5   5   18.58    0.97
  -8  -5  -5    1.93    0.45
  -8  -5  -5    2.22    0.47
  -8  -5  -5    2.57    0.46
  -8  -5  -5    2.91    0.45
   8   5   5    2.23    0.29
   8   5   5    1.96    0.49
   8   5   5    2.61    0.51
   8   5   5    2.71    0.68
   8   5   5    2.33    0.31
  -9  -5  -5    4.55    0.54
  -9  -5  -5    3.06    0.57
  -9  -5  -5    3.96    0.53
  -9  -5  -5    3.74    0.57
   9   5   5    3.59    0.40
   9   5   5    3.62    0.80
   9   5   5    2.77    0.38
   9   5   5    3.29    0.85
   9   5   5    2.87    0.55
 -10  -5  -5    1.93    0.61
 -10  -5  -5    3.04    0.62
 -10  -5  -5    2.45    0.57
 -10  -5  -5    2.59    0.62
  10   5   5    2.51    0.66
  10   5   5    2.13    0.45
  10   5   5    1.78    0.72
   7  -6  -5    4.95    0.62
   7  -6  -5    5.34    0.77
   7  -6  -5    6.77    0.88
   7  -6  -5    6.42    0.85
  -7   6   5    5.45    0.87
  -7   6   5    8.02    1.00
  -7   6   5    7.15    0.70
  -7   6   5    7.84    1.04
   6  -6  -5    0.52    0.53
   6  -6  -5    0.77    0.62
   6  -6  -5    0.55    0.57
   6  -6  -5    1.10    0.52
  -6   6   5    1.27    0.66
  -6   6   5    1.84    0.82
  -6   6   5    1.09    0.45
  -6   6   5    1.29    0.66
  -6   6   5   -0.27    0.37
   5  -6  -5   38.21    1.61
   5  -6  -5   38.23    1.47
   5  -6  -5   39.17    1.57
   5  -6  -5   37.47    1.61
  -5   6   5   36.76    1.61
  -5   6   5   40.17    1.32
  -5   6   5   38.38    1.79
  -5   6   5   37.58    1.35
   4  -6  -5   29.54    1.30
   4  -6  -5   30.32    1.32
   4  -6  -5   27.41    1.17
   4  -6  -5   29.31    1.25
  -4   6   5   30.04    1.30
  -4   6   5   26.75    1.43
  -4   6   5   28.41    1.06
  -4   6   5   28.76    1.02
  -4   6   5   30.98    1.33
   3  -6  -5   26.03    1.04
   3  -6  -5   25.85    1.09
   3  -6  -5   25.43    1.13
   3  -6  -5   26.56    1.15
  -3   6   5   25.89    0.91
  -3   6   5   26.04    1.32
  -3   6   5   26.92    1.14
  -3   6   5   25.24    0.86
  -3   6   5   24.93    1.13
   2  -6  -5   67.65    1.97
   2  -6  -5   67.78    1.95
   2  -6  -5   65.75    1.89
   2  -6  -5   63.77    1.91
  -2   6   5   61.96    1.96
  -2   6   5   65.27    1.96
  -2   6   5   64.65    1.73
  -2   6   5   66.64    2.14
  -2   6   5   64.72    1.74
   1  -6  -5   18.13    0.65
   1  -6  -5   18.40    0.73
   1  -6  -5   18.26    0.77
   1  -6  -5   18.05    0.78
   1  -6  -5   18.33    0.76
  -1   6   5   18.00    0.80
  -1   6   5   18.37    0.79
  -1   6   5   19.14    0.99
   0  -6  -5  203.20    5.14
   0  -6  -5  202.42    5.19
   0  -6  -5  198.82    5.18
   0  -6  -5  200.83    5.16
   0  -6  -5  207.39    5.18
   0   6   5  204.43    5.19
   0   6   5  202.10    5.19
   0   6   5  203.30    5.37
  -1  -6  -5    3.40    0.34
  -1  -6  -5    2.80    0.35
  -1  -6  -5    3.65    0.51
  -1  -6  -5    4.37    0.34
  -1  -6  -5    3.56    0.31
  -1  -6  -5    3.79    0.45
   1   6   5    2.81    0.44
   1   6   5    3.58    0.44
   1   6   5    3.80    0.37
  -2  -6  -5   44.48    1.45
  -2  -6  -5   45.82    1.23
  -2  -6  -5   46.21    1.23
  -2  -6  -5   45.97    1.23
  -2  -6  -5   44.34    1.24
   2   6   5   45.83    1.25
   2   6   5   46.64    1.26
   2   6   5   45.27    1.53
  -3  -6  -5    2.13    0.19
  -3  -6  -5    2.58    0.37
  -3  -6  -5    2.47    0.28
  -3  -6  -5    1.95    0.26
  -3  -6  -5    1.84    0.26
   3   6   5    1.75    0.43
   3   6   5    2.14    0.20
   3   6   5    2.13    0.21
  -4  -6  -5  181.82    4.53
  -4  -6  -5  180.14    4.69
  -4  -6  -5  179.69    4.53
  -4  -6  -5  180.30    4.53
   4   6   5  168.98    4.54
   4   6   5  180.05    4.55
   4   6   5  180.43    4.82
  -5  -6  -5  150.86    3.96
  -5  -6  -5  148.47    3.94
  -5  -6  -5  152.41    3.96
  -5  -6  -5  150.87    4.09
  -5  -6  -5  151.51    3.95
   5   6   5  150.40    4.23
   5   6   5  149.15    3.97
   5   6   5  173.83    4.18
  -6  -6  -5   52.05    1.61
  -6  -6  -5   55.01    1.61
  -6  -6  -5   55.33    1.61
  -6  -6  -5   55.86    1.63
   6   6   5   53.86    1.90
   6   6   5   54.25    1.65
   6   6   5   55.98    1.65
  -7  -6  -5    0.96    0.31
  -7  -6  -5    0.84    0.32
  -7  -6  -5    1.10    0.36
  -7  -6  -5    0.75    0.33
   7   6   5    1.04    0.37
   7   6   5    1.22    0.57
   7   6   5    1.43    0.37
  -8  -6  -5   15.55    0.91
  -8  -6  -5   15.75    0.89
  -8  -6  -5   15.38    0.93
  -8  -6  -5   16.44    0.89
   8   6   5   17.06    0.97
   8   6   5   16.61    0.99
   8   6   5   17.14    1.19
  -9  -6  -5   24.18    1.20
  -9  -6  -5   26.27    1.24
  -9  -6  -5   26.00    1.19
  -9  -6  -5   24.31    1.17
   9   6   5   24.45    1.51
   9   6   5   25.19    1.25
 -10  -6  -5   -0.19    0.50
 -10  -6  -5    0.81    0.52
 -10  -6  -5    0.98    0.94
 -10  -6  -5    0.53    0.51
 -10  -6  -5    0.53    0.56
  10   6   5    0.11    0.19
  10   6   5    0.99    0.58
  10   6   5    1.63    0.83
  10   6   5    1.25    0.65
  10   6   5    0.04    0.21
   6  -7  -5   -0.48    0.64
   6  -7  -5    0.40    0.67
   6  -7  -5    0.69    0.55
   6  -7  -5   -0.05    0.59
  -6   7   5    0.58    0.85
  -6   7   5   -0.21    0.41
  -6   7   5   -0.82    0.65
  -6   7   5   -0.05    0.70
  -6   7   5   -0.27    0.36
   5  -7  -5    1.81    0.47
   5  -7  -5    2.53    0.58
   5  -7  -5    2.33    0.62
   5  -7  -5    1.58    0.55
  -5   7   5    1.91    0.40
  -5   7   5    2.84    0.39
  -5   7   5    1.93    0.59
  -5   7   5    1.75    0.60
  -5   7   5    1.74    0.79
   4  -7  -5   29.29    1.33
   4  -7  -5   30.11    1.38
   4  -7  -5   30.07    1.36
   4  -7  -5   31.14    1.27
  -4   7   5   31.48    1.39
  -4   7   5   30.45    1.58
  -4   7   5   30.08    1.05
  -4   7   5   29.83    1.02
   3  -7  -5   79.15    2.41
   3  -7  -5   81.00    2.32
   3  -7  -5   78.81    2.37
   3  -7  -5   81.50    2.42
  -3   7   5   83.96    2.67
  -3   7   5   80.01    2.41
  -3   7   5   77.03    2.12
  -3   7   5   76.89    2.41
  -3   7   5   77.74    2.10
   2  -7  -5  194.13    5.07
   2  -7  -5  196.13    5.15
   2  -7  -5  193.98    5.13
   2  -7  -5  189.57    5.10
  -2   7   5  198.90    5.16
  -2   7   5  198.73    5.39
  -2   7   5  196.26    5.16
   1  -7  -5  110.14    3.08
   1  -7  -5  115.21    3.04
   1  -7  -5  118.24    3.08
   1  -7  -5  111.78    2.97
   1  -7  -5  111.93    3.06
  -1   7   5  116.16    3.10
  -1   7   5  114.54    3.09
  -1   7   5  114.88    3.34
   0  -7  -5    4.50    0.45
   0  -7  -5    5.65    0.48
   0  -7  -5    5.07    0.47
   0  -7  -5    5.52    0.45
   0  -7  -5    4.18    0.50
   0   7   5    5.55    0.49
   0   7   5    6.80    0.81
  -1  -7  -5   79.14    2.07
  -1  -7  -5   78.40    2.10
  -1  -7  -5   78.85    2.08
  -1  -7  -5   78.21    2.07
  -1  -7  -5   79.05    2.25
  -1  -7  -5   80.19    2.40
   1   7   5   78.48    2.09
   1   7   5   78.76    2.40
   1   7   5   81.75    2.10
   1   7   5   79.65    2.41
  -2  -7  -5  145.73    3.71
  -2  -7  -5  145.65    3.69
  -2  -7  -5  150.78    4.01
  -2  -7  -5  146.42    3.95
   2   7   5  143.95    3.67
   2   7   5  149.60    3.68
   2   7   5  144.21    4.03
  -3  -7  -5    6.19    0.71
  -3  -7  -5    5.10    0.31
  -3  -7  -5    5.68    0.68
  -3  -7  -5    4.61    0.30
   3   7   5    4.88    0.61
  -4  -7  -5   76.86    2.36
  -4  -7  -5   76.64    2.00
  -4  -7  -5   76.12    2.28
  -4  -7  -5   76.53    2.00
   4   7   5   78.06    1.95
   4   7   5   76.30    2.37
   4   7   5   75.74    1.96
  -5  -7  -5    3.96    0.62
  -5  -7  -5    3.01    0.28
  -5  -7  -5    3.01    0.31
  -5  -7  -5    4.07    0.50
  -5  -7  -5    2.33    0.30
  -5  -7  -5    3.16    0.27
   5   7   5    3.33    0.61
   5   7   5    2.92    0.34
   5   7   5    3.09    0.36
  -6  -7  -5    1.45    0.46
  -6  -7  -5    1.95    0.27
  -6  -7  -5    0.96    0.55
  -6  -7  -5    1.76    0.27
  -6  -7  -5    1.67    0.27
  -6  -7  -5    1.61    0.28
   6   7   5    1.68    0.29
   6   7   5    1.25    0.56
   6   7   5    0.76    0.36
  -7  -7  -5    3.33    0.38
  -7  -7  -5    3.16    0.37
  -7  -7  -5    2.99    0.37
  -7  -7  -5    3.02    0.36
   7   7   5    2.57    0.60
   7   7   5    2.89    0.39
   7   7   5    3.03    0.40
  -8  -7  -5    7.80    0.72
  -8  -7  -5    6.66    0.71
  -8  -7  -5    8.16    0.67
  -8  -7  -5    8.10    0.72
   8   7   5    9.04    0.80
   8   7   5    7.34    0.87
   8   7   5    9.64    0.77
  -9  -7  -5    0.85    0.42
  -9  -7  -5    0.73    0.43
  -9  -7  -5    1.19    0.79
  -9  -7  -5    1.63    0.42
  -9  -7  -5    1.08    0.44
   9   7   5    1.21    0.45
   9   7   5    1.29    0.71
 -10  -7  -5    1.32    0.97
 -10  -7  -5   -0.30    0.46
 -10  -7  -5   -0.16    0.49
 -10  -7  -5   -0.08    0.45
 -10  -7  -5    0.33    0.49
  10   7   5    0.06    0.44
  10   7   5    0.02    0.77
   5  -8  -5    1.04    0.61
   5  -8  -5    0.84    0.50
   5  -8  -5    0.90    0.58
   5  -8  -5    0.37    0.59
  -5   8   5    1.95    0.64
  -5   8   5    1.32    0.35
  -5   8   5    0.27    0.61
  -5   8   5    0.67    0.82
   4  -8  -5    3.41    0.60
   4  -8  -5    4.77    0.56
   4  -8  -5    4.39    0.63
   4  -8  -5    3.50    0.59
  -4   8   5    4.87    0.93
  -4   8   5    2.52    0.56
  -4   8   5    4.30    0.46
  -4   8   5    2.95    0.59
   3  -8  -5   81.08    2.50
   3  -8  -5   83.90    2.49
   3  -8  -5   82.18    2.43
   3  -8  -5   84.04    2.52
  -3   8   5   81.37    2.82
  -3   8   5   83.78    2.53
   2  -8  -5    1.58    0.41
   2  -8  -5    1.92    0.41
   2  -8  -5    1.75    0.38
   2  -8  -5    1.09    0.37
  -2   8   5    1.23    0.41
  -2   8   5    1.49    0.41
  -2   8   5    2.52    0.68
   1  -8  -5   -0.31    0.27
   1  -8  -5   -0.28    0.28
   1  -8  -5    0.19    0.24
   1  -8  -5    0.22    0.28
   1  -8  -5    0.18    0.30
  -1   8   5   -0.21    0.31
  -1   8   5   -0.28    0.50
  -1   8   5   -0.35    0.29
   0  -8  -5   25.96    0.90
   0  -8  -5   24.51    0.97
   0  -8  -5   27.82    0.91
   0  -8  -5   26.00    0.89
   0  -8  -5   26.62    0.93
   0   8   5   26.67    1.35
   0   8   5   27.33    0.93
  -1  -8  -5   20.21    1.16
  -1  -8  -5   20.26    0.73
  -1  -8  -5   20.94    0.93
  -1  -8  -5   21.36    0.71
   1   8   5   21.40    0.68
   1   8   5   18.47    1.17
   1   8   5   21.41    0.68
  -2  -8  -5   15.61    0.55
  -2  -8  -5   16.43    1.00
  -2  -8  -5   16.23    0.90
  -2  -8  -5   15.86    0.53
   2   8   5   15.30    1.00
  -3  -8  -5    6.89    0.31
  -3  -8  -5    7.12    0.81
  -3  -8  -5    5.69    0.80
  -3  -8  -5    7.01    0.30
   3   8   5    4.89    0.62
  -4  -8  -5    7.61    0.35
  -4  -8  -5    7.70    0.92
  -4  -8  -5    6.47    0.84
  -4  -8  -5    8.07    0.35
   4   8   5    8.15    0.90
  -5  -8  -5   15.70    1.06
  -5  -8  -5   18.54    1.15
  -5  -8  -5   17.30    0.60
  -5  -8  -5   16.54    0.61
   5   8   5   18.64    1.12
  -6  -8  -5    2.28    0.28
  -6  -8  -5    3.04    0.54
  -6  -8  -5    2.70    0.66
  -6  -8  -5    2.24    0.28
   6   8   5    2.39    0.63
   6   8   5    3.22    0.33
   6   8   5    2.29    0.31
  -7  -8  -5    0.47    0.23
  -7  -8  -5    0.65    0.28
  -7  -8  -5    0.48    0.62
  -7  -8  -5    0.53    0.27
  -7  -8  -5    0.38    0.22
  -7  -8  -5    0.48    0.51
   7   8   5    0.93    0.56
   7   8   5    0.22    0.23
   7   8   5    0.65    0.28
  -8  -8  -5   32.22    1.20
  -8  -8  -5   32.93    1.16
  -8  -8  -5   33.93    1.17
  -8  -8  -5   32.77    1.21
  -8  -8  -5   34.36    1.75
   8   8   5   34.52    1.64
  -9  -8  -5    1.14    0.42
  -9  -8  -5    1.08    0.40
  -9  -8  -5    1.37    0.40
  -9  -8  -5    1.14    0.36
  -9  -8  -5    1.41    0.87
   9   8   5    1.05    0.74
 -10  -8  -5    7.01    1.48
 -10  -8  -5    9.31    0.94
 -10  -8  -5    8.50    0.94
 -10  -8  -5    7.93    0.81
 -10  -8  -5    8.27    0.96
  10   8   5    5.86    0.95
  10   8   5    6.25    0.72
   4  -9  -5   15.93    1.11
   4  -9  -5   16.14    1.21
   4  -9  -5   17.64    1.28
   4  -9  -5   15.84    1.21
  -4   9   5   17.70    1.68
  -4   9   5   16.65    1.28
  -4   9   5   15.25    1.21
   3  -9  -5    0.39    0.46
   3  -9  -5    0.92    0.46
   3  -9  -5    0.66    0.47
   3  -9  -5    0.56    0.50
  -3   9   5    2.32    0.79
  -3   9   5    1.19    0.51
  -3   9   5    0.93    0.46
   2  -9  -5   41.65    1.40
   2  -9  -5   40.54    1.38
   2  -9  -5   37.30    1.41
   2  -9  -5   38.79    1.43
  -2   9   5   33.02    1.38
  -2   9   5   41.07    1.88
   1  -9  -5    0.00    0.31
   1  -9  -5   -0.33    0.33
   1  -9  -5   -0.39    0.30
   1  -9  -5    0.01    0.31
  -1   9   5   -0.04    0.63
  -1   9   5    0.19    0.34
  -1   9   5    0.16    0.33
   0  -9  -5   33.56    1.06
   0  -9  -5   34.39    1.04
   0  -9  -5   34.30    1.11
   0  -9  -5   33.44    1.13
   0  -9  -5   32.97    1.18
   0   9   5   33.94    1.62
   0   9   5   33.68    1.09
   0   9   5   33.93    1.10
  -1  -9  -5    0.03    0.22
  -1  -9  -5   -0.02    0.54
  -1  -9  -5    0.27    0.23
  -1  -9  -5   -0.07    0.34
   1   9   5    0.09    0.15
   1   9   5   -0.01    0.15
   1   9   5    0.15    0.58
  -2  -9  -5    1.50    0.21
  -2  -9  -5    1.57    0.20
  -2  -9  -5    0.92    0.53
  -2  -9  -5    1.60    0.44
  -3  -9  -5   22.34    1.12
  -3  -9  -5   20.60    0.61
  -3  -9  -5   20.37    1.20
   3   9   5   19.40    1.19
  -4  -9  -5   28.38    1.31
  -4  -9  -5   27.00    1.35
   4   9   5   28.67    1.38
  -5  -9  -5   27.19    1.34
  -5  -9  -5   26.28    0.78
  -5  -9  -5   24.88    0.77
  -5  -9  -5   27.79    1.41
   5   9   5   27.80    1.36
  -6  -9  -5    2.55    0.71
  -6  -9  -5    3.04    0.27
  -6  -9  -5    3.42    0.39
  -6  -9  -5    1.88    0.56
   6   9   5    2.63    0.62
  -7  -9  -5   -0.97    0.68
  -7  -9  -5    0.50    0.27
  -7  -9  -5    0.59    0.57
  -7  -9  -5   -0.18    0.26
   7   9   5    0.06    0.65
  -8  -9  -5    0.36    0.62
  -8  -9  -5    0.81    0.32
  -8  -9  -5    0.65    0.33
  -8  -9  -5    1.27    0.76
   8   9   5    0.60    0.67
   8   9   5    0.10    0.20
   8   9   5    0.39    0.29
  -9  -9  -5    1.98    0.88
  -9  -9  -5    2.47    0.45
  -9  -9  -5    2.71    0.38
  -9  -9  -5    2.28    0.75
  -9  -9  -5    2.36    0.45
  -9  -9  -5    2.00    0.34
   9   9   5    1.59    0.82
   9   9   5    2.39    0.43
   3 -10  -5    3.80    0.53
   3 -10  -5    3.51    0.60
   3 -10  -5    3.30    0.65
   3 -10  -5    4.01    0.59
  -3  10   5    3.77    0.67
   2 -10  -5    1.57    0.41
   2 -10  -5    1.13    0.42
   2 -10  -5    1.75    0.45
   2 -10  -5    2.30    0.49
  -2  10   5    1.19    0.86
  -2  10   5    0.23    0.36
  -2  10   5    1.63    0.61
   1 -10  -5    9.82    0.72
   1 -10  -5   11.32    0.78
   1 -10  -5   11.84    0.83
   1 -10  -5   12.10    0.75
  -1  10   5   10.95    0.80
  -1  10   5   11.01    1.43
   0 -10  -5    2.76    0.25
   0 -10  -5    2.59    0.35
   0 -10  -5    2.61    0.38
   0 -10  -5    3.19    0.39
   0  10   5    2.45    0.32
   0  10   5    3.12    0.84
  -1 -10  -5   23.75    0.89
  -1 -10  -5   24.90    0.86
  -1 -10  -5   24.14    1.11
  -1 -10  -5   24.41    1.51
  -2 -10  -5   31.55    0.93
  -2 -10  -5   31.94    1.64
  -2 -10  -5   29.78    0.94
  -2 -10  -5   29.71    1.29
  -3 -10  -5   33.01    1.41
  -3 -10  -5   31.38    0.89
  -3 -10  -5   33.18    1.61
  -3 -10  -5   30.86    0.90
   3  10   5   33.43    1.54
  -4 -10  -5   -0.12    0.54
  -4 -10  -5   -0.44    0.59
   4  10   5   -0.23    0.56
  -5 -10  -5    0.81    0.63
  -5 -10  -5    0.87    0.64
   5  10   5    0.80    0.57
  -6 -10  -5    0.49    0.20
  -6 -10  -5    0.28    0.20
  -6 -10  -5    0.45    0.66
  -6 -10  -5    0.47    0.63
   6  10   5    0.32    0.60
  -7 -10  -5    2.57    0.29
  -7 -10  -5    2.38    0.70
  -7 -10  -5    1.87    0.77
  -7 -10  -5    2.37    0.31
   7  10   5    1.92    0.69
  -8 -10  -5   -0.56    0.74
  -8 -10  -5   -0.64    0.68
  -8 -10  -5   -0.42    0.30
  -8 -10  -5   -0.74    0.30
   8  10   5   -0.81    0.64
   1 -11  -5    5.21    0.57
   1 -11  -5    5.69    0.62
   0 -11  -5    8.13    0.73
   0 -11  -5    7.63    0.78
   0  11   5    9.82    1.16
  -1 -11  -5    1.70    0.86
  -1 -11  -5    2.23    0.52
  -1 -11  -5    1.46    0.32
  -1 -11  -5    2.08    0.37
  -2 -11  -5   15.92    1.50
  -2 -11  -5   16.49    0.70
  -2 -11  -5   16.73    0.67
  -2 -11  -5   14.83    1.09
  -3 -11  -5    5.47    0.38
  -3 -11  -5    5.04    0.69
  -3 -11  -5    5.38    0.39
  -3 -11  -5    6.59    0.94
  -4 -11  -5    7.46    0.95
  -4 -11  -5    4.42    0.75
   4  11   5    4.30    0.80
  -5 -11  -5    3.02    0.78
  -5 -11  -5    4.39    0.87
   5  11   5    3.04    0.75
  -6 -11  -5    0.43    0.74
  -6 -11  -5    0.15    0.72
   6  11   5    0.32    0.68
  -7 -11  -5   12.46    0.57
  -7 -11  -5   11.80    0.61
  -7 -11  -5   10.09    1.46
  -7 -11  -5   16.31    1.54
   7  11   5   12.28    1.41
   6   8  -6   -0.11    0.60
   6   8  -6   -0.12    0.21
   6   8  -6   -0.20    0.78
   6   8  -6   -0.13    0.22
   6   8  -6   -0.18    0.67
  -6  -8   6    0.19    0.52
  -6  -8   6   -0.80    0.58
  -6  -8   6   -0.23    0.90
  -6  -8   6   -0.88    0.51
  -6  -8   6    0.81    0.54
   5   8  -6    2.64    0.68
   5   8  -6    3.18    0.66
   5   8  -6    2.28    0.81
  -5  -8   6    3.02    0.58
  -5  -8   6    2.32    0.58
  -5  -8   6    1.91    0.58
  -5  -8   6    2.00    0.64
  -5  -8   6    2.64    1.03
   4   8  -6    0.47    0.77
   4   8  -6    0.99    0.60
   4   8  -6    1.26    0.58
   4   8  -6    1.14    0.28
  -4  -8   6    2.68    0.97
  -4  -8   6    1.13    0.56
  -4  -8   6    0.85    0.56
  -4  -8   6    1.59    0.60
  -4  -8   6    1.61    0.55
   3   8  -6    6.73    0.77
   3   8  -6    6.90    0.81
   3   8  -6    7.97    0.57
   3   8  -6    7.62    0.94
  -3  -8   6    8.75    1.11
  -3  -8   6    9.66    1.04
  -3  -8   6    8.46    1.05
  -3  -8   6   10.04    1.11
  -3  -8   6   11.62    1.62
   2   8  -6    1.95    0.68
   2   8  -6    2.12    0.34
   2   8  -6    3.45    0.84
   2   8  -6    2.97    0.65
  -2  -8   6    2.92    0.63
  -2  -8   6    1.85    0.57
  -2  -8   6    3.35    0.96
  -2  -8   6    2.29    0.58
  -2  -8   6    1.97    0.60
   1   8  -6    1.49    0.35
   1   8  -6    1.27    0.68
   1   8  -6    0.94    0.73
   1   8  -6    0.16    0.72
  -1  -8   6    0.96    0.60
  -1  -8   6    1.06    0.83
  -1  -8   6    1.22    0.61
  -1  -8   6    1.47    0.57
  -1  -8   6    1.13    0.58
   0   8  -6   -0.31    0.62
   0   8  -6    0.94    0.74
   0   8  -6    0.31    0.33
   0   8  -6   -0.07    0.72
   0   8  -6    0.06    0.32
   0  -8   6    0.01    0.54
   0  -8   6    0.89    0.61
   0  -8   6    0.82    0.89
   0  -8   6    0.06    0.59
   0  -8   6   -0.74    0.65
  -1   8  -6    1.54    0.93
  -1   8  -6    1.68    0.79
  -1   8  -6    2.44    0.77
  -1   8  -6    1.57    0.45
   1  -8   6    2.36    0.71
   1  -8   6    1.96    0.60
   1  -8   6    2.01    0.70
   1  -8   6    1.54    0.77
   8   7  -6    2.25    0.77
   8   7  -6    0.30    0.35
   8   7  -6    1.38    0.40
   8   7  -6    2.99    0.87
   8   7  -6    1.99    0.71
  -8  -7   6    2.22    0.65
  -8  -7   6    1.80    0.66
  -8  -7   6    1.43    0.65
   7   7  -6   -0.02    0.30
   7   7  -6    0.30    0.67
   7   7  -6    0.41    0.61
   7   7  -6   -0.37    0.34
   7   7  -6   -0.25    0.74
  -7  -7   6    0.11    0.55
  -7  -7   6    0.26    0.56
  -7  -7   6   -0.31    0.54
  -7  -7   6    0.50    0.53
   6   7  -6   -0.62    0.53
   6   7  -6   -0.20    0.30
   6   7  -6   -0.17    0.28
   6   7  -6    0.03    0.62
   6   7  -6   -0.42    0.62
  -6  -7   6    0.24    0.51
  -6  -7   6    0.18    0.50
  -6  -7   6   -0.30    0.51
  -6  -7   6   -0.06    0.49
   5   7  -6    8.12    1.11
   5   7  -6    8.53    0.63
   5   7  -6    7.25    0.92
   5   7  -6    5.06    0.68
  -5  -7   6    7.09    0.96
  -5  -7   6    7.22    1.00
  -5  -7   6    6.25    0.66
  -5  -7   6    7.96    0.71
   4   7  -6   27.71    1.40
   4   7  -6   29.75    1.46
   4   7  -6   26.54    1.01
   4   7  -6   29.83    1.55
  -4  -7   6   28.40    1.30
  -4  -7   6   28.04    1.74
  -4  -7   6   27.49    1.40
  -4  -7   6   28.86    1.37
  -4  -7   6   29.32    1.38
   3   7  -6   26.11    1.03
   3   7  -6   25.97    1.49
   3   7  -6   23.99    1.40
   3   7  -6   26.39    0.99
   3   7  -6   26.50    1.37
  -3  -7   6   24.93    1.86
  -3  -7   6   25.69    1.37
  -3  -7   6   25.92    1.32
  -3  -7   6   29.54    1.33
  -3  -7   6   28.53    1.31
   2   7  -6    0.81    0.52
   2   7  -6   -0.32    0.49
   2   7  -6   -0.34    0.34
   2   7  -6    0.39    0.31
   2   7  -6    0.21    0.59
  -2  -7   6   -0.04    0.46
  -2  -7   6    0.08    0.54
  -2  -7   6    0.20    0.50
  -2  -7   6    0.94    0.52
   1   7  -6    0.06    0.31
   1   7  -6    0.45    0.55
   1   7  -6    0.01    0.38
   1   7  -6   -0.60    0.64
   1   7  -6   -0.12    0.49
  -1  -7   6    0.55    0.50
  -1  -7   6   -0.53    0.47
  -1  -7   6   -0.01    0.48
  -1  -7   6   -0.72    0.46
   0   7  -6    2.95    0.72
   0   7  -6    2.38    0.41
   0   7  -6    2.09    0.46
   0   7  -6    3.94    0.74
   0   7  -6    2.14    0.69
   0  -7   6    2.78    0.60
   0  -7   6    2.31    0.61
   0  -7   6    2.05    0.66
   0  -7   6    2.14    0.55
  -1   7  -6    0.06    0.40
  -1   7  -6   -0.80    0.42
  -1   7  -6   -0.62    0.61
  -1   7  -6   -0.67    0.60
  -1   7  -6    0.03    0.65
   1  -7   6   -0.71    0.58
   1  -7   6   -0.61    0.50
   1  -7   6   -0.37    0.50
   1  -7   6    0.70    0.57
   1  -7   6   -0.81    0.69
  -2   7  -6    1.93    0.69
  -2   7  -6    1.42    0.47
  -2   7  -6    1.12    0.53
  -2   7  -6    1.44    0.71
  -2   7  -6    1.73    0.77
   2  -7   6    1.73    0.67
   2  -7   6    1.97    0.69
   2  -7   6    0.57    0.80
   2  -7   6    1.96    0.79
   2  -7   6    1.96    0.64
  -3   7  -6   12.14    1.54
  -3   7  -6   10.05    1.23
  -3   7  -6    8.72    0.97
   3  -7   6    7.99    0.89
   3  -7   6    8.08    0.92
   3  -7   6    7.46    0.93
   3  -7   6    8.12    1.14
   8   6  -6    0.05    0.39
   8   6  -6    0.36    0.72
   8   6  -6   -0.04    0.72
   8   6  -6   -0.58    0.61
   8   6  -6   -0.08    0.41
  -8  -6   6    0.48    0.55
  -8  -6   6   -0.12    0.57
  -8  -6   6    0.08    0.51
   7   6  -6    2.16    0.66
   7   6  -6    2.14    0.41
   7   6  -6    1.73    0.67
   7   6  -6    1.65    0.60
  -7  -6   6    1.13    0.53
  -7  -6   6    1.08    0.55
  -7  -6   6    1.14    0.48
  -7  -6   6    1.37    0.59
   6   6  -6    7.37    0.77
   6   6  -6    6.47    0.77
   6   6  -6    6.84    0.69
   6   6  -6    7.74    1.08
   6   6  -6    4.88    0.53
  -6  -6   6    5.86    0.62
  -6  -6   6    7.90    0.97
  -6  -6   6    5.85    0.64
  -6  -6   6    7.31    0.95
   5   6  -6    7.80    1.08
   5   6  -6    7.22    0.73
   5   6  -6    8.32    0.73
   5   6  -6    7.29    0.65
  -5  -6   6    6.73    0.83
  -5  -6   6    7.15    0.92
  -5  -6   6    6.56    0.64
  -5  -6   6    7.55    0.92
   4   6  -6    0.73    0.58
   4   6  -6    0.59    0.36
   4   6  -6    0.63    0.51
   4   6  -6    0.45    0.32
  -4  -6   6   -0.24    0.37
  -4  -6   6    1.12    0.49
  -4  -6   6   -0.03    0.44
  -4  -6   6   -0.02    0.47
   3   6  -6   12.58    1.13
   3   6  -6   12.20    0.81
   3   6  -6   12.94    0.76
   3   6  -6   12.60    1.05
  -3  -6   6   13.39    1.04
  -3  -6   6   13.39    0.97
  -3  -6   6   13.92    1.25
  -3  -6   6   13.56    0.92
  -3  -6   6   13.43    0.98
   2   6  -6   11.68    0.79
   2   6  -6   11.92    0.73
   2   6  -6   10.50    1.06
   2   6  -6   10.71    1.02
  -2  -6   6   11.00    0.96
  -2  -6   6   10.61    0.97
  -2  -6   6   11.35    1.04
  -2  -6   6   10.58    0.92
  -2  -6   6    9.77    1.18
   1   6  -6   10.20    0.74
   1   6  -6   10.68    1.05
   1   6  -6    9.77    0.79
   1   6  -6   10.34    1.06
  -1  -6   6   10.84    1.01
  -1  -6   6   10.83    0.97
  -1  -6   6   10.73    1.03
  -1  -6   6   11.83    1.19
  -1  -6   6   11.05    0.94
   0   6  -6    0.06    0.39
   0   6  -6   -0.15    0.33
   0   6  -6   -0.26    0.50
   0   6  -6   -0.17    0.52
   0  -6   6    0.55    0.42
   0  -6   6    0.31    0.49
   0  -6   6    0.35    0.42
   0  -6   6    0.49    0.47
   0  -6   6    0.79    0.63
  -1   6  -6    3.09    0.65
  -1   6  -6    4.91    0.53
  -1   6  -6    4.71    0.51
  -1   6  -6    4.04    0.67
   1  -6   6    3.79    0.62
   1  -6   6    2.69    0.63
   1  -6   6    3.42    0.53
   1  -6   6    3.18    0.57
   1  -6   6    5.30    0.80
  -2   6  -6    3.47    0.68
  -2   6  -6    4.77    0.67
  -2   6  -6    2.99    0.94
  -2   6  -6    3.79    0.56
  -2   6  -6    3.37    0.51
   2  -6   6    4.80    0.73
   2  -6   6    3.09    0.58
   2  -6   6    4.06    0.75
   2  -6   6    4.08    0.66
   2  -6   6    2.80    0.71
  -3   6  -6    5.47    0.86
  -3   6  -6    6.51    0.90
  -3   6  -6    6.10    0.62
   3  -6   6    5.12    0.73
   3  -6   6    5.13    0.80
   3  -6   6    6.65    0.83
  -4   6  -6    4.23    0.88
  -4   6  -6    4.15    0.90
  -4   6  -6    4.64    0.62
  -4   6  -6    5.27    0.70
   4  -6   6    5.86    0.86
   4  -6   6    5.66    0.96
   4  -6   6    5.74    0.84
   4  -6   6    5.20    0.80
   9   5  -6    1.81    0.79
   9   5  -6    1.84    0.72
   9   5  -6    1.45    0.57
   9   5  -6    1.02    0.77
   9   5  -6    2.05    0.54
  -9  -5   6    2.63    0.80
  -9  -5   6    1.84    0.63
  -9  -5   6    1.11    0.65
  -9  -5   6    2.02    0.64
   8   5  -6    1.58    0.52
   8   5  -6    0.60    0.62
   8   5  -6    0.95    0.46
   8   5  -6    0.46    0.68
   8   5  -6    1.33    0.63
  -8  -5   6    1.26    0.58
  -8  -5   6    1.86    0.66
  -8  -5   6    1.49    0.57
   7   5  -6    1.17    0.42
   7   5  -6    1.72    0.59
   7   5  -6    0.88    0.60
   7   5  -6    1.42    0.47
   7   5  -6    1.13    0.62
  -7  -5   6    1.21    0.51
  -7  -5   6    0.50    0.55
  -7  -5   6    1.56    0.55
  -7  -5   6    0.94    0.52
   6   5  -6    3.52    0.51
   6   5  -6    3.30    0.45
   6   5  -6    2.21    0.57
   6   5  -6    3.38    0.62
  -6  -5   6    3.90    0.59
  -6  -5   6    2.50    0.48
  -6  -5   6    3.46    0.56
  -6  -5   6    4.37    0.59
   5   5  -6   20.04    1.21
   5   5  -6   16.76    1.08
   5   5  -6   18.67    0.90
   5   5  -6   18.71    1.20
  -5  -5   6   20.46    1.09
  -5  -5   6   19.18    1.13
  -5  -5   6   20.41    1.16
  -5  -5   6   20.64    1.03
   4   5  -6    2.43    0.56
   4   5  -6    1.09    0.42
   4   5  -6    2.86    0.40
   4   5  -6    3.36    0.63
   4   5  -6    2.15    0.57
  -4  -5   6    2.25    0.48
  -4  -5   6    2.45    0.45
  -4  -5   6    2.09    0.50
  -4  -5   6    2.39    0.54
   3   5  -6  148.76    3.83
   3   5  -6  140.40    4.04
   3   5  -6  140.76    4.04
   3   5  -6  143.88    4.09
   3   5  -6  143.93    3.85
  -3  -5   6  143.13    3.91
  -3  -5   6  144.27    4.02
  -3  -5   6  139.59    4.03
  -3  -5   6  147.49    3.97
   2   5  -6   82.25    2.52
   2   5  -6   81.15    2.33
   2   5  -6   79.02    2.28
   2   5  -6   77.88    2.50
   2   5  -6   81.49    2.55
  -2  -5   6   80.77    2.52
  -2  -5   6   77.77    2.38
  -2  -5   6   78.06    2.44
  -2  -5   6   81.11    2.50
  -2  -5   6   80.95    2.60
   1   5  -6   21.66    1.23
   1   5  -6   23.06    1.25
   1   5  -6   23.40    1.05
   1   5  -6   25.31    1.01
   1   5  -6   24.07    1.25
  -1  -5   6   22.77    1.22
  -1  -5   6   23.98    1.14
  -1  -5   6   26.00    1.31
  -1  -5   6   23.65    1.25
  -1  -5   6   23.82    1.17
   0   5  -6    0.77    0.55
   0   5  -6    0.70    0.36
   0   5  -6    0.73    0.41
   0   5  -6    0.77    0.52
   0  -5   6    0.40    0.43
   0  -5   6    0.66    0.50
   0  -5   6   -0.15    0.45
   0  -5   6    0.65    0.41
   0  -5   6    0.42    0.47
  -1   5  -6    2.64    0.43
  -1   5  -6    4.08    0.49
  -1   5  -6    2.52    0.57
   1  -5   6    3.46    0.57
   1  -5   6    2.72    0.58
   1  -5   6    2.68    0.59
   1  -5   6    1.71    0.47
   1  -5   6    2.53    0.58
  -2   5  -6    6.92    0.62
  -2   5  -6    8.95    1.11
  -2   5  -6    8.42    0.81
   2  -5   6    7.71    0.99
   2  -5   6    6.82    0.66
   2  -5   6    7.73    0.99
   2  -5   6    6.52    0.76
   2  -5   6    5.52    0.60
  -3   5  -6   -0.57    0.60
  -3   5  -6    0.45    0.44
  -3   5  -6   -0.21    0.47
   3  -5   6    0.11    0.57
   3  -5   6   -0.26    0.49
   3  -5   6   -0.20    0.51
   3  -5   6    0.00    0.62
  -4   5  -6    2.55    0.73
  -4   5  -6    1.93    0.67
  -4   5  -6    1.68    0.51
  -4   5  -6    1.96    0.76
   4  -5   6    1.58    0.66
   4  -5   6    2.32    0.64
   4  -5   6    1.86    0.59
   4  -5   6    1.47    0.71
  -5   5  -6   13.17    1.30
  -5   5  -6   12.46    1.58
  -5   5  -6   14.23    1.26
  -5   5  -6   10.24    1.10
  -5   5  -6   11.37    1.50
   5  -5   6   13.24    1.40
   5  -5   6   13.25    1.44
   5  -5   6   11.67    1.33
   5  -5   6    9.31    1.07
   9   4  -6    0.68    0.52
   9   4  -6    2.30    0.72
   9   4  -6    1.56    0.41
   9   4  -6    2.12    0.83
  -9  -4   6    1.91    0.61
  -9  -4   6    1.06    0.65
  -9  -4   6    1.30    0.56
  -9  -4   6    1.92    0.69
   8   4  -6   16.06    1.22
   8   4  -6   14.08    1.33
   8   4  -6   13.98    1.02
   8   4  -6   14.03    0.66
   8   4  -6   14.75    1.06
  -8  -4   6   14.66    1.11
  -8  -4   6   14.38    1.15
  -8  -4   6   16.51    1.29
   7   4  -6   -0.19    0.43
   7   4  -6   -0.12    0.41
   7   4  -6    1.13    0.58
   7   4  -6    0.64    0.58
  -7  -4   6    0.04    0.57
  -7  -4   6    0.26    0.47
  -7  -4   6   -0.15    0.42
  -7  -4   6    0.53    0.54
   6   4  -6    8.90    0.78
   6   4  -6    8.48    0.97
   6   4  -6    8.11    1.01
  -6  -4   6    8.46    0.99
  -6  -4   6    9.15    0.97
  -6  -4   6    8.43    0.86
  -6  -4   6    8.77    0.90
   5   4  -6   10.34    1.36
   5   4  -6   11.73    0.78
   5   4  -6   10.35    0.96
   5   4  -6   11.41    0.83
   5   4  -6   10.37    0.99
  -5  -4   6   10.35    0.90
  -5  -4   6   11.37    0.95
  -5  -4   6   12.33    0.83
  -5  -4   6   10.86    0.97
   4   4  -6    3.60    0.46
   4   4  -6    3.52    0.56
   4   4  -6    3.76    0.56
   4   4  -6    3.93    0.42
   4   4  -6    3.89    0.57
  -4  -4   6    3.92    0.53
  -4  -4   6    3.72    0.48
  -4  -4   6    3.18    0.40
  -4  -4   6    2.72    0.49
   3   4  -6   10.11    0.71
   3   4  -6    9.77    0.89
   3   4  -6    9.82    0.89
   3   4  -6    9.41    0.89
  -3  -4   6    8.85    0.72
  -3  -4   6    9.70    0.86
  -3  -4   6    9.82    0.84
  -3  -4   6    8.74    0.85
   2   4  -6  139.38    3.85
   2   4  -6  135.81    3.85
   2   4  -6  133.63    3.70
   2   4  -6  136.64    3.67
   2   4  -6  137.96    3.86
  -2  -4   6  138.24    3.73
  -2  -4   6  139.99    3.77
  -2  -4   6  137.98    3.87
  -2  -4   6  141.05    3.86
  -2  -4   6  136.78    3.84
   1   4  -6   21.99    1.12
   1   4  -6   20.30    1.12
   1   4  -6   23.41    1.15
   1   4  -6   21.78    0.93
   1   4  -6   21.86    0.99
  -1  -4   6   20.08    1.11
  -1  -4   6   24.25    1.15
  -1  -4   6   19.96    1.00
  -1  -4   6   23.00    1.06
  -1  -4   6   21.15    1.11
   0   4  -6   46.38    1.67
   0   4  -6   46.51    1.49
   0   4  -6   45.46    1.69
   0   4  -6   44.42    1.52
   0  -4   6   45.17    1.69
   0  -4   6   46.99    1.60
   0  -4   6   45.41    1.65
   0  -4   6   45.84    1.56
   0  -4   6   44.69    1.66
  -1   4  -6    9.19    0.80
  -1   4  -6    9.63    0.95
  -1   4  -6    9.86    0.76
  -1   4  -6    9.15    0.97
   1  -4   6    8.45    0.94
   1  -4   6    9.86    0.86
   1  -4   6   10.12    0.96
   1  -4   6    9.65    0.85
   1  -4   6    8.94    0.81
  -2   4  -6   15.24    1.15
  -2   4  -6   12.57    0.91
  -2   4  -6   13.42    0.89
   2  -4   6   15.45    0.97
   2  -4   6   14.54    1.00
   2  -4   6   13.42    1.05
   2  -4   6   12.92    1.09
   2  -4   6   12.88    0.95
  -3   4  -6    8.65    1.11
  -3   4  -6    7.56    0.87
  -3   4  -6    7.08    0.85
   3  -4   6    9.50    0.99
   3  -4   6    7.37    1.02
   3  -4   6    8.01    0.92
   3  -4   6    6.10    0.74
  -4   4  -6   18.68    1.12
  -4   4  -6   17.58    1.39
  -4   4  -6   19.91    1.20
  -4   4  -6   19.76    1.39
   4  -4   6   20.00    1.24
   4  -4   6   18.40    1.21
   4  -4   6   20.27    1.34
   4  -4   6   19.74    1.38
  -5   4  -6   -0.21    0.56
  -5   4  -6   -0.33    0.57
  -5   4  -6    0.34    0.70
  -5   4  -6   -0.04    0.51
  -5   4  -6   -1.12    0.67
   5  -4   6   -0.59    0.56
   5  -4   6   -1.40    0.58
   5  -4   6    0.37    0.58
   5  -4   6   -1.08    0.57
  -6   4  -6    7.82    0.83
  -6   4  -6    7.26    0.95
  -6   4  -6   11.41    1.20
  -6   4  -6   11.23    1.21
  -6   4  -6    8.46    1.06
   6  -4   6   10.42    1.11
   6  -4   6    9.62    0.99
   6  -4   6   10.38    1.42
   6  -4   6   11.60    1.29
  10   3  -6    1.23    0.61
  10   3  -6    1.75    0.75
  10   3  -6    1.95    0.86
 -10  -3   6    1.01    0.84
 -10  -3   6    2.86    0.88
 -10  -3   6    1.93    0.68
 -10  -3   6    2.23    0.71
   9   3  -6   12.84    1.38
   9   3  -6   10.82    1.39
   9   3  -6   11.71    1.06
  -9  -3   6   11.37    1.18
  -9  -3   6   12.39    1.18
  -9  -3   6   11.13    1.37
  -9  -3   6   12.22    1.30
   8   3  -6   21.64    1.26
   8   3  -6   21.45    1.42
   8   3  -6   21.57    1.16
   8   3  -6   21.11    1.21
  -8  -3   6   20.13    1.23
  -8  -3   6   22.10    1.37
  -8  -3   6   19.40    1.21
  -8  -3   6   20.75    1.39
   7   3  -6    7.16    0.50
   7   3  -6    5.92    0.61
   7   3  -6    7.16    0.73
   7   3  -6    5.53    0.58
   7   3  -6    6.50    0.78
  -7  -3   6    5.99    0.59
  -7  -3   6    4.85    0.57
  -7  -3   6    5.65    0.73
  -7  -3   6    7.31    1.01
   6   3  -6  104.09    3.15
   6   3  -6  108.78    3.07
   6   3  -6  109.16    3.25
   6   3  -6  109.11    3.04
  -6  -3   6  109.98    3.23
  -6  -3   6  106.20    3.22
  -6  -3   6  107.76    3.07
  -6  -3   6  110.08    3.15
   5   3  -6   13.66    0.92
   5   3  -6   13.32    0.81
   5   3  -6   12.99    0.86
   5   3  -6   14.07    0.98
   5   3  -6   13.24    1.03
  -5  -3   6   13.43    1.00
  -5  -3   6   12.46    0.83
  -5  -3   6   12.21    0.91
  -5  -3   6   14.08    0.98
   4   3  -6    9.33    0.84
   4   3  -6   10.48    0.81
   4   3  -6   10.50    0.76
   4   3  -6   10.23    0.72
   4   3  -6    9.89    0.88
  -4  -3   6    9.60    0.87
  -4  -3   6    9.97    0.84
  -4  -3   6    9.38    0.79
  -4  -3   6    9.06    0.73
   3   3  -6    0.44    0.39
   3   3  -6    0.58    0.41
   3   3  -6    0.23    0.30
   3   3  -6    0.49    0.32
   3   3  -6    0.16    0.37
  -3  -3   6    0.21    0.36
  -3  -3   6    0.62    0.32
  -3  -3   6    0.36    0.36
  -3  -3   6    0.43    0.34
   2   3  -6   11.10    0.66
   2   3  -6   11.18    0.83
   2   3  -6    9.92    0.81
   2   3  -6   11.68    0.80
  -2  -3   6   10.46    0.80
  -2  -3   6   11.38    0.75
  -2  -3   6   11.08    0.83
  -2  -3   6   11.13    0.68
   1   3  -6   54.29    1.61
   1   3  -6   52.74    1.76
   1   3  -6   55.13    1.65
   1   3  -6   50.73    1.75
  -1  -3   6   53.66    1.76
  -1  -3   6   51.95    1.77
  -1  -3   6   52.85    1.68
  -1  -3   6   51.83    1.71
  -1  -3   6   52.00    1.65
   0   3  -6   33.22    1.31
   0   3  -6   33.41    1.19
   0   3  -6   32.14    1.31
   0   3  -6   32.97    1.15
   0  -3   6   32.00    1.32
   0  -3   6   32.11    1.30
   0  -3   6   32.52    1.24
   0  -3   6   34.06    1.23
   0  -3   6   31.34    1.18
  -1   3  -6    1.67    0.39
  -1   3  -6    1.97    0.47
  -1   3  -6    1.73    0.42
  -1   3  -6    1.18    0.32
   1  -3   6    1.12    0.40
   1  -3   6    1.13    0.43
   1  -3   6    1.64    0.39
   1  -3   6    1.45    0.43
   1  -3   6    1.31    0.40
  -2   3  -6   12.77    0.84
  -2   3  -6   10.84    0.97
  -2   3  -6   13.66    1.03
  -2   3  -6   11.72    0.78
   2  -3   6   10.95    0.78
   2  -3   6   11.35    0.95
   2  -3   6   11.03    0.88
   2  -3   6   11.95    0.84
   2  -3   6   11.60    0.94
  -3   3  -6   13.12    1.06
  -3   3  -6   10.61    1.03
  -3   3  -6   11.61    0.87
  -3   3  -6   13.08    0.90
   3  -3   6   11.97    0.93
   3  -3   6   11.85    1.07
   3  -3   6   11.49    0.84
   3  -3   6    9.78    0.97
  -4   3  -6   45.45    1.93
  -4   3  -6   50.34    1.75
  -4   3  -6   48.22    1.92
  -4   3  -6   48.89    1.73
  -4   3  -6   49.96    1.74
   4  -3   6   51.67    1.83
   4  -3   6   50.48    1.93
   4  -3   6   49.60    1.94
  -5   3  -6    0.67    0.64
  -5   3  -6    0.93    0.63
  -5   3  -6    1.19    0.52
  -5   3  -6    1.36    0.50
   5  -3   6   -0.03    0.63
   5  -3   6    0.53    0.58
   5  -3   6    0.71    0.53
  -6   3  -6   20.74    1.29
  -6   3  -6   22.62    1.56
  -6   3  -6   23.98    1.60
  -6   3  -6   23.16    1.35
  -6   3  -6   22.69    1.30
   6  -3   6   22.36    1.54
   6  -3   6   22.41    1.41
   6  -3   6   22.03    1.59
  -7   3  -6   -0.14    0.69
  -7   3  -6    0.35    0.79
  -7   3  -6    0.47    0.61
  -7   3  -6    0.08    0.62
  -7   3  -6    0.17    0.75
   7  -3   6    0.42    0.77
   7  -3   6    0.71    0.87
   7  -3   6   -0.44    0.66
   7  -3   6   -0.04    0.71
  10   2  -6    5.25    0.94
  10   2  -6    5.38    0.83
  10   2  -6    5.09    0.96
  10   2  -6    5.58    0.73
 -10  -2   6    5.61    0.84
 -10  -2   6    5.82    0.98
 -10  -2   6    4.90    0.80
 -10  -2   6    7.27    1.01
   9   2  -6   10.53    1.08
   9   2  -6    7.55    0.94
   9   2  -6    9.93    1.35
   9   2  -6    9.56    1.19
  -9  -2   6    9.65    1.30
  -9  -2   6    9.04    1.12
  -9  -2   6   10.67    1.16
  -9  -2   6    7.82    0.90
   8   2  -6    0.76    0.48
   8   2  -6    1.66    0.51
   8   2  -6    0.08    0.58
   8   2  -6    0.37    0.62
   8   2  -6    0.26    0.61
  -8  -2   6    1.37    0.63
  -8  -2   6    0.89    0.64
  -8  -2   6    0.79    0.44
  -8  -2   6    1.12    0.50
   7   2  -6   23.30    1.35
   7   2  -6   18.64    1.28
   7   2  -6   23.11    1.13
   7   2  -6   21.94    1.12
   7   2  -6   21.47    1.20
  -7  -2   6   20.71    1.11
  -7  -2   6   20.84    1.29
  -7  -2   6   21.89    1.18
   6   2  -6   20.42    1.20
   6   2  -6   17.81    1.15
   6   2  -6   16.35    1.00
   6   2  -6   17.83    0.97
   6   2  -6   18.14    0.98
  -6  -2   6   18.52    0.98
  -6  -2   6   16.90    1.13
  -6  -2   6   17.33    1.15
  -6  -2   6   16.79    1.02
   5   2  -6   11.86    0.93
   5   2  -6   12.70    0.79
   5   2  -6   11.15    0.95
   5   2  -6   13.24    0.83
   5   2  -6   13.12    0.84
  -5  -2   6   12.02    0.94
  -5  -2   6   11.52    0.79
  -5  -2   6   11.76    0.94
  -5  -2   6   10.83    0.86
   4   2  -6    1.81    0.46
   4   2  -6    1.58    0.40
   4   2  -6    1.67    0.37
   4   2  -6    1.43    0.34
   4   2  -6    1.33    0.41
  -4  -2   6    1.61    0.42
  -4  -2   6    1.80    0.43
  -4  -2   6    1.74    0.37
  -4  -2   6    1.68    0.36
   3   2  -6    0.07    0.33
   3   2  -6    0.18    0.30
   3   2  -6    0.04    0.36
   3   2  -6    0.12    0.35
   3   2  -6    0.21    0.27
  -3  -2   6    0.06    0.33
  -3  -2   6    0.05    0.24
  -3  -2   6    0.31    0.35
  -3  -2   6    0.27    0.35
   2   2  -6   32.23    1.23
   2   2  -6   30.03    1.15
   2   2  -6   30.09    1.21
   2   2  -6   30.47    1.12
   2   2  -6   31.92    1.09
  -2  -2   6   29.93    1.19
  -2  -2   6   32.71    1.22
  -2  -2   6   31.28    1.15
  -2  -2   6   30.10    1.09
   1   2  -6    0.10    0.25
   1   2  -6    0.11    0.37
   1   2  -6    0.65    0.35
  -1  -2   6   -0.18    0.30
  -1  -2   6   -0.01    0.16
  -1  -2   6    0.07    0.34
  -1  -2   6    0.28    0.34
  -1  -2   6   -0.04    0.26
   0   2  -6    4.43    0.51
   0   2  -6    3.34    0.37
   0   2  -6    4.14    0.40
   0   2  -6    3.48    0.46
   0  -2   6    4.17    0.52
   0  -2   6    3.57    0.39
   0  -2   6    2.58    0.43
   0  -2   6    3.76    0.40
   0  -2   6    3.42    0.44
  -1   2  -6   22.01    0.91
  -1   2  -6   21.75    0.94
  -1   2  -6   20.77    1.01
  -1   2  -6   22.24    1.05
   1  -2   6   23.78    1.07
   1  -2   6   22.32    0.89
   1  -2   6   21.80    0.96
   1  -2   6   22.45    0.93
   1  -2   6   21.27    1.07
  -2   2  -6   17.56    0.84
  -2   2  -6   16.86    1.00
  -2   2  -6   16.40    0.87
  -2   2  -6   16.01    0.96
   2  -2   6   17.42    0.95
   2  -2   6   16.67    0.86
   2  -2   6   15.98    0.99
   2  -2   6   16.81    0.78
   2  -2   6   16.45    0.88
  -3   2  -6    0.49    0.45
  -3   2  -6    0.52    0.37
  -3   2  -6    0.32    0.38
  -3   2  -6    0.40    0.43
  -3   2  -6   -0.02    0.34
   3  -2   6    1.01    0.49
   3  -2   6    0.78    0.40
   3  -2   6   -0.08    0.41
   3  -2   6    0.61    0.39
  -4   2  -6    0.01    0.49
  -4   2  -6    0.22    0.52
  -4   2  -6    0.14    0.44
  -4   2  -6    0.70    0.40
  -4   2  -6    0.09    0.36
   4  -2   6   -0.23    0.38
   4  -2   6    0.55    0.48
   4  -2   6   -0.20    0.47
  -5   2  -6    4.40    0.71
  -5   2  -6    4.69    0.73
  -5   2  -6    4.16    0.53
  -5   2  -6    4.79    0.60
  -5   2  -6    4.31    0.55
   5  -2   6    4.37    0.70
   5  -2   6    6.17    0.78
   5  -2   6    6.25    0.69
  -6   2  -6    2.99    0.56
  -6   2  -6    3.52    0.76
  -6   2  -6    3.42    0.70
  -6   2  -6    4.28    0.61
   6  -2   6    2.31    0.63
   6  -2   6    3.51    0.79
   6  -2   6    2.95    0.67
  -7   2  -6   10.14    1.37
  -7   2  -6    9.34    1.01
  -7   2  -6    7.31    0.75
  -7   2  -6   10.71    1.36
  -7   2  -6    8.41    0.84
   7  -2   6    7.48    0.93
   7  -2   6    8.09    0.82
   7  -2   6    6.98    0.91
   7  -2   6    8.70    0.87
  -8   2  -6    2.56    0.68
  -8   2  -6    3.05    0.70
  -8   2  -6    2.18    0.88
  -8   2  -6    1.68    0.84
  -8   2  -6    4.10    0.81
   8  -2   6    3.89    0.92
   8  -2   6    1.52    0.82
   8  -2   6    3.03    0.70
   8  -2   6    3.60    0.85
  10   1  -6    1.66    0.90
  10   1  -6    0.99    0.87
  10   1  -6    1.30    0.64
  10   1  -6    1.07    0.74
 -10  -1   6    0.60    0.64
 -10  -1   6   -0.17    0.69
 -10  -1   6    0.38    0.82
 -10  -1   6   -0.25    0.77
   9   1  -6   15.91    1.47
   9   1  -6   17.96    1.52
   9   1  -6   17.26    1.36
   9   1  -6   15.61    1.23
  -9  -1   6   18.32    1.29
  -9  -1   6   17.09    1.30
  -9  -1   6   17.71    1.49
  -9  -1   6   17.92    1.47
   8   1  -6   13.96    1.09
   8   1  -6   15.47    1.29
   8   1  -6   15.74    1.32
  -8  -1   6   15.73    1.29
  -8  -1   6   16.81    1.29
  -8  -1   6   13.28    1.12
   7   1  -6   27.56    1.30
   7   1  -6   27.34    1.22
   7   1  -6   24.63    1.42
   7   1  -6   26.07    1.15
   7   1  -6   27.15    1.44
  -7  -1   6   24.36    1.25
  -7  -1   6   27.22    1.40
  -7  -1   6   26.08    1.42
   6   1  -6    1.31    0.43
   6   1  -6    1.68    0.42
   6   1  -6    2.29    0.55
   6   1  -6    1.91    0.48
   6   1  -6    1.36    0.51
  -6  -1   6    2.42    0.50
  -6  -1   6    2.01    0.53
  -6  -1   6    2.01    0.46
  -6  -1   6    1.56    0.52
   5   1  -6    3.40    0.44
   5   1  -6    3.69    0.53
   5   1  -6    3.11    0.41
   5   1  -6    3.94    0.58
   5   1  -6    4.29    0.50
  -5  -1   6    3.34    0.51
  -5  -1   6    3.76    0.52
  -5  -1   6    3.49    0.41
  -5  -1   6    3.12    0.44
   4   1  -6   16.21    0.96
   4   1  -6   16.37    0.81
   4   1  -6   15.24    0.91
   4   1  -6   16.86    0.86
   4   1  -6   15.80    0.80
  -4  -1   6   14.92    0.79
  -4  -1   6   15.11    0.93
  -4  -1   6   16.29    0.92
  -4  -1   6   15.89    0.86
   3   1  -6   99.16    2.79
   3   1  -6   96.78    2.65
   3   1  -6   97.56    2.69
   3   1  -6   97.29    2.69
   3   1  -6   97.96    2.78
  -3  -1   6   95.10    2.65
  -3  -1   6   95.41    2.77
  -3  -1   6   91.89    2.76
  -3  -1   6   95.45    2.69
   2   1  -6    0.58    0.29
   2   1  -6    0.21    0.35
   2   1  -6    0.30    0.28
   2   1  -6    0.41    0.34
  -2  -1   6    0.51    0.35
  -2  -1   6    0.48    0.30
  -2  -1   6    0.08    0.22
  -2  -1   6   -0.03    0.32
   1   1  -6   11.50    0.69
   1   1  -6   10.97    0.63
   1   1  -6   10.91    0.74
   1   1  -6   12.14    0.77
  -1  -1   6   11.55    0.69
  -1  -1   6   11.06    0.62
  -1  -1   6   11.98    0.43
  -1  -1   6   10.42    0.74
  -1  -1   6   11.25    0.74
   0   1  -6    2.26    0.32
   0   1  -6    2.51    0.41
   0   1  -6    2.00    0.38
   0  -1   6    2.91    0.39
   0  -1   6    2.67    0.35
   0  -1   6    3.03    0.45
   0  -1   6    1.89    0.38
   0  -1   6    3.04    0.32
  -1   1  -6  129.04    3.51
  -1   1  -6  124.99    3.60
  -1   1  -6  126.51    3.49
  -1   1  -6  135.88    3.62
   1  -1   6  131.99    3.53
   1  -1   6  130.54    3.43
   1  -1   6  132.34    3.62
   1  -1   6  132.71    3.61
   1  -1   6  136.07    3.52
  -2   1  -6    0.63    0.40
  -2   1  -6    0.50    0.38
  -2   1  -6    0.30    0.31
  -2   1  -6    0.17    0.29
   2  -1   6    0.68    0.23
   2  -1   6    0.03    0.29
   2  -1   6    0.62    0.28
   2  -1   6    0.21    0.37
   2  -1   6    0.40    0.37
  -3   1  -6   71.39    2.20
  -3   1  -6   68.61    2.06
  -3   1  -6   67.63    2.17
  -3   1  -6   67.04    2.04
   3  -1   6   68.10    2.07
   3  -1   6   70.23    2.18
   3  -1   6   68.20    2.17
   3  -1   6   67.95    2.05
  -4   1  -6    9.79    0.68
  -4   1  -6   11.56    0.99
  -4   1  -6   11.40    0.83
  -4   1  -6   11.06    0.99
  -4   1  -6   11.85    0.85
   4  -1   6   11.31    0.97
   4  -1   6   10.32    0.97
   4  -1   6   10.66    0.82
  -5   1  -6   34.80    1.47
  -5   1  -6   40.69    1.66
  -5   1  -6   40.25    1.49
  -5   1  -6   38.33    1.36
  -5   1  -6   39.07    1.64
   5  -1   6   34.28    1.51
   5  -1   6   40.65    1.64
   5  -1   6   39.72    1.50
   5  -1   6   41.53    1.67
  -6   1  -6   12.71    0.97
  -6   1  -6   10.68    1.15
  -6   1  -6   11.63    0.85
  -6   1  -6   12.59    1.18
   6  -1   6    9.81    1.13
   6  -1   6    9.32    0.93
   6  -1   6   10.73    1.19
   6  -1   6   10.39    1.01
  -7   1  -6    1.70    0.54
  -7   1  -6    1.16    0.54
  -7   1  -6    1.25    0.66
  -7   1  -6    1.36    0.68
   7  -1   6    1.22    0.60
   7  -1   6    0.46    0.55
   7  -1   6    2.06    0.73
   7  -1   6    1.66    0.70
  -8   1  -6    2.17    0.86
  -8   1  -6    1.69    0.59
  -8   1  -6    1.73    0.57
  -8   1  -6    2.65    0.82
  -8   1  -6    2.71    0.74
   8  -1   6    2.09    0.70
   8  -1   6    1.53    0.70
   8  -1   6    2.21    0.78
   8  -1   6    1.01    0.78
  -9   1  -6    1.24    0.69
  -9   1  -6    0.88    0.87
  -9   1  -6    0.73    0.78
   9  -1   6   -0.55    0.73
   9  -1   6    0.16    0.82
   9  -1   6   -0.04    0.74
   9  -1   6    0.08    0.80
  10   0  -6   -0.35    0.70
  10   0  -6   -0.47    0.81
  10   0  -6    0.44    0.73
  10   0  -6   -1.34    0.80
 -10   0   6    1.04    0.68
 -10   0   6   -0.11    0.84
 -10   0   6   -0.88    0.84
   9   0  -6    1.86    0.80
   9   0  -6    2.20    0.63
   9   0  -6    2.09    0.81
   9   0  -6    1.12    0.68
  -9   0   6    0.70    0.72
  -9   0   6    1.58    0.60
  -9   0   6    1.51    0.75
  -9   0   6    1.82    0.63
   8   0  -6   -0.69    0.62
   8   0  -6    0.00    0.67
   8   0  -6   -0.53    0.50
  -8   0   6    0.86    0.66
  -8   0   6   -0.12    0.47
  -8   0   6   -1.18    0.61
   7   0  -6   13.85    1.24
   7   0  -6   14.24    1.09
   7   0  -6   16.10    1.03
   7   0  -6   15.62    1.21
  -7   0   6   15.34    1.20
  -7   0   6   14.37    1.06
  -7   0   6   15.25    1.22
   6   0  -6    1.08    0.56
   6   0  -6    1.23    0.38
   6   0  -6    1.13    0.52
   6   0  -6    1.44    0.45
   6   0  -6    1.17    0.42
  -6   0   6    1.08    0.40
  -6   0   6    1.46    0.48
  -6   0   6    1.04    0.48
   5   0  -6   28.55    1.17
   5   0  -6   26.62    1.11
   5   0  -6   26.85    1.24
   5   0  -6   27.45    1.27
   5   0  -6   27.41    1.04
  -5   0   6   28.32    1.28
  -5   0   6   28.72    1.16
  -5   0   6   23.25    1.06
  -5   0   6   28.36    1.24
   4   0  -6    2.54    0.44
   4   0  -6    2.42    0.40
   4   0  -6    3.12    0.47
   4   0  -6    3.24    0.39
   4   0  -6    3.00    0.36
  -4   0   6    2.18    0.35
  -4   0   6    3.00    0.47
  -4   0   6    3.35    0.38
  -4   0   6    2.43    0.44
   3   0  -6   97.33    2.71
   3   0  -6   95.86    2.84
   3   0  -6  100.31    2.77
   3   0  -6  100.05    2.73
   3   0  -6   99.79    2.84
  -3   0   6   99.09    2.83
  -3   0   6   98.91    2.76
  -3   0   6  101.22    2.73
  -3   0   6  102.59    2.86
   2   0  -6  162.62    4.46
   2   0  -6  169.19    4.39
   2   0  -6  167.99    4.46
   2   0  -6  169.72    4.36
  -2   0   6  168.08    4.38
  -2   0   6  169.49    4.47
  -2   0   6  159.59    4.45
  -2   0   6  168.98    4.35
   1   0  -6   59.44    1.77
   1   0  -6   57.68    1.83
   1   0  -6   62.39    1.86
   1   0  -6   61.57    1.75
  -1   0   6   62.22    1.61
  -1   0   6   59.59    1.84
  -1   0   6   59.74    1.84
  -1   0   6   57.94    1.73
  -1   0   6   61.48    1.77
   0   0  -6   24.49    0.88
   0   0  -6   24.50    0.99
   0   0  -6   24.20    0.99
   0   0  -6   22.61    0.91
   0   0   6   25.23    0.81
   0   0   6   21.44    0.97
   0   0   6   23.19    0.88
   0   0   6   23.29    0.91
   0   0   6   23.80    1.00
  -1   0  -6   91.78    2.77
  -1   0  -6   98.55    2.79
  -1   0  -6  101.62    2.69
   1   0   6   97.86    2.78
   1   0   6  101.20    2.71
   1   0   6  100.83    2.80
   1   0   6   97.06    2.68
   1   0   6  100.80    2.57
  -2   0  -6   23.25    1.02
  -2   0  -6   23.14    0.92
  -2   0  -6   21.69    1.01
  -2   0  -6   21.97    0.91
   2   0   6   24.87    0.94
   2   0   6   24.22    1.03
   2   0   6   22.24    1.01
   2   0   6   24.71    0.92
   2   0   6   23.40    0.73
  -3   0  -6   23.87    1.08
  -3   0  -6   24.20    1.08
  -3   0  -6   23.01    0.95
  -3   0  -6   22.57    0.96
   3   0   6   22.72    1.05
   3   0   6   23.46    0.96
   3   0   6   21.58    1.04
   3   0   6   22.88    0.97
  -4   0  -6   73.36    2.16
  -4   0  -6   73.02    2.28
  -4   0  -6   72.23    2.28
  -4   0  -6   70.23    2.00
  -4   0  -6   74.15    2.16
   4   0   6   71.81    2.15
   4   0   6   70.77    2.27
   4   0   6   70.30    2.26
   4   0   6   75.78    2.17
  -5   0  -6  109.79    3.02
  -5   0  -6  109.92    3.15
  -5   0  -6  113.83    3.16
  -5   0  -6  113.52    3.30
  -5   0  -6  111.95    3.30
   5   0   6  111.68    3.29
   5   0   6  110.73    3.30
   5   0   6  111.83    3.15
  -6   0  -6    0.01    0.54
  -6   0  -6    0.69    0.35
  -6   0  -6   -0.25    0.46
  -6   0  -6    0.50    0.50
   6   0   6   -0.41    0.42
   6   0   6   -0.12    0.50
   6   0   6   -0.12    0.57
   6   0   6   -0.18    0.46
  -7   0  -6    9.24    0.98
  -7   0  -6    9.28    1.14
  -7   0  -6    8.99    1.19
  -7   0  -6    9.38    0.81
   7   0   6    9.28    1.03
   7   0   6    9.89    1.21
   7   0   6    9.49    1.19
  -8   0  -6    0.49    0.68
  -8   0  -6   -0.15    0.49
  -8   0  -6   -0.22    0.66
  -8   0  -6   -0.17    0.46
  -8   0  -6    0.15    0.68
   8   0   6    0.27    0.58
   8   0   6   -0.32    0.60
   8   0   6   -0.90    0.71
   8   0   6    0.27    0.58
  -9   0  -6   20.74    1.67
  -9   0  -6   23.18    1.45
  -9   0  -6   19.96    1.48
  -9   0  -6   21.41    1.70
  -9   0  -6   21.29    1.33
   9   0   6   23.23    1.78
   9   0   6   23.64    1.60
   9   0   6   21.05    1.52
   9   0   6   21.00    1.64
   9  -1  -6    3.56    0.87
   9  -1  -6    5.55    0.77
   9  -1  -6    4.64    0.82
   9  -1  -6    3.97    0.86
  -9   1   6    3.66    0.82
  -9   1   6    3.67    0.73
  -9   1   6    5.62    0.77
  -9   1   6    3.88    0.82
   8  -1  -6   12.62    1.21
   8  -1  -6   11.67    1.29
   8  -1  -6   11.63    1.10
   8  -1  -6   10.91    1.32
  -8   1   6   10.94    1.07
  -8   1   6   11.51    1.27
  -8   1   6   11.61    1.12
  -8   1   6   10.45    1.28
   7  -1  -6   12.50    1.20
   7  -1  -6   14.27    1.20
   7  -1  -6   11.68    0.99
  -7   1   6   13.28    1.06
  -7   1   6   13.66    1.20
  -7   1   6   11.90    1.16
   6  -1  -6   93.45    2.84
   6  -1  -6   96.17    2.73
   6  -1  -6   79.96    2.61
   6  -1  -6   90.42    2.48
   6  -1  -6   90.99    2.82
  -6   1   6   90.93    2.81
  -6   1   6   88.45    2.68
  -6   1   6   90.23    2.81
  -6   1   6   93.16    2.64
   5  -1  -6   96.39    2.70
   5  -1  -6  102.65    3.00
   5  -1  -6  105.69    3.01
   5  -1  -6  102.59    2.84
   5  -1  -6   97.68    2.87
  -5   1   6  102.83    2.99
  -5   1   6  100.68    2.87
  -5   1   6   92.84    2.80
  -5   1   6  102.43    2.99
   4  -1  -6   28.34    0.98
   4  -1  -6   29.44    1.10
   4  -1  -6   30.86    1.25
   4  -1  -6   29.90    1.15
   4  -1  -6   28.18    1.21
  -4   1   6   31.00    1.14
  -4   1   6   29.62    1.08
  -4   1   6   30.01    1.25
  -4   1   6   29.02    1.21
   3  -1  -6  297.39    7.58
   3  -1  -6  289.71    7.50
   3  -1  -6  298.03    7.55
   3  -1  -6  290.21    7.65
   3  -1  -6  308.69    7.68
  -3   1   6  294.31    7.54
  -3   1   6  291.66    7.57
  -3   1   6  289.81    7.66
  -3   1   6  308.46    7.67
   2  -1  -6  169.70    4.56
   2  -1  -6  173.10    4.46
   2  -1  -6  172.00    4.49
   2  -1  -6  174.16    4.56
  -2   1   6  177.85    4.57
  -2   1   6  170.70    4.56
  -2   1   6  172.37    4.48
  -2   1   6  161.84    4.44
   1  -1  -6   73.91    2.08
   1  -1  -6   73.98    2.11
   1  -1  -6   76.81    2.19
   1  -1  -6   77.67    2.20
  -1   1   6   74.38    2.07
  -1   1   6   75.46    2.01
  -1   1   6   76.51    2.11
  -1   1   6   73.86    2.18
  -1   1   6   73.43    2.18
   0  -1  -6   60.38    1.72
   0  -1  -6   59.19    1.81
   0  -1  -6   59.53    1.74
   0  -1  -6   61.26    1.81
   0   1   6   61.34    1.71
   0   1   6   60.20    1.67
   0   1   6   57.88    1.80
   0   1   6   58.29    1.81
   0   1   6   61.53    1.73
  -1  -1  -6  122.10    3.30
  -1  -1  -6  119.54    3.27
  -1  -1  -6  128.62    3.38
  -1  -1  -6  129.02    3.38
   1   1   6  127.33    3.37
   1   1   6  126.74    3.29
   1   1   6  118.65    3.12
   1   1   6  120.73    3.37
   1   1   6  124.21    3.27
   1   1   6  122.56    3.27
  -2  -1  -6   48.01    1.53
  -2  -1  -6   51.18    1.61
  -2  -1  -6   51.61    1.61
  -2  -1  -6   49.99    1.51
   2   1   6   48.61    1.59
   2   1   6   51.63    1.52
   2   1   6   50.98    1.50
   2   1   6   49.01    1.60
  -3  -1  -6  138.15    3.65
  -3  -1  -6  129.01    3.72
  -3  -1  -6  141.04    3.65
  -3  -1  -6  139.24    3.74
   3   1   6  136.62    3.74
   3   1   6  134.63    3.63
   3   1   6  137.58    3.64
   3   1   6  137.22    3.74
  -4  -1  -6   27.21    1.16
  -4  -1  -6   26.49    1.14
  -4  -1  -6   25.76    1.03
  -4  -1  -6   25.46    1.03
  -4  -1  -6   24.37    0.79
   4   1   6   26.90    1.02
   4   1   6   23.65    1.11
   4   1   6   25.11    1.03
   4   1   6   25.53    1.13
  -5  -1  -6  215.15    5.58
  -5  -1  -6  213.03    5.69
  -5  -1  -6  200.19    5.56
  -5  -1  -6  208.67    5.42
  -5  -1  -6  219.67    5.71
   5   1   6  221.67    5.71
   5   1   6  195.40    5.66
   5   1   6  216.56    5.56
   5   1   6  219.88    5.56
  -6  -1  -6   22.16    1.25
  -6  -1  -6   23.36    0.93
  -6  -1  -6   24.54    1.14
  -6  -1  -6   23.71    1.26
  -6  -1  -6   21.21    1.12
   6   1   6   24.24    1.29
   6   1   6   22.65    1.25
   6   1   6   23.89    1.12
  -7  -1  -6    1.74    0.59
  -7  -1  -6    1.50    0.46
  -7  -1  -6    3.09    0.45
  -7  -1  -6    2.75    0.64
  -7  -1  -6    2.84    0.52
   7   1   6    2.76    0.54
   7   1   6    2.14    0.63
   7   1   6    2.22    0.55
   7   1   6    1.00    0.49
  -8  -1  -6    2.73    0.50
  -8  -1  -6    1.58    0.57
  -8  -1  -6    2.66    0.68
  -8  -1  -6    2.20    0.58
  -8  -1  -6    2.78    0.71
   8   1   6    3.64    0.62
   8   1   6    2.95    0.76
   8   1   6    2.01    0.64
  -9  -1  -6    3.31    0.74
  -9  -1  -6    2.31    0.56
  -9  -1  -6    1.21    0.60
  -9  -1  -6    1.90    0.79
  -9  -1  -6    1.23    0.70
   9   1   6    1.72    0.63
   9   1   6    1.84    0.71
   9   1   6    1.51    0.61
   9   1   6    1.79    0.84
   9  -2  -6   -0.13    0.56
   9  -2  -6    0.60    0.73
   9  -2  -6   -1.02    0.79
   9  -2  -6    1.46    0.81
  -9   2   6   -0.70    0.59
  -9   2   6    0.62    0.68
  -9   2   6    0.40    0.80
  -9   2   6    0.29    0.82
   8  -2  -6    1.37    0.53
   8  -2  -6   -0.86    0.66
   8  -2  -6    0.28    0.67
  -8   2   6   -0.84    0.62
  -8   2   6   -0.08    0.62
  -8   2   6    0.21    0.58
  -8   2   6    0.28    0.54
   7  -2  -6    3.60    0.52
   7  -2  -6    2.74    0.66
   7  -2  -6    3.66    0.69
  -7   2   6    2.58    0.65
  -7   2   6    2.38    0.63
  -7   2   6    3.43    0.55
   6  -2  -6  124.36    3.94
   6  -2  -6  145.60    4.02
   6  -2  -6  141.06    3.84
  -6   2   6  145.37    4.01
  -6   2   6  142.34    3.80
  -6   2   6  144.96    4.01
  -6   2   6  126.19    3.82
   5  -2  -6   33.74    1.41
   5  -2  -6   32.76    1.33
   5  -2  -6   34.96    1.42
   5  -2  -6   33.49    1.03
   5  -2  -6   35.06    1.28
  -5   2   6   34.04    1.42
  -5   2   6   34.57    1.42
  -5   2   6   33.21    1.29
  -5   2   6   29.44    1.21
   4  -2  -6  299.20    7.61
   4  -2  -6  290.98    7.46
   4  -2  -6  300.98    7.74
   4  -2  -6  302.44    7.74
   4  -2  -6  288.89    7.64
  -4   2   6  297.15    7.59
  -4   2   6  308.85    7.75
  -4   2   6  292.85    7.62
  -4   2   6  292.83    7.72
   3  -2  -6   15.32    0.87
   3  -2  -6   14.70    0.85
   3  -2  -6   15.77    0.81
   3  -2  -6   15.68    0.76
   3  -2  -6   15.52    0.61
  -3   2   6   15.37    0.77
  -3   2   6   14.39    0.85
  -3   2   6   15.28    0.71
  -3   2   6   15.38    0.85
   2  -2  -6   63.68    1.85
   2  -2  -6   62.26    1.89
   2  -2  -6   67.45    1.97
   2  -2  -6   67.50    1.96
  -2   2   6   66.36    1.97
  -2   2   6   64.15    1.95
  -2   2   6   64.37    1.87
  -2   2   6   63.07    1.83
   1  -2  -6   44.62    1.47
   1  -2  -6   46.24    1.42
   1  -2  -6   47.46    1.38
   1  -2  -6   44.49    1.46
  -1   2   6   49.23    1.49
  -1   2   6   46.41    1.36
  -1   2   6   47.66    1.48
  -1   2   6   45.90    1.39
  -1   2   6   44.75    1.35
   0  -2  -6   71.94    2.00
   0  -2  -6   71.33    2.06
   0  -2  -6   70.08    1.97
   0  -2  -6   71.12    2.06
   0   2   6   72.46    2.06
   0   2   6   71.91    1.98
   0   2   6   71.38    1.98
   0   2   6   69.31    2.05
   0   2   6   74.19    1.96
  -1  -2  -6   14.26    0.63
  -1  -2  -6   14.43    0.66
  -1  -2  -6   14.66    0.72
  -1  -2  -6   14.87    0.72
   1   2   6   15.11    0.68
   1   2   6   14.42    0.64
   1   2   6   13.57    0.71
   1   2   6   14.73    0.72
   1   2   6   13.39    0.61
   1   2   6   13.96    0.43
  -2  -2  -6    9.09    0.58
  -2  -2  -6    8.85    0.54
  -2  -2  -6    9.23    0.64
  -2  -2  -6    9.28    0.62
   2   2   6    8.80    0.63
   2   2   6    8.83    0.52
   2   2   6    8.28    0.55
   2   2   6    8.59    0.62
   2   2   6    8.96    0.64
  -3  -2  -6    0.20    0.31
  -3  -2  -6    0.59    0.29
  -3  -2  -6    0.39    0.26
  -3  -2  -6    0.93    0.34
   3   2   6    0.67    0.32
   3   2   6    0.49    0.26
   3   2   6    0.65    0.32
   3   2   6    0.38    0.25
   3   2   6    0.52    0.40
  -4  -2  -6  135.84    3.55
  -4  -2  -6  141.67    3.79
  -4  -2  -6  145.13    3.88
  -4  -2  -6  143.95    3.79
  -4  -2  -6  139.66    3.86
   4   2   6  144.68    3.88
   4   2   6  139.77    3.75
   4   2   6  145.68    3.76
   4   2   6  142.78    3.87
  -5  -2  -6   25.15    1.04
  -5  -2  -6   25.48    1.06
  -5  -2  -6   25.34    0.82
  -5  -2  -6   26.09    1.16
  -5  -2  -6   24.66    1.14
   5   2   6   26.45    1.05
   5   2   6   26.40    1.16
   5   2   6   25.74    1.02
   5   2   6   28.95    1.19
  -6  -2  -6  140.89    3.88
  -6  -2  -6  143.38    3.88
  -6  -2  -6  141.43    4.00
  -6  -2  -6  141.82    3.73
  -6  -2  -6  144.28    4.00
   6   2   6  136.53    3.99
   6   2   6  141.69    4.00
   6   2   6  145.42    3.85
   6   2   6  142.32    3.85
  -7  -2  -6    7.90    0.70
  -7  -2  -6    7.83    1.02
  -7  -2  -6    7.39    0.88
  -7  -2  -6    7.24    0.99
  -7  -2  -6    8.62    0.68
   7   2   6    7.51    0.85
   7   2   6    7.18    0.76
  -8  -2  -6   18.64    1.19
  -8  -2  -6   18.04    1.12
  -8  -2  -6   17.40    0.95
  -8  -2  -6   15.91    1.29
  -8  -2  -6   18.88    1.28
   8   2   6   19.16    1.13
   8   2   6   17.51    1.28
  -9  -2  -6    4.87    0.77
  -9  -2  -6    6.30    0.84
  -9  -2  -6    3.24    0.75
  -9  -2  -6    4.02    0.79
  -9  -2  -6    3.91    0.62
   9   2   6    2.81    0.75
   9   2   6    5.10    0.83
 -10  -2  -6    1.26    0.79
 -10  -2  -6   -0.65    0.59
 -10  -2  -6    0.09    0.69
 -10  -2  -6   -0.02    0.68
 -10  -2  -6   -0.28    0.56
  10   2   6   -0.35    0.62
  10   2   6    0.77    0.80
  10   2   6    0.07    0.63
  10   2   6   -0.29    0.69
   9  -3  -6   13.19    1.63
   9  -3  -6   12.64    1.29
   9  -3  -6   11.22    1.35
   9  -3  -6   13.19    1.36
  -9   3   6   14.72    1.65
  -9   3   6   13.46    1.55
  -9   3   6   10.60    0.98
  -9   3   6   14.17    1.33
   8  -3  -6    2.19    0.58
   8  -3  -6    2.01    0.78
   8  -3  -6    0.98    0.67
   8  -3  -6    0.64    0.77
  -8   3   6    0.82    0.58
  -8   3   6    0.22    0.70
  -8   3   6    0.04    0.52
  -8   3   6   -0.39    0.61
   7  -3  -6   10.37    1.18
   7  -3  -6    8.46    1.16
   7  -3  -6    9.81    0.95
  -7   3   6    7.91    0.98
  -7   3   6    8.69    1.18
  -7   3   6    7.41    0.84
   6  -3  -6   16.80    1.00
   6  -3  -6   16.34    1.12
   6  -3  -6   15.32    1.14
   6  -3  -6   15.39    1.15
  -6   3   6   13.21    1.00
  -6   3   6   14.52    1.14
  -6   3   6   17.00    0.94
  -6   3   6   16.03    1.18
   5  -3  -6    4.93    0.59
   5  -3  -6    5.20    0.53
   5  -3  -6    5.61    0.62
   5  -3  -6    5.55    0.63
  -5   3   6    6.03    0.75
  -5   3   6    6.32    0.88
  -5   3   6    4.53    0.45
  -5   3   6    4.61    0.59
   4  -3  -6    0.19    0.15
   4  -3  -6   -0.14    0.40
   4  -3  -6   -0.41    0.32
   4  -3  -6    0.09    0.36
   4  -3  -6    0.21    0.39
  -4   3   6   -0.38    0.38
  -4   3   6   -0.22    0.27
  -4   3   6   -0.66    0.30
   3  -3  -6   43.30    1.23
   3  -3  -6   44.12    1.41
   3  -3  -6   45.07    1.52
   3  -3  -6   43.10    1.52
   3  -3  -6   45.75    1.46
  -3   3   6   45.88    1.54
  -3   3   6   44.97    1.41
  -3   3   6   44.65    1.52
  -3   3   6   44.69    1.37
   2  -3  -6  113.90    3.14
   2  -3  -6  113.66    3.05
   2  -3  -6  116.10    3.08
   2  -3  -6  112.20    3.14
  -2   3   6  115.21    3.14
  -2   3   6  116.25    3.02
  -2   3   6  110.28    3.13
  -2   3   6  113.81    3.04
   1  -3  -6  171.52    4.47
   1  -3  -6  178.21    4.45
   1  -3  -6  168.69    4.52
   1  -3  -6  168.47    4.52
  -1   3   6  173.68    4.43
  -1   3   6  177.17    4.53
  -1   3   6  166.72    4.52
  -1   3   6  173.05    4.47
  -1   3   6  171.45    4.41
   0  -3  -6    5.66    0.53
   0  -3  -6    6.39    0.47
   0  -3  -6    6.34    0.52
   0  -3  -6    5.96    0.51
   0   3   6    6.74    0.55
   0   3   6    6.26    0.44
   0   3   6    7.01    0.43
   0   3   6    6.68    0.42
   0   3   6    7.61    0.55
   0   3   6    6.54    0.52
  -1  -3  -6    8.14    0.51
  -1  -3  -6    7.54    0.48
  -1  -3  -6    6.96    0.54
  -1  -3  -6    7.19    0.53
   1   3   6    7.54    0.35
   1   3   6    7.80    0.55
   1   3   6    6.85    0.54
   1   3   6    7.92    0.44
   1   3   6    7.52    0.46
   1   3   6    8.32    0.58
  -2  -3  -6  417.35   10.49
  -2  -3  -6  415.85   10.47
  -2  -3  -6  416.95   10.54
  -2  -3  -6  422.13   10.55
   2   3   6  415.31   10.44
   2   3   6  409.32   10.54
   2   3   6  423.67   10.44
   2   3   6  420.77   10.55
   2   3   6  421.04   10.58
  -3  -3  -6   70.71    2.09
  -3  -3  -6   72.90    2.03
  -3  -3  -6   74.16    2.10
   3   3   6   73.37    1.99
   3   3   6   72.86    1.98
   3   3   6   71.28    2.10
   3   3   6   72.14    2.15
   3   3   6   74.37    2.11
  -4  -3  -6   33.34    1.13
  -4  -3  -6   34.40    1.22
  -4  -3  -6   31.10    1.19
  -4  -3  -6   34.48    1.14
   4   3   6   33.60    1.22
   4   3   6   34.12    1.09
   4   3   6   34.95    1.09
   4   3   6   34.46    1.28
   4   3   6   31.70    1.21
  -5  -3  -6   -0.05    0.35
  -5  -3  -6    0.17    0.33
  -5  -3  -6   -0.25    0.28
  -5  -3  -6    0.27    0.30
   5   3   6    0.25    0.27
   5   3   6    0.02    0.34
   5   3   6    0.02    0.33
   5   3   6    0.10    0.28
  -6  -3  -6   38.14    1.38
  -6  -3  -6   39.10    1.38
  -6  -3  -6   36.38    1.47
  -6  -3  -6   40.82    1.48
   6   3   6   38.99    1.48
   6   3   6   38.70    1.49
   6   3   6   37.93    1.31
   6   3   6   39.74    1.32
  -7  -3  -6    6.64    0.82
  -7  -3  -6    7.49    0.92
  -7  -3  -6    7.58    0.90
  -7  -3  -6    7.26    0.62
   7   3   6    6.16    0.68
   7   3   6    7.56    0.92
   7   3   6    6.67    0.72
   7   3   6    7.54    0.77
  -8  -3  -6    7.28    0.88
  -8  -3  -6    5.19    0.58
  -8  -3  -6    5.63    0.71
  -8  -3  -6    6.99    0.97
   8   3   6    7.70    0.78
   8   3   6    7.15    0.83
   8   3   6    7.35    0.79
  -9  -3  -6    9.55    1.14
  -9  -3  -6   11.24    1.24
  -9  -3  -6   11.12    1.17
  -9  -3  -6   12.55    1.08
   9   3   6   12.58    1.23
   9   3   6   10.22    1.28
   9   3   6   11.52    1.01
 -10  -3  -6    5.96    0.83
 -10  -3  -6    7.25    0.94
 -10  -3  -6    7.78    0.92
 -10  -3  -6    6.32    0.72
  10   3   6    5.73    0.85
  10   3   6   10.43    1.35
   8  -4  -6    0.20    0.70
   8  -4  -6   -1.19    0.57
   8  -4  -6    0.48    0.83
   8  -4  -6   -0.32    0.75
  -8   4   6   -0.47    0.77
  -8   4   6    0.16    0.54
  -8   4   6    0.59    0.72
  -8   4   6   -0.13    0.54
   7  -4  -6    2.61    0.67
   7  -4  -6    1.27    0.65
   7  -4  -6    3.12    0.54
   7  -4  -6    2.61    0.70
  -7   4   6    2.95    0.57
  -7   4   6    2.93    0.69
  -7   4   6    1.93    0.67
   6  -4  -6   -0.16    0.44
   6  -4  -6   -0.33    0.50
   6  -4  -6    0.74    0.53
   6  -4  -6    0.58    0.56
  -6   4   6    0.08    0.37
  -6   4   6    0.24    0.55
  -6   4   6    0.08    0.43
   5  -4  -6   40.39    1.49
   5  -4  -6   35.86    1.40
   5  -4  -6   36.85    1.56
   5  -4  -6   38.72    1.57
  -5   4   6   41.04    1.58
  -5   4   6   33.23    1.31
  -5   4   6   38.88    1.41
   4  -4  -6    0.76    0.39
   4  -4  -6    0.69    0.45
   4  -4  -6    0.57    0.41
   4  -4  -6    0.12    0.36
  -4   4   6    0.24    0.28
  -4   4   6    1.15    0.44
  -4   4   6    0.99    0.41
  -4   4   6    0.20    0.32
   3  -4  -6    7.51    0.72
   3  -4  -6    6.69    0.62
   3  -4  -6    6.46    0.70
   3  -4  -6    6.78    0.68
  -3   4   6    7.06    0.52
  -3   4   6    6.89    0.71
  -3   4   6    6.82    0.58
   2  -4  -6   74.35    2.09
   2  -4  -6   74.64    2.14
   2  -4  -6   74.55    2.05
   2  -4  -6   71.80    2.14
  -2   4   6   71.24    1.98
  -2   4   6   71.58    2.01
  -2   4   6   71.30    2.14
  -2   4   6   73.84    2.15
  -2   4   6   70.69    2.16
   1  -4  -6    3.68    0.36
   1  -4  -6    2.97    0.30
   1  -4  -6    2.82    0.34
   1  -4  -6    3.41    0.38
  -1   4   6    3.88    0.40
  -1   4   6    3.84    0.41
  -1   4   6    3.45    0.38
  -1   4   6    3.45    0.36
  -1   4   6    3.06    0.37
   0  -4  -6   22.21    0.77
   0  -4  -6   22.47    0.82
   0  -4  -6   21.14    0.83
   0  -4  -6   22.84    0.86
   0   4   6   22.41    0.71
   0   4   6   22.49    0.86
   0   4   6   22.05    0.85
   0   4   6   22.39    0.73
   0   4   6   21.01    0.82
   0   4   6   20.63    0.89
  -1  -4  -6    1.51    0.25
  -1  -4  -6    2.05    0.28
  -1  -4  -6    1.59    0.28
  -1  -4  -6    1.80    0.24
   1   4   6    2.01    0.21
   1   4   6    1.85    0.25
   1   4   6    1.89    0.29
   1   4   6    2.03    0.19
   1   4   6    1.75    0.28
   1   4   6    1.25    0.34
  -2  -4  -6   29.82    0.92
  -2  -4  -6   29.37    0.98
  -2  -4  -6   28.61    0.94
  -2  -4  -6   28.21    0.97
   2   4   6   28.56    0.84
   2   4   6   29.16    0.99
   2   4   6   28.71    0.83
   2   4   6   27.34    0.97
   2   4   6   26.59    1.08
  -3  -4  -6   41.58    1.16
  -3  -4  -6   42.10    1.29
  -3  -4  -6   44.24    1.34
  -3  -4  -6   42.58    1.33
  -3  -4  -6   42.60    1.27
   3   4   6   43.49    1.18
   3   4   6   44.69    1.35
   3   4   6   42.05    1.35
   3   4   6   42.94    1.19
   3   4   6   40.80    1.44
  -4  -4  -6   10.77    0.59
  -4  -4  -6   11.35    0.65
  -4  -4  -6   10.97    0.43
  -4  -4  -6    9.91    0.64
  -4  -4  -6   10.83    0.61
   4   4   6   10.26    0.67
   4   4   6   11.02    0.80
   4   4   6   11.26    0.66
   4   4   6   10.86    0.50
   4   4   6   11.23    0.48
  -5  -4  -6   36.45    1.23
  -5  -4  -6   36.65    1.23
  -5  -4  -6   36.43    1.30
  -5  -4  -6   37.83    1.31
   5   4   6   34.85    1.29
   5   4   6   38.18    1.46
   5   4   6   36.70    1.30
   5   4   6   37.78    1.12
   5   4   6   38.57    1.14
  -6  -4  -6   12.73    0.77
  -6  -4  -6   11.91    0.83
  -6  -4  -6   13.72    0.78
  -6  -4  -6   12.05    0.84
   6   4   6   12.22    0.86
   6   4   6   12.13    0.87
   6   4   6   13.02    1.04
   6   4   6   12.94    0.67
   6   4   6   11.47    0.63
  -7  -4  -6    2.09    0.43
  -7  -4  -6    3.55    0.49
  -7  -4  -6    3.13    0.53
  -7  -4  -6    2.89    0.49
   7   4   6    2.69    0.36
   7   4   6    1.81    0.47
   7   4   6    3.11    0.39
   7   4   6    3.84    0.56
  -8  -4  -6    1.29    0.48
  -8  -4  -6    1.15    0.46
  -8  -4  -6    2.21    0.53
  -8  -4  -6    1.84    0.50
   8   4   6    1.55    0.38
   8   4   6    1.68    0.41
   8   4   6    1.53    0.51
  -9  -4  -6    8.33    1.04
  -9  -4  -6    6.83    0.69
  -9  -4  -6    9.95    1.14
  -9  -4  -6   10.26    1.06
   9   4   6    8.06    0.83
   9   4   6    8.65    0.89
   9   4   6    9.68    1.17
   9   4   6   10.63    1.09
 -10  -4  -6    1.15    0.62
 -10  -4  -6   -0.46    0.55
 -10  -4  -6    0.39    0.68
 -10  -4  -6    1.22    0.65
  10   4   6   -0.11    0.50
  10   4   6    0.61    0.65
  10   4   6    0.26    0.48
  10   4   6    0.28    0.70
   8  -5  -6    6.64    0.79
   8  -5  -6    5.20    0.99
   8  -5  -6    7.95    1.01
   8  -5  -6    5.81    1.17
  -8   5   6    6.67    0.73
  -8   5   6   12.12    1.65
  -8   5   6    8.70    0.85
  -8   5   6    7.46    0.98
   7  -5  -6    7.05    0.88
   7  -5  -6    5.07    0.80
   7  -5  -6    6.20    0.69
   7  -5  -6    6.86    0.83
  -7   5   6    7.83    1.01
  -7   5   6    5.64    0.65
  -7   5   6    6.97    0.84
  -7   5   6    5.64    0.80
   6  -5  -6    0.68    0.50
   6  -5  -6    0.10    0.45
   6  -5  -6   -0.68    0.54
   6  -5  -6   -0.56    0.56
  -6   5   6    0.30    0.66
  -6   5   6   -0.27    0.43
  -6   5   6   -0.23    0.39
  -6   5   6   -0.95    0.53
   5  -5  -6    3.74    0.62
   5  -5  -6    3.95    0.64
   5  -5  -6    3.33    0.49
   5  -5  -6    4.04    0.58
  -5   5   6    4.20    0.73
  -5   5   6    4.04    0.45
  -5   5   6    3.30    0.59
  -5   5   6    4.03    0.48
   4  -5  -6   -0.09    0.34
   4  -5  -6    0.66    0.39
   4  -5  -6   -0.53    0.42
   4  -5  -6    0.19    0.44
  -4   5   6    0.14    0.33
  -4   5   6    0.17    0.44
  -4   5   6   -0.02    0.42
  -4   5   6   -0.40    0.53
  -4   5   6    0.15    0.29
   3  -5  -6   10.09    0.76
   3  -5  -6   10.32    0.80
   3  -5  -6   10.50    0.72
   3  -5  -6   10.51    0.82
  -3   5   6   10.34    0.65
  -3   5   6    9.77    0.80
  -3   5   6   11.05    0.59
  -3   5   6    9.88    0.90
  -3   5   6   10.61    0.82
   2  -5  -6   32.20    1.14
   2  -5  -6   31.42    1.09
   2  -5  -6   30.87    1.17
   2  -5  -6   32.04    1.17
  -2   5   6   32.39    0.98
  -2   5   6   32.37    1.02
  -2   5   6   31.46    1.18
  -2   5   6   30.71    1.18
  -2   5   6   32.77    1.27
   1  -5  -6   68.35    1.96
   1  -5  -6   67.48    2.00
   1  -5  -6   70.62    2.00
   1  -5  -6   68.94    1.93
  -1   5   6   68.41    2.08
  -1   5   6   70.37    2.01
  -1   5   6   71.07    2.02
  -1   5   6   68.81    1.83
  -1   5   6   68.85    1.85
   0  -5  -6  186.85    4.78
   0  -5  -6  182.79    4.74
   0  -5  -6  185.77    4.73
   0  -5  -6  181.61    4.78
   0   5   6  185.30    4.88
   0   5   6  183.19    4.84
   0   5   6  181.11    4.61
   0   5   6  181.15    4.62
   0   5   6  184.39    4.79
   0   5   6  194.92    4.80
  -1  -5  -6   89.27    2.40
  -1  -5  -6   91.59    2.41
  -1  -5  -6   86.96    2.35
  -1  -5  -6   90.23    2.37
   1   5   6   88.42    2.41
   1   5   6   89.47    2.54
   1   5   6   88.43    2.44
   1   5   6   85.24    2.40
  -2  -5  -6   58.58    1.64
  -2  -5  -6   57.18    1.64
  -2  -5  -6   57.31    1.59
  -2  -5  -6   58.12    1.64
  -2  -5  -6   58.20    1.61
   2   5   6   55.88    1.64
   2   5   6   59.93    1.66
   2   5   6   55.23    1.79
  -3  -5  -6   13.78    0.60
  -3  -5  -6   12.89    0.58
  -3  -5  -6   13.85    0.58
  -3  -5  -6   13.30    0.62
  -3  -5  -6   13.66    0.62
   3   5   6   13.85    0.65
   3   5   6   13.34    0.63
   3   5   6   14.16    0.84
  -4  -5  -6    6.08    0.43
  -4  -5  -6    6.15    0.51
  -4  -5  -6    5.47    0.51
  -4  -5  -6    6.40    0.48
   4   5   6    5.85    0.76
   4   5   6    6.40    0.54
   4   5   6    6.89    0.53
  -5  -5  -6   19.14    0.75
  -5  -5  -6   21.16    0.81
  -5  -5  -6   20.02    0.85
  -5  -5  -6   19.57    0.84
  -5  -5  -6   18.57    0.80
   5   5   6   19.15    0.85
   5   5   6   19.26    0.87
   5   5   6   17.17    1.03
  -6  -5  -6    8.66    0.70
  -6  -5  -6    9.03    0.73
  -6  -5  -6    7.75    0.66
  -6  -5  -6    7.82    0.66
   6   5   6    7.86    0.72
   6   5   6    7.87    0.40
   6   5   6    8.25    0.43
   6   5   6    7.26    0.95
   6   5   6    7.01    0.72
  -7  -5  -6    4.30    0.46
  -7  -5  -6    4.92    0.48
  -7  -5  -6    2.88    0.46
  -7  -5  -6    4.64    0.52
   7   5   6    4.43    0.46
   7   5   6    3.87    0.65
   7   5   6    5.85    0.78
   7   5   6    3.61    0.49
   7   5   6    4.25    0.42
  -8  -5  -6    0.18    0.45
  -8  -5  -6    0.09    0.39
  -8  -5  -6    0.02    0.41
  -8  -5  -6    1.42    0.44
   8   5   6    0.03    0.26
   8   5   6    0.40    0.28
   8   5   6    0.48    0.44
   8   5   6   -0.02    0.68
  -9  -5  -6   21.26    1.20
  -9  -5  -6   20.48    1.27
  -9  -5  -6   20.77    1.23
  -9  -5  -6   22.61    1.19
   9   5   6   21.80    0.93
   9   5   6   23.80    1.27
   9   5   6   19.39    1.45
   9   5   6   20.06    1.28
 -10  -5  -6    1.24    0.58
 -10  -5  -6    0.58    0.64
 -10  -5  -6    0.47    0.53
 -10  -5  -6    2.02    0.61
  10   5   6    0.17    0.67
  10   5   6    0.22    0.38
  10   5   6   -0.21    0.81
  10   5   6   -0.48    0.33
  10   5   6    0.42    0.62
   7  -6  -6    0.56    0.77
   7  -6  -6    0.62    0.62
   7  -6  -6    1.55    0.78
   7  -6  -6    0.09    0.72
  -7   6   6    0.31    0.52
  -7   6   6    0.18    0.70
  -7   6   6    1.20    0.90
  -7   6   6    0.60    0.70
   6  -6  -6   14.52    1.11
   6  -6  -6   15.33    1.28
   6  -6  -6   15.82    1.30
   6  -6  -6   13.81    1.30
  -6   6   6   15.56    1.35
  -6   6   6   15.90    0.96
  -6   6   6   15.09    1.42
  -6   6   6   16.10    1.34
  -6   6   6   14.41    1.03
   5  -6  -6   29.31    1.39
   5  -6  -6   26.74    1.27
   5  -6  -6   27.73    1.43
   5  -6  -6   26.32    1.40
  -5   6   6   26.92    1.58
  -5   6   6   29.29    1.48
  -5   6   6   27.97    1.43
  -5   6   6   28.05    1.16
  -5   6   6   29.08    1.12
   4  -6  -6   14.87    1.05
   4  -6  -6   14.73    1.00
   4  -6  -6   15.68    1.05
   4  -6  -6   13.51    0.95
  -4   6   6   14.78    0.73
  -4   6   6   15.20    0.81
  -4   6   6   15.74    1.05
  -4   6   6   17.16    1.23
   3  -6  -6   10.17    0.81
   3  -6  -6    9.26    0.75
   3  -6  -6   10.29    0.85
   3  -6  -6    8.85    0.83
  -3   6   6   10.41    0.54
  -3   6   6   11.13    1.01
  -3   6   6   10.06    0.85
  -3   6   6    9.69    0.61
  -3   6   6    9.06    0.86
   2  -6  -6   -0.19    0.28
   2  -6  -6    0.45    0.32
   2  -6  -6   -0.09    0.33
   2  -6  -6   -0.17    0.32
   2  -6  -6    0.37    0.13
  -2   6   6    0.08    0.34
  -2   6   6    0.03    0.21
  -2   6   6    0.44    0.35
  -2   6   6   -0.01    0.17
  -2   6   6    0.16    0.46
   1  -6  -6    2.32    0.31
   1  -6  -6    2.71    0.28
   1  -6  -6    2.45    0.35
   1  -6  -6    2.51    0.34
   1  -6  -6    2.52    0.36
  -1   6   6    2.86    0.37
  -1   6   6    2.07    0.45
  -1   6   6    3.20    0.39
   0  -6  -6    2.78    0.31
   0  -6  -6    2.87    0.28
   0  -6  -6    3.33    0.44
   0  -6  -6    2.73    0.31
   0   6   6    2.36    0.44
   0   6   6    3.00    0.34
   0   6   6    3.40    0.45
  -1  -6  -6    1.95    0.26
  -1  -6  -6    2.09    0.26
  -1  -6  -6    2.00    0.26
  -1  -6  -6    1.76    0.24
   1   6   6    2.12    0.27
   1   6   6    1.95    0.46
   1   6   6    1.88    0.36
   1   6   6    1.75    0.26
  -2  -6  -6   60.62    1.67
  -2  -6  -6   59.34    1.79
  -2  -6  -6   60.55    1.66
  -2  -6  -6   60.77    1.66
  -2  -6  -6   59.66    1.63
   2   6   6   61.62    1.69
   2   6   6   59.14    1.91
  -3  -6  -6   10.80    0.63
  -3  -6  -6   10.61    0.52
  -3  -6  -6   10.98    0.52
  -3  -6  -6   10.62    0.51
  -3  -6  -6   11.06    0.50
   3   6   6   10.42    0.77
   3   6   6   10.36    0.54
  -4  -6  -6   72.50    1.98
  -4  -6  -6   70.97    1.99
  -4  -6  -6   72.68    2.00
  -4  -6  -6   73.34    2.07
  -4  -6  -6   73.71    1.99
   4   6   6   70.64    2.02
   4   6   6   76.30    2.02
   4   6   6   71.85    2.27
  -5  -6  -6   16.35    0.73
  -5  -6  -6   16.86    0.72
  -5  -6  -6   16.22    0.72
  -5  -6  -6   15.17    0.77
  -5  -6  -6   16.29    0.71
   5   6   6   17.05    0.77
   5   6   6   16.09    1.05
   5   6   6   15.58    0.75
  -6  -6  -6    6.89    0.60
  -6  -6  -6    7.18    0.65
  -6  -6  -6    6.27    0.60
  -6  -6  -6    7.30    0.61
  -6  -6  -6    7.01    0.63
   6   6   6    6.49    0.65
   6   6   6    7.12    0.64
   6   6   6    7.21    0.95
  -7  -6  -6   36.59    1.29
  -7  -6  -6   35.39    1.28
  -7  -6  -6   37.17    1.34
  -7  -6  -6   34.77    1.30
   7   6   6   36.67    1.35
   7   6   6   37.21    1.35
   7   6   6   34.60    1.62
  -8  -6  -6    4.43    0.52
  -8  -6  -6    4.29    0.52
  -8  -6  -6    4.44    0.51
  -8  -6  -6    4.59    0.52
   8   6   6    4.19    0.80
   8   6   6    3.09    0.48
   8   6   6    4.42    0.55
  -9  -6  -6    0.68    0.48
  -9  -6  -6    0.71    0.48
  -9  -6  -6    1.15    0.50
  -9  -6  -6    0.11    0.47
   9   6   6    0.55    0.77
   9   6   6    0.56    0.54
   9   6   6    0.09    0.49
 -10  -6  -6    1.30    0.60
 -10  -6  -6    1.60    0.61
 -10  -6  -6   -0.04    0.55
 -10  -6  -6    0.87    0.58
  10   6   6    0.77    0.66
  10   6   6    0.56    0.81
  10   6   6    1.01    0.59
   6  -7  -6    2.37    0.69
   6  -7  -6    2.82    0.60
   6  -7  -6    2.06    0.71
   6  -7  -6    2.92    0.76
  -6   7   6    3.20    0.80
  -6   7   6    2.33    0.49
  -6   7   6    2.29    0.91
  -6   7   6    0.86    0.71
   5  -7  -6    2.50    0.61
   5  -7  -6    1.32    0.54
   5  -7  -6    1.41    0.50
   5  -7  -6    2.08    0.62
  -5   7   6    1.53    0.78
  -5   7   6    2.48    0.63
  -5   7   6    2.35    0.67
  -5   7   6    1.97    0.40
  -5   7   6    1.10    0.33
   4  -7  -6   26.78    1.32
   4  -7  -6   26.69    1.27
   4  -7  -6   27.57    1.21
   4  -7  -6   26.97    1.31
  -4   7   6   25.66    0.98
  -4   7   6   26.28    0.94
  -4   7   6   24.82    1.54
  -4   7   6   26.75    1.32
   3  -7  -6    0.56    0.42
   3  -7  -6    0.50    0.38
   3  -7  -6    0.35    0.42
   3  -7  -6   -0.09    0.37
  -3   7   6    0.06    0.43
  -3   7   6    0.63    0.21
  -3   7   6    0.07    0.23
  -3   7   6   -0.43    0.54
  -3   7   6    0.57    0.43
   2  -7  -6   15.35    0.91
   2  -7  -6   16.67    0.90
   2  -7  -6   17.89    0.88
   2  -7  -6   17.35    0.93
  -2   7   6   18.64    1.15
  -2   7   6   16.75    0.95
  -2   7   6   17.58    0.93
   1  -7  -6   -0.05    0.29
   1  -7  -6   -0.46    0.26
   1  -7  -6   -0.17    0.28
   1  -7  -6   -0.01    0.23
   1  -7  -6   -0.05    0.29
  -1   7   6   -0.23    0.29
  -1   7   6   -0.05    0.48
  -1   7   6   -0.31    0.29
   0  -7  -6   24.92    0.92
   0  -7  -6   26.31    0.89
   0  -7  -6   25.28    0.94
   0  -7  -6   25.55    0.93
   0  -7  -6   26.24    0.91
   0   7   6   25.00    0.94
   0   7   6   26.09    1.18
   0   7   6   25.64    0.94
  -1  -7  -6   32.91    1.04
  -1  -7  -6   32.75    1.18
  -1  -7  -6   33.17    1.02
  -1  -7  -6   33.05    1.00
  -1  -7  -6   32.92    1.02
   1   7   6   31.72    1.34
   1   7   6   33.28    1.30
   1   7   6   32.19    1.03
  -2  -7  -6   20.59    0.68
  -2  -7  -6   19.84    0.66
  -2  -7  -6   19.74    0.70
  -2  -7  -6   21.32    0.98
  -2  -7  -6   19.75    0.66
  -2  -7  -6   19.40    0.97
   2   7   6   19.77    1.07
   2   7   6   19.95    0.70
   2   7   6   19.83    0.69
  -3  -7  -6   56.20    1.79
  -3  -7  -6   57.38    1.52
  -3  -7  -6   57.96    1.57
  -3  -7  -6   56.84    1.56
  -3  -7  -6   57.57    1.52
   3   7   6   59.01    1.56
   3   7   6   57.13    1.55
   3   7   6   55.72    1.92
  -4  -7  -6    0.85    0.38
  -4  -7  -6    0.68    0.19
  -4  -7  -6    0.55    0.19
  -4  -7  -6    0.85    0.23
  -4  -7  -6    0.67    0.21
   4   7   6    0.62    0.21
   4   7   6    0.59    0.21
   4   7   6    1.31    0.51
  -5  -7  -6   17.89    0.69
  -5  -7  -6   17.88    0.72
  -5  -7  -6   18.40    0.68
  -5  -7  -6   16.89    0.91
  -5  -7  -6   17.87    0.72
   5   7   6   18.02    0.71
   5   7   6   17.67    1.10
   5   7   6   18.18    0.73
  -6  -7  -6   -0.45    0.26
  -6  -7  -6   -0.36    0.24
  -6  -7  -6    0.63    0.27
  -6  -7  -6   -0.32    0.26
  -6  -7  -6   -0.45    0.35
   6   7   6   -0.13    0.52
   6   7   6   -0.12    0.27
  -7  -7  -6    3.27    0.37
  -7  -7  -6    2.85    0.40
  -7  -7  -6    3.31    0.41
  -7  -7  -6    3.72    0.52
  -7  -7  -6    3.22    0.41
   7   7   6    3.09    0.42
   7   7   6    3.55    0.42
   7   7   6    3.36    0.64
  -8  -7  -6   15.73    0.93
  -8  -7  -6   17.40    0.89
  -8  -7  -6   17.87    0.96
  -8  -7  -6   16.53    0.94
   8   7   6   17.35    1.30
   8   7   6   16.91    0.97
   8   7   6   17.66    1.00
  -9  -7  -6    2.56    0.51
  -9  -7  -6    2.27    0.49
  -9  -7  -6    1.46    0.49
  -9  -7  -6    2.03    0.48
   9   7   6    2.77    0.58
   9   7   6    1.53    0.48
   9   7   6    2.22    0.80
 -10  -7  -6   16.53    1.66
 -10  -7  -6   16.88    1.18
 -10  -7  -6   16.02    1.19
 -10  -7  -6   16.34    1.19
 -10  -7  -6   16.21    1.20
  10   7   6   16.45    1.31
  10   7   6   17.37    1.58
   5  -8  -6    0.56    0.61
   5  -8  -6    1.11    0.60
   5  -8  -6    0.49    0.53
   5  -8  -6   -0.83    0.61
  -5   8   6   -0.06    0.25
  -5   8   6    0.39    0.78
  -5   8   6   -0.09    0.33
  -5   8   6    0.08    0.61
  -5   8   6   -0.52    0.67
   4  -8  -6   41.65    1.57
   4  -8  -6   38.96    1.64
   4  -8  -6   41.61    1.67
   4  -8  -6   40.58    1.65
  -4   8   6   40.93    1.72
  -4   8   6   39.67    1.22
  -4   8   6   42.08    2.00
  -4   8   6   43.78    1.75
   3  -8  -6    2.05    0.50
   3  -8  -6    2.67    0.49
   3  -8  -6    2.53    0.51
   3  -8  -6    2.81    0.52
  -3   8   6    3.60    0.55
  -3   8   6    3.89    0.83
   2  -8  -6    5.29    0.49
   2  -8  -6    4.71    0.51
   2  -8  -6    5.44    0.52
   2  -8  -6    4.92    0.53
  -2   8   6    5.45    0.54
  -2   8   6    5.93    0.76
  -2   8   6    4.98    0.73
   1  -8  -6    0.40    0.32
   1  -8  -6    0.19    0.31
   1  -8  -6    0.32    0.25
   1  -8  -6    0.05    0.28
   1  -8  -6   -0.05    0.30
  -1   8   6    0.54    0.33
  -1   8   6    0.22    0.32
  -1   8   6   -0.06    0.53
   0  -8  -6   39.01    1.27
   0  -8  -6   33.08    1.20
   0  -8  -6   40.53    1.22
   0  -8  -6   40.75    1.23
   0  -8  -6   38.20    1.24
   0   8   6   40.78    1.25
   0   8   6   40.67    1.60
  -1  -8  -6    1.04    0.48
  -1  -8  -6    1.32    0.26
  -1  -8  -6    1.66    0.39
  -1  -8  -6    1.56    0.22
  -1  -8  -6    1.69    0.22
  -1  -8  -6    1.41    0.24
   1   8   6    1.52    0.25
   1   8   6    1.55    0.52
   1   8   6    1.43    0.23
  -2  -8  -6  178.13    4.59
  -2  -8  -6  181.09    4.57
  -2  -8  -6  181.04    4.83
  -2  -8  -6  187.18    4.92
   2   8   6  175.90    4.53
   2   8   6  182.73    4.53
   2   8   6  178.71    4.95
  -3  -8  -6    0.16    0.44
  -3  -8  -6   -0.20    0.19
  -3  -8  -6   -0.22    0.18
  -3  -8  -6   -0.51    0.41
   3   8   6   -0.41    0.53
  -4  -8  -6  173.18    4.48
  -4  -8  -6  180.66    4.85
  -4  -8  -6  178.31    4.79
  -4  -8  -6  175.66    4.48
   4   8   6  177.12    4.89
  -5  -8  -6   39.59    1.51
  -5  -8  -6   44.53    1.69
  -5  -8  -6   39.18    1.19
  -5  -8  -6   41.84    1.20
   5   8   6   39.60    1.65
   5   8   6   39.04    1.10
  -6  -8  -6    4.42    0.77
  -6  -8  -6    3.79    0.33
  -6  -8  -6    4.30    0.37
  -6  -8  -6    3.66    0.34
  -6  -8  -6    4.02    0.48
  -6  -8  -6    3.72    0.55
   6   8   6    3.63    0.41
   6   8   6    4.57    0.70
   6   8   6    4.15    0.43
  -7  -8  -6    3.93    0.82
  -7  -8  -6    4.04    0.40
  -7  -8  -6    3.58    0.48
  -7  -8  -6    3.55    0.40
  -7  -8  -6    4.02    0.48
  -7  -8  -6    3.56    0.57
   7   8   6    3.53    0.38
   7   8   6    3.80    0.76
  -8  -8  -6    3.11    0.43
  -8  -8  -6    2.35    0.81
  -8  -8  -6    2.47    0.40
  -8  -8  -6    2.70    0.60
  -8  -8  -6    1.89    0.39
  -8  -8  -6    2.20    0.42
   8   8   6    1.54    0.67
   8   8   6    2.07    0.43
  -9  -8  -6    3.54    0.53
  -9  -8  -6    4.66    0.53
  -9  -8  -6    3.50    0.46
  -9  -8  -6    5.25    0.97
  -9  -8  -6    3.07    0.53
   9   8   6    3.29    0.87
   4  -9  -6    0.08    0.56
   4  -9  -6   -0.21    0.55
   4  -9  -6   -0.32    0.50
   4  -9  -6    0.21    0.59
  -4   9   6    0.77    0.55
  -4   9   6    0.23    0.64
  -4   9   6    0.47    0.85
   3  -9  -6   49.26    1.81
   3  -9  -6   48.10    1.76
   3  -9  -6   52.05    1.75
   3  -9  -6   50.17    1.80
  -3   9   6   49.15    2.20
  -3   9   6   48.83    1.83
   2  -9  -6   -0.45    0.40
   2  -9  -6   -0.45    0.36
   2  -9  -6   -0.26    0.38
   2  -9  -6   -0.58    0.37
  -2   9   6   -0.31    0.41
  -2   9   6   -0.11    0.36
  -2   9   6   -0.43    0.67
   1  -9  -6    0.96    0.32
   1  -9  -6    0.98    0.36
   1  -9  -6    1.00    0.36
   1  -9  -6    1.14    0.39
  -1   9   6    0.99    0.63
  -1   9   6    0.69    0.35
  -1   9   6    0.75    0.38
   0  -9  -6    1.12    0.28
   0  -9  -6    1.03    0.33
   0  -9  -6    1.32    0.31
   0  -9  -6    1.05    0.26
   0  -9  -6    1.60    0.35
   0   9   6    0.94    0.27
   0   9   6    0.56    0.57
   0   9   6    1.30    0.30
  -1  -9  -6    0.93    0.56
  -1  -9  -6    0.22    0.25
  -1  -9  -6    0.76    0.39
  -1  -9  -6    0.21    0.24
   1   9   6    0.34    0.20
   1   9   6    1.14    0.59
   1   9   6    0.50    0.20
  -2  -9  -6    9.26    0.99
  -2  -9  -6   10.79    0.52
  -2  -9  -6   10.15    0.85
  -2  -9  -6   10.48    0.49
   2   9   6    9.66    0.99
  -3  -9  -6   -0.15    0.17
  -3  -9  -6   -0.06    0.47
  -3  -9  -6    0.07    0.18
  -3  -9  -6    0.41    0.48
   3   9   6    0.16    0.50
  -4  -9  -6    6.55    0.37
  -4  -9  -6    7.63    0.97
  -4  -9  -6    6.02    0.38
  -4  -9  -6    5.42    0.65
   4   9   6    4.90    0.67
  -5  -9  -6    8.84    1.10
  -5  -9  -6    7.51    0.95
  -5  -9  -6    8.54    0.45
   5   9   6    9.03    1.04
  -6  -9  -6    2.46    0.58
  -6  -9  -6    3.96    0.45
  -6  -9  -6    2.85    0.31
  -6  -9  -6    3.50    0.72
   6   9   6    2.69    0.65
  -7  -9  -6   18.53    0.82
  -7  -9  -6   19.01    1.18
  -7  -9  -6   23.00    1.50
  -7  -9  -6   19.01    0.82
   7   9   6   18.15    1.35
  -8  -9  -6    1.78    0.63
  -8  -9  -6    2.21    0.25
  -8  -9  -6    2.46    0.41
  -8  -9  -6    2.60    0.41
  -8  -9  -6    1.84    0.86
  -8  -9  -6    3.17    0.40
   8   9   6    1.96    0.77
   8   9   6    2.31    0.36
  -9  -9  -6    0.42    0.33
  -9  -9  -6   -0.20    0.66
  -9  -9  -6    0.01    0.33
  -9  -9  -6    0.73    0.43
  -9  -9  -6    0.37    0.42
  -9  -9  -6    2.16    1.22
   9   9   6   -0.39    0.74
   9   9   6    0.17    0.28
   2 -10  -6    0.56    0.45
   2 -10  -6    0.29    0.37
   2 -10  -6    0.32    0.41
   2 -10  -6    0.02    0.46
  -2  10   6    0.01    0.34
  -2  10   6    0.23    0.45
  -2  10   6    0.50    0.76
   1 -10  -6    0.94    0.36
   1 -10  -6    0.59    0.42
   1 -10  -6    1.21    0.35
   1 -10  -6    0.97    0.38
  -1  10   6    1.03    0.39
  -1  10   6    0.98    0.77
   0 -10  -6    1.79    0.26
   0 -10  -6    1.58    0.37
   0 -10  -6    2.39    0.42
   0 -10  -6    1.46    0.34
   0 -10  -6    1.89    0.25
   0  10   6    2.45    0.78
   0  10   6    1.66    0.32
  -1 -10  -6   24.60    0.88
  -1 -10  -6   24.67    1.50
  -1 -10  -6   22.47    1.08
  -1 -10  -6   22.66    0.91
   1  10   6   25.01    1.51
  -2 -10  -6    3.92    0.42
  -2 -10  -6    4.68    0.58
  -2 -10  -6    2.57    0.71
  -2 -10  -6    3.24    0.31
  -3 -10  -6   36.52    1.66
  -3 -10  -6   37.54    1.52
  -3 -10  -6   34.56    1.02
  -3 -10  -6   34.42    1.04
   3  10   6   37.07    1.63
  -4 -10  -6    1.90    0.20
  -4 -10  -6    1.98    0.20
  -4 -10  -6    3.30    0.64
  -4 -10  -6    1.64    0.64
   4  10   6    1.83    0.70
  -5 -10  -6    3.08    0.69
  -5 -10  -6    2.22    0.22
  -5 -10  -6    2.22    0.62
   5  10   6    2.07    0.72
  -6 -10  -6    7.87    0.47
  -6 -10  -6    7.03    0.89
  -6 -10  -6    7.21    0.47
  -6 -10  -6    7.12    0.82
   6  10   6    6.35    0.81
  -7 -10  -6    0.79    0.80
  -7 -10  -6    1.03    0.67
  -7 -10  -6    1.23    0.30
  -7 -10  -6    1.51    0.31
   7  10   6    0.83    0.74
  -8 -10  -6    0.22    0.84
  -8 -10  -6   -0.01    0.33
  -8 -10  -6    0.32    0.36
  -8 -10  -6    0.39    0.65
   8  10   6   -0.56    0.67
   0 -11  -6    0.02    0.35
   0 -11  -6   -0.33    0.38
   0  11   6    1.07    0.87
   0  11   6    0.31    0.23
   0  11   6   -0.06    0.23
  -1 -11  -6    1.37    0.38
  -1 -11  -6    1.74    0.53
  -1 -11  -6    2.06    0.35
  -2 -11  -6    8.55    1.01
  -2 -11  -6    8.89    0.56
  -2 -11  -6    8.45    0.59
  -2 -11  -6    9.82    0.97
  -3 -11  -6    2.86    0.80
  -3 -11  -6    3.71    0.68
  -3 -11  -6    3.11    0.38
  -3 -11  -6    2.83    0.27
  -4 -11  -6    1.03    0.63
  -4 -11  -6    0.42    0.67
   4  11   6   -1.06    0.63
  -5 -11  -6    5.13    0.78
  -5 -11  -6    4.82    0.83
   5  11   6    4.74    0.78
  -6 -11  -6   10.26    1.33
  -6 -11  -6   11.11    0.50
  -6 -11  -6   11.62    1.45
  -6 -11  -6   11.38    0.51
   6  11   6   12.22    1.34
   4   8  -7    3.58    0.41
   4   8  -7    3.87    0.78
   4   8  -7    2.79    0.71
   4   8  -7    4.35    0.93
  -4  -8   7    3.57    0.70
  -4  -8   7    3.79    0.78
  -4  -8   7    3.96    0.76
  -4  -8   7    4.12    0.73
   3   8  -7    0.40    0.34
   3   8  -7    0.77    0.85
   3   8  -7   -0.24    0.64
   3   8  -7   -0.08    0.32
   3   8  -7    1.60    0.72
  -3  -8   7    0.85    0.68
  -3  -8   7    0.53    0.97
  -3  -8   7    0.40    0.66
  -3  -8   7    0.58    0.65
  -3  -8   7    1.53    0.62
   2   8  -7    1.68    0.68
   2   8  -7    3.46    0.90
   2   8  -7    1.42    0.70
   2   8  -7    2.56    0.42
  -2  -8   7    1.61    0.68
  -2  -8   7    2.55    0.75
  -2  -8   7    0.17    0.66
  -2  -8   7    2.47    0.77
   6   7  -7    0.10    0.38
   6   7  -7   -0.57    0.68
   6   7  -7   -0.51    0.68
   6   7  -7   -0.18    0.35
   6   7  -7   -1.18    0.65
  -6  -7   7   -0.26    0.64
  -6  -7   7    0.14    0.58
  -6  -7   7   -0.09    0.56
  -6  -7   7    0.08    0.53
   5   7  -7    1.52    0.77
   5   7  -7    0.58    0.70
   5   7  -7    1.09    0.64
   5   7  -7   -0.01    0.33
   5   7  -7    0.61    0.38
  -5  -7   7    0.76    0.55
  -5  -7   7    0.52    0.58
  -5  -7   7    0.45    0.56
  -5  -7   7    0.04    0.90
  -5  -7   7    1.80    0.55
   4   7  -7    0.80    0.58
   4   7  -7    1.76    0.38
   4   7  -7    1.23    0.78
   4   7  -7    1.95    0.70
  -4  -7   7    2.08    0.61
  -4  -7   7    1.94    0.89
  -4  -7   7    1.34    0.57
  -4  -7   7    1.72    0.61
  -4  -7   7    1.10    0.59
   3   7  -7   14.57    1.35
   3   7  -7   12.44    0.81
   3   7  -7   12.25    1.25
   3   7  -7   10.74    1.32
  -3  -7   7   12.04    1.51
  -3  -7   7   13.30    1.16
  -3  -7   7   11.68    1.14
  -3  -7   7   13.43    1.27
  -3  -7   7   14.23    1.16
   2   7  -7    0.61    0.43
   2   7  -7    0.16    0.63
   2   7  -7    1.01    0.39
   2   7  -7    1.02    0.60
   2   7  -7    0.87    0.70
  -2  -7   7    0.81    0.56
  -2  -7   7    0.47    0.56
  -2  -7   7    0.98    0.55
  -2  -7   7    1.11    0.84
  -2  -7   7    0.89    0.64
   1   7  -7   18.16    1.41
   1   7  -7   17.56    1.37
   1   7  -7   16.33    1.01
   1   7  -7   16.92    0.93
   1   7  -7   15.39    1.42
  -1  -7   7   15.66    1.27
  -1  -7   7   19.21    1.60
  -1  -7   7   16.70    1.29
  -1  -7   7   18.07    1.27
  -1  -7   7   15.77    1.33
   0   7  -7    4.10    0.51
   0   7  -7    4.34    0.82
   0   7  -7    4.21    0.57
   0   7  -7    4.08    0.86
   0   7  -7    5.00    0.84
   0  -7   7    4.93    0.74
   0  -7   7    3.65    0.70
   0  -7   7    3.75    0.76
   0  -7   7    3.82    0.87
   0  -7   7    5.16    0.78
  -1   7  -7    6.23    0.66
  -1   7  -7    5.58    0.88
  -1   7  -7    4.21    0.86
  -1   7  -7    5.49    0.59
  -1   7  -7    4.23    0.81
   1  -7   7    4.37    0.92
   1  -7   7    5.18    0.76
   1  -7   7    3.86    0.68
   1  -7   7    3.51    0.88
   1  -7   7    4.49    0.77
   8   6  -7    7.48    0.98
   8   6  -7    9.05    0.95
   8   6  -7    7.36    0.97
  -8  -6   7    7.41    0.90
  -8  -6   7    5.05    0.79
  -8  -6   7    6.96    0.80
  -8  -6   7    8.33    0.87
   7   6  -7    2.75    0.75
   7   6  -7    2.56    0.72
   7   6  -7    1.05    0.64
   7   6  -7    2.29    0.47
  -7  -6   7    2.09    0.65
  -7  -6   7    1.18    0.63
  -7  -6   7    2.26    0.65
  -7  -6   7    1.68    0.61
   6   6  -7    0.34    0.40
   6   6  -7    0.29    0.65
   6   6  -7   -0.72    0.44
   6   6  -7    0.74    0.58
   6   6  -7    0.05    0.67
  -6  -6   7   -0.07    0.49
  -6  -6   7   -0.37    0.52
  -6  -6   7   -0.36    0.50
  -6  -6   7    0.35    0.53
   5   6  -7   10.15    1.26
   5   6  -7   12.23    0.81
   5   6  -7   11.33    1.18
   5   6  -7   13.33    1.24
   5   6  -7   10.78    0.89
  -5  -6   7   11.84    1.15
  -5  -6   7    9.98    1.01
  -5  -6   7   10.65    1.07
  -5  -6   7   12.53    1.11
   4   6  -7   10.32    1.13
   4   6  -7    9.68    0.86
   4   6  -7   10.94    1.11
   4   6  -7    8.82    1.18
   4   6  -7   10.07    0.77
  -4  -6   7    9.01    1.09
  -4  -6   7    9.47    1.02
  -4  -6   7    8.28    1.02
  -4  -6   7    9.90    0.96
   3   6  -7   23.47    1.16
   3   6  -7   23.93    1.40
   3   6  -7   27.03    1.46
   3   6  -7   25.19    1.09
   3   6  -7   24.90    1.46
  -3  -6   7   27.69    1.35
  -3  -6   7   26.92    1.42
  -3  -6   7   27.00    1.33
  -3  -6   7   29.93    1.38
   2   6  -7   35.47    1.62
   2   6  -7   35.63    1.30
   2   6  -7   34.53    1.65
   2   6  -7   32.24    1.65
   2   6  -7   34.33    1.36
  -2  -6   7   37.40    1.54
  -2  -6   7   35.38    1.63
  -2  -6   7   33.86    1.51
  -2  -6   7   35.23    1.54
   1   6  -7   33.35    1.36
   1   6  -7   34.49    1.31
   1   6  -7   34.46    1.64
   1   6  -7   35.98    1.66
   1   6  -7   35.50    1.65
  -1  -6   7   36.02    1.60
  -1  -6   7   36.18    1.52
  -1  -6   7   33.93    1.64
  -1  -6   7   36.70    1.55
   0   6  -7   -0.45    0.38
   0   6  -7   -0.52    0.58
   0   6  -7    0.13    0.43
   0   6  -7   -0.01    0.62
   0   6  -7   -0.27    0.59
   0  -6   7    0.12    0.54
   0  -6   7    0.23    0.47
   0  -6   7   -0.01    0.52
   0  -6   7    0.01    0.62
   0  -6   7    0.09    0.58
  -1   6  -7   19.80    1.47
  -1   6  -7   20.11    1.45
  -1   6  -7   21.23    1.11
  -1   6  -7   20.21    1.37
  -1   6  -7   18.74    1.15
   1  -6   7   22.05    1.45
   1  -6   7   20.72    1.32
   1  -6   7   19.88    1.38
   1  -6   7   20.65    1.31
  -2   6  -7   25.54    1.64
  -2   6  -7   23.10    1.49
  -2   6  -7   24.49    1.21
  -2   6  -7   22.50    1.64
   2  -6   7   23.52    1.43
   2  -6   7   23.05    1.45
   2  -6   7   24.96    1.53
   2  -6   7   22.06    1.61
  -3   6  -7    2.44    0.56
  -3   6  -7    0.87    0.71
  -3   6  -7    1.37    0.63
  -3   6  -7    1.90    0.77
   3  -6   7    1.87    0.86
   3  -6   7    0.30    0.60
   3  -6   7    1.71    0.64
   3  -6   7    2.32    0.75
   3  -6   7    2.22    0.82
   8   5  -7    0.74    0.49
   8   5  -7    0.62    0.78
   8   5  -7    0.04    0.71
   8   5  -7   -0.30    0.68
   8   5  -7    0.27    0.50
  -8  -5   7   -0.03    0.58
  -8  -5   7    0.54    0.56
  -8  -5   7   -0.29    0.61
  -8  -5   7   -0.19    0.61
   7   5  -7    1.46    0.68
   7   5  -7    1.81    0.48
   7   5  -7    0.73    0.65
   7   5  -7    1.05    0.52
   7   5  -7    2.10    0.72
  -7  -5   7    1.79    0.61
  -7  -5   7    2.33    0.58
  -7  -5   7    1.45    0.62
  -7  -5   7    1.74    0.63
   6   5  -7    0.73    0.64
   6   5  -7    1.20    0.43
   6   5  -7   -0.59    0.43
   6   5  -7    0.41    0.56
   6   5  -7    0.20    0.59
  -6  -5   7   -0.16    0.49
  -6  -5   7    1.02    0.61
  -6  -5   7    0.71    0.51
  -6  -5   7    0.46    0.50
   5   5  -7    0.70    0.38
   5   5  -7   -0.55    0.54
   5   5  -7   -0.44    0.54
  -5  -5   7    0.41    0.43
  -5  -5   7    0.47    0.54
  -5  -5   7    0.47    0.49
  -5  -5   7    1.00    0.49
   4   5  -7   12.34    1.06
   4   5  -7    9.42    0.90
   4   5  -7   12.30    1.10
   4   5  -7   12.43    0.83
  -4  -5   7   13.00    0.94
  -4  -5   7   11.72    1.07
  -4  -5   7   10.35    0.99
  -4  -5   7   11.98    1.04
   3   5  -7   14.90    0.88
   3   5  -7   14.26    1.15
   3   5  -7   12.28    0.91
   3   5  -7   15.89    1.15
  -3  -5   7   14.20    0.97
  -3  -5   7   13.79    1.02
  -3  -5   7   15.57    1.09
  -3  -5   7   13.29    1.12
  -3  -5   7   15.61    1.24
   2   5  -7   75.68    2.40
   2   5  -7   80.37    2.36
   2   5  -7   85.79    2.64
   2   5  -7   80.74    2.63
  -2  -5   7   80.84    2.62
  -2  -5   7   82.95    2.60
  -2  -5   7   80.70    2.49
  -2  -5   7   81.26    2.52
  -2  -5   7   83.91    2.68
   1   5  -7    0.46    0.53
   1   5  -7    0.91    0.57
   1   5  -7    1.09    0.46
   1   5  -7    0.95    0.39
  -1  -5   7    0.72    0.51
  -1  -5   7    0.87    0.61
  -1  -5   7   -0.41    0.49
  -1  -5   7    0.94    0.61
  -1  -5   7    0.70    0.45
   0   5  -7   49.63    1.90
   0   5  -7   48.30    1.95
   0   5  -7   51.42    1.72
   0   5  -7   49.56    1.68
   0  -5   7   51.51    1.83
   0  -5   7   52.57    1.93
   0  -5   7   48.76    1.90
   0  -5   7   47.80    1.78
   0  -5   7   49.06    1.95
  -1   5  -7   32.22    1.37
  -1   5  -7   30.27    1.31
  -1   5  -7   33.27    1.61
   1  -5   7   27.32    1.54
   1  -5   7   32.63    1.52
   1  -5   7   33.89    1.45
   1  -5   7   32.27    1.45
   1  -5   7   32.28    1.56
  -2   5  -7    3.84    0.55
  -2   5  -7    3.49    0.57
  -2   5  -7    5.55    0.86
   2  -5   7    3.53    0.60
   2  -5   7    4.01    0.63
   2  -5   7    4.81    0.78
   2  -5   7    5.00    0.74
   2  -5   7    4.98    0.75
  -3   5  -7   18.11    1.55
  -3   5  -7   21.66    1.55
  -3   5  -7   20.08    1.18
   3  -5   7   20.09    1.54
   3  -5   7   22.45    1.42
   3  -5   7   20.98    1.43
   3  -5   7   20.55    1.34
   3  -5   7   19.85    1.37
  -4   5  -7    4.94    0.64
  -4   5  -7    3.99    0.94
  -4   5  -7    3.63    0.89
  -4   5  -7    3.73    0.69
   4  -5   7    4.00    0.79
   4  -5   7    3.45    0.90
   4  -5   7    3.43    0.80
  -5   5  -7    0.17    0.56
  -5   5  -7   -0.36    0.69
  -5   5  -7   -0.11    0.77
   5  -5   7   -0.20    0.85
   5  -5   7   -0.45    0.72
   9   4  -7    1.23    0.74
   9   4  -7    0.21    0.59
   9   4  -7    0.87    0.77
   9   4  -7    1.38    0.93
   9   4  -7   -0.23    0.54
  -9  -4   7   -0.57    0.59
  -9  -4   7    1.10    0.62
  -9  -4   7    1.19    0.77
  -9  -4   7    1.35    0.78
   8   4  -7    0.33    0.48
   8   4  -7    0.68    0.60
   8   4  -7    1.01    0.68
   8   4  -7    0.76    0.72
  -8  -4   7    0.03    0.60
  -8  -4   7    2.56    0.76
  -8  -4   7    0.65    0.50
   7   4  -7    2.33    0.68
   7   4  -7    1.45    0.51
   7   4  -7    2.11    0.52
   7   4  -7    2.16    0.67
  -7  -4   7    2.23    0.54
  -7  -4   7    2.32    0.65
  -7  -4   7    2.39    0.62
  -7  -4   7    2.27    0.55
   6   4  -7   51.03    2.04
   6   4  -7   53.22    1.78
   6   4  -7   55.46    2.00
   6   4  -7   53.60    1.84
  -6  -4   7   58.73    2.06
  -6  -4   7   52.63    1.91
  -6  -4   7   54.30    2.00
  -6  -4   7   49.24    1.84
   5   4  -7    4.98    0.65
   5   4  -7    6.08    0.75
   5   4  -7    5.35    0.73
   5   4  -7    4.79    0.56
  -5  -4   7    3.14    0.49
  -5  -4   7    5.13    0.64
  -5  -4   7    5.28    0.69
  -5  -4   7    4.04    0.62
   4   4  -7    9.71    1.03
   4   4  -7   10.20    0.96
   4   4  -7    8.99    0.86
   4   4  -7    9.46    0.81
  -4  -4   7   11.50    1.01
  -4  -4   7   10.50    0.95
  -4  -4   7   10.03    0.84
  -4  -4   7   10.03    0.98
   3   4  -7   11.54    1.00
   3   4  -7   10.64    0.88
   3   4  -7   11.09    1.04
   3   4  -7   10.77    0.81
  -3  -4   7   11.65    0.84
  -3  -4   7   11.56    1.03
  -3  -4   7   10.68    0.95
  -3  -4   7   10.78    0.98
   2   4  -7   39.90    1.61
   2   4  -7   37.73    1.44
   2   4  -7   41.21    1.41
   2   4  -7   42.30    1.65
  -2  -4   7   41.89    1.62
  -2  -4   7   40.63    1.49
  -2  -4   7   44.02    1.63
  -2  -4   7   37.94    1.53
  -2  -4   7   41.86    1.66
   1   4  -7    4.22    0.47
   1   4  -7    2.20    0.44
   1   4  -7    3.24    0.58
   1   4  -7    3.90    0.64
  -1  -4   7    2.69    0.55
  -1  -4   7    3.14    0.52
  -1  -4   7    2.88    0.54
  -1  -4   7    4.82    0.65
  -1  -4   7    2.84    0.52
   0   4  -7   73.73    2.27
   0   4  -7   72.60    2.23
   0   4  -7   76.60    2.47
   0  -4   7   75.06    2.48
   0  -4   7   76.49    2.43
   0  -4   7   74.24    2.37
   0  -4   7   73.52    2.31
   0  -4   7   75.97    2.35
  -1   4  -7   17.44    1.00
  -1   4  -7   16.77    1.03
  -1   4  -7   16.22    1.21
   1  -4   7   16.15    1.05
   1  -4   7   17.38    1.17
   1  -4   7   17.99    1.21
   1  -4   7   17.17    1.08
   1  -4   7   17.19    1.08
  -2   4  -7   70.58    2.47
  -2   4  -7   71.61    2.20
  -2   4  -7   73.70    2.25
   2  -4   7   67.96    2.41
   2  -4   7   72.68    2.44
   2  -4   7   70.47    2.28
   2  -4   7   67.25    2.27
   2  -4   7   70.78    2.31
  -3   4  -7   -1.42    0.58
  -3   4  -7   -0.60    0.40
  -3   4  -7   -0.36    0.43
  -3   4  -7   -0.12    0.64
   3  -4   7   -1.41    0.60
   3  -4   7   -0.84    0.53
   3  -4   7   -0.90    0.47
   3  -4   7   -0.47    0.53
   3  -4   7   -0.35    0.49
  -4   4  -7   12.11    1.05
  -4   4  -7   12.31    1.38
  -4   4  -7   12.28    1.37
  -4   4  -7   10.93    1.30
   4  -4   7   13.02    1.28
   4  -4   7   10.39    1.16
   4  -4   7   10.40    1.33
  -5   4  -7   -0.23    0.54
  -5   4  -7    0.43    0.72
  -5   4  -7    0.47    0.60
  -5   4  -7    0.17    0.81
  -5   4  -7   -0.94    0.62
   5  -4   7    0.16    0.64
   5  -4   7   -0.16    0.65
   5  -4   7    0.20    0.73
  -6   4  -7    5.14    1.08
  -6   4  -7    6.81    0.91
  -6   4  -7    9.40    1.20
  -6   4  -7    4.69    0.73
  -6   4  -7    6.08    1.00
   6  -4   7    5.38    1.02
   6  -4   7    6.60    1.07
   9   3  -7    2.13    0.80
   9   3  -7   -0.02    0.54
   9   3  -7    1.08    0.78
   9   3  -7    1.25    0.64
  -9  -3   7    1.19    0.74
  -9  -3   7    1.82    0.76
  -9  -3   7    1.32    0.59
  -9  -3   7    0.68    0.60
   8   3  -7    0.33    0.68
   8   3  -7   -0.36    0.46
   8   3  -7    0.93    0.70
   8   3  -7    0.03    0.57
  -8  -3   7   -0.67    0.64
  -8  -3   7    0.70    0.53
  -8  -3   7    0.42    0.49
   7   3  -7   17.86    1.36
   7   3  -7   16.35    1.15
   7   3  -7   19.09    1.10
   7   3  -7   18.34    1.13
  -7  -3   7   16.96    1.34
  -7  -3   7   17.83    1.16
  -7  -3   7   17.92    1.15
  -7  -3   7   18.55    1.32
   6   3  -7   26.82    1.26
   6   3  -7   30.80    1.33
   6   3  -7   29.30    1.39
   6   3  -7   32.68    1.53
  -6  -3   7   30.04    1.47
  -6  -3   7   26.90    1.46
  -6  -3   7   29.82    1.31
  -6  -3   7   29.34    1.37
   5   3  -7  156.26    4.31
   5   3  -7  156.87    4.17
   5   3  -7  153.70    4.21
   5   3  -7  151.57    4.37
  -5  -3   7  150.00    4.36
  -5  -3   7  155.03    4.21
  -5  -3   7  158.87    4.28
  -5  -3   7  151.97    4.35
   4   3  -7    0.44    0.48
   4   3  -7    0.26    0.44
   4   3  -7    0.11    0.38
   4   3  -7   -0.09    0.49
   4   3  -7    0.19    0.39
  -4  -3   7    0.08    0.38
  -4  -3   7    0.10    0.39
  -4  -3   7   -0.16    0.43
  -4  -3   7    0.43    0.50
   3   3  -7   47.94    1.70
   3   3  -7   47.25    1.76
   3   3  -7   47.89    1.60
   3   3  -7   47.34    1.55
   3   3  -7   46.60    1.74
  -3  -3   7   46.83    1.73
  -3  -3   7   46.56    1.57
  -3  -3   7   46.91    1.72
  -3  -3   7   45.57    1.64
   2   3  -7    5.85    0.62
   2   3  -7    7.42    0.89
   2   3  -7    6.01    0.67
   2   3  -7    6.79    0.82
  -2  -3   7    4.61    0.52
  -2  -3   7    4.95    0.57
  -2  -3   7    4.32    0.46
  -2  -3   7    6.17    0.85
   1   3  -7   20.19    1.14
   1   3  -7   22.01    1.00
   1   3  -7   20.22    1.12
   1   3  -7   19.84    0.94
  -1  -3   7   20.99    1.00
  -1  -3   7   20.67    1.05
  -1  -3   7   19.57    1.04
  -1  -3   7   20.55    1.16
  -1  -3   7   19.69    1.11
   0   3  -7    3.71    0.57
   0   3  -7    3.08    0.42
   0   3  -7    3.54    0.56
   0   3  -7    4.01    0.47
   0  -3   7    3.62    0.48
   0  -3   7    3.82    0.54
   0  -3   7    4.44    0.50
   0  -3   7    4.66    0.55
   0  -3   7    4.47    0.63
  -1   3  -7   27.45    1.15
  -1   3  -7   27.82    1.35
  -1   3  -7   26.82    1.18
  -1   3  -7   26.75    1.32
   1  -3   7   25.91    1.17
   1  -3   7   28.02    1.24
   1  -3   7   26.52    1.30
   1  -3   7   28.35    1.35
   1  -3   7   27.57    1.15
  -2   3  -7    7.78    1.03
  -2   3  -7    9.15    0.89
  -2   3  -7    7.92    1.00
  -2   3  -7    7.60    0.82
   2  -3   7    7.65    0.90
   2  -3   7    8.21    0.97
   2  -3   7    8.06    0.76
   2  -3   7    7.75    0.96
   2  -3   7    8.10    0.84
  -3   3  -7   61.19    1.97
  -3   3  -7   55.23    2.18
  -3   3  -7   62.36    2.01
  -3   3  -7   61.11    2.19
   3  -3   7   61.98    2.06
   3  -3   7   61.98    2.17
   3  -3   7   58.95    2.18
   3  -3   7   58.65    1.95
  -4   3  -7   20.25    1.14
  -4   3  -7   18.37    1.38
  -4   3  -7   18.62    1.37
   4  -3   7   18.96    1.20
   4  -3   7   19.71    1.43
   4  -3   7   18.14    1.33
  -5   3  -7   61.94    2.12
  -5   3  -7   60.86    2.39
  -5   3  -7   59.17    2.13
  -5   3  -7   57.62    2.35
  -5   3  -7   59.90    2.07
   5  -3   7   63.38    2.40
   5  -3   7   60.34    2.33
  -6   3  -7   23.24    1.40
  -6   3  -7   23.12    1.68
  -6   3  -7   21.06    1.31
  -6   3  -7   17.54    1.44
  -6   3  -7   21.19    1.72
   6  -3   7   18.78    1.64
   6  -3   7   19.01    1.60
   6  -3   7   18.95    1.50
  -7   3  -7   12.81    1.40
  -7   3  -7   14.72    1.68
  -7   3  -7   12.97    1.30
  -7   3  -7   12.13    1.39
   7  -3   7    9.26    1.22
   7  -3   7   18.06    1.56
   7  -3   7   14.47    1.64
   9   2  -7    7.47    0.99
   9   2  -7    9.58    0.93
   9   2  -7   11.40    1.44
   9   2  -7    9.83    1.16
  -9  -2   7    7.75    0.97
  -9  -2   7   10.84    1.36
  -9  -2   7    6.87    0.80
  -9  -2   7    9.88    1.23
   8   2  -7    1.12    0.71
   8   2  -7    2.09    0.56
   8   2  -7    1.81    0.57
   8   2  -7    1.55    0.67
   8   2  -7    1.36    0.75
  -8  -2   7    1.84    0.56
  -8  -2   7    1.14    0.57
  -8  -2   7    0.95    0.65
  -8  -2   7    0.78    0.66
   7   2  -7    1.67    0.48
   7   2  -7    0.97    0.48
   7   2  -7    2.18    0.66
   7   2  -7    1.55    0.51
   7   2  -7    2.04    0.65
  -7  -2   7    1.36    0.53
  -7  -2   7    1.44    0.50
  -7  -2   7    1.73    0.63
  -7  -2   7    2.43    0.66
   6   2  -7    2.67    0.62
   6   2  -7    1.07    0.46
   6   2  -7    2.54    0.51
   6   2  -7    2.24    0.63
   6   2  -7    1.82    0.43
  -6  -2   7    1.78    0.59
  -6  -2   7    2.96    0.56
  -6  -2   7    2.68    0.61
  -6  -2   7    2.42    0.47
   5   2  -7    4.80    0.69
   5   2  -7    4.68    0.57
   5   2  -7    4.20    0.54
   5   2  -7    3.93    0.59
   5   2  -7    4.18    0.50
  -5  -2   7    3.45    0.51
  -5  -2   7    3.54    0.59
  -5  -2   7    4.42    0.56
  -5  -2   7    4.98    0.64
   4   2  -7   44.33    1.48
   4   2  -7   44.38    1.55
   4   2  -7   37.96    1.49
   4   2  -7   41.51    1.63
   4   2  -7   44.19    1.67
  -4  -2   7   45.44    1.56
  -4  -2   7   45.65    1.65
  -4  -2   7   42.93    1.48
  -4  -2   7   41.93    1.64
   3   2  -7   25.52    1.05
   3   2  -7   26.54    1.22
   3   2  -7   25.88    1.13
   3   2  -7   21.78    1.18
   3   2  -7   26.28    1.10
  -3  -2   7   23.82    1.02
  -3  -2   7   25.69    1.20
  -3  -2   7   25.40    1.14
  -3  -2   7   27.09    1.21
   2   2  -7   50.87    1.64
   2   2  -7   53.52    1.74
   2   2  -7   53.03    1.81
   2   2  -7   50.86    1.79
   2   2  -7   53.71    1.69
  -2  -2   7   51.52    1.64
  -2  -2   7   52.76    1.71
  -2  -2   7   52.57    1.79
  -2  -2   7   52.43    1.79
   1   2  -7    0.46    0.32
   1   2  -7    0.81    0.46
   1   2  -7    0.16    0.41
  -1  -2   7    1.06    0.20
  -1  -2   7    0.46    0.38
  -1  -2   7    0.34    0.39
  -1  -2   7    0.42    0.31
  -1  -2   7    0.78    0.42
   0   2  -7    4.54    0.55
   0   2  -7    5.85    0.63
   0   2  -7    4.55    0.47
   0   2  -7    4.54    0.54
   0  -2   7    5.16    0.59
   0  -2   7    5.31    0.62
   0  -2   7    6.10    0.72
   0  -2   7    4.51    0.52
   0  -2   7    5.24    0.59
  -1   2  -7    3.22    0.42
  -1   2  -7    5.22    0.65
  -1   2  -7    4.91    0.57
  -1   2  -7    4.67    0.58
   1  -2   7    4.68    0.56
   1  -2   7    3.53    0.54
   1  -2   7    5.03    0.52
   1  -2   7    4.60    0.58
   1  -2   7    4.61    0.47
  -2   2  -7   37.71    1.53
  -2   2  -7   34.52    1.32
  -2   2  -7   36.03    1.36
  -2   2  -7   36.31    1.51
   2  -2   7   36.76    1.39
   2  -2   7   35.49    1.35
   2  -2   7   36.06    1.49
   2  -2   7   36.56    1.25
   2  -2   7   35.47    1.50
  -3   2  -7   -0.38    0.53
  -3   2  -7   -0.15    0.37
  -3   2  -7    0.44    0.44
  -3   2  -7    0.02    0.51
   3  -2   7   -0.18    0.46
   3  -2   7   -0.03    0.45
   3  -2   7   -0.55    0.39
   3  -2   7    0.11    0.50
  -4   2  -7   37.28    1.47
  -4   2  -7   34.65    1.65
  -4   2  -7   40.24    1.72
  -4   2  -7   35.43    1.48
   4  -2   7   35.63    1.52
   4  -2   7   37.07    1.67
   4  -2   7   38.38    1.66
  -5   2  -7   14.71    1.10
  -5   2  -7   16.21    1.32
  -5   2  -7   14.59    0.95
  -5   2  -7   17.49    1.38
   5  -2   7   16.33    1.32
   5  -2   7   15.61    1.26
  -6   2  -7    4.80    0.66
  -6   2  -7    6.62    0.89
  -6   2  -7    6.20    0.85
  -6   2  -7    6.18    0.86
  -6   2  -7    4.40    0.67
   6  -2   7    5.45    0.73
   6  -2   7    6.15    0.84
   6  -2   7    5.64    0.79
  -7   2  -7    8.78    1.11
  -7   2  -7    8.11    0.91
  -7   2  -7    6.79    0.95
  -7   2  -7    9.10    1.03
  -7   2  -7    6.81    0.75
   7  -2   7    6.66    0.84
   7  -2   7   10.21    1.12
   7  -2   7   11.24    1.47
   9   1  -7   12.19    1.39
   9   1  -7   11.41    1.16
   9   1  -7    8.67    1.02
   9   1  -7   10.48    1.20
  -9  -1   7   11.04    1.24
  -9  -1   7   11.26    1.47
  -9  -1   7   12.27    1.26
  -9  -1   7   10.53    1.41
   8   1  -7   -0.35    0.60
   8   1  -7   -0.41    0.55
   8   1  -7   -0.10    0.65
   8   1  -7   -0.10    0.66
  -8  -1   7   -0.21    0.65
  -8  -1   7   -0.26    0.54
  -8  -1   7   -0.45    0.62
   7   1  -7   -1.02    0.42
   7   1  -7    0.07    0.45
   7   1  -7    0.04    0.59
   7   1  -7   -0.56    0.62
  -7  -1   7   -0.24    0.45
  -7  -1   7    0.17    0.58
   6   1  -7   -0.09    0.49
   6   1  -7   -0.57    0.39
   6   1  -7   -0.13    0.55
   6   1  -7   -0.14    0.52
   6   1  -7   -0.53    0.39
  -6  -1   7   -1.19    0.50
  -6  -1   7   -0.26    0.43
  -6  -1   7    0.24    0.53
   5   1  -7   27.57    1.33
   5   1  -7   28.12    1.17
   5   1  -7   28.06    1.37
   5   1  -7   29.80    1.25
   5   1  -7   26.18    1.15
  -5  -1   7   29.87    1.37
  -5  -1   7   28.59    1.17
  -5  -1   7   26.54    1.35
  -5  -1   7   27.58    1.23
   4   1  -7    0.48    0.43
   4   1  -7    0.22    0.35
   4   1  -7   -0.08    0.39
   4   1  -7    0.24    0.36
   4   1  -7    0.33    0.46
  -4  -1   7    0.34    0.33
  -4  -1   7    0.05    0.46
  -4  -1   7   -0.32    0.40
  -4  -1   7    0.26    0.41
   3   1  -7   99.57    2.85
   3   1  -7   95.04    2.72
   3   1  -7   94.23    2.72
   3   1  -7   95.96    2.68
   3   1  -7   94.46    2.81
  -3  -1   7   95.42    2.68
  -3  -1   7   97.92    2.84
  -3  -1   7   94.59    2.73
  -3  -1   7   91.41    2.80
   2   1  -7   16.07    0.86
   2   1  -7   17.84    0.83
   2   1  -7   18.37    1.00
   2   1  -7   16.19    0.95
  -2  -1   7   17.10    0.95
  -2  -1   7   15.99    0.95
  -2  -1   7   17.10    0.89
  -2  -1   7   16.67    0.80
   1   1  -7  192.58    5.26
   1   1  -7  200.50    5.13
   1   1  -7  197.35    5.16
   1   1  -7  193.39    5.25
  -1  -1   7  193.10    5.25
  -1  -1   7  193.96    5.16
  -1  -1   7  196.45    5.26
  -1  -1   7  199.25    4.94
  -1  -1   7  201.39    5.14
   0   1  -7  124.34    3.48
   0   1  -7  124.96    3.34
   0   1  -7  124.22    3.48
   0  -1   7  125.59    3.47
   0  -1   7  117.02    3.21
   0  -1   7  124.78    3.35
   0  -1   7  122.08    3.38
   0  -1   7  123.97    3.48
   0  -1   7  122.50    3.29
  -1   1  -7    1.32    0.36
  -1   1  -7    1.99    0.40
  -1   1  -7    1.51    0.43
  -1   1  -7    1.26    0.44
   1  -1   7    1.73    0.29
   1  -1   7    1.48    0.34
   1  -1   7    1.54    0.37
   1  -1   7    1.35    0.43
   1  -1   7    1.58    0.46
  -2   1  -7    0.12    0.32
  -2   1  -7    0.65    0.44
  -2   1  -7    0.85    0.46
  -2   1  -7    0.98    0.35
   2  -1   7    0.68    0.44
   2  -1   7    0.85    0.26
   2  -1   7    0.43    0.41
   2  -1   7    0.40    0.37
   2  -1   7    0.76    0.38
  -3   1  -7   81.79    2.59
  -3   1  -7   87.71    2.62
  -3   1  -7   84.33    2.44
  -3   1  -7   81.13    2.45
   3  -1   7   81.26    2.57
   3  -1   7   83.64    2.47
   3  -1   7   84.30    2.45
   3  -1   7   78.48    2.57
  -4   1  -7   65.59    2.26
  -4   1  -7   68.84    2.27
  -4   1  -7   63.36    2.10
  -4   1  -7   67.89    2.11
   4  -1   7   68.99    2.29
   4  -1   7   59.36    2.10
   4  -1   7   68.01    2.11
   4  -1   7   66.16    2.24
  -5   1  -7   -0.33    0.54
  -5   1  -7   -0.33    0.41
  -5   1  -7    0.19    0.35
  -5   1  -7   -0.73    0.53
   5  -1   7    0.30    0.57
   5  -1   7   -0.55    0.51
   5  -1   7   -0.04    0.42
   5  -1   7    0.02    0.44
  -6   1  -7   11.37    0.85
  -6   1  -7   12.52    1.31
  -6   1  -7   10.98    1.02
  -6   1  -7   10.64    1.23
   6  -1   7   11.68    1.28
   6  -1   7   11.81    1.24
  -7   1  -7   18.18    1.26
  -7   1  -7   17.26    1.54
  -7   1  -7   16.60    1.42
  -7   1  -7   18.19    1.32
  -7   1  -7   17.36    1.07
   7  -1   7   17.07    1.38
   7  -1   7   17.21    1.51
   7  -1   7   18.27    1.48
  -8   1  -7    1.75    0.58
  -8   1  -7    1.02    0.84
  -8   1  -7    1.49    0.65
  -8   1  -7    1.73    0.70
  -8   1  -7    1.83    0.86
   8  -1   7    1.31    0.83
   8  -1   7    0.02    0.90
   8  -1   7    1.72    0.76
   9   0  -7   -0.77    0.84
   9   0  -7    0.13    0.78
   9   0  -7    0.51    0.76
   9   0  -7    0.52    0.57
  -9   0   7    1.23    0.84
  -9   0   7    1.11    0.78
  -9   0   7    1.67    0.67
  -9   0   7    1.11    0.69
   8   0  -7    5.22    0.84
   8   0  -7    3.75    0.77
   8   0  -7    6.60    0.81
   8   0  -7    6.84    0.71
  -8   0   7    4.99    0.79
  -8   0   7    6.43    0.75
  -8   0   7    6.45    0.71
  -8   0   7    6.27    0.83
   7   0  -7    2.81    0.47
   7   0  -7    0.79    0.62
   7   0  -7    3.20    0.72
   7   0  -7    2.80    0.53
  -7   0   7    2.03    0.68
  -7   0   7    2.01    0.63
  -7   0   7    3.39    0.60
   6   0  -7    7.55    0.70
   6   0  -7    6.58    0.60
   6   0  -7    5.31    0.70
   6   0  -7    6.26    0.73
   6   0  -7    7.10    0.71
  -6   0   7    5.72    0.67
  -6   0   7    6.02    0.70
  -6   0   7    9.40    1.04
   5   0  -7    6.20    0.69
   5   0  -7    8.21    0.96
   5   0  -7    8.28    0.88
   5   0  -7    6.43    0.67
   5   0  -7    7.75    0.78
  -5   0   7    8.40    0.82
  -5   0   7    8.01    0.96
  -5   0   7    8.19    0.76
  -5   0   7    7.90    0.93
   4   0  -7   27.83    1.26
   4   0  -7   30.60    1.15
   4   0  -7   29.08    1.31
   4   0  -7   23.53    1.15
   4   0  -7   29.66    1.09
  -4   0   7   28.71    1.28
  -4   0   7   29.22    1.18
  -4   0   7   23.88    1.07
  -4   0   7   29.31    1.29
   3   0  -7    1.06    0.41
   3   0  -7    1.02    0.33
   3   0  -7    0.37    0.31
   3   0  -7    1.00    0.39
  -3   0   7    1.58    0.35
  -3   0   7    0.65    0.40
  -3   0   7    0.98    0.41
  -3   0   7    1.12    0.38
   2   0  -7  128.25    3.50
   2   0  -7  126.23    3.37
   2   0  -7  122.25    3.39
   2   0  -7  126.08    3.49
  -2   0   7  121.69    3.48
  -2   0   7  122.88    3.48
  -2   0   7  122.25    3.39
  -2   0   7  127.03    3.36
   1   0  -7    7.58    0.75
   1   0  -7    7.26    0.66
   1   0  -7    8.43    0.77
   1   0  -7    7.81    0.62
  -1   0   7    8.41    0.44
  -1   0   7    8.30    0.74
  -1   0   7    8.35    0.75
  -1   0   7    7.31    0.62
  -1   0   7    7.84    0.68
   0   0  -7  472.60   11.89
   0   0  -7  465.25   11.80
   0   0  -7  470.67   11.89
   0   0  -7  455.95   11.76
   0   0   7  463.09   11.89
   0   0   7  462.98   11.77
   0   0   7  468.40   11.80
   0   0   7  470.58   11.68
   0   0   7  478.35   11.89
  -1   0  -7   11.31    0.69
  -1   0  -7    9.67    0.80
  -1   0  -7   10.32    0.81
   1   0   7   10.57    0.62
   1   0   7   11.19    0.49
   1   0   7   10.04    0.68
   1   0   7   10.51    0.82
   1   0   7   10.07    0.81
   1   0   7   10.01    0.72
  -2   0  -7   79.97    2.30
  -2   0  -7   76.47    2.39
  -2   0  -7   80.52    2.40
  -2   0  -7   77.08    2.27
   2   0   7   76.69    2.41
   2   0   7   78.85    2.08
   2   0   7   77.55    2.39
   2   0   7   80.54    2.28
   2   0   7   80.94    2.30
  -3   0  -7   23.91    1.07
  -3   0  -7   25.85    1.20
  -3   0  -7   23.34    1.21
  -3   0  -7   24.41    1.06
   3   0   7   24.42    1.06
   3   0   7   26.05    1.19
   3   0   7   26.33    1.20
   3   0   7   24.43    1.09
  -4   0  -7   11.91    1.00
  -4   0  -7   12.39    0.89
  -4   0  -7   10.33    0.85
  -4   0  -7    9.68    0.97
   4   0   7   11.49    1.00
   4   0   7   11.29    0.89
   4   0   7   10.86    0.85
   4   0   7   11.03    0.99
  -5   0  -7    3.48    0.38
  -5   0  -7    3.03    0.53
  -5   0  -7    1.85    0.50
  -5   0  -7    2.56    0.58
  -5   0  -7    2.73    0.58
   5   0   7    2.96    0.55
   5   0   7    2.34    0.50
   5   0   7    3.65    0.67
   5   0   7    2.34    0.61
  -6   0  -7    3.18    0.68
  -6   0  -7    2.65    0.42
  -6   0  -7    2.39    0.54
  -6   0  -7    3.62    0.68
   6   0   7    2.86    0.58
   6   0   7    2.80    0.63
   6   0   7    2.66    0.64
   6   0   7    1.15    0.51
  -7   0  -7   23.23    1.53
  -7   0  -7   18.78    1.02
  -7   0  -7   23.90    1.45
  -7   0  -7   20.72    1.27
   7   0   7   20.52    1.49
   7   0   7   22.99    1.47
  -8   0  -7    5.29    0.77
  -8   0  -7    2.74    0.58
  -8   0  -7    3.60    0.83
  -8   0  -7    3.83    0.83
  -8   0  -7    2.97    0.70
   8   0   7    2.77    0.76
   8   0   7    3.83    0.87
   8   0   7    2.13    0.75
  -9   0  -7   17.83    1.47
  -9   0  -7   16.80    1.71
  -9   0  -7   16.07    1.83
   9   0   7   17.95    1.77
   9   0   7   18.10    1.67
   9  -1  -7   10.28    1.15
   9  -1  -7    9.50    1.09
   9  -1  -7   10.51    1.26
   9  -1  -7    8.89    0.98
  -9   1   7    9.03    0.88
  -9   1   7   11.57    1.30
  -9   1   7   11.27    1.56
  -9   1   7    9.87    1.09
   8  -1  -7    1.88    0.73
   8  -1  -7    2.96    0.65
   8  -1  -7    3.91    0.79
   8  -1  -7    2.20    0.76
  -8   1   7    2.57    0.78
  -8   1   7    2.45    0.63
  -8   1   7    3.03    0.73
  -8   1   7    2.86    0.62
   7  -1  -7   30.09    1.58
   7  -1  -7   29.59    1.35
   7  -1  -7   27.38    1.57
  -7   1   7   28.45    1.56
  -7   1   7   29.11    1.55
  -7   1   7   27.61    1.39
   6  -1  -7   26.55    1.02
   6  -1  -7   26.12    1.21
   6  -1  -7   25.35    1.41
   6  -1  -7   25.05    1.44
  -6   1   7   25.43    1.39
  -6   1   7   26.75    1.27
  -6   1   7   24.98    1.19
   5  -1  -7   -0.02    0.42
   5  -1  -7    0.65    0.49
   5  -1  -7   -0.40    0.32
   5  -1  -7    0.94    0.52
   5  -1  -7    0.55    0.40
  -5   1   7   -0.14    0.53
  -5   1   7    0.36    0.36
  -5   1   7    0.39    0.50
  -5   1   7    0.00    0.40
   4  -1  -7  473.78   11.86
   4  -1  -7  482.10   12.07
   4  -1  -7  485.11   11.93
   4  -1  -7  491.62   12.09
   4  -1  -7  411.48   11.92
  -4   1   7  483.85   11.96
  -4   1   7  462.58   12.06
  -4   1   7  471.45   11.91
  -4   1   7  482.25   12.07
   3  -1  -7   15.05    0.87
   3  -1  -7   15.03    0.93
   3  -1  -7   14.00    0.93
   3  -1  -7   14.21    0.71
   3  -1  -7   14.43    0.80
  -3   1   7   13.45    0.74
  -3   1   7   14.91    0.83
  -3   1   7   14.73    0.92
  -3   1   7   14.05    0.94
   2  -1  -7    6.33    0.71
   2  -1  -7    5.58    0.69
   2  -1  -7    6.07    0.64
   2  -1  -7    6.56    0.58
  -2   1   7    5.27    0.55
  -2   1   7    5.29    0.55
  -2   1   7    6.49    0.70
  -2   1   7    4.90    0.61
   1  -1  -7   34.97    1.32
   1  -1  -7   40.98    1.29
   1  -1  -7   36.09    1.35
   1  -1  -7   37.72    1.23
  -1   1   7   38.66    1.13
  -1   1   7   36.80    1.22
  -1   1   7   36.18    1.34
  -1   1   7   34.34    1.33
  -1   1   7   38.35    1.26
   0  -1  -7   53.08    1.73
   0  -1  -7   52.96    1.63
   0  -1  -7   54.11    1.66
   0  -1  -7   54.95    1.75
   0   1   7   52.57    1.61
   0   1   7   55.80    1.75
   0   1   7   57.72    1.76
   0   1   7   53.91    1.65
   0   1   7   54.03    1.57
  -1  -1  -7   13.35    0.81
  -1  -1  -7   13.92    0.76
  -1  -1  -7   13.50    0.71
  -1  -1  -7   14.68    0.84
   1   1   7   14.45    0.83
   1   1   7   13.82    0.75
   1   1   7   13.65    0.47
   1   1   7   14.66    0.71
   1   1   7   13.22    0.69
   1   1   7   15.03    0.82
  -2  -1  -7    8.52    0.63
  -2  -1  -7    7.82    0.73
  -2  -1  -7    8.78    0.74
  -2  -1  -7    7.18    0.67
   2   1   7    9.13    0.67
   2   1   7    7.91    0.65
   2   1   7    8.81    0.63
   2   1   7    9.02    0.74
   2   1   7    8.00    0.74
  -3  -1  -7    4.04    0.44
  -3  -1  -7    3.71    0.42
  -3  -1  -7    3.95    0.50
  -3  -1  -7    5.40    0.57
   3   1   7    4.00    0.42
   3   1   7    3.22    0.40
   3   1   7    2.96    0.44
   3   1   7    3.41    0.48
  -4  -1  -7   55.79    1.73
  -4  -1  -7   53.92    1.83
  -4  -1  -7   52.85    1.84
  -4  -1  -7   47.70    1.70
   4   1   7   49.85    1.82
   4   1   7   56.65    1.86
   4   1   7   54.78    1.70
   4   1   7   52.78    1.71
  -5  -1  -7   55.75    2.05
  -5  -1  -7   58.62    1.67
  -5  -1  -7   62.02    1.95
  -5  -1  -7   59.59    2.09
  -5  -1  -7   62.52    1.96
   5   1   7   58.83    1.91
   5   1   7   60.31    2.08
   5   1   7   62.27    1.95
   5   1   7   63.37    2.12
  -6  -1  -7   17.52    1.22
  -6  -1  -7   16.89    1.05
  -6  -1  -7   17.02    1.17
  -6  -1  -7   17.88    1.08
  -6  -1  -7   16.07    0.77
   6   1   7   17.63    1.08
   6   1   7   18.37    1.21
   6   1   7   17.51    1.06
  -7  -1  -7    2.64    0.74
  -7  -1  -7    2.07    0.59
  -7  -1  -7    2.51    0.57
  -7  -1  -7    2.57    0.42
  -7  -1  -7    2.54    0.51
   7   1   7    1.39    0.62
   7   1   7    2.35    0.53
   7   1   7    1.63    0.51
   7   1   7    3.04    0.68
  -8  -1  -7    8.27    0.84
  -8  -1  -7   10.89    1.35
  -8  -1  -7   10.82    1.10
  -8  -1  -7   10.44    1.27
  -8  -1  -7   10.48    0.86
   8   1   7   11.46    1.43
   8   1   7   12.45    1.39
   8   1   7   12.45    1.44
  -9  -1  -7    6.17    0.83
  -9  -1  -7    8.61    0.95
  -9  -1  -7    7.66    1.09
  -9  -1  -7    7.22    0.85
  -9  -1  -7    5.43    0.89
   9   1   7    8.31    0.90
   9   1   7    6.87    0.95
   9   1   7   10.92    1.49
   9  -2  -7    9.69    1.13
   9  -2  -7   13.14    1.31
   9  -2  -7    8.42    0.98
   9  -2  -7   14.71    1.65
  -9   2   7   13.59    1.60
  -9   2   7   10.55    1.16
  -9   2   7   16.08    1.33
  -9   2   7   13.77    1.37
   8  -2  -7   10.46    1.39
   8  -2  -7   14.33    1.20
   8  -2  -7   13.68    1.44
   8  -2  -7   13.50    1.40
  -8   2   7   11.66    1.44
  -8   2   7   14.26    1.24
  -8   2   7   14.38    1.19
  -8   2   7   13.19    1.44
   7  -2  -7    5.04    0.75
   7  -2  -7    5.60    0.64
   7  -2  -7    7.31    0.88
  -7   2   7    5.64    0.77
  -7   2   7    5.50    0.78
  -7   2   7    5.91    0.68
   6  -2  -7    0.09    0.42
   6  -2  -7   -0.35    0.54
   6  -2  -7    0.53    0.55
  -6   2   7    0.11    0.43
  -6   2   7   -0.34    0.49
  -6   2   7   -0.29    0.40
  -6   2   7    0.16    0.57
   5  -2  -7   61.12    2.12
   5  -2  -7   60.97    2.01
   5  -2  -7   54.61    1.92
   5  -2  -7   60.87    1.71
   5  -2  -7   56.46    2.09
  -5   2   7   63.88    1.98
  -5   2   7   62.56    2.09
  -5   2   7   62.11    1.91
   4  -2  -7  127.18    3.41
   4  -2  -7  141.18    3.72
   4  -2  -7  130.74    3.70
   4  -2  -7  128.64    3.59
   4  -2  -7  129.85    3.55
  -4   2   7  127.31    3.69
  -4   2   7  130.30    3.52
  -4   2   7  125.92    3.67
  -4   2   7  128.42    3.56
   3  -2  -7   41.67    1.55
   3  -2  -7   46.06    1.45
   3  -2  -7   42.86    1.57
   3  -2  -7   44.84    1.49
   3  -2  -7   43.35    1.33
  -3   2   7   41.47    1.55
  -3   2   7   40.76    1.56
  -3   2   7   45.01    1.41
  -3   2   7   46.44    1.46
   2  -2  -7   44.21    1.54
   2  -2  -7   45.97    1.47
   2  -2  -7   42.51    1.40
   2  -2  -7   43.37    1.52
  -2   2   7   44.16    1.38
  -2   2   7   44.55    1.42
  -2   2   7   47.56    1.54
  -2   2   7   43.08    1.52
   1  -2  -7    3.07    0.36
   1  -2  -7    5.14    0.51
   1  -2  -7    4.83    0.48
  -1   2   7    4.47    0.47
  -1   2   7    4.64    0.47
  -1   2   7    3.85    0.39
  -1   2   7    4.78    0.49
  -1   2   7    4.84    0.50
   0  -2  -7   75.64    2.24
   0  -2  -7   75.47    2.23
   0  -2  -7   75.29    2.17
   0  -2  -7   77.75    2.14
   0   2   7   77.73    2.24
   0   2   7   75.50    2.14
   0   2   7   77.66    2.12
   0   2   7   75.86    2.12
   0   2   7   75.56    2.24
  -1  -2  -7   -0.20    0.23
  -1  -2  -7   -0.29    0.27
  -1  -2  -7   -0.32    0.31
  -1  -2  -7   -0.15    0.30
   1   2   7   -0.11    0.26
   1   2   7    0.00    0.30
   1   2   7   -0.12    0.24
   1   2   7   -0.05    0.29
   1   2   7   -0.27    0.29
  -2  -2  -7  455.25   11.54
  -2  -2  -7  470.70   11.56
  -2  -2  -7  455.38   11.45
  -2  -2  -7  459.57   11.47
   2   2   7  454.99   11.44
   2   2   7  450.59   11.55
   2   2   7  454.92   11.49
   2   2   7  439.17   11.53
   2   2   7  455.72   11.43
  -3  -2  -7    7.29    0.63
  -3  -2  -7    6.03    0.72
  -3  -2  -7    7.42    0.74
  -3  -2  -7    6.46    0.65
   3   2   7    7.18    0.73
   3   2   7    8.09    0.73
   3   2   7    6.48    0.62
   3   2   7    7.01    0.60
   3   2   7    8.04    0.72
  -4  -2  -7    4.27    0.45
  -4  -2  -7    3.72    0.43
  -4  -2  -7    4.81    0.54
  -4  -2  -7    4.35    0.55
   4   2   7    5.12    0.61
   4   2   7    5.36    0.73
   4   2   7    5.05    0.62
   4   2   7    4.65    0.52
  -5  -2  -7   70.08    2.11
  -5  -2  -7   65.79    1.79
  -5  -2  -7   65.72    2.22
  -5  -2  -7   70.36    2.13
  -5  -2  -7   69.90    2.24
   5   2   7   71.75    2.24
   5   2   7   67.55    2.23
   5   2   7   69.20    2.08
   5   2   7   70.12    2.07
  -6  -2  -7  179.48    4.72
  -6  -2  -7  176.49    4.84
  -6  -2  -7  183.11    4.72
  -6  -2  -7  172.22    4.46
  -6  -2  -7  176.13    4.84
   6   2   7  179.24    4.68
   6   2   7  149.89    4.62
   6   2   7  177.32    4.84
  -7  -2  -7   36.50    1.65
  -7  -2  -7   35.86    1.50
  -7  -2  -7   34.46    1.19
  -7  -2  -7   34.73    1.46
  -7  -2  -7   35.25    1.58
   7   2   7   37.15    1.46
   7   2   7   35.53    1.44
   7   2   7   34.43    1.62
  -8  -2  -7   69.04    2.50
  -8  -2  -7   71.56    2.55
  -8  -2  -7   71.78    2.39
  -8  -2  -7   73.12    2.37
  -8  -2  -7   70.16    2.12
   8   2   7   73.59    2.34
   8   2   7   68.74    2.31
   8   2   7   72.17    2.57
  -9  -2  -7   -0.50    0.70
  -9  -2  -7   -1.38    0.67
  -9  -2  -7    0.07    0.44
  -9  -2  -7    0.58    0.62
  -9  -2  -7   -0.20    0.64
   9   2   7    0.59    0.72
   9   2   7   -0.24    0.60
   9   2   7   -0.01    0.53
   9   2   7    0.28    0.75
   8  -3  -7    2.38    0.78
   8  -3  -7    2.84    0.64
   8  -3  -7    2.16    0.77
   8  -3  -7    1.15    0.70
  -8   3   7    0.10    0.74
  -8   3   7    0.88    0.80
  -8   3   7    1.55    0.61
  -8   3   7    1.23    0.61
   7  -3  -7   35.55    1.50
   7  -3  -7   35.50    1.73
   7  -3  -7   32.81    1.64
   7  -3  -7   33.76    1.73
  -7   3   7   31.71    1.51
  -7   3   7   33.65    1.74
  -7   3   7   32.28    1.72
   6  -3  -7    5.69    0.70
   6  -3  -7    5.30    0.59
   6  -3  -7    5.02    0.64
   6  -3  -7    4.66    0.67
  -6   3   7    6.10    0.74
  -6   3   7    4.32    0.66
  -6   3   7    5.79    0.63
  -6   3   7    4.84    0.52
   5  -3  -7   20.96    1.06
   5  -3  -7   18.39    1.20
   5  -3  -7   19.88    1.14
   5  -3  -7   20.95    1.23
  -5   3   7   19.38    1.05
  -5   3   7   21.26    1.24
  -5   3   7   19.42    0.99
   4  -3  -7   -0.09    0.45
   4  -3  -7    0.31    0.44
   4  -3  -7    0.05    0.41
   4  -3  -7    0.13    0.20
   4  -3  -7    0.18    0.38
  -4   3   7    0.00    0.36
  -4   3   7   -0.04    0.30
  -4   3   7   -0.20    0.42
  -4   3   7    0.22    0.45
   3  -3  -7    5.88    0.52
   3  -3  -7    6.52    0.75
   3  -3  -7    5.60    0.75
   3  -3  -7    6.28    0.63
  -3   3   7    6.73    0.57
  -3   3   7    6.56    0.65
  -3   3   7    6.16    0.61
  -3   3   7    6.83    0.73
   2  -3  -7   15.79    0.76
   2  -3  -7   15.91    0.88
   2  -3  -7   16.11    0.87
   2  -3  -7   15.15    0.82
  -2   3   7   15.89    0.77
  -2   3   7   16.38    0.89
  -2   3   7   15.24    0.86
  -2   3   7   16.16    0.71
   1  -3  -7   55.95    1.81
   1  -3  -7   58.47    1.82
   1  -3  -7   58.19    1.76
   1  -3  -7   59.57    1.73
  -1   3   7   59.98    1.72
  -1   3   7   60.26    1.83
  -1   3   7   59.73    1.69
  -1   3   7   59.51    1.83
  -1   3   7   58.50    1.73
   0  -3  -7    1.41    0.28
   0  -3  -7    2.09    0.38
   0  -3  -7    1.35    0.31
   0  -3  -7    1.69    0.36
   0   3   7    2.22    0.28
   0   3   7    1.66    0.30
   0   3   7    1.83    0.36
   0   3   7    2.09    0.36
   0   3   7    2.19    0.26
   0   3   7    1.57    0.35
  -1  -3  -7  404.75    9.92
  -1  -3  -7  392.72    9.83
  -1  -3  -7  401.85    9.86
  -1  -3  -7  391.92    9.91
   1   3   7  396.77    9.92
   1   3   7  382.03    9.88
   1   3   7  383.25    9.80
   1   3   7  381.70    9.79
   1   3   7  372.75    9.69
   1   3   7  394.32    9.91
  -2  -3  -7    1.52    0.29
  -2  -3  -7    2.32    0.33
  -2  -3  -7    2.81    0.40
  -2  -3  -7    1.60    0.34
   2   3   7    3.08    0.41
   2   3   7    2.07    0.42
   2   3   7    2.63    0.30
   2   3   7    2.64    0.32
   2   3   7    2.31    0.37
  -3  -3  -7  184.31    4.99
  -3  -3  -7  184.35    4.99
  -3  -3  -7  191.18    4.92
   3   3   7  194.37    4.89
   3   3   7  187.25    5.00
   3   3   7  187.22    5.03
   3   3   7  190.26    4.87
   3   3   7  195.33    5.02
  -4  -3  -7    0.16    0.33
  -4  -3  -7    0.21    0.34
  -4  -3  -7   -0.09    0.28
  -4  -3  -7   -0.16    0.28
   4   3   7    0.26    0.28
   4   3   7    0.12    0.32
   4   3   7    0.08    0.41
   4   3   7   -0.21    0.26
   4   3   7   -0.07    0.36
  -5  -3  -7   20.88    0.97
  -5  -3  -7   20.45    1.06
  -5  -3  -7   21.12    0.98
  -5  -3  -7   21.61    1.07
   5   3   7   19.92    0.90
   5   3   7   19.27    0.89
   5   3   7   22.02    1.08
   5   3   7   21.27    1.15
   5   3   7   20.56    1.08
  -6  -3  -7   20.89    0.73
  -6  -3  -7   21.95    1.18
  -6  -3  -7   21.99    1.06
  -6  -3  -7   20.36    1.07
  -6  -3  -7   22.44    1.18
   6   3   7   21.65    0.99
   6   3   7   20.43    1.16
   6   3   7   23.50    1.19
   6   3   7   21.59    0.99
  -7  -3  -7    0.36    0.44
  -7  -3  -7    0.92    0.44
  -7  -3  -7    0.79    0.30
  -7  -3  -7    1.31    0.52
  -7  -3  -7    1.38    0.52
   7   3   7    1.06    0.42
   7   3   7    0.62    0.41
   7   3   7    0.48    0.50
  -8  -3  -7    2.51    0.43
  -8  -3  -7    2.37    0.58
  -8  -3  -7    2.20    0.60
  -8  -3  -7    2.81    0.60
  -8  -3  -7    2.01    0.59
   8   3   7    2.47    0.54
   8   3   7    3.16    0.68
   8   3   7    2.56    0.51
  -9  -3  -7   14.66    1.39
  -9  -3  -7   15.99    1.31
  -9  -3  -7   14.95    0.95
  -9  -3  -7   13.42    1.31
  -9  -3  -7   15.88    1.23
   9   3   7   14.39    1.41
   9   3   7   14.27    1.10
   9   3   7   14.17    1.47
   9   3   7   18.91    1.18
 -10  -3  -7    1.26    0.88
 -10  -3  -7    2.30    0.75
 -10  -3  -7    1.79    0.73
 -10  -3  -7    2.13    0.73
  10   3   7   -0.43    0.62
  10   3   7    2.17    0.67
  10   3   7    1.61    0.78
   8  -4  -7    0.75    0.73
   8  -4  -7   -0.34    0.58
   8  -4  -7    1.03    0.85
   8  -4  -7   -0.18    0.76
  -8   4   7    0.95    0.71
  -8   4   7    1.29    0.83
  -8   4   7    1.56    0.65
  -8   4   7    0.15    0.58
   7  -4  -7    0.85    0.53
   7  -4  -7    1.75    0.74
   7  -4  -7    1.09    0.70
   7  -4  -7    0.19    0.65
  -7   4   7    0.12    0.72
  -7   4   7    1.22    0.54
  -7   4   7    0.60    0.68
   6  -4  -7   52.54    1.96
   6  -4  -7   52.14    1.85
   6  -4  -7   52.20    2.04
   6  -4  -7   55.13    2.07
  -6   4   7   49.70    1.82
  -6   4   7   52.25    1.77
  -6   4   7   52.46    2.06
   5  -4  -7    1.87    0.54
   5  -4  -7    2.39    0.61
   5  -4  -7    1.46    0.45
   5  -4  -7    2.14    0.57
  -5   4   7    1.49    0.55
  -5   4   7    1.23    0.42
  -5   4   7    2.18    0.42
   4  -4  -7   47.77    1.77
   4  -4  -7   50.07    1.64
   4  -4  -7   47.56    1.76
   4  -4  -7   49.83    1.70
  -4   4   7   49.20    1.55
  -4   4   7   48.57    1.60
  -4   4   7   52.19    1.79
  -4   4   7   44.61    1.74
   3  -4  -7    6.08    0.78
   3  -4  -7    6.78    0.64
   3  -4  -7    6.53    0.74
   3  -4  -7    7.05    0.79
   3  -4  -7    6.51    0.38
  -3   4   7    6.33    0.56
  -3   4   7    7.18    0.65
  -3   4   7    6.20    0.75
  -3   4   7    6.16    0.79
   2  -4  -7    5.62    0.64
   2  -4  -7    5.97    0.68
   2  -4  -7    5.82    0.58
   2  -4  -7    5.65    0.65
  -2   4   7    6.18    0.50
  -2   4   7    5.89    0.69
  -2   4   7    6.49    0.69
  -2   4   7    6.40    0.56
   1  -4  -7    0.45    0.30
   1  -4  -7    0.13    0.29
   1  -4  -7    0.11    0.29
   1  -4  -7    0.06    0.24
  -1   4   7   -0.02    0.29
  -1   4   7   -0.38    0.34
  -1   4   7    0.07    0.24
  -1   4   7    0.19    0.20
  -1   4   7    0.20    0.33
  -1   4   7   -0.30    0.29
   0  -4  -7   21.19    0.88
   0  -4  -7   21.89    0.90
   0  -4  -7   21.31    0.81
   0  -4  -7   19.71    0.85
   0   4   7   19.48    0.90
   0   4   7   21.27    0.91
   0   4   7   21.53    0.91
   0   4   7   19.93    0.80
   0   4   7   22.80    0.78
   0   4   7   22.24    0.75
  -1  -4  -7   28.61    1.02
  -1  -4  -7   26.73    0.97
  -1  -4  -7   28.72    1.04
  -1  -4  -7   27.12    0.93
   1   4   7   27.18    0.87
   1   4   7   27.19    1.03
   1   4   7   27.24    1.07
   1   4   7   26.59    0.86
   1   4   7   26.32    1.02
   1   4   7   27.41    0.89
  -2  -4  -7   54.86    1.66
  -2  -4  -7   55.02    1.59
  -2  -4  -7   54.27    1.61
  -2  -4  -7   53.48    1.66
   2   4   7   54.86    1.66
   2   4   7   55.72    1.68
   2   4   7   52.33    1.72
   2   4   7   55.43    1.51
   2   4   7   54.31    1.52
  -3  -4  -7    9.41    0.65
  -3  -4  -7   10.03    0.65
  -3  -4  -7    9.07    0.62
  -3  -4  -7    9.45    0.59
   3   4   7   10.07    0.69
   3   4   7    9.61    0.68
   3   4   7    8.95    0.78
   3   4   7    9.59    0.51
   3   4   7    9.70    0.49
  -4  -4  -7   13.97    0.78
  -4  -4  -7   16.47    0.76
  -4  -4  -7   15.75    0.83
  -4  -4  -7   16.37    0.83
   4   4   7   15.79    0.67
   4   4   7   17.07    0.86
   4   4   7   16.34    0.66
   4   4   7   14.50    0.96
   4   4   7   15.89    0.82
  -5  -4  -7   43.41    1.50
  -5  -4  -7   44.02    1.41
  -5  -4  -7   40.70    1.40
  -5  -4  -7   41.89    1.48
   5   4   7   41.87    1.48
   5   4   7   39.05    1.60
   5   4   7   42.13    1.30
   5   4   7   45.07    1.52
   5   4   7   41.71    1.30
  -6  -4  -7   23.55    1.20
  -6  -4  -7   25.03    1.13
  -6  -4  -7   27.17    1.22
  -6  -4  -7   27.70    1.14
   6   4   7   28.32    1.24
   6   4   7   28.42    1.01
   6   4   7   28.14    1.02
   6   4   7   28.46    1.23
   6   4   7   27.63    1.38
  -7  -4  -7    0.70    0.41
  -7  -4  -7    1.09    0.47
  -7  -4  -7    0.14    0.44
  -7  -4  -7    0.40    0.44
   7   4   7    1.11    0.63
   7   4   7    0.62    0.44
   7   4   7    1.02    0.34
   7   4   7    0.45    0.35
   7   4   7    1.05    0.49
  -8  -4  -7    7.33    0.89
  -8  -4  -7    6.94    0.96
  -8  -4  -7    5.65    0.62
  -8  -4  -7    5.26    0.66
   8   4   7    7.70    1.05
   8   4   7    7.42    0.77
   8   4   7    5.91    0.71
   8   4   7    6.99    0.75
  -9  -4  -7    5.45    0.78
  -9  -4  -7    6.06    0.76
  -9  -4  -7    3.78    0.64
  -9  -4  -7    5.89    0.67
   9   4   7    7.26    0.86
   9   4   7    5.14    0.57
   9   4   7    4.96    0.78
   9   4   7    5.64    0.84
 -10  -4  -7    2.61    0.63
 -10  -4  -7    3.50    0.80
 -10  -4  -7    2.88    0.81
 -10  -4  -7    2.77    0.72
  10   4   7    3.60    0.63
  10   4   7    2.67    0.80
  10   4   7    3.55    0.99
   7  -5  -7    2.27    0.78
   7  -5  -7    2.89    0.82
   7  -5  -7    3.46    0.64
   7  -5  -7    1.52    0.73
  -7   5   7    4.07    0.95
  -7   5   7    1.70    0.70
  -7   5   7    1.15    0.53
  -7   5   7   -0.03    0.76
  -7   5   7    2.99    0.64
   6  -5  -7   30.41    1.58
   6  -5  -7   32.33    1.64
   6  -5  -7   32.57    1.45
   6  -5  -7   34.27    1.64
  -6   5   7   30.60    1.32
  -6   5   7   32.79    1.76
  -6   5   7   33.16    1.41
  -6   5   7   31.90    1.66
   5  -5  -7   45.55    1.83
   5  -5  -7   46.34    1.80
   5  -5  -7   45.88    1.65
   5  -5  -7   46.10    1.77
  -5   5   7   45.69    1.55
  -5   5   7   48.20    1.85
  -5   5   7   44.83    1.60
  -5   5   7   45.77    1.93
   4  -5  -7   36.10    1.49
   4  -5  -7   34.55    1.50
   4  -5  -7   32.03    1.34
   4  -5  -7   34.87    1.42
  -4   5   7   35.60    1.22
  -4   5   7   34.12    1.57
  -4   5   7   38.05    1.50
  -4   5   7   35.42    1.49
  -4   5   7   35.46    1.28
   3  -5  -7   30.62    1.24
   3  -5  -7   29.71    1.27
   3  -5  -7   32.55    1.19
   3  -5  -7   30.16    1.29
  -3   5   7   29.45    1.10
  -3   5   7   30.13    1.36
  -3   5   7   31.42    1.31
  -3   5   7   30.18    1.05
  -3   5   7   30.45    1.29
   2  -5  -7   15.05    0.83
   2  -5  -7   15.18    0.87
   2  -5  -7   13.96    0.87
   2  -5  -7   14.52    0.78
  -2   5   7   14.49    0.86
  -2   5   7   14.18    0.64
  -2   5   7   14.87    0.69
  -2   5   7   14.06    0.92
  -2   5   7   15.15    0.89
   1  -5  -7   18.86    0.79
   1  -5  -7   18.73    0.87
   1  -5  -7   17.85    0.85
   1  -5  -7   18.05    0.83
  -1   5   7   17.83    0.66
  -1   5   7   18.95    0.88
  -1   5   7   18.16    0.89
  -1   5   7   18.43    0.88
  -1   5   7   17.19    0.68
   0  -5  -7    1.66    0.32
   0  -5  -7    1.43    0.31
   0  -5  -7    1.34    0.31
   0  -5  -7    1.03    0.26
   0   5   7    1.53    0.33
   0   5   7    1.46    0.40
   0   5   7    1.60    0.34
   0   5   7    1.93    0.34
   0   5   7    1.34    0.19
   0   5   7    1.50    0.21
  -1  -5  -7   23.64    0.85
  -1  -5  -7   23.86    0.89
  -1  -5  -7   23.81    0.91
  -1  -5  -7   23.17    0.91
   1   5   7   23.56    0.87
   1   5   7   24.34    0.92
   1   5   7   22.83    1.03
   1   5   7   23.78    0.70
   1   5   7   22.82    0.69
   1   5   7   23.73    0.93
  -2  -5  -7   10.18    0.62
  -2  -5  -7   10.35    0.59
  -2  -5  -7   10.42    0.55
  -2  -5  -7   10.23    0.62
   2   5   7    9.52    0.74
   2   5   7   10.30    0.36
   2   5   7   10.81    0.37
   2   5   7   10.23    0.63
   2   5   7   10.74    0.65
  -3  -5  -7   49.34    1.47
  -3  -5  -7   47.00    1.49
  -3  -5  -7   49.95    1.50
  -3  -5  -7   49.54    1.45
   3   5   7   47.54    1.50
   3   5   7   47.70    1.66
   3   5   7   49.60    1.53
   3   5   7   48.55    1.26
  -4  -5  -7   12.61    0.65
  -4  -5  -7   11.30    0.47
  -4  -5  -7   11.37    0.69
  -4  -5  -7   11.84    0.70
   4   5   7   11.23    0.41
   4   5   7   12.11    0.43
   4   5   7   11.79    0.70
   4   5   7   11.85    0.73
   4   5   7   11.96    0.93
  -5  -5  -7   41.11    1.34
  -5  -5  -7   41.10    1.33
  -5  -5  -7   42.40    1.40
  -5  -5  -7   40.62    1.15
  -5  -5  -7   40.67    1.39
   5   5   7   39.90    1.13
   5   5   7   40.43    1.12
   5   5   7   39.87    1.57
   5   5   7   37.23    1.39
   5   5   7   38.83    1.38
  -6  -5  -7    2.94    0.45
  -6  -5  -7    2.89    0.42
  -6  -5  -7    2.79    0.40
  -6  -5  -7    2.92    0.31
  -6  -5  -7    2.34    0.43
   6   5   7    2.64    0.67
   6   5   7    2.80    0.29
   6   5   7    2.56    0.45
   6   5   7    3.17    0.28
   6   5   7    2.04    0.42
  -7  -5  -7    8.40    0.86
  -7  -5  -7    8.90    0.81
  -7  -5  -7    8.04    0.80
  -7  -5  -7    8.61    0.85
   7   5   7    8.17    1.08
   7   5   7    8.97    0.57
   7   5   7    7.71    0.90
   7   5   7    8.61    0.55
   7   5   7    9.08    0.87
  -8  -5  -7    0.10    0.45
  -8  -5  -7    0.51    0.42
  -8  -5  -7   -0.03    0.47
  -8  -5  -7    0.06    0.45
   8   5   7    0.13    0.46
   8   5   7    0.38    0.30
   8   5   7   -0.26    0.63
   8   5   7   -0.26    0.28
  -9  -5  -7    1.81    0.54
  -9  -5  -7    1.59    0.62
  -9  -5  -7    2.09    0.59
  -9  -5  -7    2.66    0.54
   9   5   7    1.72    0.63
   9   5   7    1.83    0.41
   9   5   7    1.34    0.61
   9   5   7    0.16    0.78
 -10  -5  -7    1.01    0.56
 -10  -5  -7    1.01    0.70
 -10  -5  -7    0.69    0.60
 -10  -5  -7    1.93    0.66
  10   5   7    0.81    0.67
  10   5   7    0.60    0.84
  10   5   7    0.33    0.44
  10   5   7    0.78    0.37
  10   5   7   -0.23    0.65
   7  -6  -7    1.12    0.63
   7  -6  -7    1.60    0.80
   7  -6  -7    1.29    0.82
   7  -6  -7    0.87    0.70
  -7   6   7    1.26    0.82
  -7   6   7    3.67    1.05
  -7   6   7    2.74    0.61
   6  -6  -7   17.42    1.40
   6  -6  -7   18.04    1.37
   6  -6  -7   17.17    1.36
   6  -6  -7   17.68    1.19
  -6   6   7   19.52    1.41
  -6   6   7   19.03    1.48
  -6   6   7   16.00    1.03
  -6   6   7   16.32    1.56
  -6   6   7   17.29    1.10
   5  -6  -7    3.22    0.60
   5  -6  -7    3.36    0.61
   5  -6  -7    3.64    0.57
   5  -6  -7    3.06    0.61
  -5   6   7    2.26    0.41
  -5   6   7    3.71    0.67
  -5   6   7    3.30    0.64
  -5   6   7    3.59    0.48
  -5   6   7    4.61    0.87
   4  -6  -7  171.41    4.51
   4  -6  -7  170.85    4.57
   4  -6  -7  161.60    4.62
   4  -6  -7  166.93    4.62
  -4   6   7  165.56    4.36
  -4   6   7  161.63    4.63
  -4   6   7  165.59    4.39
  -4   6   7  166.96    4.76
   3  -6  -7    0.66    0.43
   3  -6  -7    0.85    0.43
   3  -6  -7   -0.24    0.37
   3  -6  -7    0.28    0.37
  -3   6   7    0.30    0.41
  -3   6   7    0.47    0.44
  -3   6   7    0.48    0.25
  -3   6   7    0.86    0.30
  -3   6   7    1.33    0.58
   2  -6  -7  220.56    5.70
   2  -6  -7  229.89    5.72
   2  -6  -7  202.04    5.41
   2  -6  -7  217.04    5.65
   2  -6  -7  213.60    5.60
  -2   6   7  212.09    5.46
  -2   6   7  211.60    5.69
  -2   6   7  228.07    5.72
  -2   6   7  212.79    5.48
  -2   6   7  211.70    5.79
   1  -6  -7   10.78    0.71
   1  -6  -7   11.11    0.73
   1  -6  -7    9.94    0.64
   1  -6  -7    9.16    0.69
  -1   6   7   10.32    0.72
  -1   6   7    9.16    0.41
  -1   6   7    9.43    0.44
  -1   6   7   11.24    0.83
   0  -6  -7    2.93    0.36
   0  -6  -7    2.53    0.31
   0  -6  -7    2.68    0.34
   0  -6  -7    2.40    0.34
   0   6   7    2.56    0.36
   0   6   7    2.51    0.35
   0   6   7    3.19    0.52
   0   6   7    3.34    0.46
  -1  -6  -7    5.61    0.50
  -1  -6  -7    6.15    0.53
  -1  -6  -7    6.30    0.53
  -1  -6  -7    5.98    0.49
   1   6   7    6.05    0.54
   1   6   7    5.66    0.55
   1   6   7    6.26    0.75
   1   6   7    5.14    0.59
  -2  -6  -7   20.40    0.79
  -2  -6  -7   21.04    0.80
  -2  -6  -7   19.84    0.76
  -2  -6  -7   21.01    0.80
   2   6   7   21.26    0.82
   2   6   7   18.37    1.01
   2   6   7   20.45    0.82
  -3  -6  -7   10.82    0.61
  -3  -6  -7   12.26    0.58
  -3  -6  -7   10.62    0.59
  -3  -6  -7   11.53    0.62
  -3  -6  -7    9.43    0.61
   3   6   7   11.95    0.64
   3   6   7   10.95    0.90
   3   6   7   11.23    0.64
  -4  -6  -7   36.44    1.19
  -4  -6  -7   35.20    1.15
  -4  -6  -7   35.00    1.18
  -4  -6  -7   35.52    1.16
  -4  -6  -7   35.62    1.13
   4   6   7   36.16    1.20
   4   6   7   36.18    1.21
   4   6   7   36.07    1.47
  -5  -6  -7    2.91    0.35
  -5  -6  -7    2.79    0.37
  -5  -6  -7    2.31    0.33
  -5  -6  -7    2.85    0.37
  -5  -6  -7    2.37    0.36
   5   6   7    2.62    0.38
   5   6   7    2.59    0.38
   5   6   7    3.05    0.62
  -6  -6  -7   40.78    1.40
  -6  -6  -7   42.64    1.45
  -6  -6  -7   43.05    1.33
  -6  -6  -7   41.74    1.42
  -6  -6  -7   45.17    1.42
   6   6   7   42.11    1.47
   6   6   7   42.05    1.45
   6   6   7   41.58    1.70
  -7  -6  -7   -0.77    0.35
  -7  -6  -7    0.04    0.37
  -7  -6  -7    0.11    0.35
  -7  -6  -7    0.34    0.37
  -7  -6  -7    0.37    0.34
   7   6   7   -0.16    0.59
   7   6   7    0.12    0.38
   7   6   7    0.28    0.40
  -8  -6  -7   14.91    1.02
  -8  -6  -7   16.20    1.00
  -8  -6  -7   15.68    1.04
  -8  -6  -7   15.43    1.01
   8   6   7   15.02    1.34
   8   6   7   16.97    1.06
  -9  -6  -7    2.05    0.55
  -9  -6  -7    2.49    0.59
  -9  -6  -7    2.54    0.55
  -9  -6  -7    2.94    0.55
   9   6   7    2.82    0.93
   9   6   7    2.76    0.65
   9   6   7    1.65    0.58
 -10  -6  -7    0.93    0.64
 -10  -6  -7    0.40    0.64
 -10  -6  -7    2.35    0.61
 -10  -6  -7    1.22    0.61
  10   6   7    1.37    0.85
  10   6   7    0.11    0.64
  10   6   7    0.92    0.68
  10   6   7    0.15    0.24
   6  -7  -7    1.59    0.64
   6  -7  -7    1.83    0.71
   6  -7  -7    1.88    0.67
   6  -7  -7    1.13    0.68
  -6   7   7    1.59    0.50
  -6   7   7    1.30    0.72
  -6   7   7    2.18    0.74
  -6   7   7    0.91    0.92
   5  -7  -7   14.24    1.23
   5  -7  -7   14.42    1.12
   5  -7  -7   13.05    1.25
   5  -7  -7   16.17    1.27
  -5   7   7   17.18    1.33
  -5   7   7   15.97    0.90
  -5   7   7   13.90    1.25
  -5   7   7   13.21    1.45
   4  -7  -7   13.32    1.06
   4  -7  -7   13.36    1.10
   4  -7  -7   14.38    1.08
   4  -7  -7   13.48    0.99
  -4   7   7   12.73    1.09
  -4   7   7   13.52    0.74
  -4   7   7   11.64    1.29
  -4   7   7   15.47    1.16
   3  -7  -7   18.37    0.99
   3  -7  -7   18.57    1.07
   3  -7  -7   18.81    1.06
   3  -7  -7   15.71    1.03
  -3   7   7   17.71    0.68
  -3   7   7   17.15    1.29
  -3   7   7   18.32    0.71
  -3   7   7   17.15    1.06
   2  -7  -7    0.29    0.39
   2  -7  -7    0.69    0.36
   2  -7  -7    0.53    0.38
   2  -7  -7    0.39    0.35
  -2   7   7    0.82    0.55
  -2   7   7    0.42    0.16
  -2   7   7    0.48    0.39
  -2   7   7    0.14    0.38
  -2   7   7    0.28    0.14
   1  -7  -7   36.12    1.21
   1  -7  -7   36.13    1.25
   1  -7  -7   34.48    1.26
   1  -7  -7   36.58    1.28
   1  -7  -7   34.05    1.10
  -1   7   7   35.02    1.27
  -1   7   7   35.93    1.47
  -1   7   7   33.27    1.27
   0  -7  -7    3.42    0.37
   0  -7  -7    3.14    0.34
   0  -7  -7    2.62    0.35
   0  -7  -7    3.08    0.39
   0  -7  -7    2.88    0.35
   0   7   7    3.05    0.38
   0   7   7    3.52    0.53
   0   7   7    2.94    0.38
  -1  -7  -7   39.36    1.25
  -1  -7  -7   39.02    1.24
  -1  -7  -7   39.58    1.22
  -1  -7  -7   39.17    1.24
   1   7   7   38.72    1.51
   1   7   7   41.81    1.28
   1   7   7   41.15    1.27
   1   7   7   40.47    1.45
  -2  -7  -7   16.65    0.69
  -2  -7  -7   16.38    0.66
  -2  -7  -7   13.72    0.68
  -2  -7  -7   16.71    0.68
   2   7   7   17.20    1.06
   2   7   7   17.12    0.72
  -3  -7  -7    0.44    0.24
  -3  -7  -7    0.56    0.24
  -3  -7  -7    0.78    0.24
  -3  -7  -7    0.33    0.36
  -3  -7  -7    0.90    0.27
   3   7   7    0.89    0.52
   3   7   7    0.91    0.28
  -4  -7  -7  116.07    3.01
  -4  -7  -7  114.07    3.02
  -4  -7  -7  111.95    3.12
  -4  -7  -7  115.68    3.02
  -4  -7  -7  112.63    3.03
   4   7   7  114.32    3.36
   4   7   7  115.19    3.04
  -5  -7  -7    4.96    0.54
  -5  -7  -7    4.47    0.62
  -5  -7  -7    6.52    0.56
  -5  -7  -7    5.06    0.53
  -5  -7  -7    4.66    0.54
   5   7   7    5.41    0.62
   5   7   7    4.67    0.57
   5   7   7    5.30    0.68
  -6  -7  -7   18.51    0.86
  -6  -7  -7   18.00    0.83
  -6  -7  -7   18.85    0.82
  -6  -7  -7   17.79    0.88
  -6  -7  -7   17.12    0.80
   6   7   7   16.41    0.84
   6   7   7   18.75    1.24
   6   7   7   18.90    0.87
  -7  -7  -7   14.95    0.81
  -7  -7  -7   15.35    0.86
  -7  -7  -7   13.32    0.83
  -7  -7  -7   14.95    0.86
  -7  -7  -7   15.88    0.86
   7   7   7   15.88    0.88
   7   7   7   14.58    0.88
   7   7   7   15.96    1.27
  -8  -7  -7   34.99    1.37
  -8  -7  -7   34.25    1.35
  -8  -7  -7   35.12    1.37
  -8  -7  -7   35.59    1.37
  -8  -7  -7   34.50    1.33
   8   7   7   35.75    1.75
   8   7   7   35.36    1.38
  -9  -7  -7    2.37    0.55
  -9  -7  -7    3.21    0.57
  -9  -7  -7    2.05    0.52
  -9  -7  -7    3.45    0.59
   9   7   7    1.96    0.78
   9   7   7    3.00    0.61
   5  -8  -7    4.09    0.75
   5  -8  -7    3.07    0.61
   5  -8  -7    3.80    0.73
   5  -8  -7    5.08    0.78
  -5   8   7    4.55    0.80
  -5   8   7    5.25    0.98
  -5   8   7    4.50    0.79
  -5   8   7    5.46    0.68
   4  -8  -7   13.32    1.04
   4  -8  -7   11.75    1.16
   4  -8  -7   10.45    1.11
   4  -8  -7   10.39    1.10
  -4   8   7   13.15    1.40
  -4   8   7    8.41    0.55
  -4   8   7   11.42    1.19
  -4   8   7   10.43    1.10
   3  -8  -7   46.35    1.73
   3  -8  -7   45.46    1.73
   3  -8  -7   47.58    1.66
   3  -8  -7   44.91    1.71
  -3   8   7   47.20    2.02
  -3   8   7   46.25    1.74
  -3   8   7   51.46    2.04
   2  -8  -7   30.46    1.19
   2  -8  -7   28.99    1.21
   2  -8  -7   30.28    1.24
   2  -8  -7   31.28    1.25
  -2   8   7   30.67    1.55
  -2   8   7   23.53    1.19
  -2   8   7   28.57    1.22
   1  -8  -7   17.33    0.82
   1  -8  -7   16.42    0.86
   1  -8  -7   15.42    0.67
   1  -8  -7   16.00    0.86
   1  -8  -7   15.78    0.82
  -1   8   7   15.35    1.14
  -1   8   7   16.08    0.88
  -1   8   7   16.53    0.86
   0  -8  -7   17.19    0.77
   0  -8  -7   17.60    0.79
   0  -8  -7   17.77    0.82
   0  -8  -7   17.66    0.78
   0  -8  -7   16.83    0.82
   0   8   7   20.75    1.12
   0   8   7   18.80    0.84
   0   8   7   14.22    0.78
  -1  -8  -7   51.84    1.51
  -1  -8  -7   51.65    1.52
  -1  -8  -7   51.34    1.55
  -1  -8  -7   53.71    1.70
  -1  -8  -7   51.80    1.51
   1   8   7   51.67    1.91
   1   8   7   53.25    1.54
   1   8   7   54.07    1.85
  -2  -8  -7   15.51    0.95
  -2  -8  -7   13.95    0.63
  -2  -8  -7   15.02    0.57
  -2  -8  -7   14.05    0.55
  -2  -8  -7   11.56    0.97
  -2  -8  -7   13.73    0.66
   2   8   7   14.58    0.62
   2   8   7   12.80    1.07
   2   8   7   15.05    0.61
  -3  -8  -7  181.36    4.58
  -3  -8  -7  166.93    4.86
  -3  -8  -7  181.36    4.60
  -3  -8  -7  178.27    4.83
  -3  -8  -7  182.86    4.50
  -3  -8  -7  179.13    4.50
   3   8   7  182.41    4.98
   3   8   7  179.25    4.55
   3   8   7  183.57    4.56
  -4  -8  -7    3.52    0.33
  -4  -8  -7    4.02    0.53
  -4  -8  -7    4.64    0.37
   4   8   7    5.85    0.74
   4   8   7    3.49    0.41
   4   8   7    3.25    0.40
  -5  -8  -7    4.08    0.36
  -5  -8  -7    5.25    0.51
  -5  -8  -7    4.35    0.53
  -5  -8  -7    4.69    0.50
  -5  -8  -7    4.40    0.38
   5   8   7    4.40    0.44
   5   8   7    4.18    0.45
   5   8   7    3.00    0.60
  -6  -8  -7   11.85    0.58
  -6  -8  -7   12.51    0.86
  -6  -8  -7   10.94    0.67
  -6  -8  -7   12.09    0.59
  -6  -8  -7   12.18    0.69
   6   8   7   10.58    1.14
   6   8   7   11.37    0.64
  -7  -8  -7    6.17    0.81
  -7  -8  -7    4.95    0.48
  -7  -8  -7    5.90    0.58
  -7  -8  -7    5.72    0.61
  -7  -8  -7    6.24    0.66
   7   8   7    6.18    0.88
   7   8   7    6.99    0.67
  -8  -8  -7    0.26    0.37
  -8  -8  -7   -0.77    0.45
  -8  -8  -7   -0.29    0.31
  -8  -8  -7   -0.43    0.39
  -8  -8  -7   -0.19    0.39
   8   8   7   -0.62    0.68
   8   8   7    0.51    0.33
   8   8   7   -0.45    0.37
  -9  -8  -7    0.00    0.46
  -9  -8  -7   -0.12    0.37
  -9  -8  -7    0.39    0.45
  -9  -8  -7    1.34    0.57
  -9  -8  -7    1.34    0.49
  -9  -8  -7   -0.04    0.86
   9   8   7    1.06    0.86
   9   8   7   -0.02    0.35
   9   8   7   -0.10    0.49
   4  -9  -7   29.98    1.45
   3  -9  -7   -0.49    0.45
   3  -9  -7    0.27    0.48
   3  -9  -7    0.19    0.48
   3  -9  -7    0.48    0.53
  -3   9   7   -0.24    0.51
  -3   9   7    0.86    0.45
  -3   9   7   -0.17    0.79
   2  -9  -7    3.54    0.53
   2  -9  -7    2.91    0.46
   2  -9  -7    3.30    0.49
   2  -9  -7    3.01    0.49
  -2   9   7    4.20    0.83
   1  -9  -7   29.09    0.98
   1  -9  -7   28.67    1.15
   1  -9  -7   29.55    1.21
   1  -9  -7   30.36    1.17
   1  -9  -7   29.48    1.11
  -1   9   7   30.33    1.20
  -1   9   7   30.70    1.57
   0  -9  -7    1.48    0.32
   0  -9  -7    1.04    0.33
   0  -9  -7    1.78    0.39
   0  -9  -7    1.84    0.36
   0  -9  -7    1.29    0.31
   0   9   7    1.01    0.31
   0   9   7    0.93    0.61
  -1  -9  -7   15.04    0.87
  -1  -9  -7   14.04    0.57
  -1  -9  -7   13.64    0.56
  -1  -9  -7   13.57    0.72
  -1  -9  -7   14.30    0.68
   1   9   7   14.66    0.65
   1   9   7   16.12    1.16
  -2  -9  -7   18.16    0.71
  -2  -9  -7   16.27    0.73
  -2  -9  -7   19.43    1.17
  -2  -9  -7   18.65    1.04
   2   9   7   16.79    1.21
  -3  -9  -7    0.31    0.22
  -3  -9  -7   -0.11    0.47
  -3  -9  -7    0.43    0.52
  -3  -9  -7    0.17    0.23
   3   9   7    0.30    0.60
  -4  -9  -7    7.34    0.47
  -4  -9  -7    8.57    0.88
  -4  -9  -7    7.09    1.00
  -4  -9  -7    6.27    0.48
   4   9   7    5.79    0.75
  -5  -9  -7   -0.46    0.44
  -5  -9  -7    0.10    0.23
  -5  -9  -7    0.62    0.62
   5   9   7    0.12    0.54
  -6  -9  -7    0.33    0.48
  -6  -9  -7    0.10    0.27
  -6  -9  -7    0.17    0.27
  -6  -9  -7    0.65    0.69
   6   9   7    1.00    0.63
  -7  -9  -7   12.04    1.02
  -7  -9  -7    9.78    0.69
  -7  -9  -7   14.02    1.43
  -7  -9  -7    8.99    0.70
   7   9   7   10.56    1.28
  -8  -9  -7    0.05    0.40
  -8  -9  -7    0.23    0.28
  -8  -9  -7    0.32    0.53
  -8  -9  -7   -0.26    0.26
  -8  -9  -7    1.05    0.88
  -8  -9  -7    0.28    0.39
   8   9   7    0.18    0.72
   8   9   7   -0.35    0.23
   2 -10  -7    0.39    0.44
   2 -10  -7    0.26    0.51
   2 -10  -7    0.58    0.45
   2 -10  -7    0.59    0.38
  -2  10   7    1.16    0.51
  -2  10   7   -0.21    0.74
  -2  10   7    0.55    0.38
   1 -10  -7    0.12    0.45
   1 -10  -7   -0.08    0.39
   1 -10  -7    0.03    0.35
   1 -10  -7    0.18    0.38
  -1  10   7   -0.37    0.37
  -1  10   7   -0.13    0.66
   0 -10  -7   19.40    0.93
   0 -10  -7   19.33    0.77
   0 -10  -7   20.29    0.80
   0 -10  -7   20.72    0.92
   0 -10  -7   20.00    0.97
   0  10   7   22.63    1.49
   0  10   7   21.20    0.88
  -1 -10  -7    2.47    0.33
  -1 -10  -7    2.29    0.48
  -1 -10  -7    2.77    0.37
   1  10   7    1.76    0.69
  -2 -10  -7   42.99    1.83
  -2 -10  -7   41.14    1.29
  -2 -10  -7   43.24    1.59
  -2 -10  -7   40.74    1.25
  -3 -10  -7    1.76    0.58
  -3 -10  -7    1.12    0.27
  -3 -10  -7    1.64    0.64
  -3 -10  -7    1.35    0.24
   3  10   7    1.54    0.65
  -4 -10  -7    2.57    0.60
  -4 -10  -7    3.29    0.29
  -4 -10  -7    3.71    0.39
  -4 -10  -7    3.26    0.67
   4  10   7    2.86    0.75
  -5 -10  -7    9.25    1.19
  -5 -10  -7    8.00    0.49
  -5 -10  -7    9.24    1.05
   5  10   7    8.40    0.96
  -6 -10  -7   -0.63    0.25
  -6 -10  -7    0.37    0.25
  -6 -10  -7   -0.17    0.72
  -6 -10  -7    0.03    0.56
   6  10   7   -0.57    0.63
  -7 -10  -7   -0.70    0.29
  -7 -10  -7   -0.26    0.33
  -7 -10  -7    0.45    0.60
  -7 -10  -7    0.90    0.82
   7  10   7   -0.58    0.67
   0 -11  -7   -0.87    0.42
   0 -11  -7   -0.58    0.38
   0 -11  -7    0.05    0.41
   0  11   7   -0.24    0.73
   0  11   7   -0.17    0.25
   0  11   7    0.16    0.24
  -1 -11  -7   18.73    0.91
  -1 -11  -7   17.70    1.06
  -1 -11  -7   19.13    0.86
  -2 -11  -7   10.14    0.97
  -2 -11  -7    9.84    0.61
  -2 -11  -7    8.52    0.66
  -2 -11  -7    8.12    1.01
  -3 -11  -7    5.15    0.50
  -3 -11  -7    6.17    0.47
  -3 -11  -7    4.66    0.71
  -3 -11  -7    5.69    0.87
  -4 -11  -7   -0.13    0.23
  -4 -11  -7   -0.14    0.67
  -4 -11  -7   -0.06    0.21
  -4 -11  -7    0.36    0.62
   4  11   7   -0.38    0.70
  -5 -11  -7    4.92    0.43
  -5 -11  -7    3.70    0.78
  -5 -11  -7    3.20    0.73
   5  11   7    3.26    0.83
  -6 -11  -7   -0.21    0.75
  -6 -11  -7   -0.25    0.68
  -6 -11  -7    0.10    0.25
  -6 -11  -7    0.38    0.26
   6  11   7   -0.14    0.77
   4   7  -8    7.87    1.06
   4   7  -8    4.66    0.52
   4   7  -8    3.44    0.78
   4   7  -8    4.97    0.88
  -4  -7   8    6.61    0.80
  -4  -7   8    5.38    0.77
  -4  -7   8    4.21    1.12
  -4  -7   8    5.29    0.88
  -4  -7   8    5.53    0.81
   3   7  -8   21.31    1.58
   3   7  -8   22.41    1.60
   3   7  -8   22.95    1.62
   3   7  -8   22.45    1.10
  -3  -7   8   21.43    1.52
  -3  -7   8   21.64    1.60
  -3  -7   8   19.11    1.45
  -3  -7   8   21.82    1.46
  -3  -7   8   22.36    1.87
   2   7  -8   -1.22    0.76
   2   7  -8   -0.01    0.44
   2   7  -8    0.31    0.73
   2   7  -8    0.04    0.66
   2   7  -8    0.51    0.45
  -2  -7   8    0.49    0.68
  -2  -7   8   -0.21    0.86
  -2  -7   8    0.07    0.66
  -2  -7   8    0.21    0.64
  -2  -7   8   -0.50    0.68
   1   7  -8    4.75    1.10
   1   7  -8    4.13    0.89
   1   7  -8    3.64    0.52
   1   7  -8    2.71    0.82
  -1  -7   8    3.70    0.86
  -1  -7   8    3.11    0.73
  -1  -7   8    3.62    0.72
  -1  -7   8    4.49    0.83
  -1  -7   8    4.73    1.04
   6   6  -8    1.98    0.52
   6   6  -8    0.73    0.71
   6   6  -8    0.96    0.79
   6   6  -8    1.32    0.54
   6   6  -8    1.14    0.70
  -6  -6   8    0.40    0.59
  -6  -6   8    0.56    0.67
  -6  -6   8    0.88    0.62
  -6  -6   8   -0.45    0.61
   5   6  -8   20.70    1.59
   5   6  -8   19.41    1.08
   5   6  -8   23.10    1.54
   5   6  -8   18.33    1.47
   5   6  -8   18.27    1.18
  -5  -6   8   21.43    1.30
  -5  -6   8   19.68    1.50
  -5  -6   8   21.57    1.38
  -5  -6   8   23.55    1.43
   4   6  -8   29.31    1.61
   4   6  -8   29.53    1.34
   4   6  -8   24.85    1.21
   4   6  -8   30.97    1.71
   4   6  -8   29.13    1.64
  -4  -6   8   28.29    1.47
  -4  -6   8   30.39    1.65
  -4  -6   8   27.75    1.79
  -4  -6   8   27.21    1.49
  -4  -6   8   30.98    1.56
   3   6  -8   -0.92    0.61
   3   6  -8    0.07    0.65
   3   6  -8   -0.65    0.66
   3   6  -8    0.40    0.49
   3   6  -8   -0.15    0.43
  -3  -6   8    0.88    0.60
  -3  -6   8    0.26    0.55
  -3  -6   8   -0.36    0.76
  -3  -6   8   -1.03    0.55
  -3  -6   8    0.33    0.59
   2   6  -8    1.00    0.65
   2   6  -8    0.22    0.41
   2   6  -8   -0.83    0.69
   2   6  -8   -0.63    0.60
   2   6  -8   -0.47    0.47
  -2  -6   8    0.46    0.62
  -2  -6   8   -0.49    0.55
  -2  -6   8   -0.69    0.55
  -2  -6   8   -0.27    0.63
   1   6  -8    4.77    0.62
   1   6  -8    5.49    0.57
   1   6  -8    4.21    0.80
   1   6  -8    4.69    0.85
   1   6  -8    3.66    0.74
  -1  -6   8    6.23    0.81
  -1  -6   8    5.22    0.73
  -1  -6   8    3.81    0.66
  -1  -6   8    5.49    0.82
   0   6  -8   -0.74    0.65
   0   6  -8   -0.05    0.65
   0   6  -8    0.40    0.46
   0   6  -8   -0.86    0.67
   0   6  -8    0.33    0.45
   0  -6   8    0.65    0.58
   0  -6   8    0.66    0.65
   0  -6   8    0.04    0.59
   0  -6   8    0.39    0.66
  -1   6  -8    2.40    0.78
  -1   6  -8    4.38    0.91
  -1   6  -8    3.97    0.58
  -1   6  -8    4.71    0.85
   1  -6   8    4.31    0.84
   1  -6   8    3.84    0.72
   1  -6   8    5.76    0.89
   1  -6   8    5.23    0.79
  -2   6  -8   15.72    1.27
  -2   6  -8   13.24    1.43
  -2   6  -8   10.30    1.11
  -2   6  -8   16.97    1.59
   2  -6   8   13.01    1.66
   2  -6   8   12.67    1.31
   2  -6   8   14.78    1.50
   2  -6   8   13.45    1.49
   2  -6   8   15.47    1.39
   7   5  -8    9.62    1.24
   7   5  -8    9.04    1.01
   7   5  -8   10.17    1.02
   7   5  -8    7.48    0.95
  -7  -5   8    9.34    1.29
  -7  -5   8    7.97    0.84
  -7  -5   8   10.10    1.26
  -7  -5   8    9.84    1.00
   6   5  -8    0.58    0.63
   6   5  -8    0.64    0.46
   6   5  -8    0.75    0.72
   6   5  -8    0.49    0.63
  -6  -5   8    0.41    0.57
  -6  -5   8    1.45    0.60
  -6  -5   8    0.37    0.57
  -6  -5   8    0.81    0.59
   5   5  -8    3.26    0.71
   5   5  -8    5.06    0.82
   5   5  -8    4.67    0.75
   5   5  -8    4.54    0.52
  -5  -5   8    5.43    0.71
  -5  -5   8    5.63    0.68
  -5  -5   8    5.15    0.72
  -5  -5   8    3.75    0.63
   4   5  -8   -0.01    0.56
   4   5  -8    0.06    0.59
   4   5  -8   -0.36    0.46
   4   5  -8    0.19    0.43
  -4  -5   8    0.16    0.43
  -4  -5   8    0.51    0.55
  -4  -5   8   -0.38    0.53
  -4  -5   8    0.28    0.61
   3   5  -8   24.77    1.19
   3   5  -8   29.57    1.50
   3   5  -8   28.76    1.53
   3   5  -8   27.61    1.27
  -3  -5   8   22.78    1.49
  -3  -5   8   23.74    1.47
  -3  -5   8   27.81    1.35
  -3  -5   8   29.02    1.39
  -3  -5   8   28.29    1.42
   2   5  -8    2.01    0.63
   2   5  -8    0.63    0.52
   2   5  -8    1.85    0.67
   2   5  -8    1.83    0.44
  -2  -5   8    1.23    0.61
  -2  -5   8    1.65    0.68
  -2  -5   8    2.90    0.58
  -2  -5   8    2.04    0.66
  -2  -5   8    1.37    0.51
   1   5  -8   54.70    2.16
   1   5  -8   57.06    1.87
   1   5  -8   58.17    1.95
   1   5  -8   55.13    2.13
  -1  -5   8   57.70    2.16
  -1  -5   8   57.30    2.14
  -1  -5   8   56.03    2.17
  -1  -5   8   57.35    2.05
  -1  -5   8   54.76    1.98
   0   5  -8   12.86    1.08
   0   5  -8   14.82    1.32
   0   5  -8   12.86    0.97
   0   5  -8   11.84    1.21
   0  -5   8   13.04    1.14
   0  -5   8   11.48    1.30
   0  -5   8   12.72    1.21
   0  -5   8   11.85    1.23
   0  -5   8   12.62    1.13
  -1   5  -8    2.59    0.72
  -1   5  -8    3.07    0.84
  -1   5  -8    2.73    0.53
   1  -5   8    2.40    0.63
   1  -5   8    3.10    0.69
   1  -5   8    1.82    0.59
   1  -5   8    3.32    0.70
   1  -5   8    4.92    0.76
  -2   5  -8   13.06    1.45
  -2   5  -8   16.57    1.44
  -2   5  -8   13.95    1.31
  -2   5  -8   13.60    1.08
   2  -5   8   11.70    1.44
   2  -5   8   13.02    1.23
   2  -5   8   13.37    1.31
   2  -5   8   13.13    1.35
   2  -5   8   13.68    1.28
  -3   5  -8    1.06    0.83
  -3   5  -8    2.57    0.89
  -3   5  -8    1.37    0.67
  -3   5  -8    2.80    0.63
   3  -5   8    1.70    0.90
   3  -5   8    2.86    0.81
   3  -5   8    1.93    0.69
   3  -5   8    2.28    0.74
   3  -5   8    1.06    0.68
   8   4  -8   -0.08    0.73
   8   4  -8    0.04    0.80
   8   4  -8    0.58    0.62
   8   4  -8    0.09    0.53
   8   4  -8    0.39    0.70
  -8  -4   8    0.24    0.58
  -8  -4   8   -0.37    0.70
  -8  -4   8    0.10    0.73
  -8  -4   8    0.51    0.58
   7   4  -8    0.18    0.69
   7   4  -8    0.60    0.65
   7   4  -8    1.87    0.51
   7   4  -8    1.41    0.67
  -7  -4   8    0.18    0.59
  -7  -4   8    1.56    0.71
  -7  -4   8    1.13    0.65
  -7  -4   8    0.98    0.59
   6   4  -8    1.73    0.52
   6   4  -8    3.21    0.70
   6   4  -8    3.95    0.78
   6   4  -8    3.15    0.51
  -6  -4   8    3.09    0.61
  -6  -4   8    4.20    0.72
  -6  -4   8    3.52    0.68
  -6  -4   8    2.38    0.55
   5   4  -8    5.16    0.64
   5   4  -8    6.22    0.79
   5   4  -8    8.07    0.87
   5   4  -8    6.59    0.83
  -5  -4   8    4.50    0.56
  -5  -4   8    5.57    0.71
  -5  -4   8    5.59    0.72
  -5  -4   8    7.04    0.70
   4   4  -8    5.69    0.77
   4   4  -8    5.00    0.55
   4   4  -8    6.53    0.77
  -4  -4   8    6.12    0.75
  -4  -4   8    5.93    0.67
  -4  -4   8    4.75    0.68
  -4  -4   8    5.00    0.66
   3   4  -8   -0.07    0.41
   3   4  -8   -0.17    0.53
   3   4  -8   -0.39    0.50
   3   4  -8   -0.18    0.46
  -3  -4   8    0.04    0.53
  -3  -4   8    0.23    0.49
  -3  -4   8    0.04    0.50
  -3  -4   8    0.39    0.44
   2   4  -8   10.37    1.03
   2   4  -8    8.79    0.86
   2   4  -8   10.53    1.12
   2   4  -8    9.60    0.93
  -2  -4   8   10.19    0.98
  -2  -4   8    9.69    1.12
  -2  -4   8   10.75    0.98
  -2  -4   8    9.58    1.07
  -2  -4   8    9.17    1.03
   1   4  -8   35.98    1.59
   1   4  -8   32.72    1.38
   1   4  -8   31.38    1.48
   1   4  -8   29.29    1.29
  -1  -4   8   34.22    1.55
  -1  -4   8   28.80    1.44
  -1  -4   8   32.43    1.43
  -1  -4   8   28.17    1.51
  -1  -4   8   33.57    1.45
   0   4  -8   12.94    0.96
   0   4  -8   11.15    1.02
   0   4  -8   12.03    1.19
   0  -4   8   12.72    1.04
   0  -4   8   11.25    1.21
   0  -4   8   13.05    1.05
   0  -4   8   12.57    1.16
   0  -4   8   12.30    1.06
  -1   4  -8   32.50    1.48
  -1   4  -8   35.16    1.43
  -1   4  -8   38.21    1.75
   1  -4   8   35.01    1.70
   1  -4   8   36.22    1.54
   1  -4   8   35.49    1.51
   1  -4   8   37.78    1.71
   1  -4   8   36.37    1.57
  -2   4  -8    4.98    0.62
  -2   4  -8    3.72    0.76
  -2   4  -8    6.06    0.87
   2  -4   8    4.83    0.77
   2  -4   8    3.30    0.70
   2  -4   8    3.81    0.60
   2  -4   8    3.45    0.62
   2  -4   8    4.15    0.63
  -3   4  -8    0.35    0.61
  -3   4  -8    0.93    0.56
  -3   4  -8   -0.84    0.66
  -3   4  -8    0.46    0.73
   3  -4   8    0.36    0.60
   3  -4   8   -0.15    0.56
   3  -4   8    0.01    0.57
   3  -4   8    0.13    0.55
   3  -4   8    0.06    0.70
  -4   4  -8   12.55    1.51
  -4   4  -8   10.32    1.29
  -4   4  -8   12.87    1.15
  -4   4  -8   11.35    1.52
   4  -4   8    8.19    1.00
   4  -4   8   10.05    0.93
   4  -4   8    8.77    0.98
   4  -4   8    8.68    0.92
  -5   4  -8    2.60    0.83
  -5   4  -8    2.49    0.66
  -5   4  -8    3.99    1.02
  -5   4  -8    2.72    0.76
   5  -4   8    2.08    0.96
   5  -4   8    2.56    0.82
   5  -4   8    1.84    0.71
   8   3  -8    0.37    0.78
   8   3  -8    1.63    0.57
   8   3  -8    0.90    0.64
   8   3  -8    0.45    0.72
   8   3  -8    1.19    0.65
  -8  -3   8    0.76    0.74
  -8  -3   8   -0.29    0.58
  -8  -3   8    0.17    0.63
   7   3  -8    1.46    0.70
   7   3  -8    2.02    0.54
   7   3  -8    1.98    0.70
   7   3  -8    2.07    0.61
  -7  -3   8    2.72    0.71
  -7  -3   8    1.20    0.69
  -7  -3   8    1.61    0.55
  -7  -3   8    3.04    0.63
   6   3  -8   12.78    1.12
   6   3  -8   10.66    0.99
   6   3  -8   14.21    1.31
  -6  -3   8   12.16    1.21
  -6  -3   8   11.84    1.22
  -6  -3   8   12.32    1.11
  -6  -3   8   12.42    1.05
   5   3  -8    3.50    0.53
   5   3  -8    2.80    0.60
   5   3  -8    3.31    0.70
   5   3  -8    2.88    0.59
  -5  -3   8    3.12    0.68
  -5  -3   8    3.07    0.51
  -5  -3   8    1.83    0.54
  -5  -3   8    2.54    0.63
   4   3  -8    9.74    0.95
   4   3  -8   10.51    1.11
   4   3  -8    8.47    0.90
   4   3  -8   10.41    1.00
  -4  -3   8    7.98    1.02
  -4  -3   8   10.36    0.98
  -4  -3   8   11.09    0.88
  -4  -3   8    9.54    1.05
   3   3  -8   60.46    1.94
   3   3  -8   62.99    2.00
   3   3  -8   62.42    2.17
   3   3  -8   60.42    2.07
  -3  -3   8   57.45    2.12
  -3  -3   8   58.92    1.95
  -3  -3   8   60.90    2.03
  -3  -3   8   60.50    2.13
   2   3  -8    0.24    0.37
   2   3  -8    1.06    0.46
   2   3  -8   -0.41    0.50
   2   3  -8   -0.12    0.51
   2   3  -8    0.04    0.48
  -2  -3   8    0.43    0.50
  -2  -3   8    0.36    0.43
  -2  -3   8    0.40    0.50
  -2  -3   8    0.33    0.43
   1   3  -8    9.60    0.88
   1   3  -8    9.39    0.83
   1   3  -8    8.95    1.03
   1   3  -8    7.51    1.04
  -1  -3   8    9.37    0.47
  -1  -3   8    8.44    0.89
  -1  -3   8    8.40    0.94
  -1  -3   8    9.31    0.90
  -1  -3   8    8.69    1.04
  -1  -3   8    9.15    1.03
   0   3  -8   52.33    1.94
   0   3  -8   51.52    1.74
   0   3  -8   48.65    1.89
   0   3  -8   45.93    1.66
   0  -3   8   47.86    1.72
   0  -3   8   51.12    1.79
   0  -3   8   44.90    1.87
   0  -3   8   54.04    1.91
   0  -3   8   50.66    1.73
  -1   3  -8   12.63    0.94
  -1   3  -8   10.32    1.11
  -1   3  -8   11.74    0.98
  -1   3  -8   11.88    1.17
   1  -3   8   11.14    1.04
   1  -3   8    9.97    1.10
   1  -3   8   11.29    0.88
   1  -3   8   12.17    1.12
  -2   3  -8   21.83    1.45
  -2   3  -8   24.59    1.18
  -2   3  -8   20.58    1.40
  -2   3  -8   22.66    1.22
   2  -3   8   25.75    1.41
   2  -3   8   23.88    1.13
   2  -3   8   26.85    1.31
   2  -3   8   24.56    1.41
  -3   3  -8    5.82    0.83
  -3   3  -8    5.91    0.62
  -3   3  -8    4.94    0.77
   3  -3   8    4.51    0.69
   3  -3   8    5.05    0.75
   3  -3   8    4.37    0.65
  -4   3  -8   -0.05    0.52
  -4   3  -8    0.62    0.75
  -4   3  -8    0.31    0.72
  -4   3  -8   -0.06    0.57
   4  -3   8    0.37    0.55
   4  -3   8    0.74    0.59
   4  -3   8    1.15    0.74
  -5   3  -8   22.32    1.49
  -5   3  -8   18.69    1.33
  -5   3  -8   17.64    1.66
  -5   3  -8   21.68    1.67
   5  -3   8   20.75    1.64
   5  -3   8   20.09    1.46
   5  -3   8   22.10    1.60
   5  -3   8   20.74    1.51
  -6   3  -8    5.41    0.94
  -6   3  -8    6.46    0.86
  -6   3  -8    6.03    1.01
  -6   3  -8    6.48    0.86
   6  -3   8    4.87    1.37
   6  -3   8    6.19    1.10
   6  -3   8    6.63    0.94
   6  -3   8    5.56    0.97
   9   2  -8    1.65    0.85
   9   2  -8    0.95    0.98
   9   2  -8    0.78    0.79
   9   2  -8    1.09    0.67
  -9  -2   8    2.39    0.71
  -9  -2   8    0.61    0.86
  -9  -2   8    1.26    0.79
   8   2  -8    0.29    0.60
   8   2  -8    1.07    0.68
   8   2  -8    0.63    0.76
   8   2  -8    1.44    0.59
   8   2  -8    0.80    0.77
  -8  -2   8    1.36    0.80
  -8  -2   8    1.09    0.63
  -8  -2   8    0.87    0.56
   7   2  -8   27.65    1.34
   7   2  -8   26.96    1.35
   7   2  -8   24.77    1.65
   7   2  -8   28.30    1.62
   7   2  -8   24.26    1.58
  -7  -2   8   25.48    1.37
  -7  -2   8   25.69    1.60
  -7  -2   8   23.61    1.35
  -7  -2   8   25.02    1.56
   6   2  -8   -0.20    0.45
   6   2  -8    0.27    0.47
   6   2  -8    0.11    0.58
   6   2  -8    0.41    0.58
   6   2  -8    0.12    0.55
  -6  -2   8   -0.05    0.57
  -6  -2   8    0.61    0.49
  -6  -2   8    0.37    0.57
   5   2  -8    4.39    0.68
   5   2  -8    4.41    0.69
   5   2  -8    5.52    0.65
   5   2  -8    4.14    0.52
   5   2  -8    4.34    0.61
  -5  -2   8    5.46    0.67
  -5  -2   8    4.03    0.65
  -5  -2   8    4.98    0.72
   4   2  -8   24.92    1.21
   4   2  -8   25.12    1.25
   4   2  -8   26.13    1.37
   4   2  -8   27.60    1.39
   4   2  -8   23.31    1.15
  -4  -2   8   26.59    1.35
  -4  -2   8   26.55    1.34
  -4  -2   8   27.79    1.28
   3   2  -8    0.02    0.48
   3   2  -8    0.35    0.43
   3   2  -8    0.69    0.51
   3   2  -8   -0.12    0.38
   3   2  -8    0.48    0.44
  -3  -2   8    0.35    0.47
  -3  -2   8    0.35    0.34
  -3  -2   8    0.91    0.53
  -3  -2   8   -0.16    0.43
   2   2  -8   71.60    2.21
   2   2  -8   70.13    2.34
   2   2  -8   72.04    2.34
   2   2  -8   72.82    2.27
   2   2  -8   71.38    2.16
  -2  -2   8   70.73    2.33
  -2  -2   8   70.84    2.17
  -2  -2   8   71.58    2.33
  -2  -2   8   69.43    2.22
   1   2  -8    0.61    0.37
   1   2  -8   -0.70    0.48
   1   2  -8   -0.21    0.50
  -1  -2   8    0.00    0.21
  -1  -2   8    0.13    0.36
  -1  -2   8   -0.12    0.45
  -1  -2   8   -0.09    0.37
  -1  -2   8   -0.10    0.45
   0   2  -8    5.52    0.64
   0   2  -8    5.28    0.63
   0   2  -8    6.56    0.77
   0   2  -8    6.69    0.80
   0  -2   8    6.88    0.72
   0  -2   8    6.40    0.68
   0  -2   8    6.77    0.73
   0  -2   8    5.08    0.56
   0  -2   8    7.19    0.73
   0  -2   8    6.45    0.54
  -1   2  -8   41.79    1.55
  -1   2  -8   43.31    1.71
  -1   2  -8   42.41    1.52
  -1   2  -8   41.92    1.68
   1  -2   8   43.47    1.72
   1  -2   8   43.09    1.60
   1  -2   8   42.26    1.73
   1  -2   8   43.63    1.45
  -2   2  -8   17.56    1.06
  -2   2  -8   17.06    1.21
  -2   2  -8   17.61    1.03
  -2   2  -8   16.61    1.21
   2  -2   8   16.55    1.19
   2  -2   8   17.95    1.08
   2  -2   8   17.34    1.21
   2  -2   8   16.70    0.86
  -3   2  -8   45.77    1.94
  -3   2  -8   48.95    1.71
  -3   2  -8   45.55    1.92
   3  -2   8   49.81    1.78
   3  -2   8   48.15    1.90
   3  -2   8   46.63    1.91
  -4   2  -8    6.98    0.82
  -4   2  -8    7.81    0.96
  -4   2  -8    9.60    1.22
   4  -2   8    7.28    0.74
   4  -2   8    8.79    0.92
   4  -2   8    8.10    1.10
  -5   2  -8    1.61    0.73
  -5   2  -8    0.95    0.73
  -5   2  -8    0.29    0.54
  -5   2  -8    0.57    0.65
   5  -2   8    1.34    0.71
   5  -2   8    1.36    0.59
   5  -2   8    1.29    0.75
   5  -2   8    1.14    0.64
  -6   2  -8    8.43    1.01
  -6   2  -8   12.11    1.24
  -6   2  -8   11.29    1.52
  -6   2  -8   10.79    0.96
  -6   2  -8    7.26    0.85
   6  -2   8    8.28    1.05
   6  -2   8   10.55    1.41
   6  -2   8   10.58    1.00
   6  -2   8   11.54    1.29
  -7   2  -8    1.21    0.93
  -7   2  -8    0.40    0.57
  -7   2  -8    1.02    0.91
  -7   2  -8    0.75    0.73
   7  -2   8    0.13    0.80
   7  -2   8    0.09    0.68
   7  -2   8    0.12    0.92
   9   1  -8    0.06    0.79
   9   1  -8    1.87    0.70
   9   1  -8    0.80    0.82
   9   1  -8    2.22    0.82
  -9  -1   8    0.03    0.68
  -9  -1   8    2.29    0.80
  -9  -1   8    0.31    0.81
   8   1  -8    3.98    0.88
   8   1  -8    5.73    0.83
   8   1  -8    5.04    0.65
   8   1  -8    5.09    0.85
   8   1  -8    5.60    0.73
  -8  -1   8    5.41    0.78
  -8  -1   8    5.31    0.89
  -8  -1   8    3.79    0.87
  -8  -1   8    3.03    0.67
   7   1  -8   11.62    1.27
   7   1  -8    9.59    1.02
   7   1  -8    9.86    0.93
   7   1  -8    9.03    1.14
   7   1  -8   10.36    1.30
  -7  -1   8   10.20    1.23
  -7  -1   8   10.65    1.30
  -7  -1   8    8.79    1.09
   6   1  -8    3.62    0.55
   6   1  -8    2.32    0.66
   6   1  -8    1.87    0.64
   6   1  -8    2.78    0.56
  -6  -1   8    3.29    0.60
  -6  -1   8    3.84    0.74
  -6  -1   8    4.30    0.73
   5   1  -8    6.87    0.79
   5   1  -8    5.56    0.72
   5   1  -8    7.32    0.63
   5   1  -8    7.62    1.03
   5   1  -8    7.32    0.91
  -5  -1   8    8.03    1.05
  -5  -1   8    7.91    1.03
  -5  -1   8    7.25    0.90
   4   1  -8    1.14    0.42
   4   1  -8    2.24    0.58
   4   1  -8    2.50    0.59
   4   1  -8    2.16    0.49
   4   1  -8    2.25    0.47
  -4  -1   8    1.52    0.52
  -4  -1   8    1.55    0.47
  -4  -1   8    0.61    0.57
  -4  -1   8    0.75    0.51
   3   1  -8    8.39    0.81
   3   1  -8    9.79    0.97
   3   1  -8    7.58    0.95
   3   1  -8    7.70    0.78
   3   1  -8   10.53    0.85
  -3  -1   8    8.31    0.93
  -3  -1   8    8.08    0.76
  -3  -1   8    8.41    0.92
  -3  -1   8    8.83    0.87
   2   1  -8   22.71    1.08
   2   1  -8   24.93    1.23
   2   1  -8   23.37    1.03
   2   1  -8   20.34    1.18
  -2  -1   8   22.24    1.17
  -2  -1   8   22.40    1.10
  -2  -1   8   24.17    1.18
  -2  -1   8   22.48    1.01
   1   1  -8    0.09    0.43
   1   1  -8   -0.19    0.30
   1   1  -8    0.60    0.37
   1   1  -8    0.20    0.41
  -1  -1   8    0.59    0.21
  -1  -1   8    0.65    0.46
  -1  -1   8    0.17    0.43
  -1  -1   8    0.45    0.38
  -1  -1   8    0.62    0.34
   0   1  -8    0.19    0.43
   0   1  -8    0.32    0.45
   0   1  -8    0.76    0.40
   0  -1   8    0.42    0.29
   0  -1   8    0.53    0.44
   0  -1   8    0.34    0.30
   0  -1   8    0.11    0.41
   0  -1   8    0.06    0.36
   0  -1   8    0.61    0.46
  -1   1  -8    5.27    0.65
  -1   1  -8    6.15    0.77
  -1   1  -8    5.77    0.71
  -1   1  -8    4.29    0.58
   1  -1   8    6.63    0.72
   1  -1   8    5.13    0.60
   1  -1   8    5.11    0.52
   1  -1   8    5.99    0.65
   1  -1   8    4.81    0.54
  -2   1  -8    2.67    0.55
  -2   1  -8    3.76    0.49
  -2   1  -8    2.84    0.55
  -2   1  -8    3.46    0.52
   2  -1   8    3.35    0.58
   2  -1   8    3.53    0.51
   2  -1   8    3.24    0.51
   2  -1   8    3.86    0.48
   2  -1   8    2.96    0.57
  -3   1  -8   39.20    1.47
  -3   1  -8   38.31    1.66
  -3   1  -8   38.21    1.66
   3  -1   8   37.48    1.63
   3  -1   8   38.53    1.48
   3  -1   8   39.83    1.53
   3  -1   8   39.28    1.64
  -4   1  -8    1.32    0.48
  -4   1  -8    0.45    0.55
  -4   1  -8    0.25    0.56
   4  -1   8    0.47    0.51
   4  -1   8    0.80    0.58
   4  -1   8    0.32    0.45
   4  -1   8    0.42    0.53
  -5   1  -8    6.52    0.78
  -5   1  -8    7.10    0.71
  -5   1  -8    8.29    0.93
   5  -1   8    5.84    0.67
   5  -1   8    5.83    0.76
   5  -1   8    7.80    0.92
  -6   1  -8    1.23    0.67
  -6   1  -8    1.70    0.61
  -6   1  -8    1.72    0.74
  -6   1  -8    2.24    0.47
  -6   1  -8    2.83    0.74
   6  -1   8    1.71    0.69
   6  -1   8    1.68    0.75
   6  -1   8    1.61    0.61
   6  -1   8    2.81    0.69
  -7   1  -8    1.36    0.74
  -7   1  -8    2.41    0.82
  -7   1  -8    3.13    0.55
  -7   1  -8    3.48    0.96
  -7   1  -8    3.33    0.69
   7  -1   8    3.36    0.86
   7  -1   8    2.65    0.69
   7  -1   8    2.75    0.84
   7  -1   8    2.50    0.73
   9   0  -8    8.53    0.98
   9   0  -8    8.44    1.09
   9   0  -8    6.01    0.79
   9   0  -8    8.21    1.08
  -9   0   8    8.03    1.02
  -9   0   8    8.91    1.15
  -9   0   8    8.11    0.91
   8   0  -8    7.50    0.79
   8   0  -8    5.70    0.95
   8   0  -8    5.70    0.91
   8   0  -8    6.89    0.88
  -8   0   8    5.33    0.71
  -8   0   8    6.87    0.80
  -8   0   8    5.66    0.91
  -8   0   8    5.70    0.96
   7   0  -8    4.88    0.79
   7   0  -8    4.75    0.74
   7   0  -8    3.71    0.59
   7   0  -8    3.83    0.79
   7   0  -8    4.03    0.55
  -7   0   8    4.52    0.80
  -7   0   8    3.88    0.71
  -7   0   8    3.94    0.68
   6   0  -8   11.65    1.15
   6   0  -8   11.23    0.84
   6   0  -8   11.02    1.21
   6   0  -8   11.87    0.97
  -6   0   8   12.72    1.06
  -6   0   8   10.61    1.17
  -6   0   8   11.27    1.19
   5   0  -8   25.80    1.20
   5   0  -8   26.36    1.28
   5   0  -8   21.17    1.35
   5   0  -8   25.42    1.37
   5   0  -8   25.63    1.09
  -5   0   8   26.31    1.38
  -5   0   8   25.55    1.20
  -5   0   8   24.19    1.34
  -5   0   8   23.92    1.23
   4   0  -8   97.46    3.01
   4   0  -8   97.90    2.81
   4   0  -8   98.83    2.88
   4   0  -8   95.76    2.82
   4   0  -8  100.08    3.00
  -4   0   8   96.82    2.87
  -4   0   8   95.55    2.98
  -4   0   8  100.20    2.82
  -4   0   8  100.88    3.02
   3   0  -8   32.24    1.40
   3   0  -8   33.25    1.24
   3   0  -8   32.33    1.30
   3   0  -8   34.49    1.44
   3   0  -8   32.83    1.26
  -3   0   8   27.80    1.36
  -3   0   8   32.39    1.22
  -3   0   8   32.35    1.30
  -3   0   8   33.20    1.42
   2   0  -8    3.25    0.58
   2   0  -8    2.00    0.48
   2   0  -8    1.60    0.40
   2   0  -8    2.09    0.39
  -2   0   8    2.25    0.42
  -2   0   8    2.90    0.55
  -2   0   8    1.83    0.47
  -2   0   8    2.07    0.37
   1   0  -8   -0.72    0.38
   1   0  -8   -0.17    0.35
   1   0  -8   -0.35    0.29
   1   0  -8   -0.59    0.40
  -1   0   8   -0.57    0.34
  -1   0   8   -0.11    0.23
  -1   0   8   -0.21    0.40
  -1   0   8   -0.54    0.39
  -1   0   8    0.07    0.34
   0   0  -8  224.77    6.08
   0   0  -8  238.10    6.10
   0   0  -8  227.07    5.95
   0   0  -8  233.37    5.99
   0   0   8  213.93    6.06
   0   0   8  226.58    5.98
   0   0   8  230.57    5.95
   0   0   8  227.85    5.83
   0   0   8  235.11    6.09
  -1   0  -8    1.81    0.49
  -1   0  -8    2.23    0.49
  -1   0  -8    1.68    0.44
  -1   0  -8    1.62    0.42
   1   0   8    2.43    0.28
   1   0   8    2.24    0.38
   1   0   8    2.01    0.41
   1   0   8    1.63    0.40
   1   0   8    2.33    0.54
   1   0   8    2.26    0.53
  -2   0  -8  213.47    5.59
  -2   0  -8  205.24    5.43
  -2   0  -8  199.16    5.56
  -2   0  -8  208.30    5.46
   2   0   8  208.31    5.57
   2   0   8  203.45    5.22
   2   0   8  201.54    5.43
   2   0   8  203.60    5.59
   2   0   8  214.21    5.47
  -3   0  -8   54.53    1.93
  -3   0  -8   51.58    1.76
  -3   0  -8   53.23    1.74
  -3   0  -8   47.46    1.88
   3   0   8   50.27    1.87
   3   0   8   51.49    1.89
   3   0   8   52.31    1.76
   3   0   8   51.46    1.73
  -4   0  -8  111.78    3.24
  -4   0  -8  105.74    3.23
  -4   0  -8  108.62    3.07
   4   0   8   98.01    3.05
   4   0   8  104.70    3.22
   4   0   8  104.59    3.06
   4   0   8  108.51    3.23
  -5   0  -8    1.23    0.60
  -5   0  -8    2.18    0.62
  -5   0  -8    2.04    0.48
   5   0   8    2.58    0.57
   5   0   8    1.18    0.60
   5   0   8    2.36    0.58
   5   0   8    1.75    0.65
  -6   0  -8    5.74    0.85
  -6   0  -8    5.28    0.78
  -6   0  -8    4.40    0.46
  -6   0  -8    5.19    0.67
   6   0   8    6.41    0.83
   6   0   8    4.62    0.76
   6   0   8    4.68    0.67
  -7   0  -8   -1.03    0.76
  -7   0  -8   -0.11    0.40
  -7   0  -8   -1.10    0.66
  -7   0  -8   -0.41    0.63
  -7   0  -8   -0.56    0.52
   7   0   8   -0.32    0.62
   7   0   8   -0.97    0.67
   7   0   8   -0.56    0.64
   7   0   8    1.19    0.65
  -8   0  -8    2.64    0.88
  -8   0  -8    2.30    0.72
  -8   0  -8    2.00    0.53
  -8   0  -8    0.87    0.87
  -8   0  -8    3.60    0.78
   8   0   8    2.33    0.80
   8   0   8    2.53    0.74
   8   0   8    3.46    0.96
   8   0   8    1.29    0.77
   9  -1  -8    0.34    0.86
   9  -1  -8    1.15    0.70
  -9   1   8    1.00    0.77
  -9   1   8    0.94    0.80
   8  -1  -8   -0.65    0.60
   8  -1  -8   -0.58    0.70
   8  -1  -8   -2.03    0.73
   8  -1  -8   -1.15    0.73
  -8   1   8   -0.19    0.60
  -8   1   8    1.00    0.72
  -8   1   8    0.41    0.65
  -8   1   8    0.34    0.72
   7  -1  -8    5.14    0.67
   7  -1  -8    4.21    0.78
   7  -1  -8    4.82    0.50
   7  -1  -8    4.43    0.81
  -7   1   8    4.27    0.77
  -7   1   8    4.72    0.80
  -7   1   8    5.53    0.71
  -7   1   8    4.93    0.62
   6  -1  -8    1.03    0.46
   6  -1  -8    0.79    0.38
   6  -1  -8    1.41    0.68
   6  -1  -8    1.21    0.62
  -6   1   8    0.95    0.49
  -6   1   8    1.62    0.60
  -6   1   8    2.05    0.64
   5  -1  -8  115.80    3.28
   5  -1  -8  112.56    3.16
   5  -1  -8  113.70    3.47
   5  -1  -8  119.37    3.47
  -5   1   8  113.97    3.26
  -5   1   8  117.62    3.48
  -5   1   8  114.66    3.46
  -5   1   8  115.94    3.33
   4  -1  -8    1.06    0.37
   4  -1  -8    1.06    0.52
   4  -1  -8    0.24    0.48
   4  -1  -8    1.56    0.44
   4  -1  -8    0.60    0.48
  -4   1   8    1.77    0.58
  -4   1   8    1.16    0.50
  -4   1   8    0.91    0.37
  -4   1   8    0.66    0.42
   3  -1  -8  261.27    6.76
   3  -1  -8  265.14    6.80
   3  -1  -8  262.13    6.72
   3  -1  -8  255.93    6.90
   3  -1  -8  266.69    6.91
  -3   1   8  260.92    6.90
  -3   1   8  228.72    6.70
  -3   1   8  263.90    6.79
  -3   1   8  279.98    6.92
   2  -1  -8    9.23    0.74
   2  -1  -8    9.45    0.87
   2  -1  -8    9.10    0.77
   2  -1  -8    8.70    0.88
  -2   1   8   10.94    0.89
  -2   1   8    8.46    0.87
  -2   1   8    8.58    0.77
  -2   1   8    8.86    0.69
   1  -1  -8   13.91    0.92
   1  -1  -8   13.19    0.77
   1  -1  -8   13.93    0.84
   1  -1  -8   12.87    0.93
  -1   1   8   13.73    0.82
  -1   1   8   14.89    0.78
  -1   1   8   13.99    0.93
  -1   1   8   14.22    0.64
  -1   1   8   13.06    0.88
   0  -1  -8    1.59    0.34
   0  -1  -8    2.01    0.48
   0  -1  -8    1.78    0.37
   0  -1  -8    1.61    0.46
   0   1   8    2.03    0.43
   0   1   8    1.62    0.33
   0   1   8    1.80    0.33
   0   1   8    2.07    0.44
   0   1   8    2.06    0.40
  -1  -1  -8   69.06    2.21
  -1  -1  -8   74.20    2.25
  -1  -1  -8   72.68    2.15
  -1  -1  -8   73.95    2.11
   1   1   8   69.51    1.87
   1   1   8   74.20    2.13
   1   1   8   71.23    2.07
   1   1   8   70.16    2.22
   1   1   8   73.06    2.10
   1   1   8   65.71    2.21
  -2  -1  -8    7.17    0.74
  -2  -1  -8    7.26    0.84
  -2  -1  -8    8.52    0.72
  -2  -1  -8    9.16    0.84
   2   1   8    7.80    0.72
   2   1   8    7.62    0.84
   2   1   8    8.73    0.75
   2   1   8    6.99    0.83
   2   1   8    8.78    0.71
  -3  -1  -8   86.19    2.47
  -3  -1  -8   84.96    2.61
  -3  -1  -8   81.60    2.59
  -3  -1  -8   79.36    2.47
   3   1   8   81.44    2.48
   3   1   8   86.07    2.47
   3   1   8   85.20    2.45
   3   1   8   85.20    2.61
   3   1   8   88.01    2.63
  -4  -1  -8   25.38    1.30
  -4  -1  -8   22.54    1.13
  -4  -1  -8   22.04    1.14
  -4  -1  -8   21.86    1.27
   4   1   8   24.07    1.14
   4   1   8   24.22    1.27
   4   1   8   24.82    1.11
   4   1   8   25.20    1.27
  -5  -1  -8   17.69    1.21
  -5  -1  -8   18.40    1.06
  -5  -1  -8   20.09    1.12
  -5  -1  -8   17.43    1.22
   5   1   8   19.35    1.23
   5   1   8   17.42    1.08
   5   1   8   13.67    1.14
   5   1   8   17.36    1.04
  -6  -1  -8   11.39    1.19
  -6  -1  -8    9.51    1.16
  -6  -1  -8   11.04    1.00
  -6  -1  -8   10.37    0.58
  -6  -1  -8    9.80    1.04
   6   1   8    9.90    1.00
   6   1   8   11.36    1.18
   6   1   8   12.17    1.07
  -7  -1  -8   63.76    2.25
  -7  -1  -8   62.41    2.19
  -7  -1  -8   63.84    2.43
  -7  -1  -8   65.33    2.40
  -7  -1  -8   59.83    1.86
   7   1   8   64.47    2.39
   7   1   8   61.42    2.40
   7   1   8   66.32    2.22
  -8  -1  -8   12.15    1.50
  -8  -1  -8   11.67    1.37
  -8  -1  -8   12.08    1.43
  -8  -1  -8   12.76    0.84
  -8  -1  -8   11.37    1.22
   8   1   8   11.80    1.56
   8   1   8   12.63    1.27
   8   1   8    9.60    0.93
   8   1   8   10.92    1.42
   8  -2  -8   -0.47    0.71
   8  -2  -8    0.24    0.59
   8  -2  -8    0.19    0.77
   8  -2  -8    1.02    0.81
  -8   2   8    1.08    0.68
  -8   2   8    1.09    0.66
  -8   2   8    0.41    0.77
  -8   2   8    0.54    0.78
   7  -2  -8    2.29    0.78
   7  -2  -8    3.04    0.60
   7  -2  -8    2.68    0.79
  -7   2   8    1.95    0.57
  -7   2   8    2.46    0.71
  -7   2   8    1.55    0.65
  -7   2   8    2.46    0.59
   6  -2  -8   41.29    1.60
   6  -2  -8   42.20    1.83
   6  -2  -8   42.21    1.84
   6  -2  -8   40.38    1.32
  -6   2   8   41.55    1.83
  -6   2   8   42.45    1.64
   5  -2  -8   33.11    1.15
   5  -2  -8   33.13    1.37
   5  -2  -8   35.65    1.58
   5  -2  -8   33.72    1.56
  -5   2   8   33.45    1.32
  -5   2   8   33.42    1.55
  -5   2   8   34.30    1.42
  -5   2   8   33.53    1.59
   4  -2  -8  335.75    8.54
   4  -2  -8  337.00    8.43
   4  -2  -8  293.55    8.34
   4  -2  -8  332.77    8.27
   4  -2  -8  290.92    8.49
  -4   2   8  335.37    8.54
  -4   2   8  332.19    8.53
  -4   2   8  339.35    8.36
  -4   2   8  330.54    8.39
   3  -2  -8    0.81    0.45
   3  -2  -8    0.12    0.43
   3  -2  -8    0.41    0.36
   3  -2  -8    0.59    0.50
  -3   2   8    0.59    0.48
  -3   2   8    0.02    0.44
  -3   2   8    0.39    0.30
  -3   2   8    0.25    0.39
   2  -2  -8   34.72    1.25
   2  -2  -8   35.45    1.38
   2  -2  -8   34.61    1.30
   2  -2  -8   36.32    1.40
  -2   2   8   35.64    1.22
  -2   2   8   35.89    1.40
  -2   2   8   35.59    1.27
  -2   2   8   30.91    1.34
   1  -2  -8   15.11    0.78
   1  -2  -8   15.32    0.83
   1  -2  -8   15.17    0.93
   1  -2  -8   15.41    0.91
  -1   2   8   15.12    0.71
  -1   2   8   15.69    0.80
  -1   2   8   15.78    0.77
  -1   2   8   15.36    0.91
  -1   2   8   14.56    0.93
   0  -2  -8   25.17    1.12
   0  -2  -8   25.24    1.12
   0  -2  -8   25.02    1.00
   0  -2  -8   25.05    1.03
   0   2   8   26.06    1.12
   0   2   8   26.85    1.02
   0   2   8   26.14    0.97
   0   2   8   25.12    1.10
   0   2   8   23.56    0.94
  -1  -2  -8   44.92    1.56
  -1  -2  -8   44.75    1.58
  -1  -2  -8   46.26    1.50
  -1  -2  -8   45.01    1.45
   1   2   8   43.83    1.45
   1   2   8   45.36    1.57
   1   2   8   46.14    1.58
   1   2   8   45.51    1.46
   1   2   8   44.48    1.43
  -2  -2  -8   53.32    1.67
  -2  -2  -8   54.61    1.81
  -2  -2  -8   52.26    1.78
   2   2   8   52.68    1.72
   2   2   8   52.14    1.78
   2   2   8   55.01    1.81
   2   2   8   55.93    1.68
   2   2   8   54.80    1.66
  -3  -2  -8    1.05    0.41
  -3  -2  -8    1.12    0.41
  -3  -2  -8    0.91    0.36
  -3  -2  -8    0.76    0.37
   3   2   8    0.85    0.35
   3   2   8    1.42    0.35
   3   2   8    1.17    0.47
   3   2   8    1.00    0.44
   3   2   8    1.01    0.40
  -4  -2  -8   80.99    2.40
  -4  -2  -8   79.65    2.41
  -4  -2  -8   84.27    2.54
  -4  -2  -8   83.46    2.55
   4   2   8   78.56    2.52
   4   2   8   79.66    2.50
   4   2   8   79.64    2.53
   4   2   8   81.91    2.38
   4   2   8   82.99    2.37
  -5  -2  -8   19.68    1.18
  -5  -2  -8   19.32    1.04
  -5  -2  -8   18.93    1.06
  -5  -2  -8   19.04    1.18
   5   2   8   14.35    0.95
   5   2   8   19.07    1.01
   5   2   8   19.30    1.18
  -6  -2  -8   14.53    1.16
  -6  -2  -8   10.98    1.15
  -6  -2  -8   14.71    1.00
  -6  -2  -8   13.10    1.05
   6   2   8   13.38    0.97
   6   2   8   13.87    1.00
   6   2   8   14.08    1.16
  -7  -2  -8   66.35    2.27
  -7  -2  -8   67.87    2.25
  -7  -2  -8   63.87    1.87
  -7  -2  -8   66.67    2.43
  -7  -2  -8   67.30    2.41
   7   2   8   68.91    2.22
   7   2   8   67.56    2.41
   7   2   8   69.53    2.22
  -8  -2  -8    0.47    0.37
  -8  -2  -8    0.53    0.68
  -8  -2  -8    0.89    0.72
  -8  -2  -8   -0.64    0.67
  -8  -2  -8    0.06    0.51
   8   2   8   -0.73    0.68
   8   2   8   -0.32    0.68
   8   2   8    0.14    0.57
  -9  -2  -8   25.19    1.15
  -9  -2  -8   25.73    1.86
  -9  -2  -8   26.37    1.63
  -9  -2  -8   27.16    1.58
  -9  -2  -8   24.26    1.72
   9   2   8   27.13    1.57
   9   2   8   26.41    1.81
   9   2   8   26.93    1.61
   8  -3  -8    6.11    1.00
   8  -3  -8    5.75    0.98
   8  -3  -8    6.42    0.79
   8  -3  -8    7.47    0.94
  -8   3   8    7.15    0.75
  -8   3   8    7.57    1.02
  -8   3   8    6.89    1.01
  -8   3   8    7.11    0.80
   7  -3  -8   11.09    1.34
   7  -3  -8    9.96    1.10
   7  -3  -8   13.78    1.46
   7  -3  -8   13.21    1.35
  -7   3   8   13.85    1.36
  -7   3   8   10.75    1.09
  -7   3   8   12.57    1.37
  -7   3   8   12.02    1.14
   6  -3  -8    0.31    0.63
   6  -3  -8    0.46    0.62
   6  -3  -8   -0.08    0.58
   6  -3  -8    1.25    0.47
  -6   3   8    1.20    0.59
  -6   3   8    0.31    0.60
  -6   3   8    1.06    0.50
   5  -3  -8   14.37    1.18
   5  -3  -8   14.92    1.11
   5  -3  -8   15.55    0.64
   5  -3  -8   15.32    1.01
   5  -3  -8   13.19    1.16
  -5   3   8   14.54    1.01
  -5   3   8   15.87    0.92
   4  -3  -8    9.24    0.93
   4  -3  -8   12.16    0.89
   4  -3  -8   11.02    1.03
   4  -3  -8   11.89    1.04
   4  -3  -8   11.62    0.60
  -4   3   8   10.50    1.05
  -4   3   8   11.69    0.90
  -4   3   8   10.97    0.78
   3  -3  -8    8.89    0.87
   3  -3  -8   10.22    0.93
   3  -3  -8    8.18    0.84
   3  -3  -8    8.30    0.77
  -3   3   8    7.51    0.85
  -3   3   8    8.19    0.67
  -3   3   8    8.51    0.76
  -3   3   8    9.00    0.90
   2  -3  -8   11.12    0.88
   2  -3  -8   11.16    0.74
   2  -3  -8   11.30    0.86
   2  -3  -8   10.42    0.79
  -2   3   8   10.98    0.74
  -2   3   8   10.29    0.88
  -2   3   8   10.90    0.85
  -2   3   8   10.64    0.67
   1  -3  -8   45.52    1.50
   1  -3  -8   44.56    1.56
   1  -3  -8   43.70    1.56
   1  -3  -8   45.88    1.45
  -1   3   8   43.53    1.43
  -1   3   8   46.11    1.41
  -1   3   8   45.77    1.57
  -1   3   8   45.08    1.57
  -1   3   8   43.99    1.42
   0  -3  -8    8.99    0.75
   0  -3  -8    9.08    0.68
   0  -3  -8    8.57    0.64
   0  -3  -8    9.71    0.75
   0   3   8    7.79    0.73
   0   3   8    8.16    0.72
   0   3   8    8.53    0.57
   0   3   8    8.88    0.63
   0   3   8    8.38    0.66
  -1  -3  -8    5.28    0.67
  -1  -3  -8    5.24    0.60
  -1  -3  -8    4.92    0.67
  -1  -3  -8    6.02    0.57
   1   3   8    5.08    0.53
   1   3   8    4.73    0.42
   1   3   8    5.14    0.68
   1   3   8    4.70    0.49
   1   3   8    4.89    0.29
   1   3   8    5.67    0.67
  -2  -3  -8   53.63    1.71
  -2  -3  -8   50.54    1.59
  -2  -3  -8   51.86    1.63
  -2  -3  -8   52.84    1.70
   2   3   8   50.46    1.69
   2   3   8   52.39    1.72
   2   3   8   51.47    1.55
   2   3   8   52.05    1.58
   2   3   8   49.62    1.68
  -3  -3  -8   20.41    0.91
  -3  -3  -8   20.41    1.01
  -3  -3  -8   19.60    1.01
   3   3   8   19.25    1.02
   3   3   8   21.07    1.02
   3   3   8   20.85    0.90
   3   3   8   19.81    0.85
   3   3   8   18.30    1.02
  -4  -3  -8    1.01    0.37
  -4  -3  -8    0.63    0.41
  -4  -3  -8    0.66    0.39
  -4  -3  -8    0.57    0.43
   4   3   8    0.16    0.33
   4   3   8    0.88    0.53
   4   3   8    0.96    0.40
   4   3   8    0.75    0.32
   4   3   8    0.30    0.43
  -5  -3  -8   59.24    1.91
  -5  -3  -8   59.96    1.91
  -5  -3  -8   60.72    2.02
  -5  -3  -8   59.85    2.02
   5   3   8   59.89    2.07
   5   3   8   57.72    2.03
   5   3   8   60.57    1.84
   5   3   8   59.34    2.01
   5   3   8   58.73    1.85
  -6  -3  -8    1.02    0.44
  -6  -3  -8   -0.19    0.47
  -6  -3  -8    0.07    0.42
  -6  -3  -8    0.55    0.47
   6   3   8    0.09    0.57
   6   3   8    0.45    0.39
   6   3   8    0.28    0.38
   6   3   8    0.33    0.49
  -7  -3  -8    0.19    0.55
  -7  -3  -8    1.62    0.52
  -7  -3  -8    0.69    0.52
  -7  -3  -8    0.38    0.53
  -7  -3  -8    0.77    0.22
   7   3   8    1.05    0.45
   7   3   8    0.97    0.56
   7   3   8    0.94    0.45
  -8  -3  -8   12.42    1.22
  -8  -3  -8   16.23    1.37
  -8  -3  -8   16.33    1.15
  -8  -3  -8   12.42    0.70
  -8  -3  -8   14.40    1.28
   8   3   8   14.26    1.12
   8   3   8   13.04    1.06
   8   3   8   14.26    1.42
   8   3   8   14.43    1.33
  -9  -3  -8    1.02    0.73
  -9  -3  -8    0.02    0.42
  -9  -3  -8    0.40    0.75
  -9  -3  -8   -0.07    0.62
  -9  -3  -8    0.02    0.65
   9   3   8   -0.35    0.68
   9   3   8    0.57    0.67
   9   3   8   -0.96    0.52
   7  -4  -8    6.56    0.91
   7  -4  -8    5.29    0.81
   7  -4  -8    5.37    0.69
   7  -4  -8    6.03    0.88
  -7   4   8    6.62    0.92
  -7   4   8    5.77    0.67
  -7   4   8    5.39    0.69
  -7   4   8    6.92    0.89
   6  -4  -8   -0.38    0.59
   6  -4  -8    0.80    0.63
   6  -4  -8   -0.35    0.46
   6  -4  -8    0.35    0.64
  -6   4   8   -0.13    0.61
  -6   4   8    0.13    0.47
  -6   4   8    0.64    0.67
  -6   4   8    0.90    0.95
   5  -4  -8    1.66    0.54
   5  -4  -8    2.14    0.64
   5  -4  -8    1.21    0.62
   5  -4  -8    0.72    0.47
  -5   4   8    1.32    0.45
  -5   4   8    1.70    0.44
  -5   4   8    1.97    0.63
   4  -4  -8    7.72    0.96
   4  -4  -8    8.22    0.43
   4  -4  -8    8.78    0.97
   4  -4  -8    9.24    0.84
   4  -4  -8    8.60    0.97
  -4   4   8    5.93    0.68
  -4   4   8    8.48    0.79
   3  -4  -8    7.08    0.62
   3  -4  -8    6.68    0.84
   3  -4  -8    6.35    0.87
   3  -4  -8    8.22    0.75
  -3   4   8    7.23    0.62
  -3   4   8    7.67    0.73
  -3   4   8    8.69    0.87
  -3   4   8    7.73    0.90
   2  -4  -8  135.47    3.78
   2  -4  -8  139.48    3.67
   2  -4  -8  135.58    3.77
   2  -4  -8  135.59    3.71
  -2   4   8  130.55    3.77
  -2   4   8  137.19    3.63
  -2   4   8  135.98    3.59
  -2   4   8  133.59    3.77
   1  -4  -8    0.58    0.37
   1  -4  -8    0.27    0.29
   1  -4  -8    0.30    0.33
   1  -4  -8    0.22    0.34
  -1   4   8    0.07    0.34
  -1   4   8    0.22    0.38
  -1   4   8    1.00    0.33
  -1   4   8    0.16    0.25
  -1   4   8    0.58    0.39
  -1   4   8    0.39    0.29
   0  -4  -8   65.58    1.93
   0  -4  -8   65.89    1.97
   0  -4  -8   67.98    2.04
   0  -4  -8   64.58    2.02
   0   4   8   67.31    2.04
   0   4   8   66.09    1.88
   0   4   8   64.33    2.00
   0   4   8   67.97    1.87
   0   4   8   67.28    1.88
   0   4   8   65.29    2.02
  -1  -4  -8  103.15    2.96
  -1  -4  -8  104.30    2.87
  -1  -4  -8  106.08    2.91
  -1  -4  -8   98.45    2.95
   1   4   8  111.20    2.99
   1   4   8  105.55    2.98
   1   4   8  110.14    2.82
   1   4   8  103.76    2.97
   1   4   8  107.73    2.75
   1   4   8  106.20    2.82
  -2  -4  -8    2.12    0.38
  -2  -4  -8    2.49    0.35
  -2  -4  -8    2.65    0.33
  -2  -4  -8    2.46    0.40
   2   4   8    2.73    0.32
   2   4   8    2.06    0.43
   2   4   8    2.30    0.30
   2   4   8    2.02    0.38
   2   4   8    2.33    0.40
  -3  -4  -8    2.50    0.38
  -3  -4  -8    2.81    0.42
  -3  -4  -8    2.37    0.42
  -3  -4  -8    2.86    0.37
   3   4   8    2.88    0.44
   3   4   8    2.93    0.45
   3   4   8    3.67    0.34
   3   4   8    3.65    0.34
   3   4   8    3.39    0.55
  -4  -4  -8   62.47    1.90
  -4  -4  -8   60.01    1.86
  -4  -4  -8   62.11    1.96
  -4  -4  -8   61.25    1.97
   4   4   8   62.85    1.78
   4   4   8   60.17    1.96
   4   4   8   63.28    1.79
   4   4   8   62.23    1.98
   4   4   8   60.67    2.04
  -5  -4  -8    2.83    0.44
  -5  -4  -8    2.39    0.47
  -5  -4  -8    2.41    0.49
  -5  -4  -8    2.89    0.45
   5   4   8    2.37    0.45
   5   4   8    2.34    0.58
   5   4   8    2.82    0.37
   5   4   8    2.73    0.49
   5   4   8    2.54    0.37
  -6  -4  -8    4.87    0.52
  -6  -4  -8    5.53    0.55
  -6  -4  -8    6.44    0.66
  -6  -4  -8    6.02    0.64
   6   4   8    6.72    0.88
   6   4   8    7.32    0.70
   6   4   8    7.76    1.02
   6   4   8    5.98    0.66
   6   4   8    4.36    0.59
  -7  -4  -8    1.70    0.49
  -7  -4  -8    1.40    0.44
  -7  -4  -8    0.94    0.48
  -7  -4  -8    0.48    0.53
  -7  -4  -8    1.80    0.22
   7   4   8    1.21    0.70
   7   4   8    1.43    0.40
   7   4   8    1.10    0.52
   7   4   8    1.61    0.41
  -8  -4  -8    5.97    0.66
  -8  -4  -8    6.25    0.73
  -8  -4  -8    5.85    0.69
  -8  -4  -8    5.95    0.52
  -8  -4  -8    4.96    0.75
   8   4   8    5.90    0.56
   8   4   8    4.52    0.67
   8   4   8    5.87    0.82
   8   4   8    7.15    0.83
   8   4   8    7.54    0.99
  -9  -4  -8    3.51    0.67
  -9  -4  -8    3.11    0.76
  -9  -4  -8    3.34    0.71
  -9  -4  -8    4.26    0.79
  -9  -4  -8    3.93    0.47
   9   4   8    3.95    0.92
   9   4   8    3.33    0.79
   9   4   8    3.24    0.72
   9   4   8    4.04    0.59
   9   4   8    2.21    0.52
   7  -5  -8   -0.41    0.72
   7  -5  -8    0.25    0.75
   7  -5  -8    1.01    0.68
   7  -5  -8    0.11    0.57
  -7   5   8   -0.35    0.56
  -7   5   8    1.33    0.78
  -7   5   8    0.24    0.81
  -7   5   8   -0.12    0.56
  -7   5   8    0.85    0.86
   6  -5  -8   11.28    1.26
   6  -5  -8   13.28    1.32
   6  -5  -8   12.49    1.13
   6  -5  -8   12.64    1.35
  -6   5   8   10.96    1.32
  -6   5   8   11.08    1.05
  -6   5   8   12.39    1.35
  -6   5   8   12.57    1.42
   5  -5  -8    0.45    0.56
   5  -5  -8   -0.15    0.44
   5  -5  -8   -0.18    0.51
   5  -5  -8    0.68    0.59
  -5   5   8   -0.13    0.63
  -5   5   8   -0.68    0.35
  -5   5   8    0.34    0.44
  -5   5   8   -0.06    0.53
   4  -5  -8   15.14    1.08
   4  -5  -8   12.88    1.08
   4  -5  -8   15.75    0.99
   4  -5  -8   16.29    1.14
  -4   5   8   14.28    0.82
  -4   5   8   15.43    0.90
  -4   5   8   15.16    1.14
  -4   5   8   15.19    1.19
   3  -5  -8   24.24    0.76
   3  -5  -8   24.71    1.18
   3  -5  -8   22.92    1.21
   3  -5  -8   24.61    1.09
   3  -5  -8   24.96    1.22
  -3   5   8   24.08    1.01
  -3   5   8   24.34    0.97
  -3   5   8   24.48    1.22
  -3   5   8   25.65    1.27
   2  -5  -8   18.39    0.97
   2  -5  -8   19.67    1.03
   2  -5  -8   18.23    0.99
   2  -5  -8   18.07    0.91
  -2   5   8   17.60    1.02
  -2   5   8   19.27    1.03
  -2   5   8   17.41    1.01
  -2   5   8   18.85    0.82
  -2   5   8   17.99    0.78
   1  -5  -8    5.38    0.61
   1  -5  -8    5.30    0.73
   1  -5  -8    6.83    0.69
   1  -5  -8    5.77    0.68
  -1   5   8    6.37    0.73
  -1   5   8    6.50    0.72
  -1   5   8    5.57    0.53
  -1   5   8    5.41    0.47
  -1   5   8    6.01    0.69
   0  -5  -8   -0.07    0.29
   0  -5  -8    0.12    0.32
   0  -5  -8    0.26    0.27
   0  -5  -8    0.73    0.35
   0   5   8    0.21    0.33
   0   5   8    0.00    0.40
   0   5   8    0.60    0.31
   0   5   8    0.42    0.23
   0   5   8    0.55    0.36
   0   5   8    0.34    0.22
  -1  -5  -8   28.71    1.10
  -1  -5  -8   27.44    1.06
  -1  -5  -8   27.56    1.09
  -1  -5  -8   29.50    1.03
   1   5   8   27.49    1.11
   1   5   8   28.23    0.88
   1   5   8   28.73    0.97
   1   5   8   29.68    1.12
   1   5   8   28.82    0.90
   1   5   8   28.78    1.20
  -2  -5  -8    1.72    0.31
  -2  -5  -8    2.29    0.38
  -2  -5  -8    1.78    0.36
  -2  -5  -8    1.66    0.33
   2   5   8    1.87    0.22
   2   5   8    1.94    0.37
   2   5   8    1.53    0.45
   2   5   8    2.39    0.41
   2   5   8    1.82    0.23
  -3  -5  -8    0.81    0.33
  -3  -5  -8    0.79    0.34
  -3  -5  -8    1.13    0.32
  -3  -5  -8    0.49    0.29
   3   5   8    0.17    0.34
   3   5   8    0.55    0.32
   3   5   8    0.31    0.46
   3   5   8    0.64    0.20
   3   5   8    0.57    0.20
  -4  -5  -8    0.95    0.36
  -4  -5  -8    0.63    0.35
  -4  -5  -8    0.61    0.31
   4   5   8    1.01    0.37
   4   5   8    0.25    0.53
   4   5   8    0.92    0.38
   4   5   8    0.25    0.21
   4   5   8    0.58    0.21
  -5  -5  -8   15.15    0.91
  -5  -5  -8   15.00    0.85
  -5  -5  -8   15.45    0.90
  -5  -5  -8   15.00    0.83
   5   5   8   14.44    0.93
   5   5   8   15.04    1.09
   5   5   8   15.23    0.63
   5   5   8   14.96    0.63
   5   5   8   14.86    0.90
  -6  -5  -8    6.32    0.79
  -6  -5  -8    4.96    0.51
  -6  -5  -8    4.90    0.50
  -6  -5  -8    6.12    0.60
   6   5   8    6.15    0.82
   6   5   8    5.32    0.75
   6   5   8    6.74    0.50
   6   5   8    6.46    0.79
   6   5   8    6.49    0.53
  -7  -5  -8    2.49    0.47
  -7  -5  -8    2.40    0.25
  -7  -5  -8    1.85    0.45
  -7  -5  -8    2.47    0.51
  -7  -5  -8    2.65    0.54
   7   5   8    1.84    0.67
   7   5   8    1.36    0.31
   7   5   8    1.91    0.33
   7   5   8    2.07    0.50
  -8  -5  -8   -0.20    0.50
  -8  -5  -8    0.32    0.51
  -8  -5  -8    0.53    0.44
  -8  -5  -8    0.82    0.52
   8   5   8   -0.03    0.74
   8   5   8    0.15    0.26
   8   5   8    0.24    0.49
   8   5   8    0.02    0.58
   8   5   8    0.36    0.35
  -9  -5  -8   -0.57    0.53
  -9  -5  -8    0.64    0.61
  -9  -5  -8    1.21    0.64
  -9  -5  -8    0.88    0.59
   9   5   8    0.45    0.32
   9   5   8    0.14    0.41
   9   5   8   -0.92    0.75
   9   5   8   -0.85    0.65
   9   5   8   -0.87    0.57
   6  -6  -8    5.58    0.85
   6  -6  -8    5.11    0.71
   6  -6  -8    4.41    0.79
   6  -6  -8    3.62    0.72
  -6   6   8    3.99    0.93
  -6   6   8    4.76    0.62
  -6   6   8    3.59    0.76
  -6   6   8    5.67    0.87
  -6   6   8    4.04    0.54
   5  -6  -8    5.65    0.75
   5  -6  -8    6.99    0.79
   5  -6  -8    6.63    0.78
   5  -6  -8    6.18    0.66
  -5   6   8    6.86    0.83
  -5   6   8    6.36    0.79
  -5   6   8    6.32    0.77
  -5   6   8    7.46    0.94
  -5   6   8    8.80    0.77
   4  -6  -8    4.78    0.64
   4  -6  -8    4.94    0.56
   4  -6  -8    4.39    0.61
   4  -6  -8    4.69    0.66
  -4   6   8    5.27    0.62
  -4   6   8    4.46    0.67
  -4   6   8    7.03    0.75
  -4   6   8    5.52    0.77
  -4   6   8    5.41    0.69
   3  -6  -8   26.72    1.19
   3  -6  -8   25.71    1.30
   3  -6  -8   28.64    1.28
   3  -6  -8   25.84    1.31
  -3   6   8   29.50    1.33
  -3   6   8   28.63    1.06
  -3   6   8   28.44    1.38
  -3   6   8   28.07    1.00
   2  -6  -8   38.15    1.45
   2  -6  -8   33.50    1.38
   2  -6  -8   37.62    1.44
   2  -6  -8   40.04    1.37
  -2   6   8   37.89    1.17
  -2   6   8   39.51    1.21
  -2   6   8   39.43    1.54
  -2   6   8   40.95    1.50
   1  -6  -8    7.49    0.75
   1  -6  -8    7.86    0.78
   1  -6  -8    7.98    0.74
   1  -6  -8    7.98    0.70
  -1   6   8   10.10    0.81
  -1   6   8    8.64    0.50
  -1   6   8   10.50    0.79
  -1   6   8    8.38    0.47
  -1   6   8    7.56    0.78
   0  -6  -8  133.53    3.48
   0  -6  -8  130.97    3.48
   0  -6  -8  127.02    3.39
   0  -6  -8  124.28    3.43
   0   6   8  124.84    3.46
   0   6   8  124.99    3.20
   0   6   8  127.90    3.48
   0   6   8  128.05    3.49
   0   6   8  124.32    3.57
   0   6   8  121.93    3.20
  -1  -6  -8    0.43    0.31
  -1  -6  -8   -0.09    0.28
  -1  -6  -8    0.00    0.31
  -1  -6  -8   -0.06    0.26
   1   6   8   -0.26    0.29
   1   6   8   -0.40    0.30
   1   6   8   -0.27    0.45
   1   6   8   -0.57    0.29
  -2  -6  -8   70.90    2.00
  -2  -6  -8   70.12    2.06
  -2  -6  -8   70.28    2.04
  -2  -6  -8   69.98    2.06
   2   6   8   74.28    2.09
   2   6   8   70.54    2.08
   2   6   8   69.86    2.24
  -3  -6  -8   27.89    1.04
  -3  -6  -8   26.74    1.02
  -3  -6  -8   26.89    1.02
  -3  -6  -8   25.76    0.97
   3   6   8   26.57    1.25
   3   6   8   26.07    1.07
   3   6   8   25.43    1.03
  -4  -6  -8   36.12    1.27
  -4  -6  -8   35.69    1.26
  -4  -6  -8   37.46    1.23
   4   6   8   38.84    1.55
   4   6   8   35.05    1.29
   4   6   8   35.69    1.28
  -5  -6  -8    3.52    0.45
  -5  -6  -8    4.42    0.44
  -5  -6  -8    3.85    0.44
  -5  -6  -8    3.84    0.37
  -5  -6  -8    3.93    0.45
   5   6   8    4.01    0.70
   5   6   8    3.58    0.44
   5   6   8    3.34    0.47
  -6  -6  -8    1.40    0.41
  -6  -6  -8    1.90    0.40
  -6  -6  -8    1.41    0.38
  -6  -6  -8    1.45    0.25
  -6  -6  -8    0.53    0.38
   6   6   8    1.54    0.42
   6   6   8    1.76    0.42
   6   6   8    2.08    0.61
  -7  -6  -8   10.99    0.89
  -7  -6  -8   11.67    0.91
  -7  -6  -8   10.33    0.89
  -7  -6  -8    9.49    0.85
  -7  -6  -8   10.80    0.58
   7   6   8   11.58    0.92
   7   6   8    8.93    1.15
  -8  -6  -8   33.31    1.46
  -8  -6  -8   33.26    1.48
  -8  -6  -8   35.36    1.50
  -8  -6  -8   33.85    1.18
  -8  -6  -8   36.51    1.46
   8   6   8   34.68    1.56
   8   6   8   35.31    1.81
   8   6   8   34.95    1.52
  -9  -6  -8    9.04    1.11
  -9  -6  -8    6.58    0.72
  -9  -6  -8    6.55    0.77
  -9  -6  -8    8.55    1.14
   9   6   8    7.06    0.78
   9   6   8    5.40    0.98
   9   6   8    6.27    0.79
   5  -7  -8    9.42    1.07
   5  -7  -8   10.38    1.18
   5  -7  -8    8.10    0.88
   5  -7  -8    6.10    0.80
  -5   7   8    8.74    1.08
  -5   7   8    8.29    0.82
  -5   7   8   10.59    1.22
  -5   7   8    7.95    0.92
   4  -7  -8   21.06    1.19
   4  -7  -8   23.41    1.30
   4  -7  -8   22.88    1.32
   4  -7  -8   22.95    1.33
  -4   7   8   22.94    1.34
  -4   7   8   21.76    1.36
  -4   7   8   22.44    1.51
  -4   7   8   22.03    0.97
   3  -7  -8    0.25    0.47
   3  -7  -8    0.07    0.46
   3  -7  -8    0.15    0.39
   3  -7  -8    1.42    0.48
  -3   7   8    0.32    0.27
  -3   7   8    1.10    0.63
  -3   7   8    0.61    0.47
  -3   7   8    0.08    0.20
   2  -7  -8   13.98    0.94
   2  -7  -8   12.70    0.51
   2  -7  -8   13.02    0.85
   2  -7  -8   13.92    0.91
   2  -7  -8   13.71    0.90
  -2   7   8   13.82    1.06
  -2   7   8   13.10    0.53
  -2   7   8   12.95    0.92
  -2   7   8   12.11    0.50
  -2   7   8   12.30    0.94
   1  -7  -8    1.28    0.38
   1  -7  -8    1.35    0.36
   1  -7  -8    1.55    0.38
   1  -7  -8    1.14    0.40
   1  -7  -8    1.00    0.31
  -1   7   8    1.32    0.40
  -1   7   8    1.05    0.40
  -1   7   8    1.74    0.51
   0  -7  -8    1.77    0.33
   0  -7  -8    1.17    0.34
   0  -7  -8    1.40    0.36
   0  -7  -8    1.81    0.36
   0   7   8    1.88    0.44
   0   7   8    1.50    0.38
   0   7   8    1.34    0.37
  -1  -7  -8   56.73    1.66
  -1  -7  -8   54.85    1.61
  -1  -7  -8   54.57    1.65
  -1  -7  -8   52.34    1.64
   1   7   8   54.61    1.67
   1   7   8   55.39    1.77
   1   7   8   52.12    1.67
   1   7   8   52.70    1.89
  -2  -7  -8   11.06    0.66
  -2  -7  -8   12.31    0.69
  -2  -7  -8   12.06    0.65
  -2  -7  -8   11.20    0.70
   2   7   8    9.60    0.97
   2   7   8   11.81    0.72
   2   7   8   10.55    0.71
  -3  -7  -8  271.61    6.90
  -3  -7  -8  270.64    6.90
  -3  -7  -8  267.83    6.90
  -3  -7  -8  270.50    6.88
   3   7   8  270.21    7.18
   3   7   8  280.27    6.94
   3   7   8  263.49    6.91
  -4  -7  -8   17.29    0.83
  -4  -7  -8   17.26    0.82
  -4  -7  -8   20.12    0.81
  -4  -7  -8   17.74    0.82
  -4  -7  -8   16.12    0.83
   4   7   8   17.44    0.86
   4   7   8   18.47    0.87
   4   7   8   18.73    1.20
  -5  -7  -8   -0.20    0.28
  -5  -7  -8    0.18    0.31
  -5  -7  -8    0.13    0.31
  -5  -7  -8    0.44    0.32
  -5  -7  -8    0.50    0.30
   5   7   8    0.22    0.56
   5   7   8    0.05    0.32
   5   7   8   -0.42    0.32
  -6  -7  -8    5.33    0.62
  -6  -7  -8    4.37    0.46
  -6  -7  -8    4.38    0.45
  -6  -7  -8    4.48    0.54
  -6  -7  -8    5.08    0.48
   6   7   8    4.39    0.50
   6   7   8    4.05    0.72
   6   7   8    4.81    0.66
  -7  -7  -8   13.75    0.74
  -7  -7  -8   13.15    0.88
  -7  -7  -8   12.83    0.85
  -7  -7  -8   12.92    0.88
  -7  -7  -8   13.31    0.86
   7   7   8   13.39    0.88
   7   7   8   13.10    1.24
  -8  -7  -8    0.80    0.46
  -8  -7  -8    0.10    0.37
  -8  -7  -8    0.88    0.45
  -8  -7  -8    0.25    0.42
  -8  -7  -8    0.45    0.48
   8   7   8    1.26    0.79
   8   7   8    0.67    0.50
   8   7   8    0.73    0.40
  -9  -7  -8    5.49    0.70
  -9  -7  -8    6.39    0.69
  -9  -7  -8    6.17    0.67
  -9  -7  -8    6.91    0.83
  -9  -7  -8    5.09    0.66
   9   7   8    4.32    0.86
   9   7   8    6.20    0.75
   4  -8  -8   25.25    1.33
   4  -8  -8   25.42    1.46
   4  -8  -8   26.25    1.44
   4  -8  -8   26.08    1.44
  -4   8   8   26.50    1.71
  -4   8   8   24.11    1.50
  -4   8   8   24.92    1.45
   3  -8  -8    0.60    0.51
   3  -8  -8    0.36    0.52
   3  -8  -8    0.05    0.46
   3  -8  -8    0.28    0.47
  -3   8   8    0.30    0.52
  -3   8   8    1.57    0.74
  -3   8   8    0.10    0.50
   2  -8  -8    2.21    0.45
   2  -8  -8    1.57    0.42
   2  -8  -8    1.27    0.47
   2  -8  -8    1.20    0.46
  -2   8   8    2.00    0.49
  -2   8   8    1.67    0.63
   1  -8  -8    7.50    0.75
   1  -8  -8    6.86    0.71
   1  -8  -8    7.50    0.71
   1  -8  -8    7.19    0.77
   1  -8  -8    7.29    0.55
  -1   8   8    6.71    0.76
  -1   8   8    7.75    0.79
  -1   8   8    6.03    0.73
   0  -8  -8   26.21    1.05
   0  -8  -8   27.00    1.02
   0  -8  -8   25.47    1.03
   0  -8  -8   26.99    1.01
   0  -8  -8   25.21    1.05
   0   8   8   25.80    1.28
   0   8   8   26.15    1.07
   0   8   8   25.66    1.06
  -1  -8  -8    2.22    0.37
  -1  -8  -8    1.96    0.34
  -1  -8  -8    1.93    0.32
  -1  -8  -8    2.33    0.34
  -1  -8  -8    2.60    0.47
   1   8   8    1.43    0.60
   1   8   8    2.04    0.35
   1   8   8    2.27    0.51
  -2  -8  -8   70.14    1.99
  -2  -8  -8   71.20    1.98
  -2  -8  -8   71.52    2.03
  -2  -8  -8   72.26    2.00
   2   8   8   68.30    2.36
   2   8   8   73.55    2.03
  -3  -8  -8   13.44    0.73
  -3  -8  -8   14.70    0.65
  -3  -8  -8   13.78    0.63
  -3  -8  -8   14.44    0.70
   3   8   8   13.74    0.69
   3   8   8   12.81    0.66
   3   8   8   14.92    1.12
  -4  -8  -8   44.90    1.49
  -4  -8  -8   43.95    1.36
  -4  -8  -8   43.70    1.29
  -4  -8  -8   44.24    1.30
  -4  -8  -8   44.17    1.38
   4   8   8   44.52    1.35
   4   8   8   40.53    1.32
  -5  -8  -8   14.80    0.68
  -5  -8  -8   13.79    0.82
  -5  -8  -8   13.98    0.74
  -5  -8  -8   14.70    0.67
   5   8   8   12.07    0.72
   5   8   8   14.13    1.13
  -6  -8  -8    2.11    0.34
  -6  -8  -8    2.15    0.43
  -6  -8  -8    1.15    0.33
  -6  -8  -8    1.14    0.35
  -6  -8  -8    1.09    0.34
   6   8   8    1.34    0.37
   6   8   8    2.15    0.73
  -7  -8  -8    4.28    0.48
  -7  -8  -8    4.35    0.53
  -7  -8  -8    5.15    0.66
  -7  -8  -8    5.07    0.51
  -7  -8  -8    4.20    0.44
   7   8   8    3.88    0.83
   7   8   8    5.46    0.75
  -8  -8  -8    0.72    0.41
  -8  -8  -8    0.80    0.47
  -8  -8  -8    0.96    0.47
  -8  -8  -8    0.54    0.46
  -8  -8  -8    0.51    0.39
   8   8   8    0.46    0.82
   8   8   8   -0.10    0.32
   3  -9  -8   13.85    1.11
   3  -9  -8   15.99    1.17
   3  -9  -8   16.98    1.25
   3  -9  -8   17.09    1.18
  -3   9   8   19.52    1.56
  -3   9   8   16.64    1.26
   2  -9  -8    1.03    0.40
   2  -9  -8    1.80    0.48
   2  -9  -8    1.70    0.49
   2  -9  -8    1.01    0.51
  -2   9   8   -0.25    0.36
  -2   9   8    1.02    0.50
  -2   9   8    1.62    0.67
   1  -9  -8   -0.52    0.38
   1  -9  -8    0.03    0.32
   1  -9  -8    0.70    0.38
   1  -9  -8   -0.28    0.39
   1  -9  -8    0.25    0.27
  -1   9   8    0.18    0.30
  -1   9   8    0.48    0.60
  -1   9   8    0.50    0.40
   0  -9  -8    7.95    0.73
   0  -9  -8    7.99    0.69
   0  -9  -8    7.65    0.68
   0  -9  -8    8.41    0.69
   0  -9  -8    7.53    0.69
   0   9   8    9.43    1.10
   0   9   8    9.07    0.73
  -1  -9  -8   17.25    0.86
  -1  -9  -8   17.84    0.76
  -1  -9  -8   19.60    0.77
  -1  -9  -8   19.14    0.82
  -1  -9  -8   19.00    1.01
   1   9   8   18.23    1.20
   1   9   8   18.67    0.82
  -2  -9  -8   -0.23    0.19
  -2  -9  -8    0.06    0.19
  -2  -9  -8   -0.54    0.45
  -2  -9  -8    0.20    0.29
  -2  -9  -8   -0.23    0.27
   2   9   8   -0.36    0.25
   2   9   8   -0.23    0.58
  -3  -9  -8   25.06    0.94
  -3  -9  -8   24.80    1.30
  -3  -9  -8   25.23    0.90
   3   9   8   25.21    0.81
   3   9   8   24.42    1.37
  -4  -9  -8    0.72    0.46
  -4  -9  -8    0.24    0.57
  -4  -9  -8    0.01    0.27
  -4  -9  -8    0.25    0.25
   4   9   8   -0.03    0.64
   4   9   8    0.14    0.19
  -5  -9  -8    0.25    0.45
  -5  -9  -8    0.10    0.65
  -5  -9  -8   -0.07    0.27
   5   9   8    0.99    0.68
   5   9   8   -0.09    0.15
   5   9   8    0.31    0.20
  -6  -9  -8    8.08    0.85
  -6  -9  -8    7.39    0.66
  -6  -9  -8    8.00    0.65
  -6  -9  -8    7.60    0.91
   6   9   8    6.02    0.83
   6   9   8    8.69    0.56
  -7  -9  -8    0.25    0.48
  -7  -9  -8   -0.55    0.35
  -7  -9  -8   -0.70    0.33
  -7  -9  -8   -0.15    0.25
  -7  -9  -8   -1.19    0.72
  -7  -9  -8   -0.14    0.24
   7   9   8   -0.40    0.32
   7   9   8   -0.18    0.23
   7   9   8    0.27    0.74
  -8  -9  -8    7.33    0.95
  -8  -9  -8    7.36    0.65
  -8  -9  -8    5.56    0.65
  -8  -9  -8    6.45    0.60
  -8  -9  -8    6.19    1.09
  -8  -9  -8    5.52    0.57
   8   9   8    5.30    0.92
   1 -10  -8    2.63    0.45
   1 -10  -8    2.33    0.43
   1 -10  -8    3.21    0.53
   1 -10  -8    3.10    0.51
  -1  10   8    1.86    0.78
   0 -10  -8    8.35    0.76
   0 -10  -8    8.58    0.72
   0 -10  -8    7.94    0.63
   0 -10  -8    7.83    0.65
   0 -10  -8    8.90    0.83
   0  10   8   10.03    0.74
   0  10   8    7.71    0.91
  -1 -10  -8   30.21    1.15
  -1 -10  -8   29.39    1.08
  -1 -10  -8   32.35    1.28
   1  10   8   27.86    1.00
   1  10   8   30.51    1.56
  -2 -10  -8    2.28    0.33
  -2 -10  -8    2.21    0.37
  -2 -10  -8    2.71    0.56
  -3 -10  -8    5.75    0.58
  -3 -10  -8    6.39    0.76
  -3 -10  -8    6.02    0.52
   3  10   8    4.14    0.82
  -4 -10  -8    0.14    0.25
  -4 -10  -8   -0.16    0.27
  -4 -10  -8    0.22    0.56
  -4 -10  -8    0.10    0.64
   4  10   8   -0.53    0.72
  -5 -10  -8    0.31    0.28
  -5 -10  -8   -0.43    0.53
  -5 -10  -8    0.14    0.71
   5  10   8    0.40    0.71
  -6 -10  -8    4.70    0.58
  -6 -10  -8    3.76    0.67
  -6 -10  -8    3.48    0.88
  -6 -10  -8    4.20    0.41
   6  10   8    4.66    0.92
  -7 -10  -8    0.91    0.39
  -7 -10  -8    1.80    0.91
  -7 -10  -8    1.48    0.59
  -7 -10  -8    2.10    0.39
   7  10   8    1.02    0.81
  -1 -11  -8    0.78    0.36
  -1 -11  -8    0.11    0.38
  -1 -11  -8    0.13    0.46
  -2 -11  -8    4.54    0.45
  -2 -11  -8    4.60    0.42
  -2 -11  -8    5.38    0.68
  -3 -11  -8    5.69    0.56
  -3 -11  -8    6.19    0.63
  -3 -11  -8    7.07    0.79
   3  11   8    4.08    0.85
  -4 -11  -8    9.55    0.58
  -4 -11  -8    7.13    0.88
  -4 -11  -8   10.89    1.25
  -4 -11  -8    8.84    0.62
   4  11   8   11.78    1.34
  -5 -11  -8    4.69    0.90
  -5 -11  -8    6.69    0.54
   5  11   8    5.57    0.89
   4   6  -9    0.52    0.78
   4   6  -9    0.62    1.11
   4   6  -9    0.39    0.70
   4   6  -9    0.34    0.49
  -4  -6   9   -0.65    0.91
  -4  -6   9    0.83    0.81
  -4  -6   9    1.70    0.70
  -4  -6   9   -0.21    0.61
  -4  -6   9    0.16    0.67
   3   6  -9    0.42    0.50
   3   6  -9    0.44    0.72
   3   6  -9    0.55    0.65
   3   6  -9   -0.85    0.78
  -3  -6   9   -0.70    0.60
  -3  -6   9    0.36    0.84
  -3  -6   9    0.59    0.71
  -3  -6   9    0.29    0.74
  -3  -6   9   -0.24    0.66
   2   6  -9    2.90    0.80
   2   6  -9    3.15    0.89
   2   6  -9    3.85    0.85
   2   6  -9    3.47    0.56
  -2  -6   9    4.25    0.83
  -2  -6   9    3.77    0.77
  -2  -6   9    2.03    0.62
  -2  -6   9    4.69    0.97
  -2  -6   9    2.23    0.81
   1   6  -9    1.01    0.51
   1   6  -9    0.42    0.75
   1   6  -9   -0.07    0.80
   1   6  -9    1.18    0.82
   1   6  -9    2.04    0.73
  -1  -6   9    0.56    0.63
  -1  -6   9    1.94    0.72
  -1  -6   9    0.34    0.69
  -1  -6   9    1.65    0.77
  -1  -6   9    0.07    0.78
   0   6  -9   -1.10    0.79
   0   6  -9    0.11    0.52
   0   6  -9    0.67    0.74
   0   6  -9    0.06    0.61
   0  -6   9   -0.84    0.74
   0  -6   9    0.64    0.89
   0  -6   9   -0.85    0.67
   0  -6   9   -1.03    0.73
   6   5  -9    5.52    0.91
   6   5  -9    5.55    0.63
   6   5  -9    5.63    1.03
   6   5  -9    6.55    0.99
  -6  -5   9    5.64    0.80
  -6  -5   9    5.56    0.82
  -6  -5   9    3.63    0.63
  -6  -5   9    6.62    0.87
   5   5  -9    2.02    0.52
   5   5  -9    1.57    0.73
   5   5  -9    1.39    0.81
   5   5  -9    1.78    0.73
  -5  -5   9    1.82    0.62
  -5  -5   9    1.60    0.75
  -5  -5   9    0.67    0.70
  -5  -5   9    0.99    0.66
   4   5  -9   17.54    1.38
   4   5  -9   15.18    1.39
   4   5  -9   14.35    1.08
   4   5  -9   14.22    1.52
  -4  -5   9   14.97    1.23
  -4  -5   9   12.37    1.33
  -4  -5   9   15.32    1.43
  -4  -5   9   14.62    1.30
   3   5  -9    3.63    0.74
   3   5  -9    4.14    0.57
   3   5  -9    2.52    0.80
   3   5  -9    2.70    0.72
  -3  -5   9    4.25    0.73
  -3  -5   9    2.63    0.60
  -3  -5   9    3.10    0.74
  -3  -5   9    2.92    0.78
   2   5  -9    1.18    0.73
   2   5  -9    2.02    0.71
   2   5  -9    1.23    0.46
   2   5  -9    1.17    0.71
  -2  -5   9    1.47    0.56
  -2  -5   9    2.29    0.66
  -2  -5   9    2.23    0.70
  -2  -5   9    1.95    0.66
  -2  -5   9    0.08    0.71
   1   5  -9    0.90    0.67
   1   5  -9    0.43    0.65
   1   5  -9    1.32    0.48
   1   5  -9    1.33    0.73
  -1  -5   9    2.04    0.66
  -1  -5   9    1.50    0.71
  -1  -5   9    2.08    0.68
  -1  -5   9    0.77    0.59
  -1  -5   9    0.82    0.66
   0   5  -9    0.07    0.60
   0   5  -9    0.65    0.72
   0   5  -9    0.43    0.74
   0   5  -9    0.89    0.72
   0   5  -9    0.17    0.47
   0  -5   9    0.95    0.70
   0  -5   9    0.64    0.67
   0  -5   9    0.86    0.62
   0  -5   9    0.19    0.64
   0  -5   9   -0.27    0.70
  -1   5  -9   15.49    1.32
  -1   5  -9   13.47    1.13
  -1   5  -9   14.29    1.60
  -1   5  -9   15.13    1.52
  -1   5  -9   13.84    1.42
   1  -5   9   14.77    1.36
   1  -5   9   13.66    1.43
   1  -5   9   15.26    1.49
   1  -5   9   16.17    1.38
   1  -5   9   14.04    1.41
  -2   5  -9    4.07    1.06
  -2   5  -9    4.66    0.77
  -2   5  -9    4.49    0.89
  -2   5  -9    3.04    0.63
   2  -5   9    3.56    0.73
   2  -5   9    2.09    0.82
   2  -5   9    3.98    0.96
   2  -5   9    3.72    0.79
   2  -5   9    4.92    0.81
   7   4  -9    5.28    0.98
   7   4  -9    6.31    0.87
   7   4  -9    4.21    0.85
   7   4  -9    6.01    0.70
   7   4  -9    6.40    0.85
  -7  -4   9    6.55    0.89
  -7  -4   9    3.96    0.83
  -7  -4   9    5.81    0.77
  -7  -4   9    5.53    0.69
   6   4  -9    0.94    0.61
   6   4  -9    2.52    0.55
   6   4  -9    1.72    0.68
   6   4  -9    3.15    0.78
   6   4  -9    3.34    0.81
  -6  -4   9    1.86    0.60
  -6  -4   9    2.05    0.62
  -6  -4   9    1.61    0.66
  -6  -4   9    1.33    0.69
   5   4  -9    1.03    0.49
   5   4  -9   -0.54    0.65
   5   4  -9    0.04    0.73
   5   4  -9    0.58    0.66
  -5  -4   9    0.13    0.64
  -5  -4   9   -0.25    0.56
  -5  -4   9   -0.12    0.67
  -5  -4   9    0.41    0.61
   4   4  -9   12.41    1.19
   4   4  -9   11.20    1.33
   4   4  -9   12.82    1.34
   4   4  -9   11.78    1.02
  -4  -4   9   12.61    1.06
  -4  -4   9   12.74    1.30
  -4  -4   9   13.16    1.16
  -4  -4   9   11.92    1.23
   3   4  -9   -1.28    0.86
   3   4  -9    0.26    0.63
   3   4  -9    0.37    0.48
   3   4  -9    0.01    0.59
  -3  -4   9   -0.19    0.54
  -3  -4   9   -0.10    0.57
  -3  -4   9    0.19    0.55
  -3  -4   9    0.64    0.57
   2   4  -9   -0.28    0.63
   2   4  -9    0.56    0.66
   2   4  -9    0.51    0.58
   2   4  -9   -0.61    0.42
  -2  -4   9    0.64    0.60
  -2  -4   9   -0.06    0.52
  -2  -4   9    0.59    0.62
  -2  -4   9   -0.72    0.57
  -2  -4   9    0.78    0.55
   1   4  -9    2.08    0.54
   1   4  -9    1.29    0.61
   1   4  -9    0.23    0.63
   1   4  -9    1.02    0.64
  -1  -4   9    0.70    0.59
  -1  -4   9    1.58    0.64
  -1  -4   9    0.79    0.66
  -1  -4   9    1.10    0.54
  -1  -4   9    2.24    0.65
   0   4  -9   87.40    2.64
   0   4  -9   85.25    2.92
   0   4  -9   80.26    2.89
   0  -4   9   83.85    2.72
   0  -4   9   89.42    2.74
   0  -4   9   90.00    2.97
   0  -4   9   86.91    2.78
   0  -4   9   84.16    2.89
  -1   4  -9   -0.31    0.60
  -1   4  -9   -0.26    0.71
  -1   4  -9    0.52    0.50
  -1   4  -9    0.39    0.68
   1  -4   9   -0.09    0.55
   1  -4   9   -0.13    0.60
   1  -4   9    1.04    0.66
   1  -4   9    1.05    0.74
   1  -4   9    0.16    0.54
  -2   4  -9   66.53    2.49
  -2   4  -9   61.01    2.50
  -2   4  -9   62.15    2.16
  -2   4  -9   60.16    2.25
   2  -4   9   63.29    2.30
   2  -4   9   59.90    2.47
   2  -4   9   60.98    2.26
   2  -4   9   62.17    2.19
   2  -4   9   64.37    2.45
  -3   4  -9    2.27    0.62
  -3   4  -9    0.31    0.76
  -3   4  -9    1.29    0.85
  -3   4  -9    2.57    0.76
   3  -4   9    1.87    0.69
   3  -4   9    2.92    0.73
   3  -4   9    1.38    0.80
   3  -4   9    2.61    0.95
  -4   4  -9    0.55    0.75
  -4   4  -9    0.05    0.60
  -4   4  -9   -1.04    0.89
   4  -4   9   -0.84    0.65
   4  -4   9    0.23    0.92
   4  -4   9    1.11    0.86
   7   3  -9   18.69    1.43
   7   3  -9   20.65    1.28
   7   3  -9   20.47    1.69
   7   3  -9   20.45    1.62
   7   3  -9   19.94    1.40
  -7  -3   9   24.29    1.43
  -7  -3   9   21.29    1.65
  -7  -3   9   22.51    1.63
  -7  -3   9   19.89    1.37
   6   3  -9    1.53    0.66
   6   3  -9    2.64    0.68
   6   3  -9    1.73    0.51
   6   3  -9    2.47    0.78
   6   3  -9    0.63    0.73
  -6  -3   9    0.79    0.64
  -6  -3   9    1.88    0.66
  -6  -3   9    1.38    0.54
  -6  -3   9    2.80    0.74
   5   3  -9   35.50    1.62
   5   3  -9   37.51    1.80
   5   3  -9   36.94    1.51
   5   3  -9   36.98    1.80
  -5  -3   9   36.81    1.54
  -5  -3   9   35.68    1.75
  -5  -3   9   37.34    1.79
  -5  -3   9   36.66    1.66
   4   3  -9   17.67    1.37
   4   3  -9   15.26    1.18
   4   3  -9   14.54    1.35
   4   3  -9   14.98    1.10
  -4  -3   9   15.64    1.08
  -4  -3   9   15.75    1.16
  -4  -3   9   14.35    1.25
  -4  -3   9   13.95    1.27
   3   3  -9   22.56    1.29
   3   3  -9   23.61    1.44
   3   3  -9   22.87    1.20
   3   3  -9   22.88    1.45
  -3  -3   9   23.81    1.28
  -3  -3   9   22.90    1.20
  -3  -3   9   22.48    1.40
  -3  -3   9   22.32    1.40
   2   3  -9    2.22    0.53
   2   3  -9    3.06    0.70
   2   3  -9    2.60    0.53
   2   3  -9    3.04    0.69
   2   3  -9    2.73    0.60
  -2  -3   9    2.59    0.61
  -2  -3   9    2.96    0.58
  -2  -3   9    2.54    0.63
  -2  -3   9    2.64    0.50
  -2  -3   9    2.51    0.60
   1   3  -9    0.77    0.57
   1   3  -9    2.00    0.52
   1   3  -9    0.84    0.61
   1   3  -9    0.99    0.47
  -1  -3   9    1.50    0.24
  -1  -3   9    1.41    0.63
  -1  -3   9    1.69    0.67
  -1  -3   9    1.40    0.51
  -1  -3   9    1.24    0.52
   0   3  -9   37.25    1.77
   0   3  -9   38.84    1.50
   0   3  -9   40.45    1.80
   0  -3   9   38.85    1.72
   0  -3   9   36.85    1.60
   0  -3   9   39.05    1.78
   0  -3   9   35.86    1.23
   0  -3   9   36.98    1.49
  -1   3  -9   10.44    1.25
  -1   3  -9   12.93    1.25
  -1   3  -9   12.58    1.03
   1  -3   9   15.18    1.17
   1  -3   9   13.57    0.97
   1  -3   9   14.81    1.27
   1  -3   9   12.43    1.31
  -2   3  -9    8.17    1.00
  -2   3  -9   10.46    1.06
  -2   3  -9   11.77    1.18
  -2   3  -9   11.86    1.31
   2  -3   9    9.44    1.26
   2  -3   9   10.01    1.13
   2  -3   9   10.91    0.93
   2  -3   9   12.77    1.29
  -3   3  -9    5.62    0.87
  -3   3  -9    6.81    0.93
  -3   3  -9    5.06    0.69
  -3   3  -9    4.96    0.65
   3  -3   9    4.85    0.70
   3  -3   9    4.92    0.84
   3  -3   9    4.72    0.70
   3  -3   9    6.13    0.82
  -4   3  -9    4.90    0.70
  -4   3  -9    3.47    0.86
  -4   3  -9    4.79    0.82
  -4   3  -9    2.48    0.86
   4  -3   9    5.03    0.85
   4  -3   9    4.03    0.91
   4  -3   9    3.89    0.75
   4  -3   9    3.39    0.80
  -5   3  -9   14.14    1.69
  -5   3  -9   14.72    1.37
  -5   3  -9   15.10    1.48
  -5   3  -9   18.72    1.76
   5  -3   9   18.30    1.65
   5  -3   9   14.92    1.75
   5  -3   9   15.22    1.54
   8   2  -9    0.07    0.77
   8   2  -9   -0.83    0.70
   8   2  -9    0.55    0.63
   8   2  -9   -0.30    0.82
   8   2  -9    0.81    0.66
  -8  -2   9    0.16    0.63
  -8  -2   9   -0.41    0.59
  -8  -2   9   -0.18    0.79
   7   2  -9    5.97    0.89
   7   2  -9    6.02    0.70
   7   2  -9    8.05    1.05
   7   2  -9    7.94    0.95
   7   2  -9    7.27    0.81
  -7  -2   9    5.40    0.68
  -7  -2   9    7.15    0.92
  -7  -2   9    6.50    0.94
  -7  -2   9    6.34    0.74
   6   2  -9    5.49    0.85
   6   2  -9    5.78    0.68
   6   2  -9    4.66    0.83
   6   2  -9    7.05    0.99
   6   2  -9    4.87    0.76
  -6  -2   9    5.49    0.67
  -6  -2   9    5.34    0.81
  -6  -2   9    4.90    0.86
  -6  -2   9    5.41    0.70
   5   2  -9   16.59    1.09
   5   2  -9   15.34    1.36
   5   2  -9   17.80    1.13
   5   2  -9   18.09    1.38
  -5  -2   9   16.29    1.20
  -5  -2   9   17.79    1.35
  -5  -2   9   17.80    1.34
   4   2  -9    1.06    0.53
   4   2  -9    0.40    0.59
   4   2  -9    0.42    0.46
   4   2  -9    0.07    0.48
   4   2  -9    0.21    0.58
  -4  -2   9    0.55    0.53
  -4  -2   9    0.65    0.56
  -4  -2   9    0.24    0.58
   3   2  -9   40.34    1.74
   3   2  -9   36.32    1.53
   3   2  -9   37.34    1.56
   3   2  -9   35.54    1.69
   3   2  -9   38.31    1.49
  -3  -2   9   35.84    1.65
  -3  -2   9   40.70    1.70
  -3  -2   9   39.93    1.56
   2   2  -9   37.52    1.64
   2   2  -9   35.12    1.51
   2   2  -9   32.51    1.46
   2   2  -9   33.96    1.60
   2   2  -9   34.62    1.39
  -2  -2   9   35.42    1.48
  -2  -2   9   34.73    1.62
  -2  -2   9   35.99    1.60
   1   2  -9    0.45    0.57
   1   2  -9    0.38    0.54
   1   2  -9    0.12    0.46
   1   2  -9   -0.13    0.37
  -1  -2   9   -0.14    0.51
  -1  -2   9    0.32    0.50
  -1  -2   9    0.01    0.43
  -1  -2   9    0.12    0.54
  -1  -2   9    0.26    0.22
   0   2  -9    0.19    0.41
   0   2  -9    0.48    0.62
   0   2  -9    0.64    0.59
   0   2  -9    0.84    0.53
   0  -2   9    1.46    0.57
   0  -2   9    0.93    0.34
   0  -2   9    1.00    0.53
   0  -2   9    0.87    0.42
   0  -2   9    0.69    0.50
  -1   2  -9   -0.65    0.54
  -1   2  -9    0.06    0.38
  -1   2  -9   -0.22    0.44
  -1   2  -9    0.34    0.61
   1  -2   9    0.71    0.54
   1  -2   9    0.18    0.57
   1  -2   9   -0.14    0.47
   1  -2   9   -0.61    0.35
  -2   2  -9   23.71    1.46
  -2   2  -9   22.34    1.46
  -2   2  -9   24.23    1.22
   2  -2   9   23.57    1.47
   2  -2   9   22.68    1.30
   2  -2   9   22.72    1.42
   2  -2   9   22.81    1.02
  -3   2  -9    4.42    0.77
  -3   2  -9    4.63    0.77
  -3   2  -9    4.83    0.72
  -3   2  -9    4.31    0.61
   3  -2   9    4.46    0.80
   3  -2   9    3.78    0.74
   3  -2   9    4.68    0.69
  -4   2  -9   15.14    1.17
  -4   2  -9   13.55    1.40
  -4   2  -9   15.13    1.27
  -4   2  -9   11.47    1.38
   4  -2   9   14.95    1.28
   4  -2   9   14.71    1.37
   4  -2   9   13.39    1.25
   4  -2   9   13.60    1.47
  -5   2  -9   19.99    1.48
  -5   2  -9   20.73    1.66
  -5   2  -9   18.44    1.65
  -5   2  -9   17.04    1.35
   5  -2   9   20.45    1.70
   5  -2   9   19.71    1.55
   5  -2   9   18.23    1.47
   5  -2   9   18.14    1.42
  -6   2  -9    0.10    0.85
  -6   2  -9    1.10    0.69
  -6   2  -9    1.16    0.78
  -6   2  -9    1.32    0.87
   6  -2   9    1.09    0.87
   6  -2   9    0.49    0.84
   6  -2   9    1.96    0.97
   6  -2   9    1.07    0.73
   8   1  -9   -0.31    0.67
   8   1  -9   -0.30    0.78
   8   1  -9    1.77    0.84
   8   1  -9    0.12    0.56
   8   1  -9   -0.36    0.75
  -8  -1   9    0.33    0.83
  -8  -1   9    0.83    0.63
  -8  -1   9   -0.64    0.58
   7   1  -9    0.58    0.56
   7   1  -9   -0.74    0.77
   7   1  -9   -0.41    0.58
   7   1  -9   -0.29    0.78
   7   1  -9    1.40    0.54
  -7  -1   9   -0.06    0.61
  -7  -1   9   -0.30    0.58
  -7  -1   9    0.21    0.72
  -7  -1   9   -0.53    0.67
   6   1  -9    8.45    0.98
   6   1  -9    6.48    0.86
   6   1  -9    7.86    0.93
   6   1  -9    6.68    0.90
   6   1  -9    4.96    0.68
  -6  -1   9    7.06    0.86
  -6  -1   9    6.76    0.86
  -6  -1   9    7.33    0.79
   5   1  -9    5.91    0.62
   5   1  -9    6.88    0.82
   5   1  -9    5.03    0.74
   5   1  -9    5.41    0.77
  -5  -1   9    6.39    0.76
  -5  -1   9    5.64    0.74
  -5  -1   9    5.23    0.63
   4   1  -9    1.87    0.52
   4   1  -9    0.97    0.61
   4   1  -9    0.72    0.44
   4   1  -9    1.06    0.50
   4   1  -9    1.29    0.61
  -4  -1   9    1.78    0.56
  -4  -1   9    1.13    0.55
  -4  -1   9    1.34    0.57
   3   1  -9    5.60    0.73
   3   1  -9    7.81    0.84
   3   1  -9    4.93    0.57
   3   1  -9    6.91    0.69
   3   1  -9    5.46    0.70
  -3  -1   9    4.99    0.66
  -3  -1   9    7.97    0.92
  -3  -1   9    6.07    0.72
   2   1  -9   -0.40    0.55
   2   1  -9   -0.01    0.42
   2   1  -9   -0.60    0.36
   2   1  -9   -0.30    0.52
  -2  -1   9   -0.04    0.44
  -2  -1   9   -0.30    0.46
  -2  -1   9    0.24    0.49
   1   1  -9    2.62    0.45
   1   1  -9    2.76    0.60
   1   1  -9    3.81    0.68
   1   1  -9    3.39    0.53
  -1  -1   9    2.88    0.48
  -1  -1   9    3.82    0.62
  -1  -1   9    3.42    0.51
  -1  -1   9    3.11    0.61
  -1  -1   9    3.85    0.40
   0   1  -9    0.21    0.51
   0   1  -9    0.45    0.52
   0   1  -9    0.53    0.44
   0   1  -9    0.28    0.42
   0  -1   9   -0.23    0.44
   0  -1   9    0.51    0.33
   0  -1   9   -0.36    0.49
   0  -1   9    0.52    0.41
   0  -1   9    0.33    0.31
   0  -1   9   -0.21    0.51
  -1   1  -9   11.33    1.09
  -1   1  -9   11.99    0.92
  -1   1  -9   11.59    1.08
  -1   1  -9   11.99    1.19
   1  -1   9   10.26    0.76
   1  -1   9   12.60    0.93
   1  -1   9   10.08    1.04
   1  -1   9   12.41    0.69
   1  -1   9   10.97    0.97
   1  -1   9   11.61    1.11
  -2   1  -9    1.83    0.50
  -2   1  -9    1.93    0.59
  -2   1  -9    1.45    0.58
   2  -1   9    1.02    0.43
   2  -1   9    1.35    0.49
   2  -1   9    0.83    0.54
   2  -1   9    1.15    0.60
   2  -1   9    1.88    0.34
  -3   1  -9    5.23    0.77
  -3   1  -9    5.31    0.76
  -3   1  -9    5.68    0.60
   3  -1   9    5.42    0.75
   3  -1   9    5.24    0.76
   3  -1   9    4.91    0.63
  -4   1  -9    0.62    0.63
  -4   1  -9    0.87    0.63
  -4   1  -9    0.44    0.49
   4  -1   9    0.36    0.56
   4  -1   9    0.78    0.59
   4  -1   9    0.08    0.62
   4  -1   9    0.45    0.56
  -5   1  -9    1.18    0.57
  -5   1  -9    0.85    0.61
  -5   1  -9    0.92    0.73
  -5   1  -9    0.77    0.75
   5  -1   9    1.34    0.72
   5  -1   9    0.74    0.65
   5  -1   9    1.22    0.75
   5  -1   9   -0.19    0.52
  -6   1  -9    1.18    0.64
  -6   1  -9    1.17    0.83
  -6   1  -9    1.85    0.82
  -6   1  -9    1.81    0.73
   6  -1   9    1.99    0.73
   6  -1   9    1.00    0.69
   6  -1   9    1.64    0.82
   6  -1   9    2.01    0.86
   8   0  -9    4.09    0.96
   8   0  -9    2.70    0.87
   8   0  -9    5.79    0.66
   8   0  -9    3.05    0.70
   8   0  -9    4.98    0.90
  -8   0   9    4.01    0.76
  -8   0   9    4.19    0.89
  -8   0   9    3.45    0.92
  -8   0   9    3.03    0.75
   7   0  -9   -0.93    0.73
   7   0  -9   -0.68    0.45
   7   0  -9   -0.62    0.50
   7   0  -9    0.69    0.68
   7   0  -9   -0.25    0.68
  -7   0   9   -0.22    0.58
  -7   0   9   -0.25    0.70
  -7   0   9    0.47    0.69
  -7   0   9    0.52    0.52
   6   0  -9   20.47    1.47
   6   0  -9   22.13    1.51
   6   0  -9   21.06    1.11
   6   0  -9   19.48    1.35
   6   0  -9   22.90    1.23
  -6   0   9   21.51    1.51
  -6   0   9   21.96    1.31
  -6   0   9   22.53    1.50
  -6   0   9   20.08    1.22
   5   0  -9    0.97    0.50
   5   0  -9    0.19    0.41
   5   0  -9    0.30    0.57
   5   0  -9    1.08    0.61
  -5   0   9    0.63    0.58
  -5   0   9    1.20    0.50
  -5   0   9    1.10    0.61
   4   0  -9   17.22    1.24
   4   0  -9   16.16    1.22
   4   0  -9   16.12    0.97
   4   0  -9   17.52    1.07
  -4   0   9   16.58    1.09
  -4   0   9   15.88    1.24
  -4   0   9   13.67    0.94
  -4   0   9   16.47    1.20
   3   0  -9    1.47    0.46
   3   0  -9   -0.09    0.51
   3   0  -9    0.72    0.44
   3   0  -9    0.86    0.54
  -3   0   9    0.73    0.55
  -3   0   9    1.12    0.45
  -3   0   9    0.66    0.52
  -3   0   9    0.61    0.50
   2   0  -9   22.50    1.28
   2   0  -9   21.75    1.25
   2   0  -9   19.22    1.05
   2   0  -9   21.22    1.11
  -2   0   9   18.60    1.10
  -2   0   9   20.84    1.05
  -2   0   9   21.31    1.26
  -2   0   9   21.28    1.22
   1   0  -9    8.08    0.84
   1   0  -9    7.17    0.96
   1   0  -9    6.29    0.69
   1   0  -9    7.25    0.78
  -1   0   9    8.27    0.77
  -1   0   9    8.34    0.52
  -1   0   9    7.00    0.85
  -1   0   9    7.75    0.78
  -1   0   9    5.91    0.68
   0   0  -9   12.52    1.06
   0   0  -9   15.39    0.97
   0   0  -9   14.86    1.11
   0   0  -9   13.58    0.93
   0   0   9   15.11    0.72
   0   0   9   15.46    0.71
   0   0   9   13.80    1.09
   0   0   9   13.53    1.07
   0   0   9   15.62    0.98
   0   0   9   15.01    0.89
  -1   0  -9    1.16    0.46
  -1   0  -9    1.45    0.51
  -1   0  -9    2.34    0.49
  -1   0  -9    2.08    0.56
   1   0   9    1.93    0.42
   1   0   9    1.22    0.40
   1   0   9    1.76    0.28
   1   0   9    1.38    0.56
   1   0   9    2.23    0.59
   1   0   9    1.82    0.46
  -2   0  -9    2.53    0.57
  -2   0  -9    2.34    0.61
  -2   0  -9    1.16    0.44
   2   0   9    2.44    0.27
   2   0   9    2.58    0.49
   2   0   9    2.29    0.48
   2   0   9    3.21    0.64
   2   0   9    2.12    0.45
   2   0   9    2.24    0.57
  -3   0  -9   54.62    2.03
  -3   0  -9   54.18    1.84
  -3   0  -9   51.32    2.01
   3   0   9   51.89    2.02
   3   0   9   53.21    1.84
   3   0   9   53.18    1.86
   3   0   9   51.84    2.00
  -4   0  -9    8.04    0.93
  -4   0  -9    8.20    1.11
  -4   0  -9    7.05    0.79
   4   0   9    7.77    0.71
   4   0   9    6.52    0.80
   4   0   9    7.02    0.82
  -5   0  -9   22.98    1.49
  -5   0  -9   20.27    1.47
  -5   0  -9   22.69    1.27
   5   0   9   23.91    1.54
   5   0   9   21.97    1.31
   5   0   9   21.98    1.45
  -6   0  -9   14.63    1.45
  -6   0  -9   15.57    1.23
  -6   0  -9   12.96    1.29
  -6   0  -9   14.53    1.47
   6   0   9   14.85    1.24
   6   0   9   14.72    1.41
   6   0   9   15.88    1.49
   6   0   9   14.76    1.29
  -7   0  -9    1.99    0.72
  -7   0  -9    0.54    0.70
  -7   0  -9    1.68    0.80
  -7   0  -9    0.61    0.62
   7   0   9   -0.56    0.73
   7   0   9   -0.09    0.69
   7   0   9   -0.09    0.84
   7   0   9    0.26    0.66
   8  -1  -9   -0.76    0.75
   8  -1  -9    0.89    0.86
   8  -1  -9    0.95    0.91
   8  -1  -9   -1.51    0.60
  -8   1   9    1.67    0.74
  -8   1   9   -0.26    0.62
  -8   1   9    0.14    0.79
  -8   1   9    0.30    0.83
   7  -1  -9    0.75    0.51
   7  -1  -9    0.69    0.74
   7  -1  -9    0.51    0.66
   7  -1  -9   -0.38    0.69
   7  -1  -9   -0.18    0.40
  -7   1   9    0.27    0.71
  -7   1   9   -0.46    0.58
  -7   1   9   -0.34    0.54
   6  -1  -9    0.25    0.61
   6  -1  -9   -0.43    0.53
   6  -1  -9    0.22    0.63
   6  -1  -9    0.02    0.38
  -6   1   9    0.35    0.59
  -6   1   9    0.20    0.51
  -6   1   9   -0.08    0.65
  -6   1   9   -0.29    0.48
   5  -1  -9    1.72    0.42
   5  -1  -9    2.45    0.55
   5  -1  -9    2.40    0.67
   5  -1  -9    2.25    0.66
  -5   1   9    1.79    0.64
  -5   1   9    2.12    0.70
  -5   1   9    1.62    0.49
   4  -1  -9   63.22    2.25
   4  -1  -9   60.07    2.23
   4  -1  -9   64.55    2.08
   4  -1  -9   63.00    1.98
  -4   1   9   66.54    2.27
  -4   1   9   62.26    2.09
  -4   1   9   64.46    2.25
  -4   1   9   64.76    2.03
   3  -1  -9   11.80    0.92
   3  -1  -9   13.17    1.13
   3  -1  -9    8.58    0.97
   3  -1  -9   12.74    1.09
  -3   1   9   13.98    1.08
  -3   1   9   10.96    0.96
  -3   1   9   12.11    0.86
  -3   1   9   11.39    1.08
   2  -1  -9    1.04    0.43
   2  -1  -9    0.96    0.50
   2  -1  -9    0.92    0.40
   2  -1  -9    1.26    0.57
  -2   1   9    1.54    0.40
  -2   1   9    1.13    0.50
  -2   1   9    1.70    0.56
  -2   1   9    1.06    0.44
   1  -1  -9   12.15    1.02
   1  -1  -9   10.82    0.82
   1  -1  -9   11.62    0.90
   1  -1  -9   11.40    0.98
  -1   1   9   10.94    0.99
  -1   1   9   12.47    0.64
  -1   1   9   11.54    0.81
  -1   1   9   11.57    1.00
  -1   1   9   11.81    0.90
   0  -1  -9   29.79    1.39
   0  -1  -9   32.97    1.27
   0  -1  -9   30.20    1.39
   0  -1  -9   31.43    1.30
   0   1   9   34.31    1.42
   0   1   9   30.70    1.10
   0   1   9   32.50    1.29
   0   1   9   32.35    1.22
   0   1   9   34.59    1.43
  -1  -1  -9   62.46    2.12
  -1  -1  -9   60.15    2.10
  -1  -1  -9   64.26    1.97
  -1  -1  -9   64.25    2.02
   1   1   9   62.44    2.12
   1   1   9   60.80    1.89
   1   1   9   60.30    2.09
   1   1   9   62.59    1.67
   1   1   9   62.89    1.95
   1   1   9   63.29    1.99
  -2  -1  -9   37.53    1.48
  -2  -1  -9   42.21    1.53
  -2  -1  -9   41.58    1.64
  -2  -1  -9   37.78    1.62
   2   1   9   40.06    1.63
   2   1   9   40.69    1.67
   2   1   9   42.69    1.48
   2   1   9   41.72    1.47
   2   1   9   41.63    1.51
  -3  -1  -9    7.48    1.03
  -3  -1  -9    8.81    0.86
  -3  -1  -9    7.46    0.88
  -3  -1  -9    7.79    1.00
   3   1   9    9.19    0.90
   3   1   9    9.51    1.06
   3   1   9    7.72    1.00
   3   1   9    9.31    0.86
   3   1   9    8.40    0.85
  -4  -1  -9    0.45    0.43
  -4  -1  -9    0.97    0.61
  -4  -1  -9   -0.13    0.53
  -4  -1  -9    0.32    0.49
   4   1   9    0.33    0.49
   4   1   9   -0.28    0.47
   4   1   9    0.14    0.54
   4   1   9   -0.41    0.52
  -5  -1  -9    5.38    0.64
  -5  -1  -9    6.95    0.83
  -5  -1  -9    7.30    0.85
  -5  -1  -9    6.45    0.74
   5   1   9    4.27    0.71
   5   1   9    4.40    0.67
   5   1   9    5.01    0.62
   5   1   9    4.84    0.59
  -6  -1  -9    0.20    0.64
  -6  -1  -9   -0.43    0.59
  -6  -1  -9    0.42    0.52
  -6  -1  -9    1.54    0.62
   6   1   9    0.71    0.65
   6   1   9   -0.12    0.68
   6   1   9    0.35    0.53
  -7  -1  -9    6.96    0.88
  -7  -1  -9    7.24    0.81
  -7  -1  -9    5.55    0.85
  -7  -1  -9    6.73    0.95
   7   1   9    5.58    0.74
   7   1   9    7.37    0.74
   7   1   9    7.37    1.04
   7   1   9    8.39    1.00
  -8  -1  -9    0.97    0.65
  -8  -1  -9    0.85    0.40
  -8  -1  -9    0.50    0.87
  -8  -1  -9    0.59    0.78
   8   1   9    2.22    0.89
   8   1   9    1.02    0.75
   8   1   9    1.18    0.68
   8  -2  -9    6.75    1.05
   8  -2  -9    7.92    0.88
   8  -2  -9    7.26    1.03
  -8   2   9    6.48    1.06
  -8   2   9    6.57    0.81
  -8   2   9    7.54    0.89
  -8   2   9    5.99    0.97
   7  -2  -9   -0.29    0.76
   7  -2  -9   -0.75    0.69
   7  -2  -9   -1.10    0.53
   7  -2  -9    0.06    0.73
  -7   2   9    0.42    0.76
  -7   2   9   -0.18    0.51
  -7   2   9    0.57    0.61
  -7   2   9   -1.13    0.70
   6  -2  -9    0.69    0.51
   6  -2  -9   -0.15    0.65
   6  -2  -9    0.17    0.36
   6  -2  -9   -0.23    0.64
  -6   2   9   -0.19    0.53
  -6   2   9    0.22    0.62
  -6   2   9    0.32    0.44
   5  -2  -9   82.20    2.69
   5  -2  -9   78.25    2.48
   5  -2  -9   80.11    2.70
   5  -2  -9   78.05    2.29
  -5   2   9   77.99    2.67
  -5   2   9   80.85    2.52
  -5   2   9   82.39    2.71
   4  -2  -9   25.82    1.38
   4  -2  -9   25.75    1.05
   4  -2  -9   25.24    1.24
   4  -2  -9   26.21    1.43
   4  -2  -9   24.28    1.30
  -4   2   9   26.83    1.17
  -4   2   9   27.16    1.28
  -4   2   9   23.89    1.40
  -4   2   9   26.98    1.42
   3  -2  -9   28.91    1.26
   3  -2  -9   28.39    1.42
   3  -2  -9   27.49    1.32
   3  -2  -9   27.92    1.41
  -3   2   9   29.71    1.42
  -3   2   9   29.77    1.27
  -3   2   9   28.87    1.19
  -3   2   9   27.58    1.44
   2  -2  -9  161.81    4.47
   2  -2  -9  160.92    4.32
   2  -2  -9  163.39    4.48
   2  -2  -9  159.54    4.36
  -2   2   9  159.60    4.33
  -2   2   9  154.48    4.27
  -2   2   9  160.74    4.47
  -2   2   9  161.00    4.47
   1  -2  -9   -0.01    0.35
   1  -2  -9   -0.13    0.47
   1  -2  -9   -0.40    0.45
   1  -2  -9    0.44    0.36
  -1   2   9   -0.01    0.37
  -1   2   9   -0.26    0.39
  -1   2   9   -0.60    0.45
  -1   2   9    0.39    0.32
  -1   2   9    0.14    0.31
   0  -2  -9   27.26    1.26
   0  -2  -9   28.13    1.18
   0  -2  -9   27.18    1.13
   0  -2  -9   27.16    1.25
   0   2   9   27.95    1.26
   0   2   9   28.07    1.14
   0   2   9   27.08    1.27
   0   2   9   26.43    1.04
   0   2   9   26.82    1.08
  -1  -2  -9    5.77    0.61
  -1  -2  -9    7.15    0.78
  -1  -2  -9    6.79    0.71
  -1  -2  -9    5.74    0.62
   1   2   9    7.31    0.86
   1   2   9    4.85    0.58
   1   2   9    6.37    0.74
   1   2   9    6.02    0.69
   1   2   9    5.16    0.69
  -2  -2  -9    1.57    0.48
  -2  -2  -9    2.55    0.47
  -2  -2  -9    1.40    0.48
   2   2   9    1.48    0.48
   2   2   9    2.08    0.47
   2   2   9    1.90    0.50
   2   2   9    1.45    0.41
   2   2   9    1.94    0.39
  -3  -2  -9    0.97    0.46
  -3  -2  -9    1.56    0.45
  -3  -2  -9    1.35    0.48
  -3  -2  -9    0.61    0.43
   3   2   9    1.17    0.41
   3   2   9    0.27    0.44
   3   2   9    1.23    0.50
   3   2   9    0.62    0.73
   3   2   9    0.85    0.44
  -4  -2  -9   11.54    0.92
  -4  -2  -9   12.30    1.04
  -4  -2  -9   11.44    1.07
  -4  -2  -9   11.14    0.91
   4   2   9   11.72    0.91
   4   2   9   10.26    1.02
   4   2   9   11.48    0.87
   4   2   9    9.90    0.98
  -5  -2  -9   -0.47    0.51
  -5  -2  -9    0.34    0.43
  -5  -2  -9   -0.62    0.46
  -5  -2  -9   -0.12    0.49
   5   2   9   -0.57    0.41
   5   2   9    0.04    0.49
   5   2   9   -0.07    0.41
   5   2   9   -0.28    0.53
  -6  -2  -9   12.96    1.25
  -6  -2  -9   13.83    1.09
  -6  -2  -9   14.20    1.25
  -6  -2  -9   13.92    1.14
   6   2   9   14.71    1.09
   6   2   9   14.67    1.09
   6   2   9   13.50    1.26
  -7  -2  -9    3.72    0.75
  -7  -2  -9    4.11    0.72
  -7  -2  -9    4.04    0.75
  -7  -2  -9    3.52    0.64
   7   2   9    2.15    0.70
   7   2   9    3.81    0.73
   7   2   9    2.94    0.59
  -8  -2  -9   45.53    1.94
  -8  -2  -9   47.00    2.03
  -8  -2  -9   45.93    1.38
  -8  -2  -9   46.05    2.17
  -8  -2  -9   48.50    2.26
   8   2   9   43.83    2.16
   8   2   9   49.19    2.19
   8   2   9   46.68    1.89
   8   2   9   46.91    1.96
   7  -3  -9   36.19    1.89
   7  -3  -9   37.03    1.97
   7  -3  -9   34.45    1.62
   7  -3  -9   34.44    1.91
  -7   3   9   36.75    1.67
  -7   3   9   35.48    1.90
  -7   3   9   34.95    1.94
  -7   3   9   33.90    1.59
   6  -3  -9    1.82    0.60
   6  -3  -9    1.54    0.71
   6  -3  -9    1.88    0.68
   6  -3  -9    1.12    0.30
   6  -3  -9    1.04    0.70
  -6   3   9    1.32    0.58
  -6   3   9    1.27    0.57
  -6   3   9    0.84    0.72
  -6   3   9    1.14    0.67
   5  -3  -9    0.26    0.60
   5  -3  -9    0.51    0.58
   5  -3  -9   -0.02    0.28
   5  -3  -9    0.03    0.45
   5  -3  -9    0.12    0.54
  -5   3   9    0.26    0.58
  -5   3   9   -0.32    0.49
  -5   3   9   -0.17    0.59
  -5   3   9    0.85    0.39
   4  -3  -9   18.95    1.22
   4  -3  -9   18.19    0.82
   4  -3  -9   17.62    1.03
   4  -3  -9   19.04    1.23
   4  -3  -9   18.54    1.16
  -4   3   9   15.37    1.07
  -4   3   9   18.56    1.25
  -4   3   9   17.47    0.96
   3  -3  -9    8.91    1.00
   3  -3  -9   10.32    0.96
   3  -3  -9    8.38    0.85
   3  -3  -9   11.04    1.01
  -3   3   9    9.98    0.88
  -3   3   9   10.71    1.03
  -3   3   9   10.26    0.78
   2  -3  -9   72.73    2.24
   2  -3  -9   71.45    2.10
   2  -3  -9   72.71    2.17
   2  -3  -9   61.27    2.19
  -2   3   9   68.62    2.08
  -2   3   9   69.23    2.24
  -2   3   9   70.86    2.04
  -2   3   9   56.75    2.23
   1  -3  -9    3.29    0.53
   1  -3  -9    3.12    0.51
   1  -3  -9    3.75    0.51
   1  -3  -9    2.89    0.41
  -1   3   9    3.41    0.42
  -1   3   9    3.42    0.45
  -1   3   9    3.91    0.57
  -1   3   9    2.37    0.36
  -1   3   9    3.04    0.54
   0  -3  -9   20.10    1.08
   0  -3  -9   19.89    0.93
   0  -3  -9   18.70    1.07
   0  -3  -9   16.90    0.97
   0   3   9   19.09    0.93
   0   3   9   20.64    1.06
   0   3   9   19.68    0.87
   0   3   9   17.74    0.90
   0   3   9   19.12    1.05
  -1  -3  -9  116.58    3.15
  -1  -3  -9  109.70    3.18
  -1  -3  -9  111.22    3.27
  -1  -3  -9  110.08    3.26
   1   3   9  117.82    3.27
   1   3   9  112.81    3.16
   1   3   9  113.77    3.12
   1   3   9  114.08    3.10
   1   3   9  117.10    3.29
  -2  -3  -9   15.19    1.00
  -2  -3  -9   15.37    1.01
  -2  -3  -9   15.36    0.88
  -2  -3  -9   13.31    0.92
   2   3   9   15.65    0.82
   2   3   9   14.99    0.92
   2   3   9   15.84    0.85
   2   3   9   15.81    0.99
   2   3   9   15.30    1.00
  -3  -3  -9   41.91    1.66
  -3  -3  -9   44.91    1.61
  -3  -3  -9   46.54    1.57
  -3  -3  -9   44.22    1.68
   3   3   9   47.25    1.70
   3   3   9   47.99    1.73
   3   3   9   47.79    1.51
   3   3   9   47.74    1.53
   3   3   9   46.36    1.68
  -4  -3  -9    9.65    0.95
  -4  -3  -9    8.37    0.84
  -4  -3  -9    8.28    0.95
  -4  -3  -9    7.68    0.85
   4   3   9    8.86    0.94
   4   3   9    8.31    1.07
   4   3   9    8.29    0.75
   4   3   9   10.07    0.99
   4   3   9    9.39    0.79
  -5  -3  -9   -0.43    0.49
  -5  -3  -9    0.15    0.49
  -5  -3  -9   -0.76    0.40
  -5  -3  -9    0.28    0.41
   5   3   9    0.52    0.40
   5   3   9   -0.28    0.56
   5   3   9   -0.14    0.38
   5   3   9   -0.17    0.44
  -6  -3  -9    1.11    0.49
  -6  -3  -9    0.44    0.55
  -6  -3  -9    0.99    0.56
  -6  -3  -9    0.47    0.50
   6   3   9   -0.46    0.59
   6   3   9    1.45    0.44
   6   3   9    1.49    0.56
   6   3   9    0.89    0.44
  -7  -3  -9   41.16    1.84
  -7  -3  -9   40.92    1.65
  -7  -3  -9   41.13    1.72
  -7  -3  -9   41.00    1.80
   7   3   9   40.78    1.60
   7   3   9   36.71    1.82
   7   3   9   39.52    1.57
   7   3   9   40.21    1.86
   7   3   9   42.03    1.84
  -8  -3  -9   13.80    1.35
  -8  -3  -9   10.93    1.43
  -8  -3  -9   13.77    1.35
  -8  -3  -9   15.33    1.23
   8   3   9   11.21    1.46
   8   3   9   12.59    1.10
   8   3   9   13.03    1.41
   7  -4  -9   15.87    1.53
   7  -4  -9   18.49    1.39
   7  -4  -9   21.07    1.63
   7  -4  -9   19.92    1.71
  -7   4   9   17.35    1.67
  -7   4   9   18.48    1.63
  -7   4   9   19.45    1.35
  -7   4   9   20.51    1.29
   6  -4  -9   38.99    1.86
   6  -4  -9   39.26    1.87
   6  -4  -9   41.14    1.68
   6  -4  -9   37.42    1.92
  -6   4   9   41.64    1.94
  -6   4   9   40.59    1.88
  -6   4   9   39.96    1.63
   5  -4  -9   -0.20    0.54
   5  -4  -9    0.75    0.60
   5  -4  -9    0.22    0.21
   5  -4  -9    0.36    0.61
   5  -4  -9   -0.07    0.50
  -5   4   9    0.48    0.42
  -5   4   9    0.20    0.47
  -5   4   9    0.88    0.63
   4  -4  -9   45.26    1.63
   4  -4  -9   44.04    1.33
   4  -4  -9   43.92    1.78
   4  -4  -9   45.63    1.75
   4  -4  -9   43.82    1.79
  -4   4   9   44.57    1.53
  -4   4   9   44.21    1.60
  -4   4   9   45.83    1.82
   3  -4  -9   -0.16    0.45
   3  -4  -9   -0.02    0.46
   3  -4  -9    0.19    0.44
   3  -4  -9   -0.04    0.42
  -3   4   9    0.24    0.38
  -3   4   9   -0.14    0.49
  -3   4   9   -0.06    0.31
   2  -4  -9    0.88    0.38
   2  -4  -9    1.11    0.44
   2  -4  -9   -0.19    0.43
   2  -4  -9    0.36    0.43
  -2   4   9    0.75    0.33
  -2   4   9    0.60    0.48
  -2   4   9    0.61    0.36
  -2   4   9    1.27    0.48
   1  -4  -9    3.49    0.51
   1  -4  -9    3.50    0.45
   1  -4  -9    3.13    0.54
   1  -4  -9    3.29    0.48
  -1   4   9    3.86    0.56
  -1   4   9    2.83    0.41
  -1   4   9    3.69    0.43
  -1   4   9    3.30    0.53
  -1   4   9    4.03    0.54
  -1   4   9    2.78    0.37
   0  -4  -9   85.12    2.63
   0  -4  -9   87.86    2.64
   0  -4  -9   90.47    2.53
   0  -4  -9   92.27    2.58
   0   4   9   87.87    2.65
   0   4   9   86.99    2.41
   0   4   9   88.51    2.56
   0   4   9   89.65    2.48
   0   4   9   86.56    2.45
   0   4   9   90.82    2.65
  -1  -4  -9    7.92    0.77
  -1  -4  -9    7.82    0.80
  -1  -4  -9    6.57    0.80
  -1  -4  -9    7.88    0.70
   1   4   9    7.27    0.40
   1   4   9    7.10    0.81
   1   4   9    7.87    0.62
   1   4   9    8.11    0.64
   1   4   9    7.42    0.78
   1   4   9    7.58    0.81
  -2  -4  -9   21.54    1.06
  -2  -4  -9   20.66    0.95
  -2  -4  -9   19.55    1.04
  -2  -4  -9   20.08    1.00
   2   4   9   19.78    0.87
   2   4   9   19.85    0.85
   2   4   9   21.19    1.06
   2   4   9   21.19    1.08
   2   4   9   19.43    1.04
  -3  -4  -9   86.55    2.53
  -3  -4  -9   88.81    2.63
  -3  -4  -9   90.48    2.63
   3   4   9   84.98    2.67
   3   4   9   92.79    2.65
   3   4   9   86.90    2.66
   3   4   9   86.23    2.43
   3   4   9   86.58    2.44
  -4  -4  -9   19.25    1.07
  -4  -4  -9   19.60    0.99
  -4  -4  -9   18.09    1.03
  -4  -4  -9   18.05    1.09
   4   4   9   18.24    1.08
   4   4   9   20.23    0.87
   4   4   9   18.63    1.17
   4   4   9   19.83    1.11
   4   4   9   19.30    0.89
  -5  -4  -9   19.11    1.06
  -5  -4  -9   18.77    1.15
  -5  -4  -9   20.56    1.12
  -5  -4  -9   20.90    1.06
   5   4   9   19.77    1.24
   5   4   9   18.30    1.13
   5   4   9   19.13    0.93
   5   4   9   19.07    0.94
  -6  -4  -9   11.49    1.02
  -6  -4  -9   10.67    0.91
  -6  -4  -9   11.46    0.98
  -6  -4  -9   10.74    1.05
   6   4   9   11.07    1.15
   6   4   9    9.83    0.81
   6   4   9   12.20    0.84
   6   4   9   11.71    1.04
  -7  -4  -9    0.21    0.52
  -7  -4  -9   -0.41    0.48
  -7  -4  -9   -0.05    0.44
  -7  -4  -9   -0.36    0.56
   7   4   9    0.28    0.62
   7   4   9   -0.43    0.54
   7   4   9    0.66    0.43
   7   4   9    0.49    0.70
   7   4   9    0.22    0.43
  -8  -4  -9   -0.12    0.60
  -8  -4  -9   -0.25    0.67
  -8  -4  -9    0.58    0.55
  -8  -4  -9   -0.20    0.54
   8   4   9    0.90    0.64
   8   4   9   -0.22    0.45
   8   4   9    0.14    0.70
   8   4   9    0.15    0.47
   8   4   9    0.74    0.79
   6  -5  -9    0.69    0.55
   6  -5  -9    0.61    0.63
   6  -5  -9    1.10    0.72
   6  -5  -9   -0.98    0.69
  -6   5   9   -0.34    0.77
  -6   5   9    0.31    0.68
  -6   5   9    0.24    0.52
  -6   5   9   -0.48    0.70
   5  -5  -9    2.63    0.65
   5  -5  -9    2.79    0.66
   5  -5  -9    2.54    0.56
   5  -5  -9    2.47    0.71
  -5   5   9    3.50    0.78
  -5   5   9    4.19    0.58
  -5   5   9    3.09    0.68
  -5   5   9    2.56    0.69
  -5   5   9    2.75    0.47
   4  -5  -9   10.93    1.14
   4  -5  -9   11.96    1.10
   4  -5  -9   13.57    1.13
   4  -5  -9   14.23    1.00
  -4   5   9   12.72    0.92
  -4   5   9   13.16    1.17
  -4   5   9   12.42    0.83
   3  -5  -9   48.54    1.81
   3  -5  -9   49.25    1.69
   3  -5  -9   47.08    1.80
   3  -5  -9   44.88    1.74
  -3   5   9   48.65    1.54
  -3   5   9   48.93    1.81
  -3   5   9   48.02    1.60
  -3   5   9   50.47    1.85
   2  -5  -9    1.39    0.44
   2  -5  -9    0.91    0.46
   2  -5  -9    0.25    0.40
   2  -5  -9    1.11    0.39
  -2   5   9    0.58    0.34
  -2   5   9    0.70    0.30
  -2   5   9    0.61    0.45
  -2   5   9    0.43    0.44
  -2   5   9    0.82    0.46
   1  -5  -9    0.35    0.37
   1  -5  -9    0.26    0.42
   1  -5  -9    0.72    0.41
   1  -5  -9    0.31    0.40
  -1   5   9    0.23    0.39
  -1   5   9    0.66    0.31
  -1   5   9    0.50    0.27
  -1   5   9    0.81    0.38
  -1   5   9    0.80    0.45
   0  -5  -9    0.10    0.33
   0  -5  -9    0.21    0.39
   0  -5  -9    0.00    0.35
   0  -5  -9   -0.06    0.37
   0   5   9    0.11    0.43
   0   5   9    0.36    0.40
   0   5   9    0.52    0.39
   0   5   9    0.25    0.26
   0   5   9    0.02    0.27
   0   5   9   -0.13    0.30
  -1  -5  -9    0.56    0.34
  -1  -5  -9    0.78    0.36
  -1  -5  -9    0.99    0.40
  -1  -5  -9    0.41    0.37
   1   5   9    0.36    0.25
   1   5   9    0.21    0.24
   1   5   9    0.15    0.38
   1   5   9    0.58    0.27
   1   5   9    0.22    0.44
   1   5   9    0.19    0.38
  -2  -5  -9    2.34    0.43
  -2  -5  -9    2.43    0.41
  -2  -5  -9    1.99    0.41
  -2  -5  -9    2.44    0.38
   2   5   9    2.26    0.30
   2   5   9    1.86    0.27
   2   5   9    2.38    0.42
   2   5   9    0.90    0.47
   2   5   9    2.32    0.46
  -3  -5  -9    0.88    0.38
  -3  -5  -9    1.07    0.40
  -3  -5  -9    1.52    0.35
  -3  -5  -9    1.01    0.40
   3   5   9    1.06    0.43
   3   5   9    1.30    0.26
   3   5   9    1.03    0.40
   3   5   9    1.32    0.52
   3   5   9    1.16    0.26
  -4  -5  -9    0.37    0.39
  -4  -5  -9    0.61    0.35
  -4  -5  -9    0.78    0.38
  -4  -5  -9    0.23    0.39
   4   5   9    0.30    0.37
   4   5   9    0.56    0.26
   4   5   9   -0.31    0.49
   4   5   9    0.42    0.25
   4   5   9    0.63    0.43
  -5  -5  -9    0.69    0.38
  -5  -5  -9    0.84    0.43
  -5  -5  -9    1.56    0.43
  -5  -5  -9    0.90    0.43
   5   5   9    1.12    0.29
   5   5   9    0.87    0.28
   5   5   9    1.15    0.56
   5   5   9    0.83    0.41
   5   5   9    1.01    0.48
  -6  -5  -9    0.35    0.44
  -6  -5  -9    0.26    0.42
  -6  -5  -9   -0.35    0.41
  -6  -5  -9   -0.12    0.37
   6   5   9   -0.06    0.41
   6   5   9    0.26    0.30
   6   5   9   -0.16    0.29
   6   5   9    0.25    0.57
  -7  -5  -9    3.31    0.61
  -7  -5  -9    3.20    0.57
  -7  -5  -9    3.10    0.51
  -7  -5  -9    2.70    0.57
   7   5   9    2.95    0.41
   7   5   9    3.18    0.78
   7   5   9    2.27    0.59
   7   5   9    3.53    0.57
  -8  -5  -9    2.93    0.70
  -8  -5  -9    4.01    0.70
  -8  -5  -9    2.76    0.65
  -8  -5  -9    3.53    0.59
   8   5   9    3.16    0.92
   8   5   9    3.03    0.68
   8   5   9    3.03    0.73
   8   5   9    2.54    0.45
  -9  -5  -9   -0.36    0.60
   6  -6  -9    6.89    0.82
   6  -6  -9    5.03    0.89
   6  -6  -9    4.09    0.79
   6  -6  -9    6.93    0.92
  -6   6   9    6.83    0.90
  -6   6   9    5.76    0.66
  -6   6   9    5.69    1.09
   5  -6  -9   10.55    1.30
   5  -6  -9    9.43    1.05
   5  -6  -9    8.55    1.19
   5  -6  -9    9.97    1.24
  -5   6   9    9.96    0.97
  -5   6   9    9.75    0.97
  -5   6   9    9.14    1.34
  -5   6   9    9.57    0.84
  -5   6   9    7.93    0.89
   4  -6  -9   43.36    1.78
   4  -6  -9   44.04    1.68
   4  -6  -9   42.45    1.82
   4  -6  -9   43.76    1.80
  -4   6   9   44.50    1.80
  -4   6   9   43.41    1.84
  -4   6   9   44.57    1.48
  -4   6   9   44.35    1.87
  -4   6   9   44.10    1.53
   3  -6  -9    0.01    0.44
   3  -6  -9   -0.45    0.46
   3  -6  -9    0.05    0.18
   3  -6  -9   -0.08    0.45
   3  -6  -9   -0.13    0.47
  -3   6   9   -0.36    0.33
  -3   6   9   -1.05    0.44
  -3   6   9    0.13    0.32
  -3   6   9   -0.30    0.54
  -3   6   9    0.12    0.79
   2  -6  -9   51.25    1.79
   2  -6  -9   57.94    1.91
   2  -6  -9   54.89    1.85
   2  -6  -9   54.82    1.90
  -2   6   9   56.60    1.92
  -2   6   9   54.09    1.61
  -2   6   9   56.30    1.93
  -2   6   9   54.26    1.64
   1  -6  -9    1.12    0.42
   1  -6  -9    0.42    0.40
   1  -6  -9    0.23    0.36
   1  -6  -9    1.21    0.43
  -1   6   9    1.13    0.44
  -1   6   9    0.40    0.23
  -1   6   9    0.77    0.26
  -1   6   9    1.02    0.42
  -1   6   9    1.58    0.45
   0  -6  -9    8.38    0.70
   0  -6  -9    6.62    0.78
   0  -6  -9    7.71    0.78
   0  -6  -9    8.16    0.79
   0   6   9    8.42    0.80
   0   6   9    7.53    0.45
   0   6   9    8.43    0.79
   0   6   9    7.21    0.47
   0   6   9    8.28    0.88
   0   6   9    8.74    0.72
  -1  -6  -9    0.28    0.35
  -1  -6  -9   -0.04    0.32
  -1  -6  -9    0.12    0.36
  -1  -6  -9   -0.14    0.35
   1   6   9    0.07    0.15
   1   6   9   -0.16    0.36
   1   6   9   -0.45    0.34
   1   6   9    0.17    0.49
   1   6   9   -0.03    0.17
   1   6   9    0.25    0.31
  -2  -6  -9   85.81    2.47
  -2  -6  -9   87.47    2.55
  -2  -6  -9   87.21    2.52
  -2  -6  -9   89.70    2.56
   2   6   9   91.42    2.58
   2   6   9   86.27    2.68
   2   6   9   87.83    2.56
  -3  -6  -9   38.05    1.35
  -3  -6  -9   35.67    1.33
  -3  -6  -9   38.12    1.29
  -3  -6  -9   35.43    1.33
   3   6   9   35.66    1.53
   3   6   9   38.71    1.37
   3   6   9   38.12    1.40
  -4  -6  -9    4.10    0.50
  -4  -6  -9    5.58    0.71
  -4  -6  -9    4.58    0.47
   4   6   9    5.41    0.71
   4   6   9    5.79    0.75
   4   6   9    5.11    0.54
  -5  -6  -9   -0.26    0.35
  -5  -6  -9    0.57    0.37
  -5  -6  -9    0.46    0.38
  -5  -6  -9   -0.30    0.35
   5   6   9    0.70    0.61
   5   6   9   -0.33    0.41
   5   6   9    0.27    0.39
  -6  -6  -9    6.37    0.81
  -6  -6  -9    4.91    0.54
  -6  -6  -9    5.35    0.53
  -6  -6  -9    7.17    0.83
   6   6   9    6.06    0.81
   6   6   9    6.51    0.81
  -7  -6  -9   12.55    1.01
  -7  -6  -9   11.83    1.01
  -7  -6  -9   12.60    0.95
  -7  -6  -9   10.76    0.99
   7   6   9   11.83    1.01
   7   6   9   11.06    1.22
   7   6   9   10.86    1.08
  -8  -6  -9    2.62    0.58
  -8  -6  -9    1.60    0.55
  -8  -6  -9    2.61    0.62
  -8  -6  -9    2.34    0.59
   8   6   9    2.60    0.86
   8   6   9    2.23    0.68
   8   6   9    2.18    0.59
   5  -7  -9   11.87    1.20
   5  -7  -9   11.10    1.27
   5  -7  -9   11.97    1.42
   5  -7  -9    7.64    0.85
  -5   7   9   11.97    0.93
  -5   7   9   10.97    1.47
  -5   7   9   10.03    1.32
  -5   7   9   10.88    1.37
   4  -7  -9    0.33    0.63
   4  -7  -9    0.78    0.57
   4  -7  -9    1.57    0.60
   4  -7  -9    1.10    0.55
  -4   7   9    2.29    0.62
  -4   7   9    2.06    0.40
  -4   7   9    2.05    0.73
  -4   7   9   -0.11    0.25
  -4   7   9    0.90    0.63
   3  -7  -9   36.63    1.46
   3  -7  -9   38.29    1.58
   3  -7  -9   37.91    1.57
   3  -7  -9   36.34    1.56
  -3   7   9   36.72    1.58
  -3   7   9   36.17    1.22
  -3   7   9   35.86    1.63
  -3   7   9   39.72    1.75
   2  -7  -9   10.10    0.93
   2  -7  -9   10.62    0.96
   2  -7  -9   11.48    0.88
   2  -7  -9   11.36    0.56
   2  -7  -9   11.16    0.94
  -2   7   9   10.51    1.07
  -2   7   9   10.53    0.56
  -2   7   9    8.99    0.95
   1  -7  -9   15.51    0.93
   1  -7  -9   15.55    0.89
   1  -7  -9   15.94    0.94
   1  -7  -9   14.85    0.96
  -1   7   9   14.43    1.06
   0  -7  -9    0.97    0.38
   0  -7  -9    1.45    0.40
   0  -7  -9    1.15    0.35
   0  -7  -9    0.91    0.39
   0   7   9    1.13    0.40
   0   7   9    1.24    0.40
   0   7   9    0.92    0.44
  -1  -7  -9    6.59    0.66
  -1  -7  -9    6.16    0.71
  -1  -7  -9    6.64    0.62
  -1  -7  -9    6.25    0.71
   1   7   9    5.77    0.68
   1   7   9    6.06    0.71
   1   7   9    5.64    0.69
   1   7   9    4.11    0.62
  -2  -7  -9    4.28    0.44
  -2  -7  -9    5.59    0.66
  -2  -7  -9    4.80    0.48
  -2  -7  -9    5.38    0.63
   2   7   9    5.30    0.66
   2   7   9    4.07    0.63
   2   7   9    5.07    0.70
  -3  -7  -9   10.90    0.75
  -3  -7  -9   10.81    0.73
  -3  -7  -9   10.32    0.76
  -3  -7  -9   10.96    0.74
   3   7   9   11.49    0.80
   3   7   9   11.02    1.04
   3   7   9   11.60    0.79
  -4  -7  -9    3.24    0.40
  -4  -7  -9    3.15    0.43
  -4  -7  -9    3.39    0.43
  -4  -7  -9    3.47    0.41
   4   7   9    3.22    0.42
   4   7   9    3.59    0.46
   4   7   9    2.70    0.62
  -5  -7  -9    6.27    0.71
  -5  -7  -9    8.16    0.76
  -5  -7  -9    6.78    0.69
  -5  -7  -9    6.78    0.72
   5   7   9    6.82    0.73
   5   7   9    6.56    0.78
   5   7   9    5.26    0.76
  -6  -7  -9   -0.18    0.37
  -6  -7  -9   -0.09    0.35
  -6  -7  -9   -0.22    0.35
  -6  -7  -9   -0.24    0.35
   6   7   9    0.82    0.39
   6   7   9    0.20    0.67
   6   7   9   -0.14    0.40
  -7  -7  -9    0.42    0.42
  -7  -7  -9    0.52    0.41
  -7  -7  -9    0.68    0.41
  -7  -7  -9    0.28    0.21
  -7  -7  -9   -0.67    0.42
   7   7   9    0.94    0.54
   7   7   9    0.54    0.41
   7   7   9    0.20    0.71
  -8  -7  -9    9.16    0.56
  -8  -7  -9   10.72    1.07
  -8  -7  -9    8.80    0.98
  -8  -7  -9    8.16    1.00
  -8  -7  -9   11.35    0.98
   8   7   9   10.35    1.13
   8   7   9    8.62    1.10
   4  -8  -9    1.53    0.58
   4  -8  -9    2.33    0.71
   4  -8  -9    1.20    0.64
   4  -8  -9    0.70    0.60
  -4   8   9    1.75    0.82
  -4   8   9    1.78    0.65
  -4   8   9    1.87    0.67
   3  -8  -9    3.36    0.63
   3  -8  -9    2.47    0.60
   3  -8  -9    3.42    0.58
   3  -8  -9    3.19    0.59
  -3   8   9    2.99    0.64
  -3   8   9    2.82    0.73
  -3   8   9    3.84    0.67
   2  -8  -9    0.75    0.47
   2  -8  -9   -0.30    0.43
   2  -8  -9   -0.33    0.43
   2  -8  -9   -0.57    0.41
  -2   8   9   -0.10    0.47
  -2   8   9   -1.01    0.58
  -2   8   9   -0.21    0.48
   1  -8  -9    2.27    0.46
   1  -8  -9    3.46    0.47
   1  -8  -9    2.51    0.50
   1  -8  -9    3.16    0.39
   1  -8  -9    2.59    0.48
  -1   8   9    3.56    0.52
  -1   8   9    2.98    0.64
   0  -8  -9    7.57    0.74
   0  -8  -9    7.28    0.74
   0  -8  -9    8.08    0.79
   0  -8  -9    7.75    0.74
   0  -8  -9    7.84    0.71
   0   8   9    6.92    0.79
   0   8   9    7.75    0.92
  -1  -8  -9   11.05    0.71
  -1  -8  -9    9.93    0.73
  -1  -8  -9    9.93    0.72
  -1  -8  -9   10.69    0.79
   1   8   9   10.17    0.79
   1   8   9   11.41    0.80
   1   8   9   10.07    0.89
   1   8   9   10.26    1.05
  -2  -8  -9    0.56    0.31
  -2  -8  -9    0.34    0.30
  -2  -8  -9    0.39    0.34
  -2  -8  -9    0.19    0.30
   2   8   9    0.52    0.35
   2   8   9   -0.18    0.34
   2   8   9    0.99    0.60
  -3  -8  -9   61.71    1.88
  -3  -8  -9   60.50    1.83
  -3  -8  -9   62.42    1.84
  -3  -8  -9   62.28    1.84
   3   8   9   62.84    1.88
   3   8   9   64.26    2.24
  -4  -8  -9   -0.38    0.29
  -4  -8  -9   -0.15    0.33
  -4  -8  -9    0.19    0.31
  -4  -8  -9   -0.35    0.32
   4   8   9   -0.03    0.30
   4   8   9   -0.01    0.35
   4   8   9    0.10    0.59
  -5  -8  -9   -0.04    0.32
  -5  -8  -9    0.44    0.36
  -5  -8  -9    0.64    0.36
  -5  -8  -9    0.44    0.34
   5   8   9    1.06    0.66
   5   8   9    0.83    0.37
  -6  -8  -9   24.01    1.00
  -6  -8  -9   23.95    1.09
  -6  -8  -9   25.78    1.09
  -6  -8  -9   25.02    1.05
  -6  -8  -9   24.60    0.96
   6   8   9   24.94    1.55
   6   8   9   22.98    1.10
  -7  -8  -9    1.40    0.42
  -7  -8  -9    2.06    0.38
  -7  -8  -9    1.52    0.47
  -7  -8  -9    1.77    0.49
  -7  -8  -9    1.44    0.40
   7   8   9    0.66    0.34
   7   8   9    2.26    0.84
  -8  -8  -9    3.36    0.55
  -8  -8  -9    3.35    0.61
  -8  -8  -9    2.47    0.45
  -8  -8  -9    3.52    0.43
  -8  -8  -9    2.64    0.51
   8   8   9    2.90    0.91
   8   8   9    2.81    0.60
   2  -9  -9    3.12    0.57
   2  -9  -9    2.56    0.54
   2  -9  -9    3.14    0.58
   2  -9  -9    4.05    0.55
  -2   9   9    5.37    0.84
  -2   9   9    4.22    0.64
   1  -9  -9   14.22    0.93
   1  -9  -9   12.23    0.93
   1  -9  -9   11.47    0.67
   1  -9  -9   12.81    0.86
   1  -9  -9   12.30    0.98
  -1   9   9   13.39    1.03
  -1   9   9   12.72    1.20
   0  -9  -9    5.56    0.71
   0  -9  -9    5.99    0.63
   0  -9  -9    5.20    0.54
   0  -9  -9    5.82    0.72
   0  -9  -9    5.19    0.71
   0   9   9    5.34    0.73
  -1  -9  -9    6.77    0.75
  -1  -9  -9    7.50    0.69
  -1  -9  -9    7.11    0.85
  -1  -9  -9    7.30    0.69
  -1  -9  -9    6.13    0.65
   1   9   9    8.04    0.98
   1   9   9    6.36    0.71
  -2  -9  -9    4.35    0.64
  -2  -9  -9    4.46    0.46
  -2  -9  -9    5.10    0.62
  -2  -9  -9    5.76    0.54
  -2  -9  -9    5.68    0.55
   2   9   9    4.19    0.43
   2   9   9    3.72    0.70
  -3  -9  -9    6.65    0.49
  -3  -9  -9    6.68    0.64
  -3  -9  -9    7.60    0.68
  -3  -9  -9    7.78    1.04
  -3  -9  -9    6.68    0.50
   3   9   9    7.20    0.89
   3   9   9    6.36    0.59
  -4  -9  -9   24.09    0.80
  -4  -9  -9   24.09    0.96
  -4  -9  -9   23.31    0.99
  -4  -9  -9   22.88    0.79
   4   9   9   22.23    1.48
   4   9   9   23.53    0.90
  -5  -9  -9   63.25    1.98
  -5  -9  -9   64.37    1.86
  -5  -9  -9   62.19    1.72
  -5  -9  -9   63.38    1.72
   5   9   9   55.36    2.32
   5   9   9   63.30    1.81
  -6  -9  -9    2.23    0.32
  -6  -9  -9    2.22    0.32
  -6  -9  -9    1.74    0.40
  -6  -9  -9    2.26    0.49
  -6  -9  -9    1.69    0.42
   6   9   9    1.95    0.39
   6   9   9    1.97    0.76
  -7  -9  -9    8.35    0.67
  -7  -9  -9   10.09    0.86
  -7  -9  -9    8.57    0.69
  -7  -9  -9    9.27    0.84
  -7  -9  -9    8.32    0.87
   7   9   9    9.59    1.10
   1 -10  -9    4.03    0.55
   0 -10  -9   16.19    1.05
   0 -10  -9   17.12    0.92
   0 -10  -9   16.90    0.98
   0 -10  -9   16.44    0.89
   0 -10  -9   16.73    0.87
   0  10   9   18.03    1.37
  -1 -10  -9    3.39    0.50
  -1 -10  -9    3.45    0.36
  -1 -10  -9    4.10    0.58
  -1 -10  -9    3.37    0.36
  -1 -10  -9    3.63    0.44
   1  10   9    3.45    0.41
   1  10   9    3.01    0.72
  -2 -10  -9   21.33    1.21
  -2 -10  -9   19.11    0.95
  -2 -10  -9   20.22    0.89
   2  10   9   17.95    1.47
  -3 -10  -9   -0.93    0.61
  -3 -10  -9    0.13    0.32
  -3 -10  -9    0.26    0.36
   3  10   9   -0.17    0.68
  -4 -10  -9   24.69    0.97
  -4 -10  -9   26.62    1.53
  -4 -10  -9   24.48    1.02
   4  10   9   25.85    1.58
  -5 -10  -9    0.26    0.32
  -5 -10  -9    0.88    0.54
  -5 -10  -9    0.85    0.75
   5  10   9    0.45    0.81
  -6 -10  -9    0.31    0.37
  -6 -10  -9    0.98    0.53
  -6 -10  -9    0.42    0.83
  -6 -10  -9    0.16    0.34
   6  10   9   -0.51    0.73
   4   5 -10    1.85    0.56
   4   5 -10    1.08    0.76
   4   5 -10    0.75    0.77
   4   5 -10    1.66    0.66
  -4  -5  10    0.99    0.86
  -4  -5  10    0.45    0.79
  -4  -5  10    1.64    0.71
   3   5 -10   -1.23    0.77
   3   5 -10    0.89    0.92
   3   5 -10    1.03    0.65
   3   5 -10   -0.62    0.50
   3   5 -10    0.35    0.77
  -3  -5  10    0.37    0.76
  -3  -5  10   -0.55    0.80
  -3  -5  10   -0.29    0.83
  -3  -5  10    0.11    0.63
  -3  -5  10    0.60    0.67
   2   5 -10    3.91    0.88
   2   5 -10    3.15    0.93
   2   5 -10    4.22    0.63
   2   5 -10    3.14    0.72
   2   5 -10    5.53    0.94
  -2  -5  10    3.19    0.70
  -2  -5  10    4.65    1.07
  -2  -5  10    1.99    0.91
  -2  -5  10    2.55    0.79
  -2  -5  10    3.71    0.73
   1   5 -10    0.82    0.69
   1   5 -10    1.02    0.56
   1   5 -10    0.67    0.77
   1   5 -10    0.27    0.74
  -1  -5  10    1.82    0.72
  -1  -5  10    0.27    0.64
  -1  -5  10    1.29    0.73
  -1  -5  10    1.27    0.82
   0   5 -10    1.11    0.59
   0   5 -10    1.66    0.80
   0  -5  10    1.52    0.73
   5   4 -10   -0.24    0.80
   5   4 -10    0.08    0.75
   5   4 -10    0.11    0.52
   5   4 -10    0.22    0.73
  -5  -4  10    0.21    0.72
  -5  -4  10    0.43    0.67
  -5  -4  10   -0.10    0.69
  -5  -4  10   -0.32    0.56
   4   4 -10    3.32    0.61
   4   4 -10    3.10    0.78
   4   4 -10    3.97    0.85
   4   4 -10    3.72    0.89
   4   4 -10    2.81    0.68
  -4  -4  10    4.90    0.92
  -4  -4  10    2.43    0.69
  -4  -4  10    2.29    0.74
  -4  -4  10    3.49    0.75
   3   4 -10    0.64    0.82
   3   4 -10   -0.28    0.68
   3   4 -10    0.94    0.54
   3   4 -10    1.01    0.69
   3   4 -10    0.14    0.60
  -3  -4  10   -0.53    0.85
  -3  -4  10   -0.02    0.63
  -3  -4  10   -0.57    0.67
  -3  -4  10    0.61    0.63
  -3  -4  10   -0.68    0.75
   2   4 -10    0.89    0.72
   2   4 -10    0.53    0.50
   2   4 -10    1.42    0.76
   2   4 -10    0.73    0.71
   2   4 -10    0.36    0.57
  -2  -4  10    0.95    0.73
  -2  -4  10    0.36    0.62
  -2  -4  10    1.57    0.68
  -2  -4  10    0.75    0.68
  -2  -4  10    1.63    0.72
   1   4 -10   28.26    1.55
   1   4 -10   27.04    1.79
   1   4 -10   27.03    1.60
   1   4 -10   29.89    1.73
   1   4 -10   28.31    1.42
  -1  -4  10   28.99    1.80
  -1  -4  10   27.08    1.50
  -1  -4  10   27.41    1.54
  -1  -4  10   26.45    1.65
  -1  -4  10   30.53    1.58
   0   4 -10    4.17    0.85
   0   4 -10    2.63    0.86
   0   4 -10    2.69    0.58
   0   4 -10    3.01    0.84
   0   4 -10    4.64    0.76
   0  -4  10    2.92    0.67
   0  -4  10    4.70    0.48
   0  -4  10    4.19    0.74
   0  -4  10    3.45    0.88
   0  -4  10    3.24    0.75
   0  -4  10    3.86    0.85
  -1   4 -10   70.51    2.75
  -1   4 -10   74.39    2.57
  -1   4 -10   73.87    2.44
  -1   4 -10   71.19    2.80
   1  -4  10   71.77    2.78
   1  -4  10   73.48    2.58
   1  -4  10   71.60    2.60
   1  -4  10   76.47    2.78
  -2   4 -10    3.60    0.82
  -2   4 -10    2.82    0.84
  -2   4 -10    5.09    1.04
  -2   4 -10    4.96    0.73
   2  -4  10    4.04    0.93
   2  -4  10    4.88    0.92
   2  -4  10    5.32    0.88
   6   3 -10    3.64    0.62
   6   3 -10    3.44    0.85
   6   3 -10    2.50    0.71
   6   3 -10    2.79    0.82
   6   3 -10    4.62    0.78
  -6  -3  10    3.48    0.88
  -6  -3  10    2.61    0.74
  -6  -3  10    2.96    0.80
  -6  -3  10    2.61    0.61
   5   3 -10   10.94    1.20
   5   3 -10   10.30    1.42
   5   3 -10   10.31    1.26
   5   3 -10   11.57    1.10
   5   3 -10   11.72    1.52
  -5  -3  10   10.70    1.20
  -5  -3  10   10.98    1.35
  -5  -3  10   10.49    1.39
  -5  -3  10    9.76    0.94
   4   3 -10    1.36    0.75
   4   3 -10    0.60    0.74
   4   3 -10   -0.11    0.53
   4   3 -10    2.01    0.73
   4   3 -10    0.83    0.61
  -4  -3  10    1.37    0.67
  -4  -3  10    0.56    0.64
  -4  -3  10    1.07    0.70
  -4  -3  10    0.39    0.52
   3   3 -10   34.69    1.81
   3   3 -10   33.76    1.76
   3   3 -10   32.78    1.60
   3   3 -10   33.23    1.49
  -3  -3  10   32.72    1.60
  -3  -3  10   31.38    1.56
  -3  -3  10   34.56    1.77
  -3  -3  10   31.73    1.74
   2   3 -10   -0.41    0.55
   2   3 -10   -0.83    0.50
   2   3 -10   -0.51    0.62
   2   3 -10   -0.17    0.69
   2   3 -10    0.01    0.63
  -2  -3  10   -0.86    0.65
  -2  -3  10   -0.66    0.68
  -2  -3  10   -0.80    0.59
  -2  -3  10    0.25    0.55
  -2  -3  10   -0.10    0.57
   1   3 -10    1.66    0.51
   1   3 -10    1.88    0.62
   1   3 -10    2.64    0.72
   1   3 -10    1.77    0.67
   1   3 -10    2.01    0.79
  -1  -3  10    1.87    0.72
  -1  -3  10    1.61    0.57
  -1  -3  10    0.76    0.56
  -1  -3  10    1.01    0.67
  -1  -3  10    1.43    0.61
   0   3 -10   10.50    1.34
   0   3 -10    6.89    0.74
   0   3 -10    9.38    1.06
   0   3 -10   10.08    1.36
   0  -3  10   10.09    1.11
   0  -3  10    9.86    1.15
   0  -3  10   10.04    0.72
   0  -3  10   10.28    1.37
   0  -3  10   11.08    1.30
   0  -3  10    9.98    0.99
  -1   3 -10   -0.53    0.71
  -1   3 -10   -0.77    0.64
  -1   3 -10   -0.29    0.52
  -1   3 -10   -0.02    0.65
   1  -3  10    0.77    0.76
   1  -3  10   -0.04    0.56
   1  -3  10   -0.14    0.70
   1  -3  10   -0.49    0.59
   1  -3  10    0.01    0.43
  -2   3 -10    0.60    0.73
  -2   3 -10   -0.42    0.82
  -2   3 -10    0.66    0.58
  -2   3 -10    0.64    0.65
   2  -3  10    0.80    0.59
   2  -3  10   -0.23    0.37
   2  -3  10    0.10    0.71
   2  -3  10    0.64    0.62
   2  -3  10    0.97    0.73
  -3   3 -10   13.95    1.44
  -3   3 -10   12.44    1.25
  -3   3 -10   14.49    1.56
  -3   3 -10   10.40    1.18
   3  -3  10    7.92    1.04
   3  -3  10   13.07    1.42
   3  -3  10   12.45    1.36
   3  -3  10   11.36    1.52
   7   2 -10    3.47    0.92
   7   2 -10    4.18    0.74
   7   2 -10    4.69    0.82
   7   2 -10    4.25    0.73
   7   2 -10    6.96    1.06
  -7  -2  10    3.83    0.93
  -7  -2  10    4.11    0.79
  -7  -2  10    3.59    0.92
   6   2 -10    2.32    0.77
   6   2 -10    1.40    0.81
   6   2 -10    1.95    0.61
   6   2 -10    0.59    0.62
   6   2 -10    1.24    0.68
  -6  -2  10    1.42    0.67
  -6  -2  10    1.77    0.80
  -6  -2  10    1.46    0.70
  -6  -2  10    2.14    0.78
   5   2 -10   -0.63    0.68
   5   2 -10    0.17    0.53
   5   2 -10   -0.11    0.71
   5   2 -10    0.46    0.59
   5   2 -10   -0.11    0.51
  -5  -2  10    0.61    0.74
  -5  -2  10   -0.23    0.54
  -5  -2  10    1.27    0.71
  -5  -2  10   -0.66    0.62
   4   2 -10   41.14    1.81
   4   2 -10   42.24    1.73
   4   2 -10   45.56    1.79
   4   2 -10   45.98    2.04
   4   2 -10   44.81    1.98
  -4  -2  10   45.14    1.82
  -4  -2  10   44.80    1.95
  -4  -2  10   43.20    1.93
   3   2 -10    0.41    0.69
   3   2 -10   -1.01    0.61
   3   2 -10    0.49    0.66
   3   2 -10    1.05    0.51
   3   2 -10    1.02    0.56
  -3  -2  10   -0.15    0.62
  -3  -2  10    0.22    0.60
  -3  -2  10   -0.03    0.51
   2   2 -10   38.19    1.55
   2   2 -10   40.20    1.68
   2   2 -10   40.23    1.86
   2   2 -10   38.01    1.84
  -2  -2  10   39.71    1.77
  -2  -2  10   36.76    1.65
  -2  -2  10   38.77    1.80
   1   2 -10   34.46    1.74
   1   2 -10   36.31    1.48
   1   2 -10   37.46    1.76
  -1  -2  10   35.36    1.44
  -1  -2  10   35.17    1.76
  -1  -2  10   35.89    1.71
  -1  -2  10   35.63    1.61
  -1  -2  10   34.17    1.01
   0   2 -10   19.85    1.45
   0   2 -10   20.30    1.44
   0   2 -10   20.68    1.18
   0   2 -10   19.58    1.64
   0  -2  10   20.40    1.29
   0  -2  10   20.00    1.46
   0  -2  10   20.07    0.86
   0  -2  10   19.25    1.41
   0  -2  10   20.37    1.06
  -1   2 -10   29.41    1.40
  -1   2 -10   29.66    1.65
  -1   2 -10   28.19    1.45
  -1   2 -10   28.25    1.61
   1  -2  10   29.98    1.47
   1  -2  10   28.16    1.60
   1  -2  10   27.79    1.15
   1  -2  10   26.43    1.17
   1  -2  10   28.79    1.70
  -2   2 -10    0.44    0.58
  -2   2 -10    0.08    0.71
  -2   2 -10    1.57    0.68
  -2   2 -10    1.00    0.72
   2  -2  10    0.34    0.66
   2  -2  10    0.41    0.30
   2  -2  10    0.77    0.57
   2  -2  10   -1.07    0.51
   2  -2  10    0.84    0.67
  -3   2 -10    5.93    0.80
  -3   2 -10    4.07    0.83
  -3   2 -10    5.53    0.90
  -3   2 -10    4.31    0.67
   3  -2  10    5.80    0.80
   3  -2  10    4.21    0.83
   3  -2  10    5.47    0.73
   3  -2  10    5.00    0.85
  -4   2 -10    4.65    0.81
  -4   2 -10    5.83    0.96
  -4   2 -10    4.75    0.74
  -4   2 -10    3.27    0.89
   4  -2  10    4.06    0.94
   4  -2  10    5.32    0.97
   4  -2  10    6.09    0.85
   4  -2  10    4.52    0.77
  -5   2 -10    2.27    0.73
  -5   2 -10    0.21    0.97
  -5   2 -10    1.05    0.87
   5  -2  10   -0.13    0.80
   5  -2  10    0.59    0.93
   5  -2  10    0.67    0.71
   7   1 -10    1.05    0.79
   7   1 -10    0.86    0.72
   7   1 -10    0.60    0.82
   7   1 -10    0.64    0.64
   7   1 -10    1.28    0.60
  -7  -1  10    0.15    0.61
  -7  -1  10    1.55    0.87
  -7  -1  10    0.12    0.67
  -7  -1  10    0.83    0.89
   6   1 -10   19.98    1.29
   6   1 -10   19.40    1.62
   6   1 -10   19.92    1.25
   6   1 -10   18.03    1.42
   6   1 -10   19.47    1.60
  -6  -1  10   19.83    1.56
  -6  -1  10   20.77    1.32
  -6  -1  10   16.54    1.34
  -6  -1  10   18.71    1.57
   5   1 -10    0.52    0.53
   5   1 -10    1.62    0.71
   5   1 -10    2.00    0.71
   5   1 -10    1.27    0.54
   5   1 -10    0.46    0.67
  -5  -1  10    0.88    0.52
  -5  -1  10    1.46    0.56
  -5  -1  10    1.54    0.70
  -5  -1  10    1.19    0.73
   4   1 -10    1.18    0.66
   4   1 -10    0.26    0.68
   4   1 -10   -0.08    0.49
   4   1 -10   -0.34    0.48
   4   1 -10    0.02    0.59
  -4  -1  10   -0.30    0.58
  -4  -1  10   -0.17    0.57
  -4  -1  10    0.18    0.51
   3   1 -10    1.14    0.64
   3   1 -10    1.92    0.59
   3   1 -10    1.99    0.51
   3   1 -10    1.75    0.67
  -3  -1  10    3.16    0.63
  -3  -1  10    1.84    0.63
  -3  -1  10    1.95    0.62
   2   1 -10    7.83    0.87
   2   1 -10    7.50    0.83
   2   1 -10    7.95    0.90
  -2  -1  10    9.36    1.11
  -2  -1  10    7.04    0.80
  -2  -1  10    7.94    0.99
   1   1 -10    3.80    0.69
   1   1 -10    6.01    0.62
   1   1 -10    4.07    0.70
  -1  -1  10    5.17    0.71
  -1  -1  10    4.58    0.60
  -1  -1  10    5.19    0.47
  -1  -1  10    4.15    0.69
   0   1 -10   34.34    1.65
   0   1 -10   32.35    1.63
   0   1 -10   35.71    1.42
   0  -1  10   33.16    1.65
   0  -1  10   33.16    1.23
   0  -1  10   32.38    1.62
   0  -1  10   31.97    1.48
   0  -1  10   31.30    1.13
  -1   1 -10    1.88    0.56
  -1   1 -10    2.31    0.68
  -1   1 -10    1.79    0.64
   1  -1  10    1.58    0.38
   1  -1  10    1.11    0.64
   1  -1  10    2.37    0.47
   1  -1  10    2.18    0.68
   1  -1  10    1.87    0.58
  -2   1 -10   50.75    2.05
  -2   1 -10   50.98    1.84
  -2   1 -10   50.62    2.07
   2  -1  10   51.05    2.04
   2  -1  10   46.45    1.70
   2  -1  10   50.23    1.90
   2  -1  10   50.09    2.09
   2  -1  10   50.61    2.06
  -3   1 -10   12.89    1.12
  -3   1 -10   13.87    1.38
  -3   1 -10   16.29    1.44
  -3   1 -10   13.80    1.40
   3  -1  10   14.04    1.21
   3  -1  10   14.71    1.35
   3  -1  10   15.36    1.38
   3  -1  10   14.71    1.21
  -4   1 -10    0.01    0.67
  -4   1 -10   -0.78    0.68
  -4   1 -10   -0.59    0.71
  -4   1 -10    0.14    0.56
   4  -1  10   -0.30    0.68
   4  -1  10   -1.46    0.57
   4  -1  10    0.16    0.77
   4  -1  10    0.77    0.66
  -5   1 -10    3.75    0.72
  -5   1 -10    2.63    0.76
  -5   1 -10    2.08    0.93
  -5   1 -10    2.38    0.79
   5  -1  10    2.44    0.79
   5  -1  10    2.50    0.74
   5  -1  10    1.84    0.70
   5  -1  10    3.33    1.00
   7   0 -10    1.25    0.55
   7   0 -10   -0.25    0.76
   7   0 -10    0.03    0.61
   7   0 -10   -0.78    0.80
   7   0 -10    0.23    0.71
  -7   0  10   -0.17    0.78
  -7   0  10    0.11    0.59
  -7   0  10   -0.20    0.80
  -7   0  10   -0.72    0.68
   6   0 -10   11.24    1.26
   6   0 -10    6.99    0.95
   6   0 -10    7.57    0.76
   6   0 -10   10.47    1.42
   6   0 -10   10.57    0.98
  -6   0  10   10.47    1.44
  -6   0  10   10.44    1.22
  -6   0  10   11.53    1.12
  -6   0  10   11.11    1.40
   5   0 -10   29.36    1.33
   5   0 -10   29.24    1.70
   5   0 -10   29.45    1.68
   5   0 -10   28.64    1.52
   5   0 -10   28.81    1.41
  -5   0  10   28.82    1.47
  -5   0  10   28.21    1.63
  -5   0  10   30.14    1.68
  -5   0  10   29.53    1.39
   4   0 -10    2.55    0.70
   4   0 -10    2.92    0.71
   4   0 -10    3.89    0.59
   4   0 -10    1.93    0.52
  -4   0  10    2.73    0.57
  -4   0  10    2.64    0.67
  -4   0  10    3.17    0.89
  -4   0  10    2.25    0.73
   3   0 -10   11.84    0.94
   3   0 -10   11.39    0.98
   3   0 -10   10.83    1.17
   3   0 -10    9.87    1.18
  -3   0  10   11.03    1.04
  -3   0  10   12.90    1.16
  -3   0  10   10.23    1.14
   2   0 -10    8.27    1.09
   2   0 -10    6.25    0.76
   2   0 -10    7.35    0.86
  -2   0  10    8.28    0.98
  -2   0  10    7.14    0.78
  -2   0  10    6.38    0.73
   1   0 -10    2.09    0.62
   1   0 -10    2.39    0.50
   1   0 -10    1.03    0.61
  -1   0  10    2.33    0.33
  -1   0  10    1.24    0.49
  -1   0  10    1.66    0.59
  -1   0  10    1.63    0.52
  -1   0  10    1.91    0.60
   0   0 -10   58.20    1.91
   0   0 -10   58.35    2.12
   0   0 -10   59.64    2.13
   0   0  10   56.36    1.70
   0   0  10   55.85    1.69
   0   0  10   51.04    2.08
   0   0  10   58.31    1.95
   0   0  10   54.81    1.89
   0   0  10   57.78    2.13
  -1   0 -10    1.61    0.64
  -1   0 -10    2.25    0.61
  -1   0 -10    1.96    0.56
   1   0  10    1.76    0.48
   1   0  10    3.32    0.49
   1   0  10    2.07    0.63
   1   0  10    2.59    0.54
   1   0  10    2.51    0.32
   1   0  10    1.74    0.61
  -2   0 -10   90.33    3.00
  -2   0 -10  102.18    3.06
  -2   0 -10   96.05    2.83
   2   0  10   91.67    3.05
   2   0  10   97.48    3.03
   2   0  10   93.03    2.85
   2   0  10   89.53    2.74
  -3   0 -10    1.13    0.65
  -3   0 -10    1.84    0.66
  -3   0 -10    1.35    0.50
   3   0  10    1.34    0.58
   3   0  10    1.49    0.63
   3   0  10    1.19    0.67
   3   0  10    0.86    0.53
  -4   0 -10    2.67    0.70
  -4   0 -10    3.99    0.83
  -4   0 -10    3.84    0.64
   4   0  10    2.24    0.59
   4   0  10    2.77    0.75
   4   0  10    3.51    0.68
   4   0  10    4.78    0.81
  -5   0 -10   13.25    1.45
  -5   0 -10   11.80    1.21
  -5   0 -10   16.94    1.50
  -5   0 -10   12.95    1.33
   5   0  10   14.02    1.27
   5   0  10   14.86    1.31
   5   0  10   14.71    1.41
   5   0  10   14.18    1.58
  -6   0 -10   -0.79    0.70
  -6   0 -10    0.02    0.64
  -6   0 -10   -0.01    0.77
  -6   0 -10    0.17    0.64
   6   0  10    0.92    0.68
   6   0  10    0.39    0.89
   6   0  10   -1.35    0.63
   6   0  10    0.08    0.73
   7  -1 -10    2.61    0.89
   7  -1 -10    2.54    0.79
   7  -1 -10    3.33    0.56
   7  -1 -10    2.90    0.67
   7  -1 -10    1.84    0.84
  -7   1  10    3.06    0.70
  -7   1  10    1.97    0.70
  -7   1  10    1.44    0.81
   6  -1 -10   28.99    1.70
   6  -1 -10   29.54    1.75
   6  -1 -10   34.47    1.82
   6  -1 -10   31.01    1.52
   6  -1 -10   30.97    1.30
  -6   1  10   30.12    1.77
  -6   1  10   30.65    1.57
  -6   1  10   30.95    1.51
  -6   1  10   31.40    1.84
   5  -1 -10   49.54    1.74
   5  -1 -10   51.34    2.17
   5  -1 -10   52.08    1.89
   5  -1 -10   52.78    2.17
  -5   1  10   50.56    2.14
  -5   1  10   51.57    1.86
  -5   1  10   53.71    2.14
  -5   1  10   51.15    1.94
   4  -1 -10   -0.14    0.58
   4  -1 -10   -0.11    0.43
   4  -1 -10    0.21    0.50
   4  -1 -10    0.23    0.61
  -4   1  10    1.03    0.63
  -4   1  10   -0.77    0.56
  -4   1  10   -0.40    0.44
   3  -1 -10   53.56    2.06
   3  -1 -10   50.90    1.78
   3  -1 -10   53.36    1.83
   3  -1 -10   53.90    2.02
  -3   1  10   51.77    1.86
  -3   1  10   50.98    2.02
  -3   1  10   50.84    2.04
   2  -1 -10    0.01    0.59
   2  -1 -10   -0.52    0.42
   2  -1 -10   -0.76    0.55
  -2   1  10   -0.32    0.51
  -2   1  10    0.22    0.51
  -2   1  10    0.32    0.47
  -2   1  10    0.02    0.39
   1  -1 -10    0.13    0.57
   1  -1 -10   -0.03    0.51
   1  -1 -10   -0.38    0.40
  -1   1  10    0.11    0.44
  -1   1  10   -0.33    0.29
  -1   1  10    0.42    0.52
  -1   1  10   -0.36    0.49
  -1   1  10   -0.44    0.38
   0  -1 -10    4.67    0.67
   0  -1 -10    5.16    0.72
   0  -1 -10    5.44    0.63
   0  -1 -10    5.09    0.56
   0   1  10    6.04    0.60
   0   1  10    6.21    0.74
   0   1  10    6.31    0.63
   0   1  10    5.89    0.63
   0   1  10    5.02    0.68
  -1  -1 -10  105.94    3.07
  -1  -1 -10  111.18    3.26
  -1  -1 -10  105.08    3.24
   1   1  10  105.97    3.06
   1   1  10  107.86    3.26
   1   1  10  106.33    3.24
   1   1  10  104.77    2.97
   1   1  10  101.35    2.73
   1   1  10  106.21    3.09
  -2  -1 -10   62.98    2.01
  -2  -1 -10   56.73    2.04
  -2  -1 -10   62.90    2.19
  -2  -1 -10   60.54    2.18
   2   1  10   61.96    2.03
   2   1  10   58.63    2.21
   2   1  10   60.00    1.95
   2   1  10   58.63    2.16
   2   1  10   58.58    1.99
  -3  -1 -10   88.00    3.02
  -3  -1 -10   94.99    3.02
  -3  -1 -10   97.41    2.86
  -3  -1 -10   98.53    2.91
   3   1  10   93.58    2.85
   3   1  10   96.27    3.08
   3   1  10   95.95    2.87
   3   1  10   97.77    3.06
   3   1  10   97.77    2.85
  -4  -1 -10    6.49    0.69
  -4  -1 -10    7.25    0.76
  -4  -1 -10    5.04    0.76
  -4  -1 -10    5.48    0.74
   4   1  10    6.11    0.72
   4   1  10    7.55    0.86
   4   1  10    8.01    0.97
   4   1  10    7.54    0.88
  -5  -1 -10    3.60    0.81
  -5  -1 -10    3.53    0.72
  -5  -1 -10    3.63    0.64
  -5  -1 -10    3.44    0.66
   5   1  10    2.96    0.64
   5   1  10    2.37    0.71
   5   1  10    2.96    0.77
  -6  -1 -10    4.29    0.82
  -6  -1 -10    3.06    0.80
  -6  -1 -10    4.05    0.69
  -6  -1 -10    4.85    0.88
   6   1  10    4.26    0.70
   6   1  10    4.39    0.76
   6   1  10    2.94    0.85
   6   1  10    2.78    0.71
  -7  -1 -10    0.57    0.84
  -7  -1 -10   -0.99    0.70
  -7  -1 -10    1.36    0.81
   7   1  10    1.27    1.08
   7   1  10    0.23    0.64
   7   1  10    0.90    0.74
   7   1  10    0.56    0.74
   7  -2 -10    0.02    0.83
   7  -2 -10    0.35    0.78
   7  -2 -10   -0.11    0.40
   7  -2 -10    0.10    0.79
   7  -2 -10   -0.56    0.60
  -7   2  10    0.07    0.79
  -7   2  10   -0.19    0.67
  -7   2  10    0.33    0.59
  -7   2  10    0.42    0.83
   6  -2 -10   22.35    1.63
   6  -2 -10   20.06    0.99
   6  -2 -10   22.88    1.61
   6  -2 -10   19.46    1.57
   6  -2 -10   20.58    1.32
  -6   2  10   20.20    1.59
  -6   2  10   22.49    1.57
  -6   2  10   21.31    1.31
  -6   2  10   23.08    1.40
   5  -2 -10    2.20    0.56
   5  -2 -10    1.92    0.72
   5  -2 -10    2.38    0.75
   5  -2 -10    1.80    0.75
   5  -2 -10    2.83    0.46
  -5   2  10    1.79    0.50
  -5   2  10    3.20    0.75
  -5   2  10    1.85    0.67
  -5   2  10    2.46    0.59
   4  -2 -10   35.72    1.74
   4  -2 -10   39.30    1.55
   4  -2 -10   38.10    1.40
   4  -2 -10   37.16    1.74
  -4   2  10   39.27    1.76
  -4   2  10   38.66    1.76
  -4   2  10   38.59    1.57
   3  -2 -10  152.41    4.41
   3  -2 -10  151.18    4.28
   3  -2 -10  153.63    4.23
   3  -2 -10  151.57    4.40
  -3   2  10  157.40    4.43
  -3   2  10  151.06    4.41
  -3   2  10  153.22    4.18
  -3   2  10  154.63    4.24
   2  -2 -10    5.40    0.69
   2  -2 -10    3.97    0.58
   2  -2 -10    5.37    0.72
   2  -2 -10    5.35    0.61
  -2   2  10    5.15    0.53
  -2   2  10    3.86    0.60
  -2   2  10    4.88    0.66
  -2   2  10    4.34    0.58
   1  -2 -10  149.36    4.05
   1  -2 -10  145.76    4.21
   1  -2 -10  144.41    4.09
   1  -2 -10  151.15    4.22
  -1   2  10  148.66    4.05
  -1   2  10  148.72    4.02
  -1   2  10  145.89    3.91
  -1   2  10  143.98    4.20
   0  -2 -10   23.78    1.30
   0  -2 -10   25.12    1.23
   0  -2 -10   25.41    1.34
   0  -2 -10   24.45    1.15
   0   2  10   22.82    1.10
   0   2  10   24.33    1.17
   0   2  10   24.65    1.34
   0   2  10   23.61    1.01
  -1  -2 -10    7.40    1.01
  -1  -2 -10    5.99    0.65
  -1  -2 -10    7.02    0.73
  -1  -2 -10    7.38    0.85
   1   2  10    6.23    0.75
   1   2  10    8.85    1.00
   1   2  10    6.84    0.64
   1   2  10    6.97    0.80
  -2  -2 -10   22.81    1.32
  -2  -2 -10   25.51    1.33
  -2  -2 -10   24.11    1.17
   2   2  10   23.39    1.16
   2   2  10   23.39    1.32
   2   2  10   24.48    1.14
   2   2  10   24.47    1.15
  -3  -2 -10    0.10    0.53
  -3  -2 -10   -0.70    0.39
  -3  -2 -10    0.08    0.52
  -3  -2 -10   -0.60    0.47
   3   2  10   -0.29    0.42
   3   2  10   -0.03    0.45
   3   2  10   -0.44    0.48
   3   2  10   -0.08    0.55
  -4  -2 -10    1.93    0.54
  -4  -2 -10    1.27    0.55
  -4  -2 -10    1.79    0.64
  -4  -2 -10    1.19    0.48
   4   2  10    0.73    0.45
   4   2  10    1.95    0.58
   4   2  10    2.24    0.59
   4   2  10    1.81    0.51
  -5  -2 -10   20.24    1.29
  -5  -2 -10   19.67    1.35
  -5  -2 -10   19.03    1.39
  -5  -2 -10   20.11    1.23
   5   2  10   22.12    1.43
   5   2  10   20.63    1.22
   5   2  10   17.44    1.14
   5   2  10   20.88    1.27
  -6  -2 -10   16.10    1.21
  -6  -2 -10   16.57    1.36
  -6  -2 -10   16.35    1.45
  -6  -2 -10   15.93    1.39
   6   2  10   15.26    1.40
   6   2  10   15.07    1.16
   6   2  10   16.57    1.48
   6   2  10   17.45    1.32
  -7  -2 -10   52.63    2.27
  -7  -2 -10   50.86    2.12
  -7  -2 -10   52.70    2.33
  -7  -2 -10   54.87    2.06
   7   2  10   50.58    2.24
   7   2  10   52.34    2.05
   7   2  10   51.12    1.98
   7   2  10   49.68    2.26
   7  -3 -10   12.07    1.30
   7  -3 -10   11.94    1.62
   7  -3 -10   15.90    1.71
  -7   3  10   15.31    1.63
  -7   3  10   12.57    1.37
  -7   3  10   15.59    1.33
   6  -3 -10    7.13    0.80
   6  -3 -10    5.60    0.89
   6  -3 -10    5.31    0.83
   6  -3 -10    6.95    0.64
   6  -3 -10    6.08    0.95
  -6   3  10    6.13    0.71
  -6   3  10    9.12    1.06
  -6   3  10    5.70    0.95
   5  -3 -10   38.01    1.85
   5  -3 -10   39.34    1.32
   5  -3 -10   39.97    1.86
   5  -3 -10   37.37    1.77
   5  -3 -10   40.95    1.64
  -5   3  10   39.60    1.87
  -5   3  10   38.72    1.63
  -5   3  10   40.28    1.86
   4  -3 -10   -0.36    0.57
   4  -3 -10    0.48    0.58
   4  -3 -10    0.06    0.47
   4  -3 -10    0.34    0.57
   4  -3 -10   -0.39    0.33
  -4   3  10   -0.34    0.44
  -4   3  10   -0.39    0.57
  -4   3  10    0.18    0.39
   3  -3 -10    1.21    0.54
   3  -3 -10    1.70    0.52
   3  -3 -10    1.52    0.62
   3  -3 -10    1.50    0.56
  -3   3  10    2.60    0.54
  -3   3  10    1.99    0.65
  -3   3  10    1.51    0.43
   2  -3 -10   36.03    1.57
   2  -3 -10   32.83    1.45
   2  -3 -10   35.47    1.40
   2  -3 -10   35.87    1.56
  -2   3  10   34.76    1.39
  -2   3  10   38.37    1.59
  -2   3  10   36.18    1.34
   1  -3 -10   23.95    1.11
   1  -3 -10   24.05    1.29
   1  -3 -10   24.42    1.30
   1  -3 -10   23.19    1.18
  -1   3  10   24.03    1.12
  -1   3  10   21.41    1.01
  -1   3  10   23.46    1.27
  -1   3  10   23.16    1.04
   0  -3 -10   87.43    2.66
   0  -3 -10   85.68    2.50
   0  -3 -10   81.37    2.53
   0  -3 -10   80.98    2.64
   0   3  10   83.65    2.45
   0   3  10   85.97    2.48
   0   3  10   82.30    2.27
   0   3  10   83.36    2.43
   0   3  10   86.44    2.64
  -1  -3 -10    4.15    0.62
  -1  -3 -10    3.21    0.51
  -1  -3 -10    2.86    0.58
  -1  -3 -10    3.15    0.48
   1   3  10    4.33    0.50
   1   3  10    3.33    0.51
   1   3  10    3.49    0.45
   1   3  10    3.09    0.55
  -2  -3 -10    1.74    0.56
  -2  -3 -10    1.95    0.47
  -2  -3 -10    1.36    0.50
  -2  -3 -10    1.57    0.45
   2   3  10    1.64    0.41
   2   3  10    1.75    0.43
   2   3  10    2.04    0.52
   2   3  10    1.07    0.47
  -3  -3 -10   68.91    2.19
  -3  -3 -10   71.45    2.14
  -3  -3 -10   63.75    2.26
  -3  -3 -10   71.07    2.27
   3   3  10   68.92    2.27
   3   3  10   57.50    2.03
   3   3  10   68.82    2.09
   3   3  10   70.19    2.22
  -4  -3 -10    0.19    0.42
  -4  -3 -10    0.14    0.49
  -4  -3 -10   -0.04    0.45
  -4  -3 -10    0.20    0.53
   4   3  10    0.08    0.41
   4   3  10   -0.28    0.49
   4   3  10   -0.41    0.41
   4   3  10    0.32    0.53
  -5  -3 -10   16.40    1.26
  -5  -3 -10   16.75    1.18
  -5  -3 -10   15.01    1.13
  -5  -3 -10   16.32    1.09
   5   3  10   13.71    1.19
   5   3  10   15.44    1.20
   5   3  10   14.79    1.03
   5   3  10   15.23    1.00
  -6  -3 -10    3.70    0.71
  -6  -3 -10    3.02    0.68
  -6  -3 -10    2.59    0.57
  -6  -3 -10    3.59    0.67
   6   3  10    3.88    0.59
   6   3  10    1.91    0.62
   6   3  10    3.37    0.57
   6   3  10    4.16    0.79
   6   3  10    3.10    0.75
  -7  -3 -10   10.93    1.18
  -7  -3 -10   10.81    1.40
  -7  -3 -10    9.96    1.28
  -7  -3 -10   10.64    1.30
   7   3  10    8.64    1.06
   7   3  10    7.48    0.92
   7   3  10    8.85    1.06
   7   3  10   10.71    1.31
   6  -4 -10   50.45    2.24
   6  -4 -10   54.49    2.25
   6  -4 -10   49.95    2.17
   6  -4 -10   52.39    2.01
  -6   4  10   45.41    2.20
  -6   4  10   50.72    1.93
  -6   4  10   50.81    2.22
  -6   4  10   51.20    1.88
   5  -4 -10    0.30    0.66
   5  -4 -10    0.89    0.56
   5  -4 -10    0.00    0.27
   5  -4 -10    1.20    0.65
   5  -4 -10    0.56    0.72
  -5   4  10   -0.45    0.66
  -5   4  10    0.01    0.49
   4  -4 -10   54.91    1.91
   4  -4 -10   54.42    2.04
   4  -4 -10   55.09    2.11
   4  -4 -10   54.55    2.11
   4  -4 -10   52.38    1.63
  -4   4  10   55.08    1.89
  -4   4  10   55.70    2.13
  -4   4  10   56.03    1.84
   3  -4 -10    7.95    0.76
   3  -4 -10    6.77    0.74
   3  -4 -10    8.43    0.91
   3  -4 -10    8.11    1.08
  -3   4  10    7.95    0.88
  -3   4  10    7.93    0.76
  -3   4  10    8.32    1.08
   2  -4 -10    2.66    0.56
   2  -4 -10    3.03    0.55
   2  -4 -10    1.75    0.47
   2  -4 -10    2.42    0.58
  -2   4  10    2.36    0.41
  -2   4  10    2.00    0.45
  -2   4  10    1.43    0.56
   1  -4 -10    7.44    0.95
   1  -4 -10    7.02    0.86
   1  -4 -10    7.67    0.81
   1  -4 -10    7.53    0.90
  -1   4  10    7.44    0.69
  -1   4  10    7.11    0.92
  -1   4  10    7.12    0.80
  -1   4  10    7.65    0.68
  -1   4  10    7.72    0.75
   0  -4 -10    3.46    0.52
   0  -4 -10    6.21    0.85
   0  -4 -10    4.31    0.56
   0  -4 -10    3.26    0.47
   0   4  10    4.33    0.44
   0   4  10    4.99    0.61
   0   4  10    4.53    0.47
   0   4  10    3.99    0.57
   0   4  10    3.90    0.49
   0   4  10    4.13    0.53
  -1  -4 -10   24.98    1.13
  -1  -4 -10   23.45    1.23
  -1  -4 -10   22.16    1.24
  -1  -4 -10   26.03    1.18
   1   4  10   26.13    1.26
   1   4  10   26.20    1.26
   1   4  10   26.05    1.04
   1   4  10   25.38    1.04
   1   4  10   25.76    1.17
  -2  -4 -10    2.13    0.44
  -2  -4 -10    1.87    0.52
  -2  -4 -10    2.46    0.54
  -2  -4 -10    2.01    0.44
   2   4  10    2.64    0.40
   2   4  10    2.26    0.39
   2   4  10    2.45    0.54
   2   4  10    2.47    0.51
   2   4  10    2.10    0.52
  -3  -4 -10    2.61    0.54
  -3  -4 -10    2.41    0.52
  -3  -4 -10    2.53    0.47
   3   4  10    3.04    0.42
   3   4  10    2.40    0.41
   3   4  10    2.13    0.54
   3   4  10    2.35    0.52
   3   4  10    2.04    0.55
  -4  -4 -10  101.28    2.90
  -4  -4 -10  104.91    3.02
  -4  -4 -10   99.85    2.94
  -4  -4 -10   98.81    3.02
   4   4  10   97.38    3.01
   4   4  10   95.46    3.02
   4   4  10   97.50    2.78
   4   4  10   99.43    2.79
  -5  -4 -10    1.00    0.50
  -5  -4 -10    1.32    0.52
  -5  -4 -10    1.25    0.57
  -5  -4 -10    0.68    0.48
   5   4  10    1.16    0.42
   5   4  10    0.79    0.48
   5   4  10    1.18    0.63
   5   4  10    1.58    0.44
   5   4  10    1.53    0.62
  -6  -4 -10   27.89    1.41
  -6  -4 -10   30.64    1.48
  -6  -4 -10   28.49    1.39
  -6  -4 -10   29.76    1.52
   6   4  10   30.53    1.25
   6   4  10   26.96    1.23
   6   4  10   28.12    1.58
   6   4  10   29.13    1.51
   6   4  10   30.24    1.60
  -7  -4 -10    4.66    0.79
  -7  -4 -10    4.02    0.68
  -7  -4 -10    4.98    0.67
  -7  -4 -10    3.00    0.68
   7   4  10    3.80    0.87
   7   4  10    4.16    0.60
   7   4  10    4.54    0.76
   7   4  10    4.34    0.57
   7   4  10    4.47    0.83
  -8  -4 -10    5.71    0.72
  -8  -4 -10    6.62    0.87
  -8  -4 -10    6.50    0.86
  -8  -4 -10    6.76    0.96
   8   4  10    5.73    0.85
   8   4  10    4.08    0.92
   8   4  10    7.45    0.72
   6  -5 -10    2.49    0.82
   6  -5 -10    1.91    0.81
   6  -5 -10    2.00    0.65
   6  -5 -10    2.31    0.79
  -6   5  10    1.73    0.87
  -6   5  10    3.04    0.63
  -6   5  10    2.24    0.77
  -6   5  10    3.02    0.57
   5  -5 -10    2.33    0.70
   5  -5 -10    1.27    0.69
   5  -5 -10    1.32    0.64
   5  -5 -10    1.98    0.62
  -5   5  10    0.43    0.66
  -5   5  10    1.03    0.76
  -5   5  10    1.65    0.55
  -5   5  10    1.34    0.73
   4  -5 -10    1.44    0.64
   4  -5 -10    1.23    0.50
   4  -5 -10    1.69    0.61
   4  -5 -10    1.45    0.26
   4  -5 -10    1.29    0.60
  -4   5  10    1.26    0.63
  -4   5  10    1.39    0.47
  -4   5  10    1.04    0.43
  -4   5  10    1.21    0.62
   3  -5 -10   37.60    1.69
   3  -5 -10   41.39    1.67
   3  -5 -10   40.04    1.54
   3  -5 -10   37.37    1.65
  -3   5  10   40.00    1.47
  -3   5  10   40.77    1.74
  -3   5  10   40.45    1.42
  -3   5  10   41.59    1.74
  -3   5  10   40.25    1.66
   2  -5 -10    0.29    0.46
   2  -5 -10    0.48    0.53
   2  -5 -10    0.61    0.54
   2  -5 -10    0.49    0.49
  -2   5  10    0.58    0.37
  -2   5  10    0.60    0.34
  -2   5  10    0.83    0.46
  -2   5  10    0.41    0.51
   1  -5 -10   29.16    1.32
   1  -5 -10   30.61    1.38
   1  -5 -10   30.31    1.25
   1  -5 -10   29.88    1.37
  -1   5  10   29.79    1.11
  -1   5  10   31.04    1.40
  -1   5  10   32.06    1.20
  -1   5  10   30.70    1.16
   0  -5 -10   42.54    1.56
   0  -5 -10   43.37    1.61
   0  -5 -10   40.31    1.60
   0  -5 -10   42.25    1.48
   0   5  10   43.72    1.62
   0   5  10   42.08    1.36
   0   5  10   43.54    1.36
   0   5  10   42.87    1.58
   0   5  10   39.18    1.60
   0   5  10   41.98    1.38
  -1  -5 -10    9.64    0.93
  -1  -5 -10    9.46    0.86
  -1  -5 -10   11.32    0.83
  -1  -5 -10   11.10    0.91
   1   5  10   11.46    0.92
   1   5  10   10.87    0.69
   1   5  10   10.99    0.53
   1   5  10   10.35    0.68
   1   5  10   10.08    0.93
   1   5  10   10.97    0.96
  -2  -5 -10   37.25    1.42
  -2  -5 -10   36.86    1.48
  -2  -5 -10   37.44    1.46
  -2  -5 -10   38.67    1.37
   2   5  10   35.86    1.49
   2   5  10   35.18    1.50
   2   5  10   36.32    1.21
   2   5  10   38.25    1.22
   2   5  10   38.58    1.51
  -3  -5 -10    0.12    0.40
  -3  -5 -10    0.17    0.41
  -3  -5 -10   -0.37    0.38
  -3  -5 -10   -0.79    0.39
   3   5  10    0.22    0.30
   3   5  10    0.09    0.44
   3   5  10   -0.36    0.44
   3   5  10   -0.34    0.51
   3   5  10    0.21    0.29
  -4  -5 -10    0.23    0.45
  -4  -5 -10    0.52    0.45
  -4  -5 -10    0.32    0.43
  -4  -5 -10   -0.12    0.40
   4   5  10    0.24    0.30
   4   5  10   -0.09    0.42
   4   5  10   -0.03    0.30
   4   5  10    0.56    0.60
  -5  -5 -10    0.33    0.43
  -5  -5 -10    0.31    0.42
  -5  -5 -10   -0.25    0.46
  -5  -5 -10    0.32    0.47
   5   5  10    0.76    0.48
   5   5  10    0.13    0.32
   5   5  10   -0.44    0.59
   5   5  10    0.31    0.32
  -6  -5 -10   16.65    1.19
  -6  -5 -10   16.52    1.13
  -6  -5 -10   17.43    1.15
  -6  -5 -10   18.11    1.09
   6   5  10   16.24    0.86
   6   5  10   16.77    1.30
   6   5  10   18.08    1.18
   6   5  10   15.36    1.25
  -7  -5 -10   11.40    1.16
  -7  -5 -10   12.74    1.22
  -7  -5 -10   12.81    1.08
  -7  -5 -10   12.19    1.17
   7   5  10   12.49    0.85
   7   5  10   10.71    1.39
   7   5  10   11.97    1.18
   7   5  10   11.98    1.28
  -8  -5 -10    1.47    0.66
  -8  -5 -10    1.58    0.65
  -8  -5 -10    2.37    0.71
  -8  -5 -10    0.70    0.54
   8   5  10    2.06    0.70
   8   5  10    1.14    0.72
   8   5  10    2.54    0.93
   8   5  10    1.75    0.47
   5  -6 -10   12.19    1.43
   5  -6 -10   12.40    1.36
   5  -6 -10   13.97    1.41
   5  -6 -10   14.31    1.26
  -5   6  10   11.43    1.06
  -5   6  10   10.44    1.38
  -5   6  10   10.52    0.95
  -5   6  10   11.35    1.47
  -5   6  10   12.97    1.52
   4  -6 -10   10.65    1.04
   4  -6 -10   10.02    1.19
   4  -6 -10    9.00    1.17
   4  -6 -10   15.01    1.26
  -4   6  10   11.97    0.94
  -4   6  10    9.78    1.26
  -4   6  10    9.70    1.22
  -4   6  10   11.69    0.84
  -4   6  10   10.03    1.29
   3  -6 -10   37.54    1.65
   3  -6 -10   36.92    1.63
   3  -6 -10   38.18    1.51
   3  -6 -10   37.75    1.14
   3  -6 -10   38.12    1.68
  -3   6  10   40.19    1.75
  -3   6  10   36.44    1.34
  -3   6  10   35.68    1.30
  -3   6  10   37.64    1.67
   2  -6 -10   23.49    1.25
   2  -6 -10   19.56    1.22
   2  -6 -10   22.73    1.13
   2  -6 -10   21.45    1.23
  -2   6  10   21.02    0.91
  -2   6  10   22.12    1.29
  -2   6  10   22.17    0.94
  -2   6  10   23.44    1.22
  -2   6  10   23.09    1.27
   1  -6 -10    3.23    0.54
   1  -6 -10    2.68    0.48
   1  -6 -10    1.96    0.52
   1  -6 -10    3.71    0.57
  -1   6  10    3.67    0.52
  -1   6  10    3.15    0.55
  -1   6  10    2.99    0.35
  -1   6  10    3.15    0.36
   0  -6 -10   19.64    1.08
   0  -6 -10   20.74    1.10
   0  -6 -10   20.55    1.10
   0  -6 -10   20.25    1.00
   0   6  10   20.30    0.79
   0   6  10   20.08    0.77
   0   6  10   19.97    1.12
   0   6  10   19.86    0.94
   0   6  10   19.82    1.13
  -1  -6 -10   16.89    1.01
  -1  -6 -10   17.83    0.93
  -1  -6 -10   16.83    1.00
  -1  -6 -10   17.39    1.00
   1   6  10   15.37    0.99
   1   6  10   17.08    0.67
   1   6  10   16.73    1.04
   1   6  10   17.22    1.10
   1   6  10   16.65    0.66
   1   6  10   16.68    0.77
  -2  -6 -10   24.15    1.16
  -2  -6 -10   24.35    1.12
  -2  -6 -10   24.62    1.16
  -2  -6 -10   25.83    1.09
   2   6  10   24.00    1.19
   2   6  10   24.12    0.80
   2   6  10   23.97    0.78
   2   6  10   23.78    1.28
   2   6  10   26.15    1.18
  -3  -6 -10   22.30    1.09
  -3  -6 -10   19.68    1.06
  -3  -6 -10   22.45    1.09
  -3  -6 -10   24.06    1.04
   3   6  10   21.35    1.10
   3   6  10   17.55    0.67
   3   6  10   21.47    0.70
   3   6  10   23.70    1.26
   3   6  10   20.16    1.12
  -4  -6 -10    1.50    0.47
  -4  -6 -10    0.59    0.42
  -4  -6 -10    0.98    0.40
   4   6  10    0.83    0.44
   4   6  10    1.46    0.61
   4   6  10    1.51    0.22
   4   6  10    0.46    0.64
  -5  -6 -10    5.25    0.59
  -5  -6 -10    6.65    0.59
  -5  -6 -10    6.41    0.63
  -5  -6 -10    4.95    0.58
   5   6  10    6.07    0.41
   5   6  10    6.54    0.85
   5   6  10    5.55    0.77
  -6  -6 -10    0.71    0.46
  -6  -6 -10    0.63    0.47
  -6  -6 -10    1.58    0.51
  -6  -6 -10    1.20    0.51
   6   6  10    0.42    0.52
   6   6  10    1.11    0.23
   6   6  10    1.36    0.52
   6   6  10    0.19    0.64
  -7  -6 -10    0.48    0.48
  -7  -6 -10    0.49    0.50
  -7  -6 -10    0.08    0.54
  -7  -6 -10    1.01    0.56
   7   6  10   -0.19    0.21
   7   6  10   -0.17    0.52
   7   6  10    0.82    0.60
   7   6  10   -0.33    0.78
   7   6  10    0.13    0.20
  -8  -6 -10    6.19    0.80
  -8  -6 -10    4.68    0.71
  -8  -6 -10    5.69    0.77
  -8  -6 -10    5.85    0.72
   8   6  10    4.77    0.90
   8   6  10    5.31    0.81
   8   6  10    4.23    0.74
   4  -7 -10    2.47    0.62
   4  -7 -10    1.93    0.65
   4  -7 -10    1.92    0.66
   4  -7 -10    2.68    0.74
  -4   7  10    2.76    0.73
  -4   7  10    3.64    0.82
  -4   7  10    2.35    0.73
  -4   7  10    1.74    0.44
   3  -7 -10    5.65    0.68
   3  -7 -10    5.15    0.62
   3  -7 -10    5.07    0.71
   3  -7 -10    6.43    0.72
  -3   7  10    6.56    0.76
  -3   7  10    6.23    0.83
  -3   7  10    5.74    0.77
  -3   7  10    5.98    0.67
   2  -7 -10    1.72    0.53
   2  -7 -10    1.82    0.56
   2  -7 -10    1.88    0.51
   2  -7 -10    2.15    0.56
  -2   7  10    1.59    0.59
  -2   7  10    2.21    0.33
  -2   7  10    2.44    0.57
   1  -7 -10   96.03    2.88
   1  -7 -10   89.72    2.85
   1  -7 -10   98.56    2.80
   1  -7 -10   96.81    2.85
  -1   7  10   99.73    2.91
  -1   7  10   96.10    2.90
  -1   7  10   95.41    2.50
   0  -7 -10    1.40    0.47
   0  -7 -10    1.24    0.44
   0  -7 -10    1.56    0.41
   0  -7 -10    1.88    0.46
   0   7  10    1.23    0.45
   0   7  10    2.29    0.46
  -1  -7 -10   43.76    1.47
  -1  -7 -10   40.82    1.52
  -1  -7 -10   43.16    1.54
  -1  -7 -10   42.70    1.54
   1   7  10   41.33    1.70
   1   7  10   43.48    1.45
   1   7  10   43.10    1.55
  -2  -7 -10   15.83    0.93
  -2  -7 -10   15.12    0.90
  -2  -7 -10   14.76    0.91
  -2  -7 -10   15.26    0.96
   2   7  10   15.39    1.16
   2   7  10   15.29    0.94
   2   7  10   16.07    0.97
  -3  -7 -10   15.48    0.97
  -3  -7 -10   18.03    0.92
  -3  -7 -10   16.52    0.95
  -3  -7 -10   16.19    0.92
   3   7  10   19.04    1.22
   3   7  10   16.03    0.99
   3   7  10   18.42    0.99
  -4  -7 -10    1.28    0.42
  -4  -7 -10    0.43    0.38
  -4  -7 -10    0.64    0.38
  -4  -7 -10    0.49    0.40
   4   7  10    0.85    0.40
   4   7  10    0.33    0.39
   4   7  10    1.12    0.61
  -5  -7 -10    0.19    0.39
  -5  -7 -10    0.70    0.42
  -5  -7 -10   -0.02    0.39
  -5  -7 -10   -0.43    0.40
   5   7  10    0.26    0.63
   5   7  10    0.10    0.41
  -6  -7 -10    0.25    0.43
  -6  -7 -10    1.13    0.47
  -6  -7 -10   -0.35    0.42
  -6  -7 -10    0.58    0.43
   6   7  10    0.83    0.71
   6   7  10    0.68    0.50
   6   7  10    0.42    0.40
  -7  -7 -10    9.74    0.97
  -7  -7 -10   11.71    1.08
  -7  -7 -10   10.44    0.98
  -7  -7 -10   11.40    1.03
   7   7  10    8.70    1.14
   7   7  10    8.31    1.07
   3  -8 -10   14.66    1.14
   3  -8 -10   12.22    1.29
   3  -8 -10   10.80    1.22
   3  -8 -10   13.28    1.20
  -3   8  10   12.35    1.35
  -3   8  10   14.65    1.30
  -3   8  10   13.71    1.34
   2  -8 -10    0.60    0.52
   2  -8 -10    0.23    0.49
   2  -8 -10    0.49    0.50
   2  -8 -10    0.09    0.48
   2  -8 -10    0.52    0.25
  -2   8  10   -0.56    0.61
  -2   8  10    0.12    0.55
  -2   8  10   -0.46    0.50
   1  -8 -10    2.28    0.50
   1  -8 -10    2.69    0.43
   1  -8 -10    2.40    0.49
   1  -8 -10    3.08    0.59
   1  -8 -10    2.77    0.50
  -1   8  10    1.72    0.58
  -1   8  10    1.89    0.52
  -1   8  10    3.20    0.58
   0  -8 -10   18.37    1.01
   0  -8 -10   18.99    1.01
   0  -8 -10   19.80    1.09
   0  -8 -10   20.61    1.05
   0   8  10   19.66    1.13
  -1  -8 -10    8.54    0.86
  -1  -8 -10    8.64    0.79
  -1  -8 -10    8.51    0.79
  -1  -8 -10    8.68    0.77
   1   8  10    6.41    0.78
   1   8  10    9.93    0.86
   1   8  10    6.47    0.77
  -2  -8 -10  136.96    3.60
  -2  -8 -10  136.79    3.57
  -2  -8 -10  121.99    3.59
  -2  -8 -10  132.83    3.59
   2   8  10  134.14    3.89
   2   8  10  122.99    3.60
  -3  -8 -10    0.51    0.40
  -3  -8 -10    0.68    0.36
  -3  -8 -10    0.51    0.40
  -3  -8 -10   -0.09    0.37
   3   8  10    0.27    0.30
   3   8  10    1.05    0.64
   3   8  10    0.73    0.42
  -4  -8 -10    3.03    0.48
  -4  -8 -10    4.86    0.51
  -4  -8 -10    4.49    0.49
  -4  -8 -10    4.35    0.45
   4   8  10    3.07    0.47
   4   8  10    4.55    0.80
  -5  -8 -10   61.81    1.98
  -5  -8 -10   62.35    1.91
  -5  -8 -10   63.75    1.94
  -5  -8 -10   62.52    1.94
   5   8  10   56.52    2.31
  -6  -8 -10    0.65    0.46
  -6  -8 -10    0.95    0.39
  -6  -8 -10    0.58    0.46
  -6  -8 -10    0.66    0.41
   6   8  10    0.59    0.49
   6   8  10   -0.15    0.32
   6   8  10    1.91    0.81
  -7  -8 -10   11.52    1.06
  -7  -8 -10   12.77    0.90
  -7  -8 -10   12.25    0.97
  -7  -8 -10   12.23    1.03
   7   8  10   10.55    1.10
   7   8  10   13.62    1.48
   1  -9 -10    3.45    0.43
   1  -9 -10    3.99    0.56
   1  -9 -10    3.48    0.54
   1  -9 -10    1.96    0.56
   1  -9 -10    2.69    0.49
  -1   9  10    3.30    0.60
  -1   9  10    2.91    0.68
   0  -9 -10    8.04    0.78
   0  -9 -10    9.38    0.85
   0  -9 -10   10.24    0.97
   0  -9 -10    9.90    0.88
   0  -9 -10    9.21    0.86
   0   9  10    9.93    1.11
   0   9  10    9.30    0.91
  -1  -9 -10   19.56    1.17
  -1  -9 -10   20.22    0.96
  -1  -9 -10   20.84    0.99
  -1  -9 -10   20.80    1.13
  -1  -9 -10   23.74    1.04
   1   9  10   22.49    1.23
  -2  -9 -10    2.59    0.40
  -2  -9 -10    2.07    0.43
  -2  -9 -10    1.84    0.47
  -2  -9 -10    2.42    0.42
   2   9  10    1.48    0.69
   2   9  10    1.66    0.42
  -3  -9 -10    0.38    0.40
  -3  -9 -10    0.42    0.33
  -3  -9 -10    0.17    0.37
  -3  -9 -10    0.57    0.34
   3   9  10    0.23    0.74
   3   9  10    0.14    0.38
  -4  -9 -10    8.16    0.74
  -4  -9 -10    5.63    0.65
  -4  -9 -10    7.21    0.83
  -4  -9 -10    5.82    0.66
   4   9  10    6.75    0.75
   4   9  10    6.64    0.96
  -5  -9 -10   13.64    0.81
  -5  -9 -10   16.17    0.82
  -5  -9 -10   17.09    0.91
   5   9  10   18.22    1.45
  -6  -9 -10    8.95    0.94
  -6  -9 -10   10.59    0.75
  -6  -9 -10    9.50    0.89
  -6  -9 -10   10.26    0.77
   6   9  10   10.89    1.37
  -1 -10 -10    2.27    0.51
  -1 -10 -10    2.23    0.46
  -1 -10 -10    2.24    0.40
  -1 -10 -10    2.68    0.58
  -1 -10 -10    2.23    0.40
  -2 -10 -10   17.44    1.05
  -2 -10 -10   18.03    0.78
  -2 -10 -10   17.98    0.78
  -2 -10 -10   20.14    0.96
  -2 -10 -10   20.92    1.30
   2  10  10   17.28    1.47
  -3 -10 -10    0.58    0.68
  -3 -10 -10    1.54    0.40
  -3 -10 -10    1.07    0.44
   3  10  10    1.05    0.73
   3  10  10    0.28    0.27
  -4 -10 -10   12.50    0.83
  -4 -10 -10   11.27    1.42
  -4 -10 -10    9.99    0.88
   4  10  10   12.08    1.39
   2   4 -11    0.44    0.71
   2   4 -11   -0.42    0.81
   2   4 -11    0.30    0.59
  -2  -4  11    0.94    0.72
  -2  -4  11   -1.06    0.76
  -2  -4  11    0.59    0.83
   4   3 -11    5.80    0.90
   4   3 -11    3.41    0.87
   4   3 -11    4.16    0.86
   4   3 -11    4.39    0.71
  -4  -3  11    4.62    0.79
  -4  -3  11    4.24    0.88
  -4  -3  11    4.67    0.94
  -4  -3  11    3.44    0.76
   3   3 -11    3.46    0.74
   3   3 -11    5.12    0.87
   3   3 -11    3.87    0.94
   3   3 -11    3.84    0.83
   3   3 -11    4.37    0.71
  -3  -3  11    3.90    0.83
  -3  -3  11    5.48    0.79
  -3  -3  11    4.95    0.99
  -3  -3  11    5.60    0.82
   2   3 -11    4.15    0.95
   2   3 -11    2.96    0.85
   2   3 -11    3.71    0.77
   2   3 -11    4.46    0.71
   2   3 -11    4.12    0.78
  -2  -3  11    4.38    0.81
  -2  -3  11    3.45    0.73
  -2  -3  11    5.17    0.98
  -2  -3  11    4.64    0.80
  -2  -3  11    4.69    0.74
   1   3 -11    2.17    0.64
   1   3 -11    1.24    0.73
   1   3 -11    1.32    0.82
   1   3 -11    1.46    0.66
   1   3 -11    2.40    0.78
  -1  -3  11    1.39    0.79
  -1  -3  11    1.73    0.71
  -1  -3  11    1.15    0.58
  -1  -3  11    2.63    0.85
  -1  -3  11   -0.18    0.49
   0   3 -11   -0.10    0.75
   0   3 -11    0.84    0.70
   0   3 -11    0.09    0.54
   0   3 -11    0.04    0.73
   0  -3  11    0.33    0.63
   0  -3  11    0.42    0.89
   0  -3  11   -0.60    0.52
   0  -3  11   -0.14    0.59
   0  -3  11    0.18    0.47
   0  -3  11   -0.37    0.76
  -1   3 -11    8.21    1.02
  -1   3 -11    8.16    1.08
  -1   3 -11   10.82    1.24
  -1   3 -11    5.90    0.85
   1  -3  11    8.50    1.08
   1  -3  11    6.92    0.90
   1  -3  11    5.70    0.85
   1  -3  11    4.65    0.98
   1  -3  11    7.85    0.95
  -2   3 -11   17.20    1.75
  -2   3 -11   12.82    1.41
   2  -3  11   13.58    1.50
   5   2 -11    1.85    0.79
   5   2 -11    1.01    0.86
   5   2 -11    2.67    0.70
   5   2 -11    2.51    0.68
   5   2 -11    2.15    0.94
  -5  -2  11    1.92    0.83
  -5  -2  11    2.77    0.78
  -5  -2  11    1.23    0.68
  -5  -2  11    1.75    0.56
   4   2 -11    2.04    0.84
   4   2 -11    2.30    0.71
   4   2 -11    1.22    0.80
   4   2 -11    0.37    0.67
   4   2 -11    1.18    0.60
  -4  -2  11    2.06    0.82
  -4  -2  11    1.56    0.68
  -4  -2  11    0.88    0.73
  -4  -2  11    1.41    0.71
   3   2 -11   17.41    1.42
   3   2 -11   19.89    1.34
   3   2 -11   18.92    1.57
   3   2 -11   18.57    1.60
   3   2 -11   17.97    1.27
  -3  -2  11   18.39    1.36
  -3  -2  11   18.03    1.37
  -3  -2  11   19.03    1.60
  -3  -2  11   19.68    1.52
   2   2 -11    9.02    1.13
   2   2 -11    7.01    0.74
   2   2 -11    5.21    0.88
   2   2 -11    5.93    0.91
  -2  -2  11    6.34    0.76
  -2  -2  11    5.43    0.75
  -2  -2  11    4.89    0.73
  -2  -2  11    7.10    0.99
  -2  -2  11    5.10    0.81
   1   2 -11    5.46    0.85
   1   2 -11    7.13    0.95
   1   2 -11    6.23    0.69
   1   2 -11    8.09    0.88
  -1  -2  11    7.12    0.89
  -1  -2  11    4.46    0.64
  -1  -2  11    6.78    0.88
  -1  -2  11    8.47    0.86
   0   2 -11    5.20    0.95
   0   2 -11    7.02    0.97
   0   2 -11    5.53    0.70
   0  -2  11    4.97    0.89
   0  -2  11    6.19    0.86
   0  -2  11    6.70    0.66
   0  -2  11    4.85    0.71
   0  -2  11    6.77    0.82
  -1   2 -11   -0.30    0.57
  -1   2 -11   -0.08    0.70
  -1   2 -11    0.49    0.76
  -1   2 -11    0.42    0.77
   1  -2  11   -0.41    0.47
   1  -2  11   -0.55    0.66
   1  -2  11   -0.65    0.71
   1  -2  11    0.73    0.80
   1  -2  11   -0.42    0.58
   1  -2  11   -0.01    0.36
  -2   2 -11    1.94    0.69
  -2   2 -11    2.40    0.87
  -2   2 -11    1.97    0.72
  -2   2 -11    2.96    0.87
   2  -2  11    1.65    0.74
   2  -2  11    2.45    0.79
   2  -2  11    3.43    0.94
   2  -2  11    2.67    0.60
   2  -2  11    1.88    0.66
  -3   2 -11    2.47    0.80
  -3   2 -11    1.35    0.71
  -3   2 -11    2.19    0.92
  -3   2 -11    1.12    0.89
   3  -2  11    0.70    0.84
   3  -2  11    0.71    0.87
   3  -2  11   -0.45    0.67
   3  -2  11    1.35    0.63
   6   1 -11    2.66    0.72
   6   1 -11    4.47    0.75
   6   1 -11    5.18    1.03
   6   1 -11    4.74    0.78
   6   1 -11    4.18    0.99
  -6  -1  11    3.18    0.75
  -6  -1  11    3.95    0.90
  -6  -1  11    4.25    0.95
   5   1 -11    0.40    0.59
   5   1 -11    0.81    0.59
   5   1 -11    0.52    0.78
   5   1 -11    0.84    0.77
   5   1 -11    0.33    0.71
  -5  -1  11   -0.28    0.70
  -5  -1  11   -0.69    0.76
  -5  -1  11    0.27    0.58
  -5  -1  11    0.56    0.58
   4   1 -11    0.57    0.59
   4   1 -11   -0.23    0.60
   4   1 -11   -0.99    0.56
   4   1 -11   -0.25    0.75
   4   1 -11   -0.46    0.73
  -4  -1  11    0.66    0.67
  -4  -1  11    0.40    0.69
  -4  -1  11    0.16    0.53
  -4  -1  11   -0.34    0.62
   3   1 -11    3.26    0.63
   3   1 -11    3.22    0.74
   3   1 -11    1.57    0.59
   3   1 -11    2.44    0.81
   3   1 -11    1.92    0.76
  -3  -1  11    1.68    0.70
  -3  -1  11    3.74    0.74
  -3  -1  11    1.58    0.58
  -3  -1  11    3.00    0.77
   2   1 -11    9.12    1.01
   2   1 -11    6.29    0.72
   2   1 -11    6.73    0.95
   2   1 -11    7.68    0.86
  -2  -1  11    8.40    0.93
  -2  -1  11    7.38    0.93
  -2  -1  11    8.98    1.11
  -2  -1  11    8.19    0.82
   1   1 -11    4.23    0.81
   1   1 -11    3.09    0.58
   1   1 -11    3.85    0.78
  -1  -1  11    2.77    0.78
  -1  -1  11    3.43    0.34
  -1  -1  11    2.31    0.60
  -1  -1  11    1.84    0.48
  -1  -1  11    3.47    0.62
  -1  -1  11    4.81    0.85
   0   1 -11    0.44    0.65
   0   1 -11    0.34    0.66
   0   1 -11   -0.17    0.47
   0   1 -11   -0.25    0.59
   0  -1  11    0.60    0.49
   0  -1  11    0.26    0.31
   0  -1  11   -0.48    0.36
   0  -1  11    0.21    0.57
   0  -1  11    0.57    0.67
   0  -1  11    0.57    0.63
  -1   1 -11   11.03    1.38
  -1   1 -11    9.81    1.18
  -1   1 -11   10.32    1.10
  -1   1 -11    8.78    0.94
   1  -1  11    9.29    1.29
   1  -1  11    8.58    1.01
   1  -1  11   11.31    1.18
   1  -1  11    8.51    0.83
   1  -1  11    9.78    0.88
  -2   1 -11    0.51    0.64
  -2   1 -11    2.31    0.78
  -2   1 -11    1.63    0.78
  -2   1 -11    0.74    0.57
   2  -1  11    1.27    0.84
   2  -1  11    2.87    0.80
   2  -1  11    0.56    0.55
   2  -1  11    1.28    0.62
   2  -1  11    1.78    0.56
  -3   1 -11    0.59    0.61
  -3   1 -11    1.27    0.74
  -3   1 -11    0.43    0.74
  -3   1 -11    0.02    0.83
   3  -1  11    0.55    0.68
   3  -1  11    0.15    0.71
   3  -1  11    0.03    0.55
   3  -1  11   -1.23    0.78
   3  -1  11   -0.80    0.68
  -4   1 -11   12.23    1.23
  -4   1 -11   12.11    1.37
  -4   1 -11   10.71    1.30
  -4   1 -11    8.32    1.05
   4  -1  11    8.87    0.90
   4  -1  11   13.59    1.54
   4  -1  11   12.34    1.36
   4  -1  11   10.40    1.21
   6   0 -11    9.07    1.09
   6   0 -11   11.19    1.27
   6   0 -11    8.91    1.11
   6   0 -11    9.46    1.00
   6   0 -11   12.40    1.10
  -6   0  11    9.90    1.14
  -6   0  11   11.67    1.59
  -6   0  11   12.76    1.37
  -6   0  11    9.38    1.15
   5   0 -11    5.05    0.94
   5   0 -11    5.45    0.72
   5   0 -11    5.33    0.75
   5   0 -11    3.66    0.83
   5   0 -11    4.41    0.92
  -5   0  11    5.19    0.94
  -5   0  11    3.16    0.61
  -5   0  11    4.38    0.69
  -5   0  11    4.66    0.84
   4   0 -11   14.60    1.42
   4   0 -11   14.96    1.23
   4   0 -11   15.32    1.16
   4   0 -11   17.02    1.33
   4   0 -11   14.64    1.45
  -4   0  11   15.80    1.45
  -4   0  11   15.29    1.47
  -4   0  11   15.23    1.28
  -4   0  11   15.69    1.17
   3   0 -11    0.88    0.72
   3   0 -11   -0.63    0.72
   3   0 -11    0.73    0.53
   3   0 -11   -0.44    0.64
   3   0 -11    0.57    0.53
  -3   0  11    0.51    0.56
  -3   0  11    0.25    0.63
  -3   0  11   -0.62    0.53
  -3   0  11   -0.46    0.60
   2   0 -11   -0.71    0.60
   2   0 -11    0.02    0.63
   2   0 -11    0.70    0.54
  -2   0  11   -0.54    0.49
  -2   0  11   -0.26    0.63
  -2   0  11    0.18    0.61
  -2   0  11   -0.53    0.53
   1   0 -11    3.18    0.75
   1   0 -11    3.60    0.73
   1   0 -11    4.06    0.57
  -1   0  11    4.68    0.72
  -1   0  11    4.80    0.69
  -1   0  11    4.18    0.40
  -1   0  11    2.02    0.67
  -1   0  11    4.63    0.82
   0   0 -11    0.84    0.65
   0   0 -11    1.38    0.64
   0   0 -11    1.25    0.54
   0   0  11    1.65    0.39
   0   0  11    0.26    0.53
   0   0  11    1.67    0.59
   0   0  11    1.85    0.68
   0   0  11    1.57    0.71
  -1   0 -11   29.08    1.59
  -1   0 -11   27.36    1.63
  -1   0 -11   27.54    1.36
   1   0  11   26.19    1.38
   1   0  11   29.39    1.60
   1   0  11   24.81    1.61
   1   0  11   24.45    1.14
   1   0  11   24.91    1.40
  -2   0 -11    0.32    0.62
  -2   0 -11    0.25    0.54
  -2   0 -11    0.48    0.63
   2   0  11   -0.11    0.49
   2   0  11    0.38    0.70
   2   0  11    0.05    0.53
   2   0  11   -1.02    0.53
   2   0  11    0.49    0.67
  -3   0 -11   24.92    1.61
  -3   0 -11   24.82    1.69
  -3   0 -11   24.16    1.50
  -3   0 -11   26.71    1.44
   3   0  11   26.78    1.45
   3   0  11   25.83    1.66
   3   0  11   26.87    1.46
   3   0  11   26.42    1.70
   3   0  11   26.26    1.31
  -4   0 -11    1.20    0.62
  -4   0 -11    0.74    0.82
  -4   0 -11   -1.31    0.62
  -4   0 -11    0.82    0.73
   4   0  11   -1.03    0.69
   4   0  11   -0.22    0.58
   4   0  11   -1.15    0.65
   4   0  11   -1.06    0.74
   4   0  11    0.05    0.60
  -5   0 -11    1.52    0.92
  -5   0 -11    0.04    0.77
  -5   0 -11    0.77    0.68
  -5   0 -11    1.89    0.82
   5   0  11    1.29    0.84
   5   0  11    0.54    0.74
   5   0  11    0.33    0.72
   5   0  11    1.31    0.76
   6  -1 -11    5.73    0.87
   6  -1 -11    5.24    0.75
   6  -1 -11    3.51    0.97
   6  -1 -11    5.61    1.00
   6  -1 -11    6.06    0.68
  -6   1  11    6.21    0.98
  -6   1  11    4.73    0.85
  -6   1  11    4.41    0.71
  -6   1  11    5.99    0.96
   5  -1 -11    1.56    0.76
   5  -1 -11    1.46    0.56
   5  -1 -11    2.56    0.65
   5  -1 -11    1.67    0.72
   5  -1 -11    1.06    0.84
  -5   1  11    1.52    0.62
  -5   1  11    0.89    0.80
  -5   1  11    0.87    0.54
  -5   1  11    1.61    0.80
   4  -1 -11    1.84    0.61
   4  -1 -11    1.88    0.68
   4  -1 -11    2.15    0.56
   4  -1 -11    3.32    0.83
   4  -1 -11    2.82    0.77
  -4   1  11    1.70    0.74
  -4   1  11    4.08    0.84
  -4   1  11    2.57    0.60
  -4   1  11    3.30    0.67
   3  -1 -11   14.80    1.13
   3  -1 -11   14.12    1.38
   3  -1 -11   13.00    1.34
   3  -1 -11   15.68    1.08
  -3   1  11   13.35    1.30
  -3   1  11   15.51    1.19
  -3   1  11   15.12    1.13
  -3   1  11   14.95    1.36
   2  -1 -11   10.79    1.25
   2  -1 -11   12.61    1.03
   2  -1 -11   11.46    1.28
  -2   1  11   11.64    1.25
  -2   1  11   11.73    1.09
  -2   1  11   13.35    1.26
   1  -1 -11    6.39    0.80
   1  -1 -11    8.43    0.96
   1  -1 -11    9.14    0.93
  -1   1  11    8.80    1.04
  -1   1  11    9.20    0.65
  -1   1  11    8.22    0.90
  -1   1  11    9.56    1.17
   0  -1 -11    5.95    0.77
   0  -1 -11    7.40    0.91
   0  -1 -11    6.65    0.84
   0   1  11    6.84    0.69
   0   1  11    5.51    0.63
   0   1  11    6.48    0.80
   0   1  11    4.82    0.76
  -1  -1 -11    4.57    0.60
  -1  -1 -11    3.28    0.69
  -1  -1 -11    4.55    0.74
   1   1  11    4.45    0.79
   1   1  11    4.66    0.75
   1   1  11    4.71    0.65
   1   1  11    4.26    0.55
  -2  -1 -11   37.40    1.76
  -2  -1 -11   36.34    1.54
  -2  -1 -11   33.01    1.59
  -2  -1 -11   34.18    1.72
   2   1  11   35.17    1.44
   2   1  11   37.83    1.59
   2   1  11   36.19    1.79
   2   1  11   36.77    1.74
  -3  -1 -11    1.17    0.56
  -3  -1 -11    0.94    0.72
  -3  -1 -11    1.86    0.70
  -3  -1 -11    1.48    0.59
   3   1  11    0.99    0.71
   3   1  11    1.04    0.61
   3   1  11    1.47    0.60
   3   1  11    1.60    0.59
  -4  -1 -11    4.80    0.80
  -4  -1 -11    4.79    0.76
  -4  -1 -11    4.44    0.85
  -4  -1 -11    5.48    0.68
   4   1  11    5.24    0.88
   4   1  11    5.45    0.69
   4   1  11    6.35    0.77
   4   1  11    5.79    0.84
   4   1  11    4.32    0.68
  -5  -1 -11   15.64    1.47
  -5  -1 -11   13.16    1.56
  -5  -1 -11   17.47    1.34
  -5  -1 -11   16.63    1.50
   5   1  11   18.91    1.40
   5   1  11   15.84    1.30
   5   1  11   15.70    1.33
   5   1  11   16.10    1.50
   5   1  11   16.07    1.65
  -6  -1 -11    0.32    0.67
  -6  -1 -11   -0.16    0.84
  -6  -1 -11    0.48    0.81
   6   1  11    0.27    0.72
   6   1  11   -0.25    0.77
   6   1  11    0.86    0.70
   6   1  11    1.60    0.81
   6  -2 -11    0.77    0.80
   6  -2 -11    0.27    0.60
   6  -2 -11    0.56    0.47
   6  -2 -11    0.68    0.81
   6  -2 -11   -0.83    0.78
  -6   2  11   -0.74    0.81
  -6   2  11    0.68    0.85
  -6   2  11   -0.14    0.54
  -6   2  11   -0.49    0.65
   5  -2 -11   17.14    0.99
   5  -2 -11   17.96    1.54
   5  -2 -11   15.98    1.26
   5  -2 -11   15.56    1.55
   5  -2 -11   15.67    1.42
  -5   2  11   15.93    1.32
  -5   2  11   15.54    1.23
  -5   2  11   16.44    1.55
  -5   2  11   16.72    1.52
   4  -2 -11    3.14    0.73
   4  -2 -11    3.09    0.55
   4  -2 -11    2.48    0.78
   4  -2 -11    2.84    0.60
   4  -2 -11    3.01    0.66
  -4   2  11    4.39    0.81
  -4   2  11    3.12    0.74
  -4   2  11    3.68    0.66
  -4   2  11    2.81    0.56
   3  -2 -11   -0.26    0.60
   3  -2 -11    0.21    0.50
   3  -2 -11    0.31    0.61
   3  -2 -11   -0.41    0.54
  -3   2  11   -0.11    0.62
  -3   2  11    0.17    0.67
  -3   2  11    0.02    0.46
   2  -2 -11   39.68    1.59
   2  -2 -11   38.83    1.68
   2  -2 -11   40.39    1.79
   2  -2 -11   40.96    1.81
  -2   2  11   38.41    1.61
  -2   2  11   40.95    1.80
  -2   2  11   38.72    1.78
   1  -2 -11   13.74    1.24
   1  -2 -11   12.02    1.01
   1  -2 -11   11.82    1.21
   1  -2 -11   12.91    1.13
  -1   2  11   15.42    1.09
  -1   2  11    9.14    1.10
  -1   2  11   12.88    0.99
  -1   2  11   14.50    1.28
  -1   2  11   14.27    0.81
   0  -2 -11  109.62    3.17
   0  -2 -11  107.62    3.36
   0  -2 -11  108.27    3.24
   0  -2 -11  105.78    3.35
   0   2  11  109.83    3.04
   0   2  11  109.83    3.36
   0   2  11  110.43    3.19
   0   2  11  109.90    3.15
  -1  -2 -11    5.10    0.69
  -1  -2 -11    4.34    0.72
  -1  -2 -11    7.52    0.94
  -1  -2 -11    5.88    0.77
   1   2  11    7.21    0.79
   1   2  11    7.49    0.81
   1   2  11    7.76    0.94
   1   2  11    6.48    0.66
  -2  -2 -11    9.24    1.14
  -2  -2 -11   10.55    0.97
  -2  -2 -11    8.71    1.16
  -2  -2 -11   10.27    1.08
   2   2  11    9.07    0.96
   2   2  11    8.68    0.99
   2   2  11    9.86    0.94
   2   2  11   11.21    1.17
  -3  -2 -11    2.12    0.64
  -3  -2 -11    2.14    0.52
  -3  -2 -11    2.03    0.58
  -3  -2 -11    1.96    0.65
   3   2  11    1.60    0.58
   3   2  11    2.53    0.66
   3   2  11    0.76    0.48
   3   2  11    2.29    0.60
  -4  -2 -11    4.63    0.75
  -4  -2 -11    5.46    0.88
  -4  -2 -11    4.09    0.62
  -4  -2 -11    4.96    0.73
   4   2  11    4.71    0.72
   4   2  11    4.05    0.61
   4   2  11    3.93    0.74
   4   2  11    4.60    0.83
  -5  -2 -11    0.22    0.67
  -5  -2 -11    0.21    0.58
  -5  -2 -11   -0.61    0.60
  -5  -2 -11   -0.88    0.64
   5   2  11   -0.34    0.62
   5   2  11   -0.63    0.69
   5   2  11   -0.16    0.61
   5   2  11    0.62    0.68
   5   2  11   -0.06    0.52
  -6  -2 -11    8.38    0.98
  -6  -2 -11    7.48    0.95
  -6  -2 -11    6.30    0.99
  -6  -2 -11    6.71    0.79
   6   2  11    8.57    1.05
   6   2  11    5.99    0.85
   6   2  11    7.19    0.92
   6   2  11    8.17    0.83
   6   2  11    6.09    0.79
   6  -3 -11   24.39    1.87
   6  -3 -11   26.66    1.56
   6  -3 -11   28.74    1.89
   6  -3 -11   27.61    1.12
  -6   3  11   29.73    1.59
  -6   3  11   27.09    1.50
   5  -3 -11    5.35    0.75
   5  -3 -11    5.31    0.92
   5  -3 -11    6.61    0.72
   5  -3 -11    4.79    0.83
   5  -3 -11    4.49    0.86
  -5   3  11    5.62    0.93
  -5   3  11    3.74    0.62
  -5   3  11    6.09    0.90
  -5   3  11    3.32    0.68
   4  -3 -11    2.26    0.59
   4  -3 -11    2.94    0.68
   4  -3 -11    3.43    0.75
   4  -3 -11    3.53    0.84
   4  -3 -11    2.73    0.49
  -4   3  11    2.65    0.63
  -4   3  11    2.80    0.72
  -4   3  11    2.22    0.71
   3  -3 -11   10.43    1.05
   3  -3 -11   11.22    1.12
   3  -3 -11   10.53    1.20
   3  -3 -11   13.26    1.29
  -3   3  11   11.15    1.06
  -3   3  11    9.48    1.25
  -3   3  11   11.58    1.59
   2  -3 -11   70.33    2.45
   2  -3 -11   74.03    2.46
   2  -3 -11   69.14    2.24
   2  -3 -11   69.01    2.32
  -2   3  11   64.77    2.40
  -2   3  11   67.81    2.18
  -2   3  11   69.81    2.24
   1  -3 -11   39.79    1.65
   1  -3 -11   42.33    1.75
   1  -3 -11   33.95    1.70
   1  -3 -11   41.63    1.55
  -1   3  11   43.07    1.76
  -1   3  11   38.41    1.52
  -1   3  11   39.22    1.43
  -1   3  11   39.65    1.49
   0  -3 -11   56.34    2.01
   0  -3 -11   57.77    1.93
   0  -3 -11   56.22    2.12
   0  -3 -11   59.24    2.12
   0   3  11   58.03    1.92
   0   3  11   56.55    1.85
   0   3  11   57.24    1.88
   0   3  11   55.70    1.61
   0   3  11   58.98    2.12
  -1  -3 -11    3.43    0.67
  -1  -3 -11    2.28    0.57
  -1  -3 -11    2.56    0.56
  -1  -3 -11    2.98    0.54
   1   3  11    2.81    0.49
   1   3  11    2.79    0.63
   1   3  11    3.25    0.56
   1   3  11    3.10    0.53
  -2  -3 -11    4.91    0.69
  -2  -3 -11    2.81    0.63
  -2  -3 -11    3.74    0.52
   2   3  11    3.82    0.51
   2   3  11    3.93    0.52
   2   3  11    5.57    0.73
   2   3  11    4.67    0.62
  -3  -3 -11   -1.14    0.42
  -3  -3 -11   -0.60    0.52
  -3  -3 -11   -0.25    0.56
  -3  -3 -11   -0.69    0.53
   3   3  11   -0.52    0.44
   3   3  11   -0.10    0.55
   3   3  11   -0.18    0.52
   3   3  11   -0.73    0.42
  -4  -3 -11    4.02    0.66
  -4  -3 -11    5.23    0.79
  -4  -3 -11    4.12    0.62
  -4  -3 -11    4.49    0.68
   4   3  11    4.21    0.58
   4   3  11    2.95    0.65
   4   3  11    4.56    0.69
   4   3  11    3.78    0.58
  -5  -3 -11    0.00    0.53
  -5  -3 -11   -1.01    0.57
  -5  -3 -11   -0.45    0.61
  -5  -3 -11   -0.77    0.64
   5   3  11    0.03    0.68
   5   3  11    0.23    0.48
   5   3  11   -0.52    0.48
   5   3  11    0.09    0.61
   5   3  11    1.43    0.71
  -6  -3 -11    1.16    0.70
  -6  -3 -11    1.87    0.73
  -6  -3 -11    4.00    0.79
  -6  -3 -11    2.30    0.62
   6   3  11    1.36    0.79
   6   3  11    2.22    0.78
   6   3  11    0.90    0.71
   6   3  11    1.25    0.58
   5  -4 -11   25.81    0.99
   5  -4 -11   21.34    1.68
   5  -4 -11   19.29    1.65
   5  -4 -11   26.73    1.71
   5  -4 -11   27.14    1.47
  -5   4  11   25.78    1.36
  -5   4  11   22.11    1.64
  -5   4  11   23.69    1.39
   4  -4 -11    0.66    0.74
   4  -4 -11    0.38    0.67
   4  -4 -11    2.06    0.71
   4  -4 -11    1.04    0.54
   4  -4 -11    0.37    0.37
  -4   4  11    0.59    0.66
  -4   4  11    1.09    0.52
  -4   4  11    0.48    0.69
   3  -4 -11    3.02    0.71
   3  -4 -11    2.80    0.59
   3  -4 -11    2.12    0.71
   3  -4 -11    1.97    0.62
  -3   4  11    2.80    0.50
  -3   4  11    4.74    1.25
  -3   4  11    2.71    0.55
  -3   4  11    2.85    0.68
   2  -4 -11   14.60    1.21
   2  -4 -11   15.05    1.07
   2  -4 -11   15.59    1.21
   2  -4 -11   13.69    1.12
  -2   4  11   14.14    1.23
  -2   4  11   13.45    0.94
  -2   4  11   13.20    1.03
   1  -4 -11    2.77    0.58
   1  -4 -11    3.97    0.63
   1  -4 -11    3.95    0.57
   1  -4 -11    4.12    0.69
  -1   4  11    3.80    0.47
  -1   4  11    3.50    0.53
  -1   4  11    3.95    0.47
  -1   4  11    3.86    0.63
   0  -4 -11    1.12    0.55
   0  -4 -11    0.94    0.43
   0  -4 -11    1.42    0.53
   0  -4 -11    1.28    0.54
   0   4  11    1.07    0.40
   0   4  11    1.16    0.51
   0   4  11    1.23    0.40
   0   4  11    0.96    0.29
   0   4  11    1.06    0.48
  -1  -4 -11    3.40    0.51
  -1  -4 -11    3.74    0.64
  -1  -4 -11    3.07    0.56
  -1  -4 -11    3.86    0.60
   1   4  11    4.13    0.61
   1   4  11    4.40    0.59
   1   4  11    4.28    0.52
   1   4  11    4.19    0.50
  -2  -4 -11   12.38    0.96
  -2  -4 -11   12.73    1.14
  -2  -4 -11   14.75    1.09
  -2  -4 -11   12.73    1.07
   2   4  11   13.87    1.11
   2   4  11   11.86    1.00
   2   4  11   12.94    0.90
   2   4  11   12.69    0.86
  -3  -4 -11    6.00    0.73
  -3  -4 -11    5.84    0.70
  -3  -4 -11    6.57    0.63
   3   4  11    6.20    0.77
   3   4  11    6.81    0.81
   3   4  11    5.42    0.72
   3   4  11    4.39    0.62
   3   4  11    6.24    0.72
  -4  -4 -11    3.95    0.59
  -4  -4 -11    4.21    0.64
  -4  -4 -11    4.33    0.68
  -4  -4 -11    3.74    0.63
   4   4  11    3.89    0.75
   4   4  11    2.78    0.60
   4   4  11    3.86    0.70
   4   4  11    3.41    0.48
   4   4  11    3.85    0.51
  -5  -4 -11    3.65    0.63
  -5  -4 -11    4.44    0.65
  -5  -4 -11    4.82    0.74
  -5  -4 -11    5.16    0.73
   5   4  11    4.18    0.56
   5   4  11    4.48    0.76
   5   4  11    4.10    0.55
   5   4  11    3.62    0.75
   5   4  11    3.53    0.67
  -6  -4 -11   26.30    1.41
  -6  -4 -11   24.33    1.61
  -6  -4 -11   23.23    1.47
  -6  -4 -11   28.08    1.53
   6   4  11   25.57    1.56
   6   4  11   21.90    1.25
   6   4  11   27.63    1.54
   6   4  11   25.30    1.28
   6   4  11   27.32    1.71
  -7  -4 -11    4.10    0.79
  -7  -4 -11    3.47    0.69
  -7  -4 -11    3.53    0.86
  -7  -4 -11    3.58    0.76
   7   4  11    3.70    0.61
   7   4  11    3.43    0.80
   7   4  11    4.46    0.98
   5  -5 -11    0.43    0.71
   5  -5 -11   -0.27    0.75
   5  -5 -11    0.59    0.71
   5  -5 -11    0.64    0.62
  -5   5  11    0.45    0.54
  -5   5  11    1.24    0.75
  -5   5  11    0.88    0.55
  -5   5  11   -0.42    0.72
   4  -5 -11    0.64    0.69
   4  -5 -11    2.46    0.61
   4  -5 -11    1.85    0.36
   4  -5 -11    0.79    0.72
   4  -5 -11    2.02    0.73
  -4   5  11    0.83    0.40
  -4   5  11    1.64    0.70
  -4   5  11    1.76    0.74
  -4   5  11    1.03    0.51
  -4   5  11    1.94    0.72
   3  -5 -11    0.41    0.52
   3  -5 -11    0.47    0.60
   3  -5 -11   -0.04    0.62
  -3   5  11    0.08    0.55
  -3   5  11    0.76    0.65
  -3   5  11    0.73    0.64
  -3   5  11    0.17    0.44
  -3   5  11    0.69    0.43
   2  -5 -11    1.62    0.49
   2  -5 -11    1.89    0.60
   2  -5 -11    0.75    0.53
   2  -5 -11    1.11    0.54
  -2   5  11    0.63    0.56
  -2   5  11    1.64    0.51
  -2   5  11    1.88    0.46
  -2   5  11    1.49    0.40
  -2   5  11    1.94    0.67
   1  -5 -11    7.48    0.78
   1  -5 -11    5.15    0.61
   1  -5 -11    7.19    0.87
   1  -5 -11    7.11    0.76
  -1   5  11    5.95    0.73
  -1   5  11    7.50    0.78
  -1   5  11    8.18    1.05
  -1   5  11    7.62    0.79
  -1   5  11    8.45    0.73
   0  -5 -11    0.13    0.52
   0  -5 -11   -0.13    0.41
   0  -5 -11    0.16    0.49
   0  -5 -11    0.50    0.43
   0   5  11    0.47    0.35
   0   5  11    0.29    0.37
   0   5  11    1.16    0.49
   0   5  11    0.11    0.52
   0   5  11    0.37    0.31
   0   5  11   -0.70    0.62
  -1  -5 -11    5.52    0.66
  -1  -5 -11    7.29    0.92
  -1  -5 -11    5.63    0.62
  -1  -5 -11    5.45    0.58
   1   5  11    5.96    0.70
   1   5  11    5.38    0.65
   1   5  11    7.39    0.97
   1   5  11    6.86    0.69
  -2  -5 -11   21.55    1.22
  -2  -5 -11   24.29    1.15
  -2  -5 -11   23.71    1.29
  -2  -5 -11   24.94    1.26
   2   5  11   23.26    0.98
   2   5  11   23.32    1.24
   2   5  11   22.82    0.97
   2   5  11   20.85    1.24
  -3  -5 -11    2.52    0.52
  -3  -5 -11    1.98    0.57
  -3  -5 -11    3.14    0.54
  -3  -5 -11    3.21    0.57
   3   5  11    3.10    0.66
   3   5  11    2.85    0.41
   3   5  11    3.88    0.60
   3   5  11    2.37    0.60
   3   5  11    2.46    0.40
  -4  -5 -11    1.69    0.52
  -4  -5 -11    2.52    0.61
  -4  -5 -11    2.28    0.49
  -4  -5 -11    2.40    0.56
   4   5  11    2.71    0.72
   4   5  11    1.84    0.38
   4   5  11    1.29    0.52
   4   5  11    2.29    0.39
   4   5  11    2.07    0.62
  -5  -5 -11    2.08    0.54
  -5  -5 -11    1.46    0.56
  -5  -5 -11    2.58    0.54
  -5  -5 -11    2.90    0.61
   5   5  11    1.66    0.64
   5   5  11    1.40    0.57
   5   5  11    1.58    0.67
   5   5  11    2.00    0.41
  -6  -5 -11    0.20    0.58
  -6  -5 -11   -0.26    0.54
  -6  -5 -11   -0.32    0.49
  -6  -5 -11   -0.05    0.55
   6   5  11   -0.26    0.34
   6   5  11   -1.02    0.69
   6   5  11   -0.33    0.37
   6   5  11    0.00    0.59
   6   5  11   -1.44    0.61
  -7  -5 -11    8.07    0.92
  -7  -5 -11    5.81    0.77
  -7  -5 -11    8.52    0.84
  -7  -5 -11    6.37    0.78
   7   5  11    6.24    0.82
   7   5  11    5.52    0.89
   7   5  11    7.43    0.91
   7   5  11    8.68    0.89
   4  -6 -11    7.38    0.93
   4  -6 -11    6.92    0.92
   4  -6 -11    6.68    0.76
   4  -6 -11    5.72    0.83
  -4   6  11    6.34    0.89
  -4   6  11    5.55    0.62
  -4   6  11    7.02    0.89
  -4   6  11    5.16    0.84
   3  -6 -11    0.55    0.63
   3  -6 -11    1.87    0.61
   3  -6 -11    1.09    0.61
   3  -6 -11    0.58    0.53
  -3   6  11    1.36    0.64
  -3   6  11    1.42    0.64
  -3   6  11    1.50    0.45
  -3   6  11    0.37    0.35
  -3   6  11    1.90    0.68
   2  -6 -11   -0.35    0.51
   2  -6 -11   -0.86    0.50
   2  -6 -11   -0.97    0.53
   2  -6 -11    0.24    0.50
  -2   6  11    0.11    0.31
  -2   6  11    0.16    0.57
  -2   6  11   -0.28    0.49
  -2   6  11   -0.50    0.35
  -2   6  11   -0.68    0.55
   1  -6 -11   19.73    1.13
   1  -6 -11   21.20    1.27
   1  -6 -11   19.47    1.23
   1  -6 -11   17.42    1.22
  -1   6  11   19.02    1.28
  -1   6  11   20.04    0.91
  -1   6  11   19.88    1.25
  -1   6  11   20.44    1.05
   0  -6 -11    0.56    0.51
   0  -6 -11   -0.96    0.46
   0  -6 -11    0.46    0.43
   0  -6 -11   -1.16    0.46
   0   6  11   -0.50    0.47
   0   6  11    0.23    0.27
   0   6  11   -0.40    0.30
   0   6  11   -0.07    0.34
   0   6  11   -0.02    0.49
   0   6  11   -0.34    0.50
  -1  -6 -11    6.41    0.67
  -1  -6 -11    6.00    0.66
  -1  -6 -11    7.37    0.80
  -1  -6 -11    5.31    0.63
   1   6  11    6.73    0.74
   1   6  11    5.83    0.53
   1   6  11    5.76    0.90
   1   6  11    6.05    0.57
   1   6  11    5.77    0.63
  -2  -6 -11    4.70    0.54
  -2  -6 -11    3.73    0.56
  -2  -6 -11    4.87    0.60
  -2  -6 -11    4.03    0.58
   2   6  11    4.54    1.06
   2   6  11    5.50    0.65
   2   6  11    4.20    0.51
   2   6  11    4.02    0.65
  -3  -6 -11    0.79    0.42
  -3  -6 -11   -0.85    0.44
  -3  -6 -11   -0.94    0.43
  -3  -6 -11    0.15    0.47
   3   6  11    0.54    0.27
   3   6  11    0.67    0.60
   3   6  11   -0.08    0.47
   3   6  11    0.25    0.20
   3   6  11    0.25    0.57
  -4  -6 -11   18.31    1.12
  -4  -6 -11   19.02    1.19
  -4  -6 -11   16.90    1.04
   4   6  11   17.17    0.72
   4   6  11   17.50    1.23
   4   6  11   17.24    1.14
   4   6  11   18.00    1.27
  -5  -6 -11    0.98    0.53
  -5  -6 -11    0.56    0.53
  -5  -6 -11    1.14    0.52
  -5  -6 -11    2.18    0.53
   5   6  11    1.78    0.62
   5   6  11    1.29    0.28
   5   6  11    1.17    0.71
   5   6  11    0.48    0.51
  -6  -6 -11   -0.54    0.55
  -6  -6 -11    0.83    0.54
  -6  -6 -11   -1.12    0.51
  -6  -6 -11   -0.17    0.50
   6   6  11   -0.72    0.61
   6   6  11   -0.52    0.55
   6   6  11    0.08    0.24
   6   6  11   -0.14    0.22
   6   6  11   -0.06    0.77
  -7  -6 -11    0.17    0.60
  -7  -6 -11    1.53    0.68
  -7  -6 -11    0.50    0.60
  -7  -6 -11    1.25    0.57
   7   6  11    0.95    0.64
   7   6  11    1.59    0.65
   7   6  11    1.20    0.84
   3  -7 -11   13.87    1.38
   3  -7 -11   12.19    0.57
   3  -7 -11   14.55    1.32
   3  -7 -11   11.90    1.19
   3  -7 -11   12.36    1.26
  -3   7  11   13.64    0.88
  -3   7  11   15.62    1.36
  -3   7  11   14.03    1.38
  -3   7  11   13.32    1.29
   2  -7 -11   -0.04    0.56
   2  -7 -11   -0.85    0.46
   2  -7 -11    1.17    0.60
   2  -7 -11    0.79    0.60
  -2   7  11   -0.10    0.25
  -2   7  11    0.89    0.57
  -2   7  11    0.50    0.59
  -2   7  11    0.90    0.35
   1  -7 -11   10.05    1.08
   1  -7 -11    9.40    1.03
   1  -7 -11    9.15    1.11
   1  -7 -11    9.31    0.95
  -1   7  11    9.39    1.12
  -1   7  11    8.88    1.06
  -1   7  11    9.88    0.96
  -1   7  11    8.40    0.57
   0  -7 -11   14.06    0.97
   0  -7 -11   12.70    1.05
   0  -7 -11   13.27    1.08
   0  -7 -11   14.62    1.09
   0   7  11   13.84    1.09
   0   7  11   12.72    0.88
   0   7  11   13.81    1.13
  -1  -7 -11   44.06    1.68
  -1  -7 -11   44.65    1.59
  -1  -7 -11   43.60    1.68
  -1  -7 -11   43.29    1.67
   1   7  11   44.74    1.71
   1   7  11   43.95    1.72
   1   7  11   44.73    1.46
   1   7  11   46.16    1.80
  -2  -7 -11   36.62    1.51
  -2  -7 -11   38.77    1.45
  -2  -7 -11   36.17    1.50
  -2  -7 -11   37.52    1.50
   2   7  11   37.48    1.79
   2   7  11   37.61    1.52
   2   7  11   38.81    1.69
  -3  -7 -11    0.23    0.41
  -3  -7 -11   -0.42    0.43
  -3  -7 -11    0.65    0.45
  -3  -7 -11    0.42    0.49
   3   7  11    0.54    0.48
   3   7  11    0.61    0.53
   3   7  11    0.47    0.59
  -4  -7 -11    3.62    0.56
  -4  -7 -11    5.41    0.61
  -4  -7 -11    4.21    0.55
   4   7  11    3.45    0.58
   4   7  11    4.38    0.63
   4   7  11    3.58    0.72
  -5  -7 -11    5.66    0.58
  -5  -7 -11    3.88    0.58
  -5  -7 -11    5.77    0.63
  -5  -7 -11    5.18    0.64
   5   7  11    3.82    0.58
   5   7  11    5.25    0.87
   5   7  11    4.02    0.66
  -6  -7 -11    4.93    0.66
  -6  -7 -11    4.94    0.64
  -6  -7 -11    3.99    0.62
  -6  -7 -11    4.65    0.63
   6   7  11    4.01    0.90
   6   7  11    2.44    0.64
   2  -8 -11    2.23    0.65
   2  -8 -11    2.46    0.60
   2  -8 -11    2.19    0.61
   2  -8 -11    2.81    0.38
   2  -8 -11    1.88    0.64
  -2   8  11    2.26    0.68
  -2   8  11    1.73    0.68
  -2   8  11    1.46    0.63
   1  -8 -11    3.13    0.57
   1  -8 -11    2.51    0.57
   1  -8 -11    3.34    0.57
   1  -8 -11    3.18    0.66
  -1   8  11    2.35    0.62
  -1   8  11    2.23    0.62
   0  -8 -11    6.89    0.91
   0  -8 -11    5.45    0.61
   0  -8 -11    5.84    0.67
   0  -8 -11    8.36    0.90
   0   8  11    7.96    0.91
   0   8  11    7.75    1.02
  -1  -8 -11   11.59    0.95
  -1  -8 -11   11.91    0.94
  -1  -8 -11   12.44    1.04
  -1  -8 -11   12.17    0.93
   1   8  11   11.36    1.04
   1   8  11   12.77    1.21
   1   8  11   10.58    0.88
  -2  -8 -11    1.12    0.48
  -2  -8 -11    0.97    0.42
  -2  -8 -11    0.05    0.42
  -2  -8 -11    0.44    0.41
   2   8  11    0.60    0.64
   2   8  11    0.34    0.35
   2   8  11    0.42    0.48
  -3  -8 -11    0.41    0.42
  -3  -8 -11    0.53    0.40
  -3  -8 -11   -0.16    0.47
  -3  -8 -11    1.05    0.45
   3   8  11    0.45    0.72
   3   8  11    0.05    0.32
   3   8  11    0.82    0.50
  -4  -8 -11   13.04    0.96
  -4  -8 -11   12.97    0.88
  -4  -8 -11   13.94    0.95
  -4  -8 -11   12.70    1.03
   4   8  11   10.87    1.03
   4   8  11   15.19    1.36
  -5  -8 -11    2.10    0.50
  -5  -8 -11    1.89    0.49
  -5  -8 -11    2.13    0.54
  -5  -8 -11    1.58    0.44
   5   8  11    1.33    0.56
   5   8  11    1.95    0.76
  -6  -8 -11   16.92    1.20
  -6  -8 -11   17.59    1.10
  -6  -8 -11   15.05    0.98
  -6  -8 -11   16.62    1.12
   6   8  11   17.29    1.22
   6   8  11   17.09    1.50
   0  -9 -11    2.35    0.56
   0  -9 -11    3.64    0.54
   0  -9 -11    2.87    0.64
   0  -9 -11    3.35    0.50
   0  -9 -11    2.88    0.54
   0   9  11    4.18    0.68
   0   9  11    3.55    0.62
  -1  -9 -11    0.58    0.40
  -1  -9 -11    0.29    0.41
  -1  -9 -11    0.89    0.44
  -1  -9 -11    0.28    0.50
   1   9  11    0.27    0.49
  -2  -9 -11   18.58    1.05
  -2  -9 -11   17.88    0.98
  -2  -9 -11   18.09    0.93
  -2  -9 -11   17.39    1.13
   2   9  11   18.81    1.44
   2   9  11   18.39    1.10
  -3  -9 -11    0.17    0.36
  -3  -9 -11   -0.03    0.44
  -3  -9 -11   -0.34    0.37
  -3  -9 -11   -0.58    0.45
   3   9  11   -0.49    0.71
   3   9  11   -0.05    0.49
   3   9  11   -0.24    0.35
  -4  -9 -11    0.60    0.49
  -4  -9 -11    0.31    0.43
  -4  -9 -11    0.50    0.41
  -4  -9 -11   -0.04    0.39
   4   9  11    0.04    0.34
   4   9  11    0.41    0.71
   4   9  11   -0.08    0.46
   3   2 -12    1.05    0.90
   3   2 -12    2.39    0.94
   3   2 -12    2.67    0.73
   3   2 -12    1.21    0.69
  -3  -2  12    2.44    0.80
  -3  -2  12    1.32    0.80
  -3  -2  12    0.46    0.83
   2   2 -12    0.85    0.92
   2   2 -12    1.43    0.88
   2   2 -12    2.97    0.78
   2   2 -12    2.58    0.72
   2   2 -12    0.87    0.77
  -2  -2  12    0.19    0.56
  -2  -2  12    1.12    0.89
  -2  -2  12    2.10    0.91
  -2  -2  12    2.22    0.70
   1   2 -12   28.80    1.69
   1   2 -12   27.93    1.60
   1   2 -12   29.28    1.89
   1   2 -12   26.21    1.91
  -1  -2  12   26.10    1.95
  -1  -2  12   30.45    1.99
  -1  -2  12   29.67    1.91
  -1  -2  12   30.46    1.74
   0   2 -12    5.71    0.83
   0   2 -12    3.74    0.94
   0   2 -12    7.61    0.92
   0   2 -12    6.62    0.98
   0  -2  12    4.58    1.11
   0  -2  12    5.87    0.97
   0  -2  12    5.65    0.91
   4   1 -12    1.50    0.90
   4   1 -12    1.65    0.73
   4   1 -12    2.28    0.82
   4   1 -12    0.66    0.67
   4   1 -12    1.13    0.87
  -4  -1  12    1.16    0.80
  -4  -1  12    2.04    0.78
  -4  -1  12    2.78    0.88
  -4  -1  12    1.71    0.86
   3   1 -12    0.52    0.86
   3   1 -12    0.21    0.61
   3   1 -12   -0.74    0.82
   3   1 -12    0.04    0.62
   3   1 -12   -0.68    0.79
  -3  -1  12   -0.21    0.83
  -3  -1  12   -1.23    0.66
  -3  -1  12    0.54    0.89
  -3  -1  12    0.33    0.68
   2   1 -12    9.70    1.23
   2   1 -12    7.38    1.01
   2   1 -12    9.77    1.08
   2   1 -12   12.59    1.24
  -2  -1  12    9.14    1.06
  -2  -1  12    8.23    0.89
  -2  -1  12   11.45    1.17
  -2  -1  12   11.82    1.30
   1   1 -12   -0.67    0.83
   1   1 -12    0.53    0.56
   1   1 -12   -0.05    0.68
   1   1 -12   -0.02    0.78
  -1  -1  12    0.25    0.78
  -1  -1  12   -0.09    0.68
  -1  -1  12   -0.20    0.40
  -1  -1  12   -0.47    0.62
  -1  -1  12    0.31    0.83
   0   1 -12   26.97    1.70
   0   1 -12   30.91    1.53
   0   1 -12   30.58    1.86
   0   1 -12   26.97    1.85
   0  -1  12   28.65    1.63
   0  -1  12   27.81    1.87
   0  -1  12   28.97    1.10
   0  -1  12   28.97    1.63
   0  -1  12   27.25    1.79
  -1   1 -12   -0.33    0.78
  -1   1 -12    0.58    0.60
  -1   1 -12    0.64    0.73
  -1   1 -12   -0.05    0.77
   1  -1  12    1.67    0.51
   1  -1  12   -0.05    0.67
   1  -1  12    0.34    0.31
   1  -1  12    0.88    0.89
   1  -1  12    0.87    0.80
   1  -1  12   -0.68    0.63
  -2   1 -12    3.15    0.71
  -2   1 -12    1.57    0.82
  -2   1 -12    2.11    0.99
  -2   1 -12    1.43    0.95
   2  -1  12    1.84    0.75
   2  -1  12    2.81    0.62
   2  -1  12    2.19    0.71
   2  -1  12    2.03    0.94
   2  -1  12    3.01    1.01
   4   0 -12    2.13    0.68
   4   0 -12    1.02    0.67
   4   0 -12    1.75    0.68
   4   0 -12    1.68    0.92
   4   0 -12    0.45    0.86
  -4   0  12    1.05    0.86
  -4   0  12    1.36    0.82
  -4   0  12    1.22    0.73
  -4   0  12    2.13    0.72
   3   0 -12    8.69    1.16
   3   0 -12    9.60    1.03
   3   0 -12    6.86    0.84
   3   0 -12    9.12    1.05
   3   0 -12   12.82    1.22
  -3   0  12   10.62    1.24
  -3   0  12   11.07    1.32
  -3   0  12   11.36    1.47
  -3   0  12    7.91    0.97
   2   0 -12    0.21    0.73
   2   0 -12    0.46    0.59
   2   0 -12    0.59    0.71
   2   0 -12   -0.73    0.71
  -2   0  12   -0.38    0.63
  -2   0  12   -0.49    0.73
  -2   0  12   -0.63    0.61
  -2   0  12    0.06    0.71
   1   0 -12   -0.18    0.73
   1   0 -12    1.35    0.62
   1   0 -12    1.16    0.81
   1   0 -12    0.35    0.73
  -1   0  12    0.20    0.60
  -1   0  12   -0.72    0.35
  -1   0  12    0.94    0.59
  -1   0  12    0.46    0.67
  -1   0  12    0.07    0.76
   0   0 -12    0.55    0.58
   0   0 -12    0.30    0.73
   0   0 -12   -0.79    0.64
   0   0 -12    1.30    0.72
   0   0  12    0.12    0.27
   0   0  12    0.51    0.61
   0   0  12    1.81    0.66
   0   0  12    0.49    0.77
   0   0  12    0.33    0.72
   0   0  12    0.28    0.41
  -1   0 -12   31.35    1.58
  -1   0 -12   30.41    1.70
  -1   0 -12   33.73    1.86
  -1   0 -12   28.66    1.82
   1   0  12   35.88    1.84
   1   0  12   30.83    1.28
   1   0  12   30.26    1.89
   1   0  12   29.99    1.60
   1   0  12   31.11    1.62
  -2   0 -12   20.37    1.50
  -2   0 -12   22.39    1.46
  -2   0 -12   17.50    1.60
  -2   0 -12   18.06    1.65
   2   0  12   20.35    1.45
   2   0  12   18.38    1.75
   2   0  12   20.82    1.60
   2   0  12   19.30    1.45
   2   0  12   20.77    1.15
  -3   0 -12    0.76    0.68
  -3   0 -12    2.45    0.88
  -3   0 -12   -0.47    0.68
  -3   0 -12    0.97    0.79
   3   0  12    0.93    0.75
   3   0  12    2.11    0.70
   3   0  12    0.82    0.73
   3   0  12    0.83    0.86
   3   0  12    1.72    0.61
   5  -1 -12    4.08    0.99
   5  -1 -12    4.49    0.95
   5  -1 -12    6.48    0.74
   5  -1 -12    2.71    0.65
  -5   1  12    4.80    0.76
  -5   1  12    4.99    0.90
  -5   1  12    2.85    0.90
  -5   1  12    3.93    0.79
   4  -1 -12    1.36    0.85
   4  -1 -12    0.04    0.64
   4  -1 -12    0.65    0.65
   4  -1 -12   -0.99    0.74
   4  -1 -12   -0.67    0.54
  -4   1  12    0.47    0.61
  -4   1  12    0.89    0.86
  -4   1  12   -0.24    0.70
  -4   1  12   -0.94    0.62
   3  -1 -12    8.87    0.91
   3  -1 -12   11.45    1.11
   3  -1 -12   14.51    1.52
   3  -1 -12   12.04    1.18
   3  -1 -12   12.52    1.50
  -3   1  12   11.34    1.17
  -3   1  12   10.46    1.25
  -3   1  12   11.73    1.38
  -3   1  12   10.61    1.46
   2  -1 -12   -0.72    0.71
   2  -1 -12   -0.28    0.70
   2  -1 -12    0.54    0.65
   2  -1 -12    0.15    0.53
  -2   1  12    0.03    0.69
  -2   1  12    1.17    0.61
  -2   1  12   -0.53    0.68
  -2   1  12   -0.02    0.52
   1  -1 -12   14.20    1.32
   1  -1 -12   16.61    1.49
   1  -1 -12   15.54    1.18
   1  -1 -12   15.09    1.43
  -1   1  12   16.76    1.49
  -1   1  12   14.65    0.83
  -1   1  12   17.31    1.43
  -1   1  12   15.36    1.28
   0  -1 -12   -0.20    0.54
   0  -1 -12    0.41    0.63
   0  -1 -12   -0.88    0.72
   0  -1 -12   -0.13    0.64
   0   1  12    0.21    0.23
   0   1  12   -0.38    0.51
   0   1  12   -0.36    0.71
   0   1  12    0.51    0.52
   0   1  12   -0.23    0.69
   0   1  12    0.23    0.40
  -1  -1 -12    9.97    1.04
  -1  -1 -12   10.77    1.14
  -1  -1 -12   12.70    1.40
  -1  -1 -12   10.70    1.30
   1   1  12   13.31    1.34
   1   1  12   11.07    1.18
   1   1  12   10.82    1.42
   1   1  12   11.33    1.16
   1   1  12   11.63    0.91
  -2  -1 -12    1.57    0.76
  -2  -1 -12    0.72    0.60
  -2  -1 -12    0.30    0.72
  -2  -1 -12    1.68    0.70
   2   1  12   -0.11    0.62
   2   1  12    0.29    0.57
   2   1  12    0.94    0.55
   2   1  12    0.78    0.82
   2   1  12    1.07    0.58
  -3  -1 -12    0.14    0.78
  -3  -1 -12    0.01    0.67
  -3  -1 -12   -0.40    0.68
  -3  -1 -12   -0.73    0.59
   3   1  12    0.04    0.60
   3   1  12    0.89    0.69
   3   1  12    0.71    0.64
   3   1  12    1.09    0.57
   3   1  12    0.55    0.87
  -4  -1 -12   18.87    1.64
  -4  -1 -12   19.66    1.78
  -4  -1 -12   20.75    1.47
  -4  -1 -12   18.25    1.55
   4   1  12   17.58    1.68
   4   1  12   20.62    1.68
   4   1  12   20.97    1.37
   4   1  12   20.41    1.45
   4   1  12   20.80    1.52
   5  -2 -12    0.88    0.91
   5  -2 -12   -0.71    0.88
   5  -2 -12   -0.06    0.63
   5  -2 -12    0.86    0.51
  -5   2  12   -0.56    0.57
  -5   2  12    0.98    1.15
  -5   2  12   -0.29    0.77
  -5   2  12    0.18    0.70
   4  -2 -12    4.40    0.86
   4  -2 -12    4.94    0.89
   4  -2 -12    3.01    0.70
   4  -2 -12    4.60    0.66
   4  -2 -12    4.29    0.73
  -4   2  12    5.46    0.78
  -4   2  12    4.72    0.91
  -4   2  12    5.05    0.75
  -4   2  12    3.24    0.87
   3  -2 -12    3.33    0.78
   3  -2 -12    3.35    0.70
   3  -2 -12    3.98    0.86
   3  -2 -12    1.90    0.66
   3  -2 -12    4.47    0.66
  -3   2  12    2.98    0.60
  -3   2  12    4.10    0.85
  -3   2  12    4.32    0.68
  -3   2  12    3.60    0.82
   2  -2 -12    0.26    0.65
   2  -2 -12    0.46    0.65
   2  -2 -12    0.49    0.54
   2  -2 -12   -0.52    0.68
  -2   2  12   -0.45    0.65
  -2   2  12   -0.14    0.49
  -2   2  12   -0.11    0.65
  -2   2  12   -0.85    0.54
   1  -2 -12   63.48    2.38
   1  -2 -12   61.48    2.36
   1  -2 -12   59.20    2.22
   1  -2 -12   60.97    2.12
  -1   2  12   59.37    2.35
  -1   2  12   60.02    1.89
  -1   2  12   61.41    2.40
  -1   2  12   61.27    2.14
  -1   2  12   60.76    2.29
   0  -2 -12   21.46    1.23
   0  -2 -12   19.10    1.48
   0  -2 -12   18.72    1.49
   0  -2 -12   20.70    1.39
   0   2  12   22.56    1.28
   0   2  12   19.37    1.03
   0   2  12   19.30    1.45
   0   2  12   20.13    1.52
  -1  -2 -12   11.68    1.11
  -1  -2 -12   11.07    1.37
  -1  -2 -12   12.10    1.31
   1   2  12   12.32    0.95
   1   2  12   12.78    1.32
   1   2  12   10.28    1.35
   1   2  12   12.50    1.11
  -2  -2 -12   16.07    1.23
  -2  -2 -12   16.73    1.34
  -2  -2 -12   16.34    1.43
  -2  -2 -12   15.28    1.39
   2   2  12   12.49    1.49
   2   2  12   15.88    1.41
   2   2  12   15.52    1.06
   2   2  12   15.34    1.19
  -3  -2 -12    4.20    0.88
  -3  -2 -12    4.28    0.71
  -3  -2 -12    2.37    0.63
  -3  -2 -12    3.99    0.80
   3   2  12    4.09    0.68
   3   2  12    4.53    0.93
   3   2  12    3.32    0.64
   3   2  12    3.51    0.66
   3   2  12    2.82    0.72
  -4  -2 -12    2.27    0.85
  -4  -2 -12    2.10    0.72
  -4  -2 -12    1.11    0.66
  -4  -2 -12    1.24    0.61
   4   2  12    1.22    0.76
   4   2  12    2.86    0.71
   4   2  12    2.60    0.69
   4   2  12    1.40    0.72
   4   2  12    1.68    0.61
  -5  -2 -12    4.39    0.82
  -5  -2 -12    4.59    0.93
  -5  -2 -12    4.60    1.01
  -5  -2 -12    6.53    0.79
   5   2  12    5.82    0.82
   5   2  12    9.57    1.26
   5   2  12    5.60    0.78
   5   2  12    6.52    0.99
   4  -3 -12    1.19    0.83
   4  -3 -12    1.51    0.79
   4  -3 -12    2.77    0.71
   4  -3 -12    1.87    0.51
   4  -3 -12    1.37    0.74
  -4   3  12    1.56    0.62
  -4   3  12    0.80    0.68
  -4   3  12    1.82    0.64
  -4   3  12    2.29    0.82
   3  -3 -12    0.12    0.66
   3  -3 -12    0.01    0.54
   3  -3 -12   -0.24    0.71
   3  -3 -12    0.18    0.65
  -3   3  12    0.60    0.58
  -3   3  12   -0.15    0.65
  -3   3  12    0.75    0.53
  -3   3  12   -0.44    0.73
   2  -3 -12   10.30    0.95
   2  -3 -12   10.93    1.33
   2  -3 -12   11.49    1.11
   2  -3 -12   10.66    1.04
  -2   3  12    9.25    1.28
  -2   3  12    8.90    0.98
  -2   3  12   10.40    1.08
   1  -3 -12  113.70    3.45
   1  -3 -12  108.36    3.31
   1  -3 -12  108.90    3.22
   1  -3 -12  109.73    3.43
  -1   3  12  109.41    3.47
  -1   3  12  103.92    3.18
  -1   3  12  103.78    3.40
   0  -3 -12    5.59    0.85
   0  -3 -12    8.64    1.16
   0  -3 -12    6.45    0.67
   0  -3 -12    4.79    0.68
   0   3  12    5.82    0.85
   0   3  12    5.57    0.43
   0   3  12    7.10    1.44
   0   3  12    5.85    0.66
   0   3  12    6.86    0.85
  -1  -3 -12   60.23    2.25
  -1  -3 -12   57.16    2.16
  -1  -3 -12   60.90    2.04
  -1  -3 -12   59.38    2.21
   1   3  12   59.07    2.26
   1   3  12   47.51    1.91
   1   3  12   58.85    1.95
   1   3  12   58.16    2.00
   1   3  12   58.96    2.82
  -2  -3 -12    0.56    0.67
  -2  -3 -12   -0.55    0.57
  -2  -3 -12   -0.53    0.51
   2   3  12    0.16    0.73
   2   3  12   -0.72    0.47
   2   3  12   -0.03    0.51
   2   3  12   -0.42    0.43
   2   3  12    0.27    0.63
  -3  -3 -12    0.40    0.58
  -3  -3 -12   -0.08    0.54
  -3  -3 -12   -0.34    0.65
  -3  -3 -12    1.09    0.65
   3   3  12    0.30    0.56
   3   3  12    1.21    0.64
   3   3  12    1.01    0.70
   3   3  12   -0.15    0.48
   3   3  12    0.30    0.54
  -4  -3 -12    0.53    0.67
  -4  -3 -12    1.25    0.64
  -4  -3 -12    1.03    0.67
  -4  -3 -12    1.79    0.77
   4   3  12    0.24    0.53
   4   3  12    0.57    0.63
   4   3  12    0.81    0.69
   4   3  12    0.83    0.78
  -5  -3 -12   -0.66    0.61
  -5  -3 -12    0.09    0.63
  -5  -3 -12    1.25    0.62
  -5  -3 -12    1.10    0.76
   5   3  12   -0.20    0.67
   5   3  12    0.42    0.60
   5   3  12    0.92    0.59
   5   3  12   -0.33    0.67
   5   3  12    0.34    0.72
   4  -4 -12    9.75    0.87
   4  -4 -12   10.03    1.04
   4  -4 -12   13.11    1.50
   4  -4 -12   11.84    1.45
   4  -4 -12   12.71    1.24
  -4   4  12    7.78    1.12
  -4   4  12   10.51    1.46
  -4   4  12   11.50    1.17
  -4   4  12   13.01    1.19
   3  -4 -12    3.26    0.80
   3  -4 -12    1.34    0.62
   3  -4 -12    1.20    0.77
   3  -4 -12    1.43    0.57
  -3   4  12    1.63    0.75
  -3   4  12    1.98    0.57
  -3   4  12    1.91    0.83
   2  -4 -12    0.88    0.55
   2  -4 -12    0.30    0.65
   2  -4 -12    1.23    0.70
   2  -4 -12    1.65    0.61
  -2   4  12    0.27    0.69
  -2   4  12   -0.28    0.39
  -2   4  12    0.85    0.52
  -2   4  12    1.03    0.68
  -2   4  12    1.17    0.48
   1  -4 -12    0.10    0.53
   1  -4 -12    0.91    0.52
   1  -4 -12   -0.16    0.61
   1  -4 -12    1.24    0.67
  -1   4  12    1.11    0.40
  -1   4  12    0.96    0.49
  -1   4  12    1.72    0.66
  -1   4  12    1.51    0.50
  -1   4  12    1.04    0.62
   0  -4 -12    1.14    0.61
   0  -4 -12    0.81    0.59
   0  -4 -12    0.13    0.44
   0  -4 -12    0.91    0.63
   0   4  12   -0.53    0.42
   0   4  12    0.43    0.59
   0   4  12    0.25    0.61
   0   4  12   -0.12    0.46
   0   4  12   -0.35    0.41
   0   4  12    0.20    0.26
  -1  -4 -12    1.01    0.56
  -1  -4 -12    1.28    0.63
  -1  -4 -12    1.17    0.61
  -1  -4 -12    1.45    0.53
   1   4  12    1.33    0.63
   1   4  12    0.74    0.47
   1   4  12    1.16    0.49
   1   4  12    2.35    0.55
   1   4  12    1.76    0.68
  -2  -4 -12   38.93    1.76
  -2  -4 -12   37.48    1.67
  -2  -4 -12   37.76    1.57
  -2  -4 -12   33.64    1.64
   2   4  12   36.77    1.55
   2   4  12   37.69    1.47
   2   4  12   38.19    1.74
   2   4  12   36.94    1.79
   2   4  12   35.93    1.44
  -3  -4 -12    2.15    0.53
  -3  -4 -12    2.30    0.69
  -3  -4 -12    3.10    0.66
  -3  -4 -12    2.07    0.61
   3   4  12    2.95    0.54
   3   4  12    3.65    0.67
   3   4  12    2.67    0.52
   3   4  12    3.71    0.75
   3   4  12    3.47    0.78
  -4  -4 -12   14.08    1.29
  -4  -4 -12   15.55    1.20
  -4  -4 -12   15.65    1.42
  -4  -4 -12   14.53    1.32
   4   4  12   13.21    1.05
   4   4  12   16.62    1.36
   4   4  12   14.67    1.23
   4   4  12   14.85    1.04
   4   4  12   12.94    1.46
  -5  -4 -12    3.65    0.72
  -5  -4 -12    2.99    0.67
  -5  -4 -12    3.02    0.75
  -5  -4 -12    3.65    0.64
   5   4  12    3.16    0.77
   5   4  12    2.86    0.59
   5   4  12    5.15    0.90
   5   4  12    4.05    0.61
   5   4  12    3.69    0.81
   3  -5 -12    1.23    0.71
   3  -5 -12    0.24    0.65
   3  -5 -12    1.56    0.63
  -3   5  12    0.52    0.43
  -3   5  12    0.42    0.68
  -3   5  12    0.78    0.51
  -3   5  12    1.75    0.65
  -3   5  12    1.29    0.69
   2  -5 -12   10.12    1.22
   2  -5 -12   11.79    1.13
   2  -5 -12   11.48    1.27
  -2   5  12   10.81    1.32
  -2   5  12    9.51    0.92
  -2   5  12   10.06    0.98
  -2   5  12   11.88    1.30
  -2   5  12    9.74    0.95
   1  -5 -12   11.56    1.19
   1  -5 -12   11.60    1.23
   1  -5 -12   11.84    1.04
   1  -5 -12    9.68    1.14
  -1   5  12    9.32    0.91
  -1   5  12   10.24    0.89
  -1   5  12   10.61    0.82
  -1   5  12    7.57    0.83
  -1   5  12   10.74    1.29
   0  -5 -12    2.53    0.63
   0  -5 -12    4.33    0.71
   0  -5 -12    3.60    0.72
   0  -5 -12    3.50    0.61
   0   5  12    3.42    0.59
   0   5  12    4.94    0.75
   0   5  12    3.93    0.52
   0   5  12    4.60    0.53
   0   5  12    4.81    0.77
   0   5  12    4.47    0.53
  -1  -5 -12    0.14    0.58
  -1  -5 -12    0.23    0.55
  -1  -5 -12    0.25    0.47
  -1  -5 -12   -1.15    0.54
   1   5  12    0.50    0.56
   1   5  12    0.54    0.42
   1   5  12    0.02    0.40
   1   5  12    1.12    0.64
   1   5  12    0.29    0.55
  -2  -5 -12   -0.54    0.57
  -2  -5 -12    0.25    0.54
  -2  -5 -12    0.07    0.51
  -2  -5 -12   -0.13    0.48
   2   5  12   -0.08    0.55
   2   5  12    0.28    0.61
   2   5  12    0.25    0.37
   2   5  12    0.42    0.54
   2   5  12    0.34    0.40
  -3  -5 -12   10.44    1.10
  -3  -5 -12    8.66    1.15
  -3  -5 -12    9.93    1.01
   3   5  12   11.65    0.86
   3   5  12   11.53    1.15
   3   5  12    8.62    0.90
   3   5  12   10.74    1.11
  -4  -5 -12    0.49    0.57
  -4  -5 -12   -1.11    0.60
  -4  -5 -12    0.48    0.62
  -4  -5 -12   -0.21    0.52
   4   5  12   -0.13    0.62
   4   5  12   -0.12    0.57
   4   5  12   -0.60    0.67
   4   5  12   -0.16    0.33
   4   5  12    0.43    0.41
  -5  -5 -12   -0.73    0.58
  -5  -5 -12    0.92    0.54
  -5  -5 -12    0.15    0.60
  -5  -5 -12   -0.99    0.61
   5   5  12    0.86    0.72
   5   5  12   -0.28    0.43
   5   5  12    0.52    0.38
   5   5  12    0.21    0.63
   5   5  12   -0.64    0.72
   3  -6 -12    1.62    0.75
   3  -6 -12    1.81    0.63
   3  -6 -12    2.12    0.81
   3  -6 -12    2.77    0.75
   3  -6 -12    2.16    0.43
  -3   6  12    2.51    0.81
  -3   6  12    3.08    0.54
   2  -6 -12   -0.81    0.65
   2  -6 -12   -0.21    0.51
   2  -6 -12   -0.90    0.59
   2  -6 -12    0.18    0.61
  -2   6  12   -0.36    0.41
  -2   6  12   -0.56    0.65
  -2   6  12   -0.03    0.57
  -2   6  12    0.06    0.68
  -2   6  12   -0.24    0.34
   1  -6 -12    4.86    0.69
   1  -6 -12    4.39    0.68
   1  -6 -12    5.52    0.64
   1  -6 -12    4.92    0.73
  -1   6  12    6.05    0.78
  -1   6  12    6.67    0.82
  -1   6  12    6.29    0.81
  -1   6  12    6.62    0.77
   0  -6 -12    8.83    1.10
   0  -6 -12    9.36    0.98
   0  -6 -12    7.70    0.78
   0  -6 -12    8.74    1.12
   0   6  12    8.60    1.15
   0   6  12    8.61    0.68
   0   6  12    7.91    1.04
   0   6  12    7.93    0.76
   0   6  12    8.98    0.91
  -1  -6 -12   21.89    1.29
  -1  -6 -12   20.20    1.16
  -1  -6 -12   20.16    1.35
  -1  -6 -12   19.52    1.26
   1   6  12   19.18    1.37
   1   6  12   20.85    1.29
   1   6  12   20.48    1.30
   1   6  12   21.07    0.93
  -2  -6 -12    3.46    0.62
  -2  -6 -12    2.83    0.66
  -2  -6 -12    2.71    0.61
  -2  -6 -12    2.99    0.55
   2   6  12    3.76    0.71
   2   6  12    2.46    0.63
   2   6  12    3.16    0.41
   2   6  12    2.91    0.67
  -3  -6 -12    2.20    0.62
  -3  -6 -12    2.56    0.61
  -3  -6 -12    3.52    0.54
  -3  -6 -12    2.79    0.62
   3   6  12    2.62    0.68
   3   6  12    2.72    0.63
   3   6  12    1.87    0.69
   3   6  12    3.35    0.40
  -4  -6 -12   -0.39    0.52
  -4  -6 -12    0.09    0.59
  -4  -6 -12    0.41    0.57
  -4  -6 -12    0.72    0.53
   4   6  12    0.83    0.58
   4   6  12   -0.43    0.64
   4   6  12    0.41    0.63
   4   6  12    0.38    0.32
   4   6  12   -0.26    0.26
  -5  -6 -12    0.33    0.59
  -5  -6 -12    0.19    0.51
  -5  -6 -12   -0.34    0.60
  -5  -6 -12   -0.24    0.58
   5   6  12   -0.03    0.56
   5   6  12   -0.08    0.30
   5   6  12   -0.47    0.76
   5   6  12    0.33    0.28
   5   6  12   -0.38    0.65
   1  -7 -12   11.70    1.08
   1  -7 -12    9.09    0.86
   1  -7 -12   11.14    1.22
   1  -7 -12   10.49    1.16
  -1   7  12    7.16    0.82
  -1   7  12    9.34    0.95
  -1   7  12    7.33    0.63
  -1   7  12   11.69    1.32
   0  -7 -12   22.54    1.39
   0  -7 -12   21.31    1.38
   0  -7 -12   22.86    1.25
   0  -7 -12   23.37    1.38
   0   7  12   22.83    1.08
   0   7  12   25.89    1.49
   0   7  12   24.28    1.40
  -1  -7 -12   35.20    1.48
  -1  -7 -12   34.20    1.60
  -1  -7 -12   34.60    1.60
  -1  -7 -12   35.66    1.58
   1   7  12   34.57    1.63
   1   7  12   33.60    1.65
   1   7  12   37.06    1.63
  -2  -7 -12    5.18    0.61
  -2  -7 -12    4.31    0.66
  -2  -7 -12    5.44    0.70
  -2  -7 -12    4.69    0.67
   2   7  12    4.84    0.72
   2   7  12    5.73    0.68
   2   7  12    5.34    0.77
  -3  -7 -12   -0.58    0.48
  -3  -7 -12   -0.31    0.50
  -3  -7 -12    0.20    0.55
  -3  -7 -12   -0.24    0.49
   3   7  12    0.33    0.71
   3   7  12   -0.29    0.54
   3   7  12    0.16    0.61
  -4  -7 -12    5.43    0.62
  -4  -7 -12    5.74    0.68
  -4  -7 -12    6.73    0.74
   4   7  12    6.13    0.72
   4   7  12    6.90    0.92
   4   7  12    6.26    0.78
  -5  -7 -12    6.41    0.67
  -5  -7 -12    8.09    1.08
  -5  -7 -12    5.80    0.71
  -5  -7 -12    6.03    0.77
   5   7  12    3.77    0.75
   5   7  12    5.95    0.97
   0  -8 -12   11.36    1.11
   0  -8 -12    7.92    1.08
   0  -8 -12    7.54    0.74
   0  -8 -12   10.30    1.20
   0   8  12    9.70    1.25
  -1  -8 -12    5.87    0.63
  -1  -8 -12    5.26    0.66
  -1  -8 -12    7.64    1.02
  -1  -8 -12    5.80    0.72
   1   8  12    6.10    0.76
   1   8  12    5.61    0.87
  -2  -8 -12    5.84    0.65
  -2  -8 -12    4.08    0.57
  -2  -8 -12    5.12    0.64
  -2  -8 -12    4.49    0.66
   2   8  12    5.00    0.83
   2   8  12    4.26    0.69
  -3  -8 -12    0.07    0.49
  -3  -8 -12   -0.02    0.46
  -3  -8 -12    0.57    0.58
  -3  -8 -12   -0.66    0.48
   3   8  12   -0.54    0.56
   3   8  12   -0.08    0.41
   3   8  12   -0.06    0.76
   1   0 -13   -0.36    0.88
   1   0 -13    0.42    0.67
   1   0 -13    0.28    0.83
  -1   0  13    0.46    0.83
  -1   0  13    1.44    0.85
  -1   0  13    0.20    0.60
  -1   0  13    1.46    0.76
   0   0 -13    1.43    0.90
   0   0 -13    3.32    0.89
   0   0 -13    2.55    0.66
   0   0  13    4.09    0.98
   0   0  13    2.41    0.86
   0   0  13    3.17    0.70
   0   0  13    2.91    0.82
   2  -1 -13    6.94    1.09
   2  -1 -13    7.36    1.07
   2  -1 -13    7.18    0.83
  -2   1  13    4.67    0.90
  -2   1  13    6.09    0.96
  -2   1  13    8.22    0.86
  -2   1  13    5.16    0.81
   1  -1 -13    4.79    0.76
   1  -1 -13    2.94    0.86
   1  -1 -13    4.44    0.95
   1  -1 -13    5.01    1.06
  -1   1  13    5.16    0.81
  -1   1  13    3.51    0.86
  -1   1  13    5.31    0.93
  -1   1  13    4.24    0.71
   0  -1 -13    6.85    0.82
   0  -1 -13    4.88    0.94
   0  -1 -13    5.68    0.99
   0   1  13    6.08    0.85
   0   1  13    8.93    1.06
   0   1  13    4.95    0.75
   0   1  13    6.59    0.81
   0   1  13    6.62    1.02
  -1  -1 -13    1.58    0.65
  -1  -1 -13    0.25    0.80
  -1  -1 -13    2.04    0.99
  -1  -1 -13    1.42    0.91
   1   1  13    1.60    0.53
   1   1  13    1.16    0.81
   1   1  13    1.51    0.74
   1   1  13    2.17    0.81
   1   1  13    0.73    0.64
  -2  -1 -13    1.27    0.69
  -2  -1 -13   -0.36    0.80
  -2  -1 -13    0.56    0.82
   2   1  13    2.08    0.58
   2   1  13    1.61    0.76
   2   1  13    0.35    0.84
   2   1  13   -0.24    0.66
   3  -2 -13   -0.10    0.86
   3  -2 -13    0.26    0.84
   3  -2 -13    0.77    0.62
  -3   2  13    0.05    0.63
  -3   2  13    0.63    0.66
  -3   2  13    1.22    0.91
   2  -2 -13    7.69    0.96
   2  -2 -13    7.74    1.03
   2  -2 -13    5.26    0.78
   2  -2 -13    6.72    0.78
  -2   2  13    7.42    0.96
  -2   2  13    7.90    1.05
  -2   2  13   10.05    1.23
  -2   2  13    6.85    0.76
   1  -2 -13    4.40    0.72
   1  -2 -13    4.87    0.90
   1  -2 -13    3.90    0.90
   1  -2 -13    4.76    0.82
  -1   2  13    4.01    0.90
  -1   2  13    2.59    0.65
  -1   2  13    2.39    0.63
  -1   2  13    6.74    0.90
   0  -2 -13   14.54    1.56
   0  -2 -13   12.65    1.60
   0  -2 -13   12.88    1.46
   0  -2 -13   13.99    1.24
   0   2  13   14.74    1.33
   0   2  13   15.79    0.99
   0   2  13   12.46    1.58
   0   2  13   14.37    1.48
   0   2  13   14.22    1.28
  -1  -2 -13   26.10    1.70
  -1  -2 -13   25.69    1.45
  -1  -2 -13   22.45    1.77
   1   2  13   23.79    1.52
   1   2  13   25.07    1.76
   1   2  13   24.82    1.74
   1   2  13   22.90    1.21
   1   2  13   24.31    1.47
  -2  -2 -13    6.82    0.79
  -2  -2 -13    6.99    1.01
  -2  -2 -13    7.69    1.02
  -2  -2 -13    7.97    0.89
   2   2  13    7.98    0.86
   2   2  13    7.99    1.17
   2   2  13    8.96    0.90
   2   2  13    8.69    1.03
   2   2  13   10.08    1.09
  -3  -2 -13    2.63    0.97
  -3  -2 -13    2.73    0.72
  -3  -2 -13    0.86    0.83
   3   2  13    1.12    0.71
   3   2  13    1.59    0.68
   3   2  13    1.46    0.76
   3  -3 -13    3.99    0.90
   3  -3 -13    5.01    0.78
  -3   3  13    5.38    0.77
  -3   3  13    5.32    0.81
   2  -3 -13    6.19    0.93
   2  -3 -13    7.32    0.92
   2  -3 -13    5.91    0.75
   2  -3 -13    6.81    0.94
  -2   3  13    9.51    1.17
  -2   3  13    7.96    0.83
  -2   3  13    4.50    0.85
  -2   3  13    6.84    0.94
   1  -3 -13   10.87    1.08
   1  -3 -13    9.79    1.18
   1  -3 -13    9.61    1.06
   1  -3 -13   11.35    1.38
  -1   3  13   11.91    1.16
  -1   3  13   10.81    1.41
  -1   3  13    7.97    0.98
  -1   3  13   10.25    1.13
  -1   3  13    8.50    0.68
   0  -3 -13   39.54    1.92
   0  -3 -13   35.55    1.82
   0  -3 -13   39.89    2.01
   0  -3 -13   37.42    1.64
   0   3  13   35.93    1.46
   0   3  13   38.73    1.95
   0   3  13   35.08    1.63
   0   3  13   36.75    1.64
   0   3  13   33.76    1.93
  -1  -3 -13    1.24    0.83
  -1  -3 -13    0.49    0.72
  -1  -3 -13    0.51    0.75
  -1  -3 -13    0.65    0.58
   1   3  13    0.25    0.72
   1   3  13    1.71    0.59
   1   3  13    1.20    0.53
   1   3  13    0.88    0.59
   1   3  13   -0.21    0.77
  -2  -3 -13   40.33    1.94
  -2  -3 -13   43.94    1.85
  -2  -3 -13   43.89    2.04
  -2  -3 -13   43.70    2.07
   2   3  13   47.35    1.72
   2   3  13   43.14    2.03
   2   3  13   40.00    1.74
   2   3  13   36.76    2.08
   2   3  13   41.50    1.75
  -3  -3 -13    2.67    0.76
  -3  -3 -13    3.05    0.69
  -3  -3 -13    1.31    0.78
  -3  -3 -13    3.31    0.87
   3   3  13    1.70    0.59
   3   3  13    1.35    0.76
   3   3  13    3.81    0.74
   3   3  13    3.38    0.68
   2  -4 -13   24.69    1.71
   2  -4 -13   22.91    1.65
   2  -4 -13   24.15    1.47
   2  -4 -13   20.97    1.58
  -2   4  13   24.56    1.73
  -2   4  13   24.59    1.21
  -2   4  13   23.46    1.34
  -2   4  13   24.36    1.40
   1  -4 -13    0.34    0.58
   1  -4 -13   -0.12    0.62
   1  -4 -13   -0.57    0.74
   1  -4 -13    0.00    0.71
  -1   4  13    0.30    0.36
  -1   4  13    0.78    0.55
  -1   4  13    1.27    0.73
  -1   4  13    0.85    0.74
   0  -4 -13    3.93    0.85
   0  -4 -13    4.83    0.77
   0  -4 -13    2.81    0.58
   0  -4 -13    3.18    0.73
   0   4  13    4.52    0.85
   0   4  13    4.88    0.61
   0   4  13    3.12    0.79
   0   4  13    4.25    0.62
  -1  -4 -13    0.17    0.68
  -1  -4 -13    0.41    0.66
  -1  -4 -13    2.10    0.76
  -1  -4 -13    1.75    0.59
   1   4  13    1.10    0.70
   1   4  13    1.00    0.54
   1   4  13    0.46    0.71
   1   4  13    0.28    0.54
   1   4  13    1.58    0.55
  -2  -4 -13   19.91    1.54
  -2  -4 -13   20.70    1.35
   2   4  13   18.81    1.20
   2   4  13   18.85    1.23
   2   4  13   15.95    1.53
   2   4  13   18.57    1.56
  -3  -4 -13    4.10    0.74
  -3  -4 -13    4.48    0.85
  -3  -4 -13    4.37    0.84
  -3  -4 -13    3.15    0.73
   3   4  13    3.41    0.75
   3   4  13    4.77    0.64
   3   4  13    4.30    0.77
   3   4  13    3.19    0.95
   1  -5 -13   26.28    1.66
   1  -5 -13   24.10    1.40
   1  -5 -13   23.93    1.59
   1  -5 -13   26.64    1.66
  -1   5  13   25.77    1.69
  -1   5  13   21.11    1.21
  -1   5  13   24.82    1.82
  -1   5  13   24.57    1.31
  -1   5  13   25.30    1.08
   0  -5 -13    5.05    0.66
   0  -5 -13    6.15    0.89
   0  -5 -13    5.68    0.81
   0  -5 -13    5.91    0.83
   0   5  13    6.58    0.73
   0   5  13    6.90    0.92
   0   5  13    6.57    0.65
   0   5  13    5.64    0.81
  -1  -5 -13   11.64    1.36
  -1  -5 -13   10.91    1.09
  -1  -5 -13   10.64    1.30
   1   5  13    8.82    1.06
   1   5  13    9.44    1.01
   1   5  13   12.66    1.45
   1   5  13   11.87    1.37
  -2  -5 -13    0.12    0.56
  -2  -5 -13   -0.59    0.64
  -2  -5 -13    0.64    0.66
  -2  -5 -13   -0.03    0.62
   2   5  13   -0.72    0.71
   2   5  13   -0.18    0.59
   2   5  13    0.88    0.45
   2   5  13   -0.07    0.38
   2   5  13   -0.31    0.63
  -3  -5 -13    6.02    0.83
  -3  -5 -13    7.98    0.88
  -3  -5 -13    6.61    0.79
   3   5  13    3.82    0.81
   3   5  13    6.16    0.62
   3   5  13    6.03    0.84
   3   5  13    4.67    0.83
   0  -6 -13   20.57    1.29
   0  -6 -13   21.42    1.54
   0  -6 -13   21.36    1.50
   0  -6 -13   18.12    1.45
   0   6  13   21.09    1.56
   0   6  13   21.11    1.09
   0   6  13   21.59    1.50
   0   6  13   20.53    1.34
  -1  -6 -13    0.77    0.66
  -1  -6 -13    0.34    0.52
  -1  -6 -13    0.83    0.67
  -1  -6 -13    0.61    0.67
   1   6  13   -0.51    0.32
   1   6  13    0.31    0.43
   1   6  13    0.32    0.61
   1   6  13    0.83    0.65
   1   6  13   -0.46    0.67
  -2  -6 -13    3.35    0.75
  -2  -6 -13    1.98    0.62
  -2  -6 -13    2.27    0.72
  -2  -6 -13    2.40    0.71
   2   6  13    1.37    0.71
   2   6  13    2.09    0.68
   2   6  13    2.75    0.46
   2   6  13    2.56    0.71
  -3  -6 -13    0.91    0.66
  -3  -6 -13   -0.02    0.58
  -3  -6 -13    0.74    0.65
   3   6  13   -0.24    0.62
   3   6  13   -0.77    0.65
   3   6  13   -0.48    0.31
   3   6  13    0.36    0.41
   3   6  13   -0.38    0.69
   0   0   0    0.00    0.00
;
_shelx_hkl_checksum              41004
_shelx_res_file
;
TITL UMD661B in P-1
CELL 0.71073 9.654 9.9211 11.2854 73.537 88.138 72.42
ZERR 1 0.0007 0.0006 0.0008 0.003 0.003 0.003
LATT 1
SFAC C H Li N O S
UNIT 40 52 2 2 4 2
DFIX 1.5 0.005 C19A C18A C18A C17
L.S. 5
PLAN  -5 0 0
SIZE 0.3 0.4 0.5
TEMP -73.15
HTAB
BOND $H
CONF
MORE -1
fmap 2
acta
REM <olex2.extras>
REM <HklSrc "%.\\UMD661B.hkl">
REM </olex2.extras>
WGHT    0.045300    0.501400
FVAR       0.56655   0.66539
S1    6   -0.308050    0.818601    0.701185    11.00000    0.04219    0.03667 =
         0.04211   -0.01541   -0.00049    0.00113
O2    5    0.200719    0.304035    0.709979    11.00000    0.07364    0.04963 =
         0.03689   -0.01226    0.00098    0.00956
O1    5    0.194445    0.628518    0.583728    11.00000    0.04514    0.05224 =
         0.05774   -0.02204    0.00855   -0.01897
N1    4   -0.117575    0.574359    0.587440    11.00000    0.03788    0.03705 =
         0.03426   -0.01365    0.01146   -0.00950
C5    1   -0.298714    0.340149    0.806275    11.00000    0.04968    0.04666 =
         0.03141   -0.00865    0.00132   -0.02067
AFIX  43
H5    2   -0.298194    0.240183    0.828680    11.00000   -1.20000
AFIX   0
C4    1   -0.390878    0.437433    0.863822    11.00000    0.04553    0.06873 =
         0.03244   -0.01483    0.01366   -0.02452
AFIX  43
H4    2   -0.453612    0.405277    0.924429    11.00000   -1.20000
AFIX   0
C3    1   -0.388522    0.580985    0.830529    11.00000    0.03747    0.05775 =
         0.03296   -0.02013    0.01003   -0.00834
AFIX  43
H3    2   -0.449876    0.648174    0.869730    11.00000   -1.20000
AFIX   0
C2    1   -0.298591    0.630765    0.740820    11.00000    0.03169    0.04093 =
         0.02936   -0.01433    0.00281   -0.00582
C7    1   -0.154990    0.818946    0.783634    11.00000    0.04616    0.03615 =
         0.02448   -0.01269    0.00703   -0.00609
C8    1   -0.137852    0.955348    0.775183    11.00000    0.06775    0.03276 =
         0.04018   -0.01189   -0.00250   -0.00625
AFIX  43
H8    2   -0.207276    1.042994    0.727296    11.00000   -1.20000
AFIX   0
C9    1   -0.020709    0.964408    0.835854    11.00000    0.08584    0.04101 =
         0.05237   -0.01533   -0.00616   -0.02247
AFIX  43
H9    2   -0.010063    1.058257    0.829589    11.00000   -1.20000
AFIX   0
C10   1    0.081376    0.837729    0.905765    11.00000    0.07119    0.05652 =
         0.04441   -0.01342   -0.00895   -0.02540
AFIX  43
H10   2    0.162033    0.844223    0.947402    11.00000   -1.20000
AFIX   0
C6    1   -0.208651    0.386183    0.717777    11.00000    0.03867    0.03955 =
         0.02997   -0.01418    0.00259   -0.00904
AFIX  43
H6    2   -0.146317    0.316089    0.681756    11.00000   -1.20000
AFIX   0
C1    1   -0.204819    0.534521    0.677787    11.00000    0.02698    0.03885 =
         0.02429   -0.01185    0.00036   -0.00541
C11   1    0.065042    0.701923    0.914494    11.00000    0.06005    0.04268 =
         0.03931   -0.00453   -0.00845   -0.01153
AFIX  43
H11   2    0.135139    0.614691    0.962187    11.00000   -1.20000
AFIX   0
C12   1   -0.052325    0.691330    0.854547    11.00000    0.05250    0.03344 =
         0.03404   -0.00796    0.00074   -0.01075
AFIX  43
H12   2   -0.062955    0.597273    0.861682    11.00000   -1.20000
AFIX   0
C13   1    0.351184    0.586863    0.573296    11.00000    0.04513    0.07523 =
         0.07008   -0.01311   -0.01124   -0.01950
AFIX  23
H13A  2    0.380611    0.525319    0.515923    11.00000   -1.20000
H13B  2    0.402399    0.530604    0.655153    11.00000   -1.20000
AFIX   0
C16   1    0.136313    0.783542    0.565384    11.00000    0.08077    0.05158 =
         0.07154   -0.02866    0.03666   -0.02556
AFIX  23
H16A  2    0.068252    0.805073    0.629920    11.00000   -1.20000
H16B  2    0.084119    0.833146    0.483095    11.00000   -1.20000
AFIX   0
C15   1    0.268864    0.834456    0.574489    11.00000    0.13891    0.07976 =
         0.05721   -0.02690    0.01684   -0.07049
AFIX  23
H15A  2    0.252160    0.937894    0.523731    11.00000   -1.20000
H15B  2    0.294012    0.825535    0.661309    11.00000   -1.20000
AFIX   0
C14   1    0.385887    0.729065    0.524084    11.00000    0.05818    0.09236 =
         0.06001   -0.00943   -0.00979   -0.04042
AFIX  23
H14A  2    0.380307    0.760849    0.432459    11.00000   -1.20000
H14B  2    0.484009    0.720360    0.554826    11.00000   -1.20000
AFIX   0
PART 2
C19A  1    0.338603    0.195920    0.896871   -21.00000    0.08062    0.08429 =
         0.04164   -0.00344    0.00172   -0.02552
AFIX  23
H19A  2    0.422303    0.235236    0.879616   -21.00000   -1.20000
H19B  2    0.332156    0.158908    0.987428   -21.00000   -1.20000
AFIX   0
PART 0
PART 1
C19   1    0.294596    0.162219    0.911262    21.00000    0.07331    0.06647 =
         0.04032   -0.00618    0.00040    0.00386
AFIX  23
H19C  2    0.237802    0.094195    0.948421    21.00000   -1.20000
H19D  2    0.351389    0.172978    0.977616    21.00000   -1.20000
AFIX   0
PART 0
PART 2
C18A  1    0.346542    0.079719    0.833421   -21.00000    0.07573    0.04748 =
         0.09146    0.00889    0.01621    0.01146
AFIX  23
H18A  2    0.447020    0.012437    0.838716   -21.00000   -1.20000
H18B  2    0.280557    0.021181    0.869227   -21.00000   -1.20000
AFIX   0
PART 0
PART 1
C18   1    0.392459    0.109840    0.814235    21.00000    0.07438    0.12575 =
         0.06820   -0.02838   -0.00022    0.04321
AFIX  23
H18C  2    0.476865    0.148332    0.804172    21.00000   -1.20000
H18D  2    0.428216    0.000706    0.836671    21.00000   -1.20000
AFIX   0
PART 0
C17   1    0.297885    0.170330    0.702847    11.00000    0.10526    0.05217 =
         0.05732   -0.02148    0.00736    0.00860
PART 1
AFIX  23
H17A  2    0.355533    0.186719    0.628904    21.00000   -1.20000
H17B  2    0.244286    0.101513    0.696887    21.00000   -1.20000
AFIX  23
PART 0
PART 2
H17C  2    0.382108    0.187268    0.655326   -21.00000   -1.20000
H17D  2    0.249280    0.119570    0.661612   -21.00000   -1.20000
AFIX   0
PART 0
C20   1    0.198541    0.308441    0.835115    11.00000    0.10244    0.06442 =
         0.03890   -0.01800    0.00294    0.01074
PART 1
AFIX  23
H20A  2    0.098057    0.326183    0.863083    21.00000   -1.20000
H20B  2    0.235082    0.388785    0.843037    21.00000   -1.20000
AFIX  23
PART 0
PART 2
H20C  2    0.113583    0.282555    0.875139   -21.00000   -1.20000
H20D  2    0.194054    0.407950    0.839423   -21.00000   -1.20000
AFIX   0
PART 0
LI1   3    0.101004    0.480524    0.577121    11.00000    0.03529    0.04074 =
         0.03499   -0.01357    0.00552   -0.00819
H1    2   -0.127016    0.665693    0.574364    11.00000    0.04589
HKLF 4
REM  UMD661B in P-1
REM R1 =  0.0419 for    3140 Fo > 4sig(Fo)  and  0.0499 for all    3607 data
REM    249 parameters refined using      2 restraints
END
WGHT      0.0453      0.5014
REM Instructions for potential hydrogen bonds
HTAB N1 S1
REM Highest difference peak  0.309,  deepest hole -0.286,  1-sigma level  0.038
Q1    1   0.3143  0.6325  0.6384  11.00000  0.05    0.31
Q2    1   0.3633  0.2232  0.7121  11.00000  0.05    0.25
Q3    1   0.1761  0.9154  0.5528  11.00000  0.05    0.23
Q4    1   0.3129  0.1665  0.6215  11.00000  0.05    0.22
Q5    1  -0.2663  0.5917  0.7005  11.00000  0.05    0.20
;
_shelx_res_checksum              39269
_shelxl_version_number           2014/6
loop_
_space_group_symop_operation_xyz
'x, y, z'
'-x, -y, -z'
loop_
_atom_site_type_symbol
_atom_site_label
_atom_site_fract_x
_atom_site_fract_y
_atom_site_fract_z
_atom_site_U_iso_or_equiv
_atom_site_adp_type
_atom_site_calc_flag
_atom_site_occupancy
_atom_site_disorder_assembly
_atom_site_disorder_group
S S1 -0.30805(5) 0.81860(5) 0.70119(4) 0.04242(15) Uani d 1 . .
O O2 0.20072(17) 0.30404(15) 0.70998(12) 0.0599(4) Uani d 1 . .
O O1 0.19444(14) 0.62852(15) 0.58373(13) 0.0495(3) Uani d 1 . .
N N1 -0.11758(15) 0.57436(16) 0.58744(13) 0.0363(3) Uani d 1 . .
C C5 -0.2987(2) 0.3401(2) 0.80627(15) 0.0417(4) Uani d 1 . .
H H5 -0.2982 0.2402 0.8287 0.050 Uiso calc 1 . .
C C4 -0.3909(2) 0.4374(2) 0.86382(16) 0.0475(5) Uani d 1 . .
H H4 -0.4536 0.4053 0.9244 0.057 Uiso calc 1 . .
C C3 -0.38852(19) 0.5810(2) 0.83053(15) 0.0428(4) Uani d 1 . .
H H3 -0.4499 0.6482 0.8697 0.051 Uiso calc 1 . .
C C2 -0.29859(17) 0.63076(18) 0.74082(14) 0.0343(4) Uani d 1 . .
C C7 -0.15499(19) 0.81895(18) 0.78363(14) 0.0364(4) Uani d 1 . .
C C8 -0.1379(2) 0.9553(2) 0.77518(17) 0.0486(5) Uani d 1 . .
H H8 -0.2073 1.0430 0.7273 0.058 Uiso calc 1 . .
C C9 -0.0207(3) 0.9644(2) 0.83585(19) 0.0584(5) Uani d 1 . .
H H9 -0.0101 1.0583 0.8296 0.070 Uiso calc 1 . .
C C10 0.0814(3) 0.8377(2) 0.90577(18) 0.0559(5) Uani d 1 . .
H H10 0.1620 0.8442 0.9474 0.067 Uiso calc 1 . .
C C6 -0.20865(18) 0.38618(18) 0.71778(14) 0.0358(4) Uani d 1 . .
H H6 -0.1463 0.3161 0.6818 0.043 Uiso calc 1 . .
C C1 -0.20482(16) 0.53452(17) 0.67779(13) 0.0305(3) Uani d 1 . .
C C11 0.0650(2) 0.7019(2) 0.91449(17) 0.0496(5) Uani d 1 . .
H H11 0.1351 0.6147 0.9622 0.060 Uiso calc 1 . .
C C12 -0.0523(2) 0.69133(19) 0.85455(15) 0.0409(4) Uani d 1 . .
H H12 -0.0630 0.5973 0.8617 0.049 Uiso calc 1 . .
C C13 0.3512(2) 0.5869(3) 0.5733(2) 0.0645(6) Uani d 1 . .
H H13A 0.3806 0.5253 0.5159 0.077 Uiso calc 1 . .
H H13B 0.4024 0.5306 0.6552 0.077 Uiso calc 1 . .
C C16 0.1363(3) 0.7835(2) 0.5654(2) 0.0651(6) Uani d 1 . .
H H16A 0.0683 0.8051 0.6299 0.078 Uiso calc 1 . .
H H16B 0.0841 0.8331 0.4831 0.078 Uiso calc 1 . .
C C15 0.2689(4) 0.8345(3) 0.5745(2) 0.0821(8) Uani d 1 . .
H H15A 0.2522 0.9379 0.5237 0.098 Uiso calc 1 . .
H H15B 0.2940 0.8255 0.6613 0.098 Uiso calc 1 . .
C C14 0.3859(3) 0.7291(3) 0.5241(2) 0.0685(7) Uani d 1 . .
H H14A 0.3803 0.7608 0.4325 0.082 Uiso calc 1 . .
H H14B 0.4840 0.7204 0.5548 0.082 Uiso calc 1 . .
C C19A 0.339(2) 0.1959(19) 0.8969(15) 0.072(4) Uani d 0.335(16) A 2
H H19A 0.4223 0.2352 0.8796 0.086 Uiso calc 0.335(16) A 2
H H19B 0.3322 0.1589 0.9874 0.086 Uiso calc 0.335(16) A 2
C C19 0.2946(10) 0.1622(9) 0.9113(7) 0.0678(19) Uani d 0.665(16) A 1
H H19C 0.2378 0.0942 0.9484 0.081 Uiso calc 0.665(16) A 1
H H19D 0.3514 0.1730 0.9776 0.081 Uiso calc 0.665(16) A 1
C C18A 0.3465(19) 0.0797(15) 0.8334(7) 0.085(5) Uani d 0.335(16) A 2
H H18A 0.4470 0.0124 0.8387 0.102 Uiso calc 0.335(16) A 2
H H18B 0.2806 0.0212 0.8692 0.102 Uiso calc 0.335(16) A 2
C C18 0.3925(10) 0.1098(14) 0.8142(6) 0.106(4) Uani d 0.665(16) A 1
H H18C 0.4769 0.1483 0.8042 0.128 Uiso calc 0.665(16) A 1
H H18D 0.4282 0.0007 0.8367 0.128 Uiso calc 0.665(16) A 1
C C17 0.2979(3) 0.1703(3) 0.7028(2) 0.0780(8) Uani d 1 . .
H H17A 0.3555 0.1867 0.6289 0.094 Uiso calc 0.665(16) A 1
H H17B 0.2443 0.1015 0.6969 0.094 Uiso calc 0.665(16) A 1
H H17C 0.3821 0.1873 0.6553 0.094 Uiso calc 0.335(16) A 2
H H17D 0.2493 0.1196 0.6616 0.094 Uiso calc 0.335(16) A 2
C C20 0.1985(3) 0.3084(3) 0.83512(19) 0.0763(8) Uani d 1 . .
H H20A 0.0981 0.3262 0.8631 0.092 Uiso calc 0.665(16) A 1
H H20B 0.2351 0.3888 0.8430 0.092 Uiso calc 0.665(16) A 1
H H20C 0.1136 0.2826 0.8751 0.092 Uiso calc 0.335(16) A 2
H H20D 0.1941 0.4079 0.8394 0.092 Uiso calc 0.335(16) A 2
Li Li1 0.1010(3) 0.4805(3) 0.5771(3) 0.0373(6) Uani d 1 . .
H H1 -0.127(2) 0.666(2) 0.5744(18) 0.046(5) Uiso d 1 . .
loop_
_atom_site_aniso_label
_atom_site_aniso_U_11
_atom_site_aniso_U_22
_atom_site_aniso_U_33
_atom_site_aniso_U_12
_atom_site_aniso_U_13
_atom_site_aniso_U_23
S1 0.0422(3) 0.0367(2) 0.0421(3) 0.00113(18) -0.00049(18) -0.01541(18)
O2 0.0736(10) 0.0496(8) 0.0369(7) 0.0096(7) 0.0010(6) -0.0123(6)
O1 0.0451(7) 0.0522(8) 0.0577(8) -0.0190(6) 0.0086(6) -0.0220(6)
N1 0.0379(8) 0.0371(8) 0.0343(7) -0.0095(6) 0.0115(6) -0.0136(6)
C5 0.0497(10) 0.0467(10) 0.0314(8) -0.0207(8) 0.0013(7) -0.0087(7)
C4 0.0455(10) 0.0687(13) 0.0324(9) -0.0245(9) 0.0137(8) -0.0148(8)
C3 0.0375(9) 0.0577(11) 0.0330(9) -0.0083(8) 0.0100(7) -0.0201(8)
C2 0.0317(8) 0.0409(9) 0.0294(8) -0.0058(7) 0.0028(6) -0.0143(7)
C7 0.0462(9) 0.0362(8) 0.0245(7) -0.0061(7) 0.0070(7) -0.0127(6)
C8 0.0678(13) 0.0328(9) 0.0402(10) -0.0062(8) -0.0025(9) -0.0119(7)
C9 0.0858(16) 0.0410(10) 0.0524(12) -0.0225(10) -0.0062(11) -0.0153(9)
C10 0.0712(14) 0.0565(12) 0.0444(11) -0.0254(10) -0.0089(10) -0.0134(9)
C6 0.0387(9) 0.0396(9) 0.0300(8) -0.0090(7) 0.0026(7) -0.0142(7)
C1 0.0270(7) 0.0389(8) 0.0243(7) -0.0054(6) 0.0004(6) -0.0119(6)
C11 0.0600(12) 0.0427(10) 0.0393(10) -0.0115(9) -0.0085(8) -0.0045(8)
C12 0.0525(10) 0.0334(8) 0.0340(9) -0.0107(8) 0.0007(7) -0.0080(7)
C13 0.0451(11) 0.0752(15) 0.0701(14) -0.0195(11) -0.0112(10) -0.0131(12)
C16 0.0808(16) 0.0516(12) 0.0715(14) -0.0256(11) 0.0367(12) -0.0287(11)
C15 0.139(3) 0.0798(17) 0.0572(14) -0.0705(18) 0.0168(15) -0.0269(13)
C14 0.0582(13) 0.0924(18) 0.0600(13) -0.0404(13) -0.0098(11) -0.0094(12)
C19A 0.081(9) 0.084(8) 0.042(5) -0.026(5) 0.002(5) -0.003(5)
C19 0.073(4) 0.066(4) 0.040(3) 0.004(3) 0.000(2) -0.006(3)
C18A 0.076(9) 0.047(5) 0.091(8) 0.011(5) 0.016(6) 0.009(5)
C18 0.074(5) 0.126(7) 0.068(3) 0.043(4) 0.000(3) -0.028(3)
C17 0.105(2) 0.0522(13) 0.0573(14) 0.0086(13) 0.0074(13) -0.0215(11)
C20 0.102(2) 0.0644(14) 0.0389(11) 0.0107(13) 0.0029(12) -0.0180(10)
Li1 0.0353(14) 0.0407(15) 0.0350(14) -0.0082(12) 0.0055(11) -0.0136(11)
loop_
_atom_type_symbol
_atom_type_description
_atom_type_scat_dispersion_real
_atom_type_scat_dispersion_imag
_atom_type_scat_source
C C 0.0033 0.0016 'International Tables Vol C Tables 4.2.6.8 and 6.1.1.4'
H H 0.0000 0.0000 'International Tables Vol C Tables 4.2.6.8 and 6.1.1.4'
Li Li -0.0003 0.0001 'International Tables Vol C Tables 4.2.6.8 and 6.1.1.4'
N N 0.0061 0.0033 'International Tables Vol C Tables 4.2.6.8 and 6.1.1.4'
O O 0.0106 0.0060 'International Tables Vol C Tables 4.2.6.8 and 6.1.1.4'
S S 0.1246 0.1234 'International Tables Vol C Tables 4.2.6.8 and 6.1.1.4'
loop_
_geom_angle_atom_site_label_1
_geom_angle_atom_site_label_2
_geom_angle_atom_site_label_3
_geom_angle_site_symmetry_1
_geom_angle_site_symmetry_3
_geom_angle
C2 S1 C7 . . 103.95(8)
C17 O2 C20 . . 109.36(16)
C17 O2 Li1 . . 129.63(15)
C20 O2 Li1 . . 120.28(14)
C13 O1 Li1 . . 116.03(15)
C16 O1 C13 . . 110.43(16)
C16 O1 Li1 . . 131.38(16)
C1 N1 Li1 . 2_566 124.66(14)
C1 N1 Li1 . . 128.65(14)
C1 N1 H1 . . 108.9(14)
Li1 N1 Li1 . 2_566 75.65(13)
Li1 N1 H1 2_566 . 110.8(14)
Li1 N1 H1 . . 103.8(14)
C4 C5 H5 . . 119.4
C6 C5 H5 . . 119.4
C6 C5 C4 . . 121.22(17)
C5 C4 H4 . . 120.9
C3 C4 C5 . . 118.21(16)
C3 C4 H4 . . 120.9
C4 C3 H3 . . 119.1
C4 C3 C2 . . 121.79(16)
C2 C3 H3 . . 119.1
C3 C2 S1 . . 118.23(13)
C3 C2 C1 . . 121.48(16)
C1 C2 S1 . . 120.23(12)
C8 C7 S1 . . 117.10(13)
C8 C7 C12 . . 119.08(17)
C12 C7 S1 . . 123.82(13)
C7 C8 H8 . . 119.8
C9 C8 C7 . . 120.44(17)
C9 C8 H8 . . 119.8
C8 C9 H9 . . 119.8
C8 C9 C10 . . 120.43(18)
C10 C9 H9 . . 119.8
C9 C10 H10 . . 120.3
C11 C10 C9 . . 119.42(19)
C11 C10 H10 . . 120.3
C5 C6 H6 . . 118.6
C5 C6 C1 . . 122.75(15)
C1 C6 H6 . . 118.6
N1 C1 C2 . . 125.42(15)
N1 C1 C6 . . 120.06(14)
C6 C1 C2 . . 114.52(14)
C10 C11 H11 . . 119.6
C10 C11 C12 . . 120.72(18)
C12 C11 H11 . . 119.6
C7 C12 H12 . . 120.1
C11 C12 C7 . . 119.90(16)
C11 C12 H12 . . 120.1
O1 C13 H13A . . 110.6
O1 C13 H13B . . 110.6
O1 C13 C14 . . 105.51(18)
H13A C13 H13B . . 108.8
C14 C13 H13A . . 110.6
C14 C13 H13B . . 110.6
O1 C16 H16A . . 110.8
O1 C16 H16B . . 110.8
O1 C16 C15 . . 104.7(2)
H16A C16 H16B . . 108.9
C15 C16 H16A . . 110.8
C15 C16 H16B . . 110.8
C16 C15 H15A . . 111.3
C16 C15 H15B . . 111.3
H15A C15 H15B . . 109.2
C14 C15 C16 . . 102.42(17)
C14 C15 H15A . . 111.3
C14 C15 H15B . . 111.3
C13 C14 C15 . . 102.65(19)
C13 C14 H14A . . 111.2
C13 C14 H14B . . 111.2
C15 C14 H14A . . 111.2
C15 C14 H14B . . 111.2
H14A C14 H14B . . 109.1
H19A C19A H19B . . 109.6
C18A C19A H19A . . 111.9
C18A C19A H19B . . 111.9
C18A C19A C20 . . 99.3(12)
C20 C19A H19A . . 111.9
C20 C19A H19B . . 111.9
H19C C19 H19D . . 109.3
C18 C19 H19C . . 111.5
C18 C19 H19D . . 111.5
C20 C19 H19C . . 111.5
C20 C19 H19D . . 111.5
C20 C19 C18 . . 101.3(6)
C19A C18A H18A . . 111.3
C19A C18A H18B . . 111.3
H18A C18A H18B . . 109.2
C17 C18A C19A . . 102.2(10)
C17 C18A H18A . . 111.3
C17 C18A H18B . . 111.3
C19 C18 H18C . . 111.1
C19 C18 H18D . . 111.1
H18C C18 H18D . . 109.1
C17 C18 C19 . . 103.4(6)
C17 C18 H18C . . 111.1
C17 C18 H18D . . 111.1
O2 C17 C18A . . 106.2(7)
O2 C17 C18 . . 107.1(4)
O2 C17 H17A . . 110.3
O2 C17 H17B . . 110.3
O2 C17 H17C . . 110.5
O2 C17 H17D . . 110.5
C18A C17 H17C . . 110.5
C18A C17 H17D . . 110.5
C18 C17 H17A . . 110.3
C18 C17 H17B . . 110.3
H17A C17 H17B . . 108.6
H17C C17 H17D . . 108.7
O2 C20 C19A . . 105.0(6)
O2 C20 C19 . . 107.0(3)
O2 C20 H20A . . 110.3
O2 C20 H20B . . 110.3
O2 C20 H20C . . 110.7
O2 C20 H20D . . 110.7
C19A C20 H20C . . 110.7
C19A C20 H20D . . 110.7
C19 C20 H20A . . 110.3
C19 C20 H20B . . 110.3
H20A C20 H20B . . 108.6
H20C C20 H20D . . 108.8
O2 Li1 O1 . . 105.23(14)
O2 Li1 N1 . . 117.69(14)
O2 Li1 N1 . 2_566 108.46(14)
O2 Li1 Li1 . 2_566 129.5(2)
O1 Li1 N1 . 2_566 114.96(14)
O1 Li1 N1 . . 106.56(14)
O1 Li1 Li1 . 2_566 125.23(19)
N1 Li1 N1 . 2_566 104.35(13)
N1 Li1 Li1 . 2_566 52.53(10)
N1 Li1 Li1 2_566 2_566 51.82(10)
loop_
_geom_bond_atom_site_label_1
_geom_bond_atom_site_label_2
_geom_bond_site_symmetry_2
_geom_bond_distance
S1 C2 . 1.7631(17)
S1 C7 . 1.7730(18)
O2 C17 . 1.396(2)
O2 C20 . 1.424(2)
O2 Li1 . 1.957(3)
O1 C13 . 1.453(2)
O1 C16 . 1.424(2)
O1 Li1 . 1.960(3)
N1 C1 . 1.350(2)
N1 Li1 . 2.047(3)
N1 Li1 2_566 2.067(3)
N1 H1 . 0.85(2)
C5 H5 . 0.9500
C5 C4 . 1.394(3)
C5 C6 . 1.374(2)
C4 H4 . 0.9500
C4 C3 . 1.373(3)
C3 H3 . 0.9500
C3 C2 . 1.393(2)
C2 C1 . 1.435(2)
C7 C8 . 1.389(2)
C7 C12 . 1.395(2)
C8 H8 . 0.9500
C8 C9 . 1.379(3)
C9 H9 . 0.9500
C9 C10 . 1.383(3)
C10 H10 . 0.9500
C10 C11 . 1.379(3)
C6 H6 . 0.9500
C6 C1 . 1.423(2)
C11 H11 . 0.9500
C11 C12 . 1.384(3)
C12 H12 . 0.9500
C13 H13A . 0.9900
C13 H13B . 0.9900
C13 C14 . 1.497(3)
C16 H16A . 0.9900
C16 H16B . 0.9900
C16 C15 . 1.527(4)
C15 H15A . 0.9900
C15 H15B . 0.9900
C15 C14 . 1.508(4)
C14 H14A . 0.9900
C14 H14B . 0.9900
C19A H19A . 0.9900
C19A H19B . 0.9900
C19A C18A . 1.503(5)
C19A C20 . 1.506(18)
C19 H19C . 0.9900
C19 H19D . 0.9900
C19 C18 . 1.523(9)
C19 C20 . 1.495(8)
C18A H18A . 0.9900
C18A H18B . 0.9900
C18A C17 . 1.496(5)
C18 H18C . 0.9900
C18 H18D . 0.9900
C18 C17 . 1.446(7)
C17 H17A . 0.9900
C17 H17B . 0.9900
C17 H17C . 0.9900
C17 H17D . 0.9900
C20 H20A . 0.9900
C20 H20B . 0.9900
C20 H20C . 0.9900
C20 H20D . 0.9900
Li1 N1 2_566 2.067(3)
Li1 Li1 2_566 2.523(6)
loop_
_geom_torsion_atom_site_label_1
_geom_torsion_atom_site_label_2
_geom_torsion_atom_site_label_3
_geom_torsion_atom_site_label_4
_geom_torsion_site_symmetry_1
_geom_torsion
S1 C2 C1 N1 . 0.7(2)
S1 C2 C1 C6 . -179.37(11)
S1 C7 C8 C9 . -179.42(16)
S1 C7 C12 C11 . 179.10(14)
O1 C13 C14 C15 . 29.9(2)
O1 C16 C15 C14 . 31.9(2)
C5 C4 C3 C2 . 0.8(3)
C5 C6 C1 N1 . -177.75(15)
C5 C6 C1 C2 . 2.3(2)
C4 C5 C6 C1 . -1.0(3)
C4 C3 C2 S1 . 177.98(14)
C4 C3 C2 C1 . 0.6(3)
C3 C2 C1 N1 . 177.97(15)
C3 C2 C1 C6 . -2.1(2)
C2 S1 C7 C8 . -176.80(13)
C2 S1 C7 C12 . 3.65(16)
C7 S1 C2 C3 . 100.61(14)
C7 S1 C2 C1 . -82.00(14)
C7 C8 C9 C10 . 0.1(3)
C8 C7 C12 C11 . -0.4(3)
C8 C9 C10 C11 . -0.1(3)
C9 C10 C11 C12 . -0.2(3)
C10 C11 C12 C7 . 0.5(3)
C6 C5 C4 C3 . -0.6(3)
C12 C7 C8 C9 . 0.2(3)
C13 O1 C16 C15 . -13.8(2)
C16 O1 C13 C14 . -10.1(2)
C16 C15 C14 C13 . -37.5(2)
C19A C18A C17 O2 . -30.5(14)
C19 C18 C17 O2 . 32.4(12)
C18A C19A C20 O2 . -37.9(13)
C18 C19 C20 O2 . 22.8(11)
C17 O2 C20 C19A . 20.4(7)
C17 O2 C20 C19 . -3.8(5)
C20 O2 C17 C18A . 6.4(7)
C20 O2 C17 C18 . -18.4(7)
C20 C19A C18A C17 . 40.7(16)
C20 C19 C18 C17 . -33.1(13)
Li1 O2 C17 C18A . 176.5(7)
Li1 O2 C17 C18 . 151.6(6)
Li1 O2 C20 C19A . -150.7(7)
Li1 O2 C20 C19 . -175.0(5)
Li1 O1 C13 C14 . 155.11(17)
Li1 O1 C16 C15 . -176.02(17)
Li1 N1 C1 C2 2_566 -133.47(17)
Li1 N1 C1 C2 . 126.91(18)
Li1 N1 C1 C6 2_566 46.6(2)
Li1 N1 C1 C6 . -53.1(2)
