#------------------------------------------------------------------------------
#$Date: 2016-03-04 13:45:06 +0200 (Fri, 04 Mar 2016) $
#$Revision: 177487 $
#$URL: svn://www.crystallography.net/cod/cif/1/54/25/1542509.cif $
#------------------------------------------------------------------------------
#
# This file is available in the Crystallography Open Database (COD),
# http://www.crystallography.net/
#
# All data on this site have been placed in the public domain by the
# contributors.
#
data_1542509
loop_
_publ_author_name
'Anitha, B. R.'
'Roopashree, K. R.'
'Kumar, K. Mahesh'
'Ravi, A. J.'
'Devarajegowda, H. C.'
_publ_section_title
;
 (5,7-Dimethyl-2-oxo-2<i>H</i>-chromen-4-yl)methyl
 morpholine-4-carbodithioate
;
_journal_coeditor_code           HB4013
_journal_issue                   2
_journal_name_full               IUCrData
_journal_page_first              x160169
_journal_paper_doi               10.1107/S2414314616001693
_journal_volume                  1
_journal_year                    2016
_chemical_formula_iupac          'C17 H19 N O3 S2'
_chemical_formula_moiety         'C17 H19 N O3 S2'
_chemical_formula_sum            'C17 H19 N O3 S2'
_chemical_formula_weight         349.45
_chemical_melting_point          445
_chemical_name_systematic
;
(5,7-Dimethyl-2-oxo-2<i>H</i>-chromen-4-yl)methyl
morpholine-4-carbodithioate
;
_space_group_crystal_system      triclinic
_space_group_IT_number           2
_space_group_name_Hall           '-P 1'
_space_group_name_H-M_alt        'P -1'
_symmetry_space_group_name_Hall  '-P 1'
_symmetry_space_group_name_H-M   'P -1'
_atom_sites_solution_hydrogens   geom
_audit_creation_method           SHELXL-2014/7
_cell_angle_alpha                75.485(2)
_cell_angle_beta                 87.1220(10)
_cell_angle_gamma                75.7630(10)
_cell_formula_units_Z            2
_cell_length_a                   6.9573(2)
_cell_length_b                   7.9838(2)
_cell_length_c                   15.6037(4)
_cell_measurement_reflns_used    2857
_cell_measurement_temperature    296(2)
_cell_measurement_theta_max      24.999
_cell_measurement_theta_min      1.348
_cell_volume                     813.22(4)
_computing_cell_refinement
;
SAINT (Bruker, 2009)
;
_computing_data_collection
;
SMART (Bruker, 2009)
;
_computing_data_reduction
;
SAINT (Bruker, 2009)
;
_computing_molecular_graphics
;
ORTEP-3 for Windows (Farrugia, 2012)
;
_computing_publication_material
;
SHELXL2014 (Sheldrick, 2015)
;
_computing_structure_refinement
;
SHELXL2014 (Sheldrick, 2015)
;
_computing_structure_solution
;
SHELXS97 (Sheldrick, 2008)
;
_diffrn_ambient_temperature      296(2)
_diffrn_measured_fraction_theta_full 0.999
_diffrn_measured_fraction_theta_max 0.999
_diffrn_measurement_device_type  'Bruker SMART CCD area-detector'
_diffrn_measurement_method       '\w and \f scans'
_diffrn_radiation_monochromator  graphite
_diffrn_radiation_source         'fine-focus sealed tube'
_diffrn_radiation_type           MoK\a
_diffrn_radiation_wavelength     0.71073
_diffrn_reflns_av_R_equivalents  0.0360
_diffrn_reflns_limit_h_max       8
_diffrn_reflns_limit_h_min       -8
_diffrn_reflns_limit_k_max       9
_diffrn_reflns_limit_k_min       -9
_diffrn_reflns_limit_l_max       18
_diffrn_reflns_limit_l_min       -18
_diffrn_reflns_number            12588
_diffrn_reflns_theta_full        24.999
_diffrn_reflns_theta_max         24.999
_diffrn_reflns_theta_min         1.348
_exptl_absorpt_coefficient_mu    0.341
_exptl_absorpt_correction_T_max  1.0000
_exptl_absorpt_correction_T_min  0.7700
_exptl_absorpt_correction_type   multi-scan
_exptl_absorpt_process_details
;
(SADABS; Bruker, 2009)
;
_exptl_crystal_colour            colourless
_exptl_crystal_density_diffrn    1.427
_exptl_crystal_description       Plate
_exptl_crystal_F_000             368
_exptl_crystal_size_max          0.24
_exptl_crystal_size_mid          0.20
_exptl_crystal_size_min          0.12
_refine_diff_density_max         0.195
_refine_diff_density_min         -0.196
_refine_ls_extinction_coef       0.041(3)
_refine_ls_extinction_expression Fc^*^=kFc[1+0.001xFc^2^\l^3^/sin(2\q)]^-1/4^
_refine_ls_extinction_method
;
SHELXL2014 (Sheldrick, 2015)
;
_refine_ls_goodness_of_fit_ref   1.077
_refine_ls_hydrogen_treatment    constr
_refine_ls_matrix_type           full
_refine_ls_number_parameters     211
_refine_ls_number_reflns         2857
_refine_ls_number_restraints     0
_refine_ls_restrained_S_all      1.077
_refine_ls_R_factor_all          0.0348
_refine_ls_R_factor_gt           0.0298
_refine_ls_shift/su_max          0.001
_refine_ls_shift/su_mean         0.000
_refine_ls_structure_factor_coef Fsqd
_refine_ls_weighting_details
'w=1/[\s^2^(Fo^2^)+(0.0460P)^2^+0.1658P] where P=(Fo^2^+2Fc^2^)/3'
_refine_ls_weighting_scheme      calc
_refine_ls_wR_factor_gt          0.0826
_refine_ls_wR_factor_ref         0.0844
_reflns_number_gt                2551
_reflns_number_total             2857
_reflns_threshold_expression     'I > 2\s(I)'
_cod_data_source_file            hb4013sup1.cif
_cod_data_source_block           I
_cod_depositor_comments          'Adding full bibliography for 1542509.cif.'
_cod_database_code               1542509
_cod_database_fobs_code          1542509
_shelx_space_group_comment
;
The symmetry employed for this shelxl refinement is uniquely defined
by the following loop, which should always be used as a source of
symmetry information in preference to the above space-group names.
They are only intended as comments.
;
_shelx_hkl_file
;
   1   0   0   62.12    1.32
  -2   0   0    5.19    0.22
   2   0   0    4.98    0.22
  -3   0   0   10.40    0.40
  -3   0   0    9.82    0.34
   3   0   0   10.03    0.39
  -4   0   0    0.31    0.07
  -4   0   0    0.35    0.10
  -4   0   0    0.43    0.10
   4   0   0    0.33    0.09
   4   0   0    0.19    0.08
  -5   0   0   23.42    0.74
  -5   0   0   23.87    0.69
  -5   0   0   24.28    0.85
   5   0   0   24.99    0.86
   5   0   0   23.74    0.79
   5   0   0   24.76    0.75
  -6   0   0    8.46    0.49
  -6   0   0    9.23    0.44
   6   0   0    9.45    0.45
   6   0   0    8.55    0.46
   6   0   0    9.59    0.53
  -7   0   0    4.62    0.40
  -7   0   0    5.42    0.37
   7   0   0    4.97    0.42
   7   0   0    5.10    0.37
  -8   0   0    8.54    0.49
  -8   0   0    8.56    0.58
   8   0   0    8.38    0.58
   8   0   0    9.74    0.54
  -9   0   0    0.48    0.19
   9   0   0    0.87    0.23
  -9   1   0    4.57    0.47
   8  -1   0    5.91    0.42
   8  -1   0    1.87    9.05
  -8   1   0    5.47    0.40
   7  -1   0   -0.06    0.09
   7  -1   0   -0.03    0.10
  -7   1   0    0.05    0.12
  -7   1   0    0.04    0.09
   6  -1   0    6.76    0.47
   6  -1   0    6.45    0.38
  -6   1   0    7.00    0.38
  -6   1   0    5.99    0.44
   5  -1   0    0.09    0.07
   5  -1   0    0.12    0.10
  -5   1   0    0.16    0.08
  -5   1   0    0.06    0.07
   4  -1   0  119.62    2.45
   4  -1   0  120.42    2.80
   4  -1   0  119.17    2.48
  -4   1   0  118.43    2.79
  -4   1   0  119.82    2.48
  -4   1   0  119.32    2.43
   3  -1   0   53.37    1.35
   3  -1   0   52.06    1.17
  -3   1   0   52.83    1.35
  -3   1   0   51.86    1.17
   2  -1   0    2.28    0.13
   2  -1   0    2.34    0.14
  -2   1   0    2.41    0.13
  -2   1   0    2.51    0.17
   1  -1   0   68.56    1.64
  -1   1   0   72.87    1.55
   0   1   0    3.78    0.12
   1   1   0   78.68    1.63
  -2  -1   0   75.96    1.62
   2   1   0   74.18    1.62
  -3  -1   0    9.33    0.35
  -3  -1   0    9.72    0.34
  -3  -1   0    9.28    0.34
   3   1   0    9.46    0.35
  -4  -1   0   18.90    0.60
  -4  -1   0   19.80    0.64
  -4  -1   0   20.07    0.60
   4   1   0   19.85    0.64
  -5  -1   0   21.24    0.73
  -5  -1   0   21.80    0.68
  -5  -1   0   20.92    0.69
   5   1   0   21.61    0.74
  -6  -1   0   20.88    0.74
  -6  -1   0   21.98    0.73
  -6  -1   0   22.51    0.81
   6   1   0   20.81    0.81
   6   1   0   22.75    0.83
  -7  -1   0    8.29    0.47
  -7  -1   0    9.01    0.52
   7   1   0    9.62    0.50
   7   1   0    8.37    0.52
   7   1   0    9.21    0.54
  -8  -1   0    0.37    0.17
   8   1   0    0.54    0.18
   8   1   0    0.01    0.17
  -9  -1   0    0.51    0.19
   9   1   0    0.25    0.16
   9  -2   0   -0.98    9.69
   8  -2   0   -4.59    6.50
   7  -2   0    5.17    0.36
   7  -2   0    4.33    0.51
  -7   2   0    4.98    0.46
  -7   2   0    4.27    0.34
   6  -2   0   24.82    1.02
   6  -2   0   26.24    0.83
  -6   2   0   23.92    1.00
  -6   2   0   24.59    0.81
   5  -2   0    0.08    0.10
   5  -2   0    0.01    0.06
  -5   2   0    0.05    0.09
  -5   2   0   -0.06    0.05
   4  -2   0    1.51    0.17
   4  -2   0    1.25    0.20
  -4   2   0    1.13    0.15
  -4   2   0    1.34    0.21
   3  -2   0   10.86    0.38
  -3   2   0   10.42    0.47
  -3   2   0   11.56    0.39
   2  -2   0    0.00    0.03
  -2   2   0   -0.02    0.02
  -2   2   0   -0.04    0.03
  -2   2   0   -0.02    0.04
  -2   2   0    0.13    0.16
   1  -2   0  116.23    2.29
  -1   2   0  115.84    2.72
  -1   2   0  120.48    2.54
   0   2   0   21.96    0.55
   1   2   0   46.95    1.02
  -2  -2   0  163.71    3.23
  -2  -2   0  171.79    3.33
   2   2   0  163.71    3.42
  -3  -2   0    2.61    0.17
  -3  -2   0    2.52    0.18
   3   2   0    2.14    0.14
  -4  -2   0    0.85    0.14
  -4  -2   0    0.89    0.14
   4   2   0    1.12    0.14
  -5  -2   0    5.00    0.29
  -5  -2   0    3.89    0.28
  -5  -2   0    4.01    0.28
   5   2   0    4.41    0.28
  -6  -2   0   10.76    0.51
  -6  -2   0   11.62    0.52
  -6  -2   0   11.84    0.53
   6   2   0   11.06    0.52
  -7  -2   0    2.25    0.29
  -7  -2   0    2.19    0.29
   7   2   0    2.22    0.34
  -8  -2   0    0.53    0.18
   8   2   0    0.70    0.20
   8   2   0    1.25    0.29
  -9  -2   0    0.12    0.14
   9   2   0    0.14    0.20
   9   2   0   -0.09    0.11
   8  -3   0   -3.77    7.87
   8  -3   0    1.18    0.24
  -8   3   0    0.94    0.21
   7  -3   0   -4.20    7.27
   7  -3   0   -0.18    0.08
  -7   3   0   -0.08    0.09
   6  -3   0    2.23    0.28
   6  -3   0    2.29    0.36
  -6   3   0    1.51    0.29
  -6   3   0    2.16    0.27
   5  -3   0    0.24    0.10
   5  -3   0   -0.01    0.10
  -5   3   0   -0.05    0.07
  -5   3   0    0.06    0.07
   4  -3   0   36.47    1.21
   4  -3   0   37.86    0.99
  -4   3   0   36.68    0.98
  -4   3   0   37.79    1.21
   3  -3   0    2.83    0.19
  -3   3   0    2.77    0.25
  -3   3   0    2.60    0.19
  -3   3   0    2.76    0.38
  -3   3   0    3.81    0.48
   2  -3   0    4.68    0.23
  -2   3   0    4.98    0.27
  -2   3   0    4.72    0.29
  -2   3   0    5.29    0.48
   1  -3   0   53.21    1.17
  -1   3   0   54.19    0.97
  -1   3   0   54.12    1.32
  -1   3   0   53.44    1.39
   0  -3   0   26.51    0.65
   0   3   0   27.46    0.71
  -1  -3   0    7.44    0.28
  -1  -3   0    7.36    0.26
   1   3   0    7.09    0.25
  -2  -3   0    2.94    0.18
  -2  -3   0    2.91    0.19
   2   3   0    3.25    0.15
  -3  -3   0    7.51    0.32
  -3  -3   0    7.13    0.34
  -3  -3   0    7.16    0.50
   3   3   0    7.95    0.28
  -4  -3   0   34.62    1.30
  -4  -3   0   33.82    0.94
  -4  -3   0   36.61    1.00
   4   3   0   34.53    0.91
  -5  -3   0    7.09    0.39
  -5  -3   0    6.80    0.38
   5   3   0    7.31    0.35
  -6  -3   0   19.86    0.75
  -6  -3   0   21.81    0.79
  -7  -3   0   18.94    0.77
  -7  -3   0   19.27    0.78
  -8  -3   0    0.14    0.12
  -8  -3   0    0.11    0.12
   8   3   0    0.40    0.20
  -9  -3   0    1.81    0.32
   9   3   0    1.91    0.38
  10   3   0    1.31    0.36
   8  -4   0    1.60    9.69
   7  -4   0    0.73    0.19
   7  -4   0  -11.21    7.09
  -7   4   0    0.92    0.21
   6  -4   0    0.02    0.15
   6  -4   0   -0.12    0.10
  -6   4   0    0.00    0.13
  -6   4   0   -0.05    0.08
   5  -4   0    1.47    0.28
   5  -4   0    1.85    0.25
  -5   4   0    1.78    0.24
  -5   4   0    1.66    0.29
  -5   4   0    2.74    0.54
   4  -4   0   18.31    0.82
   4  -4   0   18.76    0.64
  -4   4   0   18.65    1.01
  -4   4   0   16.96    0.78
  -4   4   0   19.85    0.99
   3  -4   0    1.26    0.17
  -3   4   0    1.30    0.21
  -3   4   0    2.17    0.46
  -3   4   0    1.10    0.37
   2  -4   0   43.70    1.04
   2  -4   0   42.98    0.96
  -2   4   0   42.15    1.73
  -2   4   0   42.25    1.23
  -2   4   0   42.37    1.69
  -2   4   0   42.72    1.24
   1  -4   0   15.97    0.50
   1  -4   0   16.65    0.46
  -1   4   0   16.75    0.37
  -1   4   0   13.99    0.88
  -1   4   0   16.74    0.59
   0  -4   0    6.84    0.24
   0  -4   0    6.56    0.28
   0  -4   0    7.09    0.28
   0   4   0    6.61    0.21
   0   4   0    6.63    0.31
  -1  -4   0   72.15    1.35
  -1  -4   0   70.22    1.58
  -1  -4   0   70.02    1.53
   1   4   0   71.72    1.60
   1   4   0   71.29    1.33
  -2  -4   0   57.82    1.32
  -2  -4   0   57.95    2.17
  -2  -4   0   59.24    1.39
  -2  -4   0   57.99    1.10
   2   4   0   59.36    1.33
  -3  -4   0    0.02    0.04
  -3  -4   0    0.00    0.04
  -3  -4   0   -0.19    0.25
  -3  -4   0    0.04    0.05
  -3  -4   0    0.72    0.25
   3   4   0    0.00    0.03
  -4  -4   0   65.29    2.28
  -4  -4   0   66.23    1.62
  -4  -4   0   62.20    2.31
  -4  -4   0   62.52    1.53
   4   4   0   64.48    1.49
  -5  -4   0    0.08    0.09
  -5  -4   0    0.12    0.08
  -5  -4   0    0.09    0.19
  -6  -4   0   20.95    0.81
  -6  -4   0   20.31    0.78
  -7  -4   0    0.99    0.22
  -7  -4   0    0.62    0.18
  -8  -4   0    0.16    0.13
  -8  -4   0    0.27    0.15
   8   4   0    0.32    0.20
  -9  -4   0    1.43    0.29
  -9  -4   0    2.10    0.34
   9   4   0    2.37    0.43
  10   4   0    1.59    0.39
   7  -5   0   -0.30    8.26
   6  -5   0    0.00    8.63
   6  -5   0    1.76    0.27
  -6   5   0    2.62    0.60
   5  -5   0    5.04    0.47
   5  -5   0    4.77    0.35
  -5   5   0    4.06    0.47
  -5   5   0    7.74    0.92
   4  -5   0    1.44    0.27
   4  -5   0    1.32    0.20
  -4   5   0    1.84    0.61
  -4   5   0    0.53    0.47
  -4   5   0    1.49    0.27
   3  -5   0    0.23    0.09
  -3   5   0   -0.12    0.38
  -3   5   0    0.11    0.10
  -3   5   0    0.12    0.09
  -3   5   0   -0.02    0.39
   2  -5   0   39.87    1.03
  -2   5   0   38.32    1.21
  -2   5   0   41.00    1.77
  -2   5   0   38.69    1.23
  -2   5   0   39.37    1.72
   1  -5   0    0.81    0.12
   1  -5   0    0.89    0.14
   1  -5   0    0.86    0.11
  -1   5   0    0.85    0.08
  -1   5   0    0.27    0.39
  -1   5   0    0.90    0.17
  -1   5   0    0.20    0.39
  -1   5   0    0.90    0.16
   0  -5   0    5.89    0.25
   0  -5   0    6.12    0.30
   0  -5   0    5.85    0.28
   0   5   0    6.50    0.22
   0   5   0    6.12    0.33
   0   5   0    5.09    0.67
  -1  -5   0   44.23    1.89
  -1  -5   0   45.79    1.12
  -1  -5   0   45.60    1.14
  -1  -5   0   45.18    0.96
   1   5   0   46.66    1.16
   1   5   0   44.63    0.93
  -2  -5   0    4.39    0.24
  -2  -5   0    4.38    0.28
  -2  -5   0    4.61    0.26
  -2  -5   0    4.71    0.20
  -2  -5   0    3.97    0.56
   2   5   0    4.54    0.23
   2   5   0    4.65    0.20
  -3  -5   0   28.46    1.39
  -3  -5   0   29.72    0.74
  -3  -5   0   27.16    1.40
  -3  -5   0   29.24    1.29
  -3  -5   0   28.93    0.85
  -3  -5   0   29.93    0.91
  -3  -5   0   28.04    0.57
   3   5   0   28.84    0.76
  -4  -5   0    3.34    0.29
  -4  -5   0    3.72    0.28
  -4  -5   0    4.48    0.56
  -4  -5   0    3.83    0.54
  -5  -5   0    5.21    0.70
  -5  -5   0    5.46    0.52
  -5  -5   0    5.06    0.35
  -5  -5   0    4.54    0.36
  -6  -5   0   11.55    0.79
  -6  -5   0   12.77    0.61
  -6  -5   0   11.43    0.61
  -7  -5   0    1.18    0.24
  -7  -5   0    2.01    0.32
  -8  -5   0    0.66    0.20
  -8  -5   0    0.75    0.22
  -9  -5   0    0.72    0.24
  -9  -5   0    0.58    0.22
   9   5   0    0.52    0.26
  10   5   0    2.65    0.49
   7  -6   0   -0.01    0.14
   7  -6   0   -4.04    8.45
   6  -6   0   -4.66    7.44
   6  -6   0   -0.11    0.11
  -6   6   0    0.41    0.56
   5  -6   0   12.67    0.62
   5  -6   0   38.20   16.06
  -5   6   0   16.33    1.17
   4  -6   0    0.39    0.18
   4  -6   0    0.30    0.13
   4  -6   0   -2.39    5.74
  -4   6   0    0.04    0.12
  -4   6   0   -0.01    0.48
  -4   6   0    0.10    0.47
   3  -6   0    2.13    6.88
   2  -6   0    1.98    0.23
   2  -6   0    8.51    7.39
  -2   6   0    2.65    0.63
  -2   6   0    2.33    0.31
  -2   6   0    1.68    0.55
  -2   6   0    2.26    0.30
   1  -6   0    2.87    5.02
   1  -6   0    5.46    0.27
   1  -6   0    4.99    0.31
  -1   6   0    5.07    0.36
  -1   6   0    5.12    0.19
  -1   6   0    5.70    0.38
   0  -6   0   15.50    0.47
   0  -6   0    8.16    5.28
   0  -6   0   16.18    0.56
   0  -6   0   14.67    0.55
   0   6   0   15.65    1.11
   0   6   0   15.29    0.42
   0   6   0   15.83    0.62
  -1  -6   0    0.00    0.05
  -1  -6   0    0.02    0.07
  -1  -6   0    0.00    0.05
  -1  -6   0    0.01    0.07
   1   6   0    0.04    0.06
   1   6   0   -0.02    0.04
  -2  -6   0    3.36    0.24
  -2  -6   0    3.12    0.25
  -2  -6   0    3.45    0.67
  -2  -6   0    4.67    0.61
  -2  -6   0    3.20    0.26
  -2  -6   0    3.00    0.58
  -2  -6   0    2.56    0.16
   2   6   0    3.27    0.22
   2   6   0    2.74    0.17
  -3  -6   0   23.94    1.22
  -3  -6   0   24.98    0.80
  -3  -6   0   24.71    0.55
  -3  -6   0   24.98    0.86
  -3  -6   0   23.70    1.42
  -3  -6   0   24.17    0.70
  -3  -6   0   24.05    1.38
  -4  -6   0    6.91    0.96
  -4  -6   0    8.25    0.45
  -4  -6   0    7.72    0.46
  -4  -6   0    6.99    0.68
  -4  -6   0    7.98    0.35
  -5  -6   0   -0.02    0.08
  -5  -6   0    0.01    0.07
  -5  -6   0    0.43    0.36
  -5  -6   0    0.09    0.29
  -6  -6   0    0.94    0.23
  -6  -6   0    1.60    0.42
  -6  -6   0    1.31    0.25
  -6  -6   0    1.18    0.40
  -7  -6   0    0.11    0.31
  -7  -6   0    0.69    0.21
  -7  -6   0    0.66    0.20
  -8  -6   0    8.68    0.61
  -8  -6   0    9.82    0.62
  -8  -6   0    8.82    0.80
  -9  -6   0    1.20    0.30
  -9  -6   0    1.39    0.32
   9   6   0    0.87    0.33
   6  -7   0    1.45    0.28
   6  -7   0   -0.16    8.95
   5  -7   0    1.99    0.31
   5  -7   0    2.42    9.43
  -5   7   0    1.94    0.72
   4  -7   0   -2.91    7.72
   4  -7   0    0.52    0.16
  -4   7   0    0.15    0.59
  -4   7   0    0.37    0.52
   3  -7   0   -3.68    6.02
  -3   7   0    2.03    0.63
  -3   7   0    2.07    0.60
   2  -7   0   -4.22    5.69
   2  -7   0    0.53    0.14
  -2   7   0    0.22    0.57
  -2   7   0    0.15    0.52
  -2   7   0    0.72    0.20
   1  -7   0    3.85    6.55
   1  -7   0    1.58    0.23
  -1   7   0    0.85    0.60
  -1   7   0    1.90    0.29
  -1   7   0    1.97    0.29
  -1   7   0    2.03    0.13
   0  -7   0   11.30    0.43
   0  -7   0   10.97    0.51
   0   7   0   12.21    0.57
   0   7   0   10.90    0.36
  -1  -7   0    4.59    0.32
  -1  -7   0    4.44    0.32
  -1  -7   0    4.31    0.25
   1   7   0    3.86    0.21
   1   7   0    4.20    0.31
  -2  -7   0    0.80    0.16
  -2  -7   0    0.72    0.16
  -2  -7   0    0.68    0.16
  -2  -7   0    0.73    0.12
   2   7   0    0.98    0.13
  -3  -7   0   11.70    0.59
  -3  -7   0   11.98    0.37
  -3  -7   0   12.19    0.49
  -3  -7   0   12.53    0.57
  -3  -7   0   13.40    1.26
   3   7   0   12.10    0.41
  -4  -7   0    9.07    1.07
  -4  -7   0    8.08    0.50
  -4  -7   0    8.12    0.46
  -4  -7   0    7.88    0.38
  -4  -7   0    7.72    0.74
  -5  -7   0    5.90    0.84
  -5  -7   0    4.77    0.38
  -5  -7   0    3.66    0.42
  -5  -7   0    5.18    0.63
  -6  -7   0    0.74    0.40
  -6  -7   0    1.15    0.52
  -6  -7   0    1.23    0.26
  -6  -7   0    1.13    0.27
  -7  -7   0    0.41    0.18
  -7  -7   0    0.62    0.21
  -7  -7   0    0.56    0.38
  -8  -7   0   15.74    0.86
  -8  -7   0   13.32    1.09
  -8  -7   0   14.84    0.81
  -9  -7   0    1.20    0.32
  -9  -7   0    1.69    0.36
   9   7   0    1.42    0.37
   5  -8   0    0.10    0.15
   5  -8   0   -3.84    8.74
   4  -8   0    0.13    0.13
   4  -8   0   -4.50    7.24
  -4   8   0    0.14    0.69
  -4   8   0   -0.02    0.57
   3  -8   0    8.55    9.94
   2  -8   0   -4.12    6.01
   2  -8   0    0.57    0.16
  -2   8   0    0.42    0.61
  -2   8   0    0.84    0.23
   1  -8   0    0.24    0.13
  -1   8   0    0.50    0.08
  -1   8   0    0.28    0.16
  -1   8   0    0.55    0.66
   0  -8   0   23.24    0.84
   0  -8   0   22.71    0.70
   0   8   0   23.09    0.61
  -1  -8   0    6.58    0.43
  -1  -8   0    6.91    0.43
  -1  -8   0    6.19    0.33
   1   8   0    7.05    0.30
  -2  -8   0    3.42    0.35
  -2  -8   0    2.77    0.30
  -2  -8   0    3.00    0.35
  -2  -8   0    2.68    0.20
   2   8   0    2.66    0.20
  -3  -8   0    0.91    0.57
  -3  -8   0    0.59    0.17
  -3  -8   0    0.90    0.22
  -3  -8   0    0.84    0.12
  -3  -8   0    0.57    0.16
   3   8   0    0.91    0.15
  -4  -8   0    3.05    0.39
  -4  -8   0    3.00    0.29
  -4  -8   0    3.25    0.78
  -4  -8   0    3.50    0.39
  -5  -8   0    7.49    1.08
  -5  -8   0    6.35    0.75
  -5  -8   0    4.69    0.50
  -5  -8   0    5.12    0.42
  -6  -8   0    0.18    0.40
  -6  -8   0    0.54    0.21
  -6  -8   0    1.05    0.26
  -6  -8   0    1.21    0.56
  -7  -8   0    2.51    0.56
  -7  -8   0    5.81    0.90
  -7  -8   0    3.73    0.48
  -7  -8   0    4.52    0.53
  -8  -8   0    1.56    0.35
  -8  -8   0    1.15    0.53
  -8  -8   0    1.13    0.30
   8   8   0    1.14    0.34
   4  -9   0    8.93   11.45
   3  -9   0   -0.02    0.11
   3  -9   0   -7.61    7.64
  -3   9   0    0.11    0.63
   2  -9   0   -0.05    0.11
  -2   9   0   -0.14    0.66
   1  -9   0    1.12    0.24
   0  -9   0    0.22    0.13
   0  -9   0    0.30    0.12
   0   9   0    0.12    0.08
  -1  -9   0    0.07    0.09
  -1  -9   0    0.08    0.11
   1   9   0    0.11    0.08
  -2  -9   0    7.03    0.34
  -2  -9   0    5.99    0.43
  -2  -9   0    6.95    0.44
  -2  -9   0    6.46    0.48
   2   9   0    7.40    0.34
  -3  -9   0    1.19    0.22
  -3  -9   0    1.25    0.25
  -3  -9   0    1.57    0.17
  -3  -9   0    1.37    0.28
   3   9   0    1.66    0.19
  -4  -9   0    0.16    0.12
  -4  -9   0    0.05    0.15
  -4  -9   0   -0.01    0.10
  -4  -9   0    0.14    0.49
  -5  -9   0    0.44    0.19
  -5  -9   0    0.55    0.22
  -5  -9   0    0.80    0.57
  -6  -9   0    2.84    0.43
  -6  -9   0    1.60    0.52
  -6  -9   0    2.41    0.40
  -6  -9   0    3.54    0.94
  -7  -9   0   10.91    1.09
  -7  -9   0    9.07    0.68
  -7  -9   0    7.43    0.92
  -7  -9   0    7.94    0.61
  -8  -9   0    0.03    0.17
  -8  -9   0    0.23    0.20
   8   9   0    0.01    0.25
   2 -10   0    0.28    0.16
   1 -10   0    1.54    0.29
   1 -10   0    1.51    0.23
   0 -10   0   -0.08    0.09
   0 -10   0    0.14    0.13
   0  10   0    0.10    0.08
  -1 -10   0    0.76    0.16
  -1 -10   0    0.96    0.23
   1  10   0    0.65    0.13
  -2 -10   0    0.53    0.19
  -2 -10   0    0.57    0.14
   2  10   0    0.68    0.14
  -3 -10   0    0.36    0.17
  -3 -10   0    0.34    0.20
  -3 -10   0    0.49    0.19
  -3 -10   0    0.36    0.11
   3  10   0    0.45    0.13
  -4 -10   0    3.21    0.45
  -4 -10   0    3.62    0.38
  -4 -10   0    3.19    0.43
   4  10   0    3.76    0.28
  -5 -10   0    1.24    0.66
  -5 -10   0    1.09    0.30
  -5 -10   0    1.05    0.28
  -6 -10   0    1.04    0.30
  -6 -10   0    0.37    0.21
  -6 -10   0    1.33    0.73
  -7 -10   0    1.43    0.34
  -7 -10   0    1.33    0.35
   0 -11   0    0.38    0.19
   0 -11   0    0.07    0.12
  -1 -11   0    0.43    0.15
  -1 -11   0    0.54    0.21
   1  11   0    0.52    0.13
  -2 -11   0    0.08    0.13
  -2 -11   0    0.04    0.09
   2  11   0    0.07    0.09
  -3 -11   0    0.67    0.21
  -3 -11   0    0.87    0.15
  -3 -11   0    0.57    0.22
   3  11   0    0.55    0.14
  -4 -11   0    1.73    0.34
  -4 -11   0    1.57    0.28
  -4 -11   0    1.91    0.38
   4  11   0    2.14    0.25
  -5 -11   0    0.79    0.27
  -5 -11   0    0.96    0.28
   4  11  -1    1.30    0.20
  -4 -11   1    1.74    0.35
  -4 -11   1    2.06    0.40
  -4 -11   1    1.09    0.26
   3  11  -1    1.99    0.23
  -3 -11   1    2.63    0.25
  -3 -11   1    2.34    0.34
  -3 -11   1    3.41    0.45
   2  11  -1    0.33    0.12
  -2 -11   1    0.10    0.11
  -2 -11   1    0.34    0.18
   1  11  -1   -0.07    0.08
  -1 -11   1   -0.09    0.09
  -1 -11   1    0.08    0.14
   0 -11   1    0.03    0.12
  -6 -10   1    0.38    0.59
  -6 -10   1    0.42    0.23
  -6 -10   1    0.46    0.22
  -5 -10   1    2.05    0.39
  -5 -10   1    2.28    0.39
  -5 -10   1    5.06    1.16
   4  10  -1    3.72    0.27
  -4 -10   1    2.41    0.38
  -4 -10   1    2.97    0.42
  -4 -10   1    3.05    0.36
   3  10  -1    0.13    0.10
  -3 -10   1    0.04    0.16
  -3 -10   1   -0.05    0.12
  -3 -10   1    0.02    0.12
  -3 -10   1    0.14    0.09
   2  10  -1    0.77    0.14
  -2 -10   1    0.63    0.15
  -2 -10   1    0.52    0.19
   1  10  -1    0.55    0.12
  -1 -10   1    0.14    0.12
  -1 -10   1    0.47    0.14
   0  10  -1    0.02    0.07
   0 -10   1    0.00    0.11
   0 -10   1    0.02    0.10
   1 -10   1    0.83    0.19
   1 -10   1    0.70    0.21
   2 -10   1    0.20    0.16
  -8  -9   1    0.08    0.15
   7   9  -1    1.23    0.33
  -7  -9   1    0.67    0.48
  -7  -9   1    1.62    0.34
  -7  -9   1    1.56    0.35
  -7  -9   1    3.69    0.90
   6   9  -1    0.09    0.20
  -6  -9   1    0.06    0.14
  -6  -9   1   -0.07    0.12
  -6  -9   1   -0.26    0.45
  -6  -9   1   -0.08    0.42
  -5  -9   1   10.48    0.65
  -5  -9   1   13.82    1.36
  -5  -9   1   11.30    0.71
  -4  -9   1    0.12    0.12
  -4  -9   1    0.23    0.14
  -4  -9   1    0.37    0.54
  -4  -9   1    0.26    0.17
   3   9  -1    0.92    0.15
  -3  -9   1    0.91    0.20
  -3  -9   1    1.07    0.15
  -3  -9   1    1.60    0.29
  -3  -9   1    1.24    0.27
   2   9  -1    7.72    0.35
  -2  -9   1    7.68    0.52
  -2  -9   1    8.15    0.50
  -2  -9   1    7.21    0.36
   1   9  -1    1.07    0.15
  -1  -9   1    1.41    0.20
  -1  -9   1    1.69    0.28
   0   9  -1    3.70    0.22
   0  -9   1    3.82    0.40
   0  -9   1    4.46    0.31
   1  -9   1    0.04    0.11
  -2   9  -1    0.82    0.72
   2  -9   1    1.28    0.25
  -3   9  -1    1.29    0.71
   3  -9   1    5.83    9.98
   3  -9   1    2.37    0.35
   4  -9   1    0.05    0.13
   8   8  -1    0.79    0.31
  -8  -8   1   -0.12    0.43
  -8  -8   1    0.90    0.29
  -8  -8   1    1.34    0.33
   7   8  -1    0.93    0.28
  -7  -8   1    0.93    0.52
  -7  -8   1    0.36    0.20
  -7  -8   1    0.32    0.18
  -7  -8   1    0.57    0.42
  -6  -8   1    0.30    0.16
  -6  -8   1   -0.09    0.40
  -6  -8   1   -0.31    0.36
  -6  -8   1    0.00    0.12
  -5  -8   1    5.24    0.96
  -5  -8   1    4.57    0.48
  -5  -8   1    3.71    0.45
  -5  -8   1    4.57    0.74
  -4  -8   1    2.97    0.76
  -4  -8   1    1.91    0.25
  -4  -8   1    2.38    0.34
  -4  -8   1    1.57    0.27
   3   8  -1    7.90    0.34
  -3  -8   1    9.06    1.20
  -3  -8   1    6.90    0.45
  -3  -8   1    7.27    1.03
  -3  -8   1    7.37    0.31
  -3  -8   1    7.97    0.51
  -3  -8   1    7.41    0.42
   2   8  -1    3.25    0.21
  -2  -8   1    3.18    0.23
  -2  -8   1    2.71    0.30
  -2  -8   1    3.62    0.38
  -2  -8   1    3.22    0.35
   1   8  -1    1.49    0.16
  -1  -8   1    1.60    0.25
  -1  -8   1    1.58    0.25
  -1  -8   1    1.65    0.20
   0   8  -1    2.08    0.16
   0  -8   1    1.85    0.22
   0  -8   1    2.10    0.28
  -1   8  -1    3.81    0.81
  -1   8  -1    4.49    0.19
  -1   8  -1    3.93    0.43
   1  -8   1    4.37    0.35
   2  -8   1    8.03    9.29
  -3   8  -1    1.16    0.72
  -3   8  -1    0.20    0.59
   3  -8   1    2.72    9.41
   3  -8   1    0.88    0.22
  -4   8  -1    0.55    0.61
  -4   8  -1    0.17    0.70
   4  -8   1    0.22    0.16
   4  -8   1   -8.51    7.12
   5  -8   1    2.50   10.89
   9   7  -1   -0.19    0.21
  -9  -7   1   -0.07    0.16
  -9  -7   1    0.34    0.22
   8   7  -1    6.57    0.63
  -8  -7   1    6.91    0.57
  -8  -7   1    5.68    0.80
  -8  -7   1    6.62    0.56
  -7  -7   1    0.39    0.39
  -7  -7   1    0.78    0.23
  -7  -7   1    0.69    0.23
  -6  -7   1    2.46    0.36
  -6  -7   1    3.47    0.68
  -6  -7   1    2.70    0.39
  -6  -7   1    2.29    0.54
  -5  -7   1    1.66    0.55
  -5  -7   1    1.29    0.26
  -5  -7   1    1.44    0.26
  -5  -7   1    0.99    0.40
  -4  -7   1    1.64    0.21
  -4  -7   1    2.73    0.65
  -4  -7   1    1.58    0.27
  -4  -7   1    1.24    0.55
  -4  -7   1    2.51    0.55
  -4  -7   1    1.75    0.27
   3   7  -1   13.75    0.45
  -3  -7   1   14.01    0.61
  -3  -7   1   13.54    0.54
  -3  -7   1   14.85    1.33
  -3  -7   1   15.42    1.18
  -3  -7   1   14.14    0.65
  -3  -7   1   14.06    0.41
   2   7  -1    1.13    0.14
  -2  -7   1    1.20    0.19
  -2  -7   1    1.16    0.20
  -2  -7   1    1.30    0.15
  -2  -7   1    1.03    0.18
   1   7  -1   19.39    0.73
   1   7  -1   18.37    0.52
  -1  -7   1   19.04    0.70
  -1  -7   1   18.49    0.57
  -1  -7   1   18.35    0.70
   0   7  -1    0.89    0.18
   0   7  -1    0.97    0.12
   0  -7   1    1.05    0.19
   0  -7   1    0.97    0.18
   0  -7   1    0.76    0.14
  -1   7  -1    0.19    0.56
  -1   7  -1    0.13    0.05
  -1   7  -1    0.12    0.12
   1  -7   1   -3.48    5.13
   1  -7   1    0.01    0.09
  -2   7  -1    1.29    0.63
  -2   7  -1    1.55    0.28
  -2   7  -1    0.88    0.60
   2  -7   1    1.56    0.23
   2  -7   1   -2.74    6.37
  -3   7  -1    0.27    0.54
  -3   7  -1    0.47    0.19
  -3   7  -1    0.27    0.54
   3  -7   1    0.39    0.13
   3  -7   1    2.13    7.80
  -4   7  -1    0.52    0.51
  -4   7  -1    0.33    0.58
   4  -7   1    0.70    0.18
   4  -7   1   -0.58    7.76
  -5   7  -1    4.58    0.82
   5  -7   1    4.42    0.39
   5  -7   1    5.19    9.87
   6  -7   1    6.22   12.03
   9   6  -1    0.73    0.30
  -9  -6   1    0.96    0.28
  -9  -6   1    0.75    0.26
   8   6  -1    0.26    0.23
  -8  -6   1    0.33    0.20
  -8  -6   1    0.22    0.37
  -8  -6   1    0.28    0.18
  -7  -6   1    0.28    0.32
  -7  -6   1    0.13    0.13
  -7  -6   1    0.15    0.14
  -6  -6   1    2.93    0.54
  -6  -6   1    2.57    0.35
  -6  -6   1    2.26    0.34
  -6  -6   1    2.01    0.48
  -5  -6   1   37.98    1.18
  -5  -6   1   38.30    1.71
  -5  -6   1   39.33    1.82
  -5  -6   1   35.53    1.21
  -4  -6   1   -0.42    0.27
  -4  -6   1   -0.14    0.42
  -4  -6   1    0.00    0.09
  -4  -6   1   -0.64    0.31
  -4  -6   1    0.07    0.08
  -3  -6   1   21.94    0.67
  -3  -6   1   21.52    1.17
  -3  -6   1   24.09    1.37
  -3  -6   1   22.40    0.53
  -3  -6   1   22.24    0.76
  -3  -6   1   21.63    0.80
   2   6  -1    0.70    0.13
   2   6  -1    0.86    0.11
  -2  -6   1    0.69    0.52
  -2  -6   1    0.82    0.16
  -2  -6   1    0.95    0.12
  -2  -6   1    0.91    0.16
  -2  -6   1    0.86    0.15
   1   6  -1   32.37    0.75
   1   6  -1   33.27    0.97
  -1  -6   1   33.06    0.79
  -1  -6   1   33.21    0.91
  -1  -6   1   33.02    0.96
  -1  -6   1   33.37    0.94
   0   6  -1    2.35    0.15
   0   6  -1    2.15    0.25
   0   6  -1    1.99    0.58
   0  -6   1    2.21    0.23
   0  -6   1    1.96    0.22
   0  -6   1    2.11    0.17
  -1   6  -1    0.59    0.51
  -1   6  -1    0.65    0.16
  -1   6  -1    0.35    0.12
  -1   6  -1    0.35    0.06
  -1   6  -1   -0.14    0.45
   1  -6   1    0.28    0.10
  -2   6  -1    1.06    0.22
  -2   6  -1    1.09    0.53
  -2   6  -1    1.00    0.21
  -2   6  -1    0.88    0.51
   2  -6   1    0.89    0.16
  -3   6  -1    2.20    0.64
  -3   6  -1    1.82    0.30
  -3   6  -1    2.31    0.33
  -3   6  -1    1.89    0.56
   3  -6   1    1.88    0.24
  -4   6  -1    2.23    0.67
  -4   6  -1    1.51    0.29
  -4   6  -1    1.33    0.53
   4  -6   1    1.70    0.24
  -5   6  -1    4.49    0.82
   5  -6   1   10.81   10.40
  -6   6  -1    1.77    0.61
   6  -6   1   -4.81    7.87
   7  -6   1    8.54   11.27
   9   5  -1    3.42    0.52
  -9  -5   1    3.80    0.48
  -9  -5   1    3.62    0.50
   8   5  -1   10.80    0.73
  -8  -5   1   10.42    0.65
  -8  -5   1   10.54    0.64
  -7  -5   1    0.17    0.13
  -7  -5   1    0.45    0.17
  -7  -5   1   -0.05    0.28
  -6  -5   1    8.86    0.51
  -6  -5   1    9.12    0.54
  -6  -5   1    8.67    0.72
  -5  -5   1   16.61    0.71
  -5  -5   1   15.82    0.66
  -5  -5   1   16.71    0.93
  -5  -5   1   15.51    1.03
  -4  -5   1    2.63    0.29
  -4  -5   1    4.08    0.54
  -4  -5   1    2.30    0.27
  -4  -5   1    2.37    0.49
   3   5  -1    2.66    0.18
  -3  -5   1    2.87    0.59
  -3  -5   1    3.97    0.54
  -3  -5   1    2.07    0.24
  -3  -5   1    2.99    0.20
  -3  -5   1    2.55    0.12
  -3  -5   1    2.77    0.23
   2   5  -1    5.00    0.25
   2   5  -1    5.10    0.21
  -2  -5   1    4.77    0.20
  -2  -5   1    4.93    0.61
  -2  -5   1    5.24    0.50
  -2  -5   1    4.86    0.28
  -2  -5   1    5.04    0.26
  -2  -5   1    4.80    0.30
   1   5  -1   13.13    0.47
   1   5  -1   11.87    0.35
  -1  -5   1   12.27    0.46
  -1  -5   1   12.61    0.90
  -1  -5   1   12.02    0.37
  -1  -5   1   13.20    0.48
   0   5  -1   19.12    0.47
   0   5  -1   19.28    0.66
   0   5  -1   19.56    1.15
   0  -5   1   19.23    0.60
   0  -5   1   19.61    0.51
   0  -5   1   19.27    0.60
  -1   5  -1    0.05    0.07
  -1   5  -1   -0.23    0.36
  -1   5  -1    0.21    0.05
  -1   5  -1    0.08    0.38
  -1   5  -1    0.09    0.08
   1  -5   1    0.11    0.06
   1  -5   1    0.22    0.07
   1  -5   1    0.19    0.07
  -2   5  -1   10.46    0.82
  -2   5  -1   11.17    0.90
  -2   5  -1   10.87    0.54
  -2   5  -1   10.46    0.54
   2  -5   1   11.43    0.45
  -3   5  -1   -0.01    0.41
  -3   5  -1    0.07    0.08
  -3   5  -1   -0.11    0.39
  -3   5  -1    0.15    0.11
   3  -5   1    0.01    0.06
  -4   5  -1    7.20    0.51
  -4   5  -1    6.61    0.78
  -4   5  -1    6.50    0.76
   4  -5   1    7.18    0.39
  -5   5  -1    6.74    0.54
  -5   5  -1    9.10    0.85
   5  -5   1    7.90    0.44
   5  -5   1    7.85    0.59
  -6   5  -1    7.11    0.81
   6  -5   1    5.38    0.40
   7  -5   1    4.92   10.65
  10   4  -1   -0.18    0.21
 -10  -4   1    0.10    0.18
   9   4  -1    7.40    0.63
  -9  -4   1    6.92    0.52
   8   4  -1    0.04    0.14
  -8  -4   1    0.05    0.11
  -8  -4   1   -0.07    0.10
   7   4  -1    6.85    0.53
  -7  -4   1    6.99    0.48
  -7  -4   1    7.03    0.47
  -6  -4   1    1.26    0.22
  -6  -4   1    1.76    0.40
  -6  -4   1    1.01    0.21
   5   4  -1    0.69    0.13
  -5  -4   1    0.66    0.16
  -5  -4   1    1.29    0.33
  -5  -4   1    1.07    0.28
  -5  -4   1    1.06    0.19
   4   4  -1   77.21    1.81
  -4  -4   1   76.70    1.83
  -4  -4   1   81.01    1.90
  -4  -4   1   79.62    2.81
  -4  -4   1   78.53    2.74
   3   4  -1    0.11    0.05
  -3  -4   1    0.14    0.07
  -3  -4   1    0.11    0.29
  -3  -4   1    0.32    0.09
  -3  -4   1    0.22    0.19
  -3  -4   1    0.22    0.06
   2   4  -1   20.15    0.57
  -2  -4   1   19.91    0.63
  -2  -4   1   20.01    0.60
  -2  -4   1   19.62    0.46
  -2  -4   1   19.48    1.01
   1   4  -1   20.35    0.48
   1   4  -1   20.99    0.61
  -1  -4   1   21.46    0.50
  -1  -4   1   21.09    0.60
  -1  -4   1   21.56    0.62
   0   4  -1   30.47    0.64
   0   4  -1   32.83    0.86
   0  -4   1   30.08    0.78
   0  -4   1   31.41    0.68
   0  -4   1   29.85    0.78
  -1   4  -1   59.90    2.28
  -1   4  -1   60.73    1.54
  -1   4  -1   61.63    1.65
  -1   4  -1   63.59    1.13
   1  -4   1   59.78    1.35
   1  -4   1   61.45    1.34
  -2   4  -1   13.83    0.59
  -2   4  -1   14.80    0.60
  -2   4  -1   14.68    0.85
  -2   4  -1   14.77    0.89
   2  -4   1   14.38    0.44
   2  -4   1   14.94    0.49
  -3   4  -1    1.28    0.21
  -3   4  -1    0.88    0.18
  -3   4  -1    2.08    0.48
  -3   4  -1    1.04    0.38
   3  -4   1    0.70    0.13
  -4   4  -1   18.08    0.96
  -4   4  -1   18.38    1.01
  -4   4  -1   16.38    0.77
   4  -4   1   18.40    0.63
  -5   4  -1   16.11    0.94
  -5   4  -1   13.85    0.74
   5  -4   1   14.49    0.58
   5  -4   1   13.67    0.75
   6  -4   1    0.14    0.12
   7  -4   1   10.34   11.58
   8  -4   1    5.36   10.71
  10   3  -1    2.11    0.40
 -10  -3   1    1.51    0.33
   9   3  -1    0.39    0.23
  -9  -3   1    0.35    0.16
   8   3  -1    1.00    0.26
  -8  -3   1    1.27    0.24
  -8  -3   1    1.00    0.24
   7   3  -1    4.94    0.44
  -7  -3   1    4.58    0.39
  -7  -3   1    5.66    0.40
   6   3  -1    5.02    0.33
  -6  -3   1    5.27    0.37
  -6  -3   1    5.08    0.37
   5   3  -1    0.00    0.05
  -5  -3   1   -0.02    0.06
  -5  -3   1   -0.08    0.05
   4   3  -1   24.40    0.70
  -4  -3   1   24.32    1.01
  -4  -3   1   22.94    0.75
  -4  -3   1   23.44    1.03
  -4  -3   1   24.60    0.75
   3   3  -1   71.20    1.59
  -3  -3   1   69.10    1.56
  -3  -3   1   67.80    2.40
  -3  -3   1   69.69    1.61
   2   3  -1  181.17    3.85
  -2  -3   1  190.87    3.75
  -2  -3   1  186.67    3.18
  -2  -3   1  182.46    3.63
   1   3  -1    6.93    0.26
  -1  -3   1    6.39    0.26
  -1  -3   1    6.46    0.26
   0   3  -1   12.62    0.41
   0   3  -1   12.80    0.30
   0  -3   1   12.47    0.38
   0  -3   1   13.25    0.38
  -1   3  -1    3.51    0.45
  -1   3  -1    4.41    0.25
  -1   3  -1    4.55    0.25
   1  -3   1    4.54    0.21
  -2   3  -1   99.47    2.45
  -2   3  -1   99.22    2.31
  -2   3  -1   99.37    3.25
  -2   3  -1   95.52    3.25
   2  -3   1   97.12    2.02
   2  -3   1   97.84    2.00
  -3   3  -1    8.67    0.46
  -3   3  -1    9.29    0.59
  -3   3  -1    9.19    0.61
   3  -3   1    8.93    0.35
   3  -3   1    8.74    0.31
  -4   3  -1   -0.01    0.29
  -4   3  -1    0.51    0.12
  -4   3  -1    0.27    0.12
   4  -3   1    0.17    0.08
  -5   3  -1   -0.01    0.08
  -5   3  -1    0.07    0.08
   5  -3   1    0.00    0.10
   5  -3   1    0.05    0.08
  -6   3  -1    1.57    0.30
  -6   3  -1    2.16    0.26
   6  -3   1    2.05    0.34
   6  -3   1    2.14    0.26
  -7   3  -1    1.06    0.20
   7  -3   1    1.14    0.21
   8  -3   1    2.25    9.73
   9   2  -1    0.32    0.23
   9   2  -1    0.38    0.18
  -9  -2   1    0.50    0.18
   8   2  -1    0.10    0.17
  -8  -2   1   -0.17    0.08
   7   2  -1   29.35    1.02
   7   2  -1   28.84    1.08
  -7  -2   1   30.53    1.01
  -7  -2   1   29.15    0.97
   6   2  -1   25.82    0.94
   6   2  -1   25.86    0.88
  -6  -2   1   25.16    0.86
  -6  -2   1   25.45    0.84
   5   2  -1    5.12    0.31
  -5  -2   1    4.78    0.31
  -5  -2   1    4.55    0.31
   4   2  -1    2.11    0.17
  -4  -2   1    2.06    0.21
  -4  -2   1    1.81    0.20
   3   2  -1    2.75    0.17
  -3  -2   1    2.57    0.18
  -3  -2   1    2.98    0.19
  -3  -2   1    2.38    0.28
   2   2  -1  221.63    4.51
  -2  -2   1  211.66    4.21
  -2  -2   1  224.11    4.32
   1   2  -1    6.23    0.22
  -1  -2   1    6.65    0.23
   0   2  -1   36.65    0.86
  -1   2  -1   33.48    0.85
  -1   2  -1   33.55    0.90
   1  -2   1   32.53    0.73
  -2   2  -1   29.40    1.12
  -2   2  -1   30.34    0.85
  -2   2  -1   29.78    0.88
  -2   2  -1   30.28    0.71
   2  -2   1   29.17    0.70
  -3   2  -1   20.55    0.52
  -3   2  -1   20.25    0.71
  -3   2  -1   19.73    0.56
   3  -2   1   19.70    0.56
   3  -2   1   19.39    0.52
  -4   2  -1   27.18    0.95
  -4   2  -1   27.45    0.76
  -4   2  -1   29.59    0.73
   4  -2   1   28.69    0.77
   4  -2   1   29.41    0.74
   4  -2   1   28.29    0.97
  -5   2  -1   12.09    0.48
  -5   2  -1   11.78    0.61
   5  -2   1   13.00    0.64
   5  -2   1   12.40    0.48
  -6   2  -1   10.05    0.61
  -6   2  -1   11.97    0.51
   6  -2   1   11.47    0.50
   6  -2   1   11.25    0.66
  -7   2  -1    2.65    0.39
  -7   2  -1    2.46    0.29
   7  -2   1    3.14    0.33
   7  -2   1    2.49    0.39
  -8   2  -1   -0.04    0.11
   8  -2   1    0.17    0.13
   8  -2   1    0.79    8.83
   9  -2   1   -2.66   10.08
   9   1  -1    0.10    0.13
  -9  -1   1    0.19    0.14
   8   1  -1    1.73    0.30
   8   1  -1    1.12    0.24
  -8  -1   1    1.88    0.30
  -8  -1   1    1.42    0.28
   7   1  -1   12.12    0.58
   7   1  -1   12.16    0.63
   7   1  -1   12.46    0.64
  -7  -1   1   12.39    0.59
  -7  -1   1   12.16    0.62
   6   1  -1    0.40    0.13
   6   1  -1    0.59    0.17
  -6  -1   1    0.38    0.13
  -6  -1   1    0.36    0.11
  -6  -1   1    0.41    0.14
   5   1  -1   17.31    0.65
   5   1  -1   15.71    0.63
  -5  -1   1   16.34    0.59
  -5  -1   1   16.43    0.63
  -5  -1   1   16.09    0.56
   4   1  -1   35.94    1.01
  -4  -1   1   36.69    0.96
  -4  -1   1   37.82    1.02
  -4  -1   1   35.82    0.93
   3   1  -1   41.51    1.05
  -3  -1   1   42.27    0.99
  -3  -1   1   41.70    1.00
  -3  -1   1   42.73    1.05
   2   1  -1   39.46    0.92
  -2  -1   1   38.61    0.88
   1   1  -1  179.08    3.65
   0   1  -1  183.40    3.72
  -1   1  -1    3.93    0.18
  -1   1  -1    3.77    0.17
   1  -1   1    4.06    0.18
  -2   1  -1   49.73    1.18
  -2   1  -1   47.41    1.01
   2  -1   1   46.99    1.22
   2  -1   1   47.05    1.01
  -3   1  -1   34.15    0.82
  -3   1  -1   35.53    0.98
   3  -1   1   33.98    0.82
  -4   1  -1    1.95    0.24
  -4   1  -1    2.06    0.17
  -4   1  -1    2.31    0.16
   4  -1   1    2.19    0.16
   4  -1   1    2.47    0.18
   4  -1   1    1.88    0.23
  -5   1  -1    0.04    0.05
  -5   1  -1    0.05    0.09
  -5   1  -1    0.03    0.06
   5  -1   1    0.19    0.10
   5  -1   1    0.10    0.08
  -6   1  -1    1.93    0.23
  -6   1  -1    2.08    0.31
   6  -1   1    1.93    0.30
   6  -1   1    2.05    0.24
  -7   1  -1    0.14    0.13
  -7   1  -1   -0.03    0.09
   7  -1   1    0.22    0.11
   7  -1   1   -0.13    0.09
  -8   1  -1    0.97    0.22
   8  -1   1    0.61    0.19
   9   0  -1    1.01    0.25
  -9   0   1    0.97    0.24
   8   0  -1    9.27    0.54
   8   0  -1    9.34    0.62
  -8   0   1    9.00    0.53
  -8   0   1    8.64    0.59
   7   0  -1   -2.47    6.76
   7   0  -1    0.26    0.14
   7   0  -1    0.32    0.14
  -7   0   1    0.19    0.11
  -7   0   1    0.27    0.13
   6   0  -1    0.06    0.09
   6   0  -1    0.06    0.10
   6   0  -1    0.01    0.07
  -6   0   1   -0.03    0.06
  -6   0   1    0.04    0.09
   5   0  -1    3.31    0.26
   5   0  -1    3.70    0.27
   5   0  -1    3.68    0.30
  -5   0   1    3.94    0.30
  -5   0   1    3.38    0.22
  -5   0   1    3.68    0.26
   4   0  -1    5.14    0.31
  -4   0   1    5.30    0.28
  -4   0   1    5.61    0.25
  -4   0   1    4.82    0.30
   3   0  -1    5.89    0.29
  -3   0   1    6.31    0.27
  -3   0   1    5.87    0.29
   2   0  -1   26.55    0.69
  -2   0   1   25.69    0.63
  -2   0   1   26.50    0.69
   1   0  -1   22.25    0.54
   0   0   1   20.85    0.49
  -1   0  -1  284.68    5.83
  -2   0  -1   24.09    0.63
  -3   0  -1    7.93    0.29
  -3   0  -1    7.92    0.29
  -3   0  -1    7.63    0.33
   3   0   1    8.07    0.34
   3   0   1    7.82    0.29
  -4   0  -1    1.66    0.14
  -4   0  -1    1.78    0.16
  -4   0  -1    1.67    0.20
   4   0   1    1.77    0.15
   4   0   1    1.91    0.16
   4   0   1    2.10    0.23
  -5   0  -1   50.24    1.23
  -5   0  -1   50.88    1.21
  -5   0  -1   49.62    1.39
   5   0   1   48.61    1.22
   5   0   1   48.11    1.39
   5   0   1   49.85    1.22
  -6   0  -1    2.04    0.23
  -6   0  -1    1.75    0.26
  -6   0  -1    2.16    0.23
   6   0   1    2.79    0.30
   6   0   1    2.44    0.27
   6   0   1    2.50    0.31
  -7   0  -1    0.51    0.15
  -7   0  -1    0.60    0.18
   7   0   1    0.39    0.13
   7   0   1    0.46    0.18
  -8   0  -1    4.00    0.46
  -8   0  -1    3.92    0.33
   8   0   1    3.57    0.45
   8   0   1    3.47    0.37
   9  -1  -1    0.35    0.19
  -9   1   1    0.11    0.13
   8  -1  -1   -3.41    7.75
   7  -1  -1   -0.61    6.92
   7  -1  -1   -0.04    0.10
   7  -1  -1    0.01    0.10
  -7   1   1    0.11    0.11
  -7   1   1    0.04    0.09
   6  -1  -1   23.62    0.81
   6  -1  -1   25.39    0.99
  -6   1   1   25.36    0.82
  -6   1   1   23.74    0.94
   5  -1  -1    1.48    0.20
   5  -1  -1    1.43    0.23
  -5   1   1    1.69    0.24
  -5   1   1    1.93    0.22
   4  -1  -1    4.33    0.26
   4  -1  -1    4.99    0.23
   4  -1  -1    5.12    0.33
  -4   1   1    4.87    0.27
  -4   1   1    4.20    0.30
  -4   1   1    4.56    0.21
   3  -1  -1  128.13    3.03
   3  -1  -1  127.52    2.62
   3  -1  -1  133.79    2.93
  -3   1   1  135.49    2.93
  -3   1   1  126.47    2.62
   2  -1  -1   16.26    0.45
   2  -1  -1   14.89    0.43
   2  -1  -1   15.97    0.51
  -2   1   1   15.81    0.51
   1  -1  -1  149.33    3.06
  -1   1   1  139.17    3.42
  -1   1   1  151.68    3.07
   0   1   1   62.90    1.34
  -1  -1  -1  213.81    4.38
   1   1   1  204.02    4.38
   1   1   1  226.75    4.40
  -2  -1  -1    1.95    0.11
   2   1   1    1.98    0.11
  -3  -1  -1  125.21    2.57
  -3  -1  -1  124.14    2.50
  -3  -1  -1  125.86    2.70
   3   1   1  125.04    2.69
  -4  -1  -1   11.52    0.41
  -4  -1  -1   11.67    0.45
  -4  -1  -1   11.22    0.42
   4   1   1   11.05    0.44
  -5  -1  -1    4.54    0.27
  -5  -1  -1    4.58    0.28
  -5  -1  -1    4.38    0.29
   5   1   1    4.99    0.31
  -6  -1  -1    5.62    0.34
  -6  -1  -1    5.45    0.37
  -6  -1  -1    5.00    0.32
   6   1   1    4.70    0.32
   6   1   1    5.12    0.36
  -7  -1  -1    2.43    0.29
  -7  -1  -1    2.44    0.31
   7   1   1    2.27    0.33
   7   1   1    2.39    0.32
   7   1   1    2.46    0.30
  -8  -1  -1    9.52    0.52
   8   1   1    9.30    0.52
   9  -2  -1   -6.76    9.00
   9  -2  -1    1.33    0.26
   8  -2  -1   -3.07    7.36
   7  -2  -1    3.50    0.36
   7  -2  -1    3.29    0.44
   7  -2  -1    1.41    7.91
  -7   2   1    3.76    0.46
  -7   2   1    3.08    0.34
   6  -2  -1    8.44    0.56
   6  -2  -1    8.55    0.44
  -6   2   1    6.66    0.49
  -6   2   1    7.80    0.42
   5  -2  -1   10.38    0.58
   5  -2  -1   11.56    0.48
  -5   2   1   10.85    0.58
  -5   2   1   11.39    0.48
   4  -2  -1   11.81    0.45
   4  -2  -1   11.79    0.56
  -4   2   1   11.47    0.55
  -4   2   1   11.36    0.44
   3  -2  -1   32.32    0.97
   3  -2  -1   31.12    0.81
  -3   2   1   32.19    0.97
  -3   2   1   32.04    0.81
   2  -2  -1    0.06    0.04
  -2   2   1    0.11    0.15
  -2   2   1    0.04    0.03
  -2   2   1    0.01    0.04
  -2   2   1    0.00    0.03
   1  -2  -1  170.52    3.34
  -1   2   1  181.50    3.69
  -1   2   1  172.54    3.34
   0   2   1  261.16    5.30
   1   2   1   18.47    0.42
  -2  -2  -1    1.34    0.10
   2   2   1    1.41    0.08
  -3  -2  -1   10.42    0.39
  -3  -2  -1   10.05    0.36
   3   2   1   10.36    0.34
  -4  -2  -1   20.69    0.63
  -4  -2  -1   21.75    0.63
  -4  -2  -1   20.35    0.65
   4   2   1   20.70    0.62
  -5  -2  -1    0.70    0.13
  -5  -2  -1    0.80    0.15
  -5  -2  -1    0.51    0.12
   5   2   1    0.65    0.13
  -6  -2  -1    3.55    0.28
  -6  -2  -1    3.84    0.29
  -6  -2  -1    3.61    0.28
   6   2   1    3.40    0.28
  -7  -2  -1    1.86    0.26
  -7  -2  -1    2.05    0.28
  -8  -2  -1    7.77    0.48
   8   2   1    7.27    0.54
   8   2   1    7.29    0.47
   9   2   1    0.10    0.21
   9  -3  -1    2.46    0.37
  -9   3   1    2.24    0.34
   8  -3  -1   -0.92    9.11
   8  -3  -1    0.98    0.23
  -8   3   1    0.46    0.17
   7  -3  -1   -1.34    7.09
   6  -3  -1    0.11    6.75
   6  -3  -1    0.81    0.17
   6  -3  -1    0.95    0.23
  -6   3   1    0.77    0.17
  -6   3   1    0.69    0.21
   5  -3  -1    0.71    0.19
   5  -3  -1    0.68    0.15
  -5   3   1    0.64    0.14
  -5   3   1    0.66    0.18
   4  -3  -1   24.80    0.74
   4  -3  -1   23.38    0.91
  -4   3   1   24.31    0.91
  -4   3   1   24.98    0.74
  -4   3   1   23.78    1.06
   3  -3  -1   37.14    1.12
   3  -3  -1   35.78    0.92
  -3   3   1   35.45    1.40
  -3   3   1   36.20    0.92
  -3   3   1   37.27    1.11
  -3   3   1   35.26    1.39
   2  -3  -1    4.57    0.23
  -2   3   1    4.87    0.23
  -2   3   1    4.70    0.45
  -2   3   1    4.82    0.25
  -2   3   1    4.65    0.29
   1  -3  -1    1.51    0.12
  -1   3   1    1.14    0.07
  -1   3   1    1.92    0.16
   0  -3  -1    6.37    0.23
   0   3   1    6.40    0.26
  -1  -3  -1    2.53    0.14
   1   3   1    2.64    0.12
  -2  -3  -1   39.23    0.91
  -2  -3  -1   38.42    0.96
   2   3   1   39.36    0.87
  -3  -3  -1   20.69    0.63
  -3  -3  -1   17.48    0.87
  -3  -3  -1   20.09    0.58
   3   3   1   19.89    0.52
  -4  -3  -1   48.39    1.25
  -4  -3  -1   47.54    1.18
   4   3   1   47.93    1.15
  -5  -3  -1    5.93    0.35
  -5  -3  -1    6.05    0.35
   5   3   1    5.72    0.30
  -6  -3  -1   15.86    0.66
  -6  -3  -1   17.30    0.67
  -7  -3  -1   21.51    0.84
  -7  -3  -1   23.40    0.84
  -8  -3  -1    8.19    0.51
  -8  -3  -1    8.09    0.50
   8   3   1    8.21    0.59
   9   3   1    0.87    0.28
  10   3   1    3.73    0.53
   8  -4  -1   -3.86    9.01
   8  -4  -1   -0.06    0.12
  -8   4   1   -0.09    0.11
   7  -4  -1   -3.39    7.61
   6  -4  -1    7.00    0.56
   6  -4  -1    5.47    0.39
   6  -4  -1    5.69    8.46
  -6   4   1    5.46    0.50
  -6   4   1    5.38    0.38
   5  -4  -1   14.04    9.01
   5  -4  -1   11.07    0.66
   5  -4  -1   10.91    0.51
  -5   4   1   11.92    0.53
  -5   4   1   11.50    0.81
  -5   4   1   10.50    0.64
   4  -4  -1    4.87    0.31
   4  -4  -1    5.16    0.40
  -4   4   1    3.83    0.55
  -4   4   1    4.44    0.37
  -4   4   1    4.68    0.56
  -4   4   1    4.86    0.31
   3  -4  -1    0.04    0.05
  -3   4   1   -0.05    0.06
  -3   4   1    0.05    0.06
  -3   4   1   -0.10    0.29
  -3   4   1   -0.06    0.29
   2  -4  -1    0.28    0.08
  -2   4   1    0.35    0.31
  -2   4   1    0.59    0.33
  -2   4   1    0.23    0.10
   1  -4  -1    2.76    0.18
  -1   4   1    3.21    0.23
  -1   4   1    2.27    0.44
  -1   4   1    3.13    0.12
   0  -4  -1    0.94    0.12
   0  -4  -1    1.04    0.11
   0  -4  -1    1.03    0.12
   0   4   1    0.96    0.08
   0   4   1    0.85    0.12
  -1  -4  -1   35.20    0.89
  -1  -4  -1   35.03    0.74
  -1  -4  -1   35.33    0.86
   1   4   1   35.86    0.72
   1   4   1   35.40    0.87
  -2  -4  -1    1.41    0.09
  -2  -4  -1    1.68    0.15
  -2  -4  -1    2.08    0.40
  -2  -4  -1    1.51    0.17
   2   4   1    1.70    0.11
  -3  -4  -1   18.54    0.48
  -3  -4  -1   18.48    0.63
  -3  -4  -1   18.41    0.86
  -3  -4  -1   18.48    0.58
  -3  -4  -1   16.59    0.96
   3   4   1   19.30    0.50
  -4  -4  -1   25.46    0.82
  -4  -4  -1   24.08    1.14
  -4  -4  -1   25.06    1.06
  -4  -4  -1   24.75    0.76
   4   4   1   24.94    0.66
  -5  -4  -1    4.98    0.43
  -5  -4  -1    4.36    0.33
  -5  -4  -1    5.19    0.33
  -6  -4  -1    1.72    0.25
  -6  -4  -1    1.71    0.26
  -7  -4  -1   10.63    0.58
  -7  -4  -1   10.86    0.57
  -8  -4  -1    0.25    0.14
  -8  -4  -1    0.36    0.16
  -9  -4  -1    3.71    0.45
   9   4   1    3.19    0.48
  10   4   1    2.72    0.49
   7  -5  -1    3.34   10.08
   6  -5  -1    0.08    0.13
   6  -5  -1   -0.71    6.74
  -6   5   1    0.24    0.48
   5  -5  -1    0.88    0.24
   5  -5  -1    4.47    8.61
   5  -5  -1    1.42    0.23
  -5   5   1    1.16    0.53
  -5   5   1    1.29    0.28
   4  -5  -1    1.50    0.21
   4  -5  -1    1.07    0.23
   4  -5  -1   -3.75    4.59
  -4   5   1    0.99    0.23
  -4   5   1    0.67    0.49
  -4   5   1    0.48    0.46
   3  -5  -1   -2.86    3.78
   3  -5  -1    0.21    0.10
  -3   5   1   -0.21    0.36
  -3   5   1    0.31    0.12
  -3   5   1   -0.29    0.38
  -3   5   1    0.20    0.13
   2  -5  -1   65.56    1.53
   2  -5  -1  117.53   17.43
  -2   5   1   68.11    2.54
  -2   5   1   64.49    1.79
  -2   5   1   65.46    2.51
  -2   5   1   62.87    1.75
   1  -5  -1    8.22    0.31
   1  -5  -1    7.84    5.13
   1  -5  -1    7.25    0.34
   1  -5  -1    7.74    0.29
  -1   5   1    7.96    0.41
  -1   5   1    7.65    0.69
  -1   5   1    7.76    0.76
  -1   5   1    8.01    0.24
   0  -5  -1    1.01    0.14
   0  -5  -1    0.94    0.11
   0  -5  -1    0.93    0.13
   0   5   1    0.21    0.35
   0   5   1    0.83    0.09
   0   5   1    0.80    0.13
  -1  -5  -1   24.45    1.26
  -1  -5  -1   25.13    0.73
  -1  -5  -1   24.32    0.70
  -1  -5  -1   25.66    0.60
   1   5   1   25.06    0.72
   1   5   1   25.10    0.57
  -2  -5  -1   33.55    0.73
  -2  -5  -1   34.14    0.91
  -2  -5  -1   33.49    1.55
  -2  -5  -1   35.40    0.97
   2   5   1   35.18    0.75
   2   5   1   35.39    0.87
  -3  -5  -1   50.79    1.34
  -3  -5  -1   52.49    0.93
  -3  -5  -1   51.02    1.26
  -3  -5  -1   51.00    1.12
  -3  -5  -1   49.85    2.03
  -3  -5  -1   50.31    1.93
   3   5   1   50.66    1.18
  -4  -5  -1    7.90    0.29
  -4  -5  -1    7.21    0.42
  -4  -5  -1    7.39    0.59
  -4  -5  -1    7.68    0.40
  -4  -5  -1    6.52    0.77
  -5  -5  -1    8.60    0.64
  -5  -5  -1    9.46    0.47
  -5  -5  -1   10.04    0.52
  -5  -5  -1    8.99    0.80
  -6  -5  -1   42.43    1.27
  -6  -5  -1   43.02    1.34
  -6  -5  -1   42.26    1.72
  -7  -5  -1    4.28    0.46
  -7  -5  -1    4.83    0.40
  -8  -5  -1    0.18    0.14
  -8  -5  -1    0.07    0.13
  -9  -5  -1    0.16    0.16
   9   5   1    0.11    0.25
  10   5   1    0.31    0.27
   7  -6  -1   -3.19    9.28
   7  -6  -1   -0.02    0.13
   6  -6  -1    8.35   10.23
   6  -6  -1    2.59    0.33
  -6   6   1    3.02    0.68
   5  -6  -1    5.17    9.09
   4  -6  -1    6.19    0.51
   4  -6  -1    7.92    8.54
   4  -6  -1    6.48    0.40
  -4   6   1    6.25    0.81
  -4   6   1    6.55    0.82
  -4   6   1    6.34    0.50
   3  -6  -1   -4.07    4.74
  -3   6   1    0.69    0.49
  -3   6   1    0.91    0.48
   2  -6  -1    4.30    0.29
   2  -6  -1    1.85    5.93
  -2   6   1    3.97    0.34
  -2   6   1    2.63    0.55
  -2   6   1    2.74    0.59
  -2   6   1    4.27    0.33
   1  -6  -1    0.60    0.13
   1  -6  -1    1.03    0.14
   1  -6  -1    6.10    5.95
  -1   6   1    0.70    0.16
  -1   6   1   -0.07    0.48
  -1   6   1   -0.37    0.45
  -1   6   1    0.80    0.09
   0  -6  -1    7.16    0.35
   0  -6  -1    6.81    0.33
   0  -6  -1    6.68    0.29
   0  -6  -1   -2.05    3.51
   0   6   1    6.03    0.78
   0   6   1    5.93    0.24
   0   6   1    6.35    0.37
  -1  -6  -1    1.13    0.17
  -1  -6  -1    0.86    0.12
  -1  -6  -1    1.13    0.17
   1   6   1    0.95    0.15
   1   6   1    1.12    0.12
  -2  -6  -1    6.34    0.77
  -2  -6  -1    4.95    0.30
  -2  -6  -1    4.95    0.23
  -2  -6  -1    5.29    0.34
  -2  -6  -1    4.82    0.53
  -2  -6  -1    5.23    0.29
   2   6   1    5.40    0.23
  -3  -6  -1    4.67    0.18
  -3  -6  -1    5.16    0.32
  -3  -6  -1    4.88    0.34
  -3  -6  -1    4.88    0.27
  -3  -6  -1    5.63    0.81
  -3  -6  -1    4.45    0.53
  -4  -6  -1   71.27    1.76
  -4  -6  -1   72.21    2.79
  -4  -6  -1   71.70    2.68
  -4  -6  -1   73.12    1.88
  -4  -6  -1   72.15    1.53
  -5  -6  -1   13.24    0.87
  -5  -6  -1   12.44    0.64
  -5  -6  -1   13.98    1.03
  -5  -6  -1   12.38    0.58
  -6  -6  -1   -0.02    0.09
  -6  -6  -1    0.10    0.30
  -6  -6  -1    0.00    0.10
  -6  -6  -1    0.42    0.34
  -7  -6  -1   -0.02    0.10
  -7  -6  -1   -0.03    0.10
  -7  -6  -1   -0.08    0.31
  -8  -6  -1    0.35    0.32
  -8  -6  -1    0.47    0.19
  -8  -6  -1    0.46    0.19
  -9  -6  -1    4.48    0.54
   9   6   1    4.36    0.57
   6  -7  -1   -1.71    8.66
   6  -7  -1   -0.14    0.12
  -6   7   1    0.33    0.64
   5  -7  -1    6.94   10.26
   4  -7  -1    3.04    0.34
   4  -7  -1   10.23    9.69
  -4   7   1    3.49    0.66
  -4   7   1    2.53    0.70
   3  -7  -1    1.99    7.45
   3  -7  -1    0.76    0.18
  -3   7   1    0.59    0.20
  -3   7   1    0.25    0.56
  -3   7   1    0.42    0.49
   2  -7  -1   15.62    9.32
   2  -7  -1    5.06    0.34
  -2   7   1    5.08    0.42
  -2   7   1    3.02    0.68
  -2   7   1    4.09    0.73
   1  -7  -1    0.93    0.18
   1  -7  -1    1.68    5.82
  -1   7   1    0.64    0.58
  -1   7   1    0.98    0.11
  -1   7   1    1.03    0.20
  -1   7   1    1.09    0.21
   0  -7  -1   40.01    0.98
   0  -7  -1   40.49    1.13
   0   7   1   40.57    0.89
   0   7   1   42.46    1.25
  -1  -7  -1    2.51    0.28
  -1  -7  -1    2.16    0.26
  -1  -7  -1    2.53    0.23
   1   7   1    2.61    0.18
  -2  -7  -1    2.00    0.18
  -2  -7  -1    2.27    0.27
  -2  -7  -1    2.84    0.70
  -2  -7  -1    2.02    0.26
  -2  -7  -1    2.03    0.25
   2   7   1    2.09    0.17
  -3  -7  -1    9.68    0.52
  -3  -7  -1   10.40    0.33
  -3  -7  -1   10.59    1.18
  -3  -7  -1   10.62    0.51
  -3  -7  -1   10.49    0.45
  -3  -7  -1   10.60    0.82
   3   7   1    9.85    0.37
  -4  -7  -1    3.03    0.36
  -4  -7  -1    3.28    0.36
  -4  -7  -1    4.34    0.74
  -4  -7  -1    4.45    0.65
  -4  -7  -1    3.41    0.25
  -5  -7  -1    2.24    0.50
  -5  -7  -1    1.96    0.30
  -5  -7  -1    3.33    0.38
  -5  -7  -1    3.18    0.64
  -6  -7  -1    0.76    0.21
  -6  -7  -1    0.83    0.48
  -6  -7  -1    0.31    0.37
  -6  -7  -1    1.00    0.24
  -7  -7  -1   -0.02    0.11
  -7  -7  -1   -0.24    0.31
  -7  -7  -1   -0.05    0.10
  -8  -7  -1    7.39    0.79
  -8  -7  -1    6.03    0.51
  -8  -7  -1    6.94    0.57
  -9  -7  -1    1.16    0.30
   9   7   1    0.97    0.35
   5  -8  -1   -4.60    8.16
   5  -8  -1    0.21    0.16
  -5   8   1   -0.05    0.67
   4  -8  -1   -0.74    7.93
   4  -8  -1    0.26    0.15
  -4   8   1    0.28    0.57
  -4   8   1    0.96    0.68
   3  -8  -1    0.25    0.13
   3  -8  -1    4.76    7.95
  -3   8   1    0.25    0.57
  -3   8   1    0.59    0.64
   2  -8  -1    0.97    0.20
   2  -8  -1   -6.53    5.87
  -2   8   1    0.93    0.25
  -2   8   1    0.63    0.63
   1  -8  -1    2.69    0.31
  -1   8   1    3.58    0.17
  -1   8   1    3.41    0.39
  -1   8   1    1.60    0.70
   0  -8  -1    0.57    0.14
   0  -8  -1    0.43    0.14
   0   8   1    0.49    0.11
  -1  -8  -1   33.57    0.88
  -1  -8  -1   32.28    1.04
   1   8   1   34.44    0.82
  -2  -8  -1    4.65    0.38
  -2  -8  -1    5.52    0.36
  -2  -8  -1    5.30    0.28
  -2  -8  -1    4.74    0.35
   2   8   1    5.58    0.27
  -3  -8  -1   14.36    0.43
  -3  -8  -1   16.47    1.41
  -3  -8  -1   14.61    0.65
  -3  -8  -1   13.02    0.66
  -3  -8  -1   13.24    0.56
   3   8   1   14.06    0.47
  -4  -8  -1   -0.32    0.34
  -4  -8  -1    0.05    0.11
  -4  -8  -1   -0.17    0.40
  -4  -8  -1   -0.03    0.09
  -4  -8  -1   -0.09    0.07
  -5  -8  -1    7.33    1.04
  -5  -8  -1    6.40    0.47
  -5  -8  -1    6.92    0.75
  -5  -8  -1    5.65    0.47
  -6  -8  -1    2.82    0.39
  -6  -8  -1    2.97    0.72
  -6  -8  -1    1.78    0.51
  -6  -8  -1    2.18    0.35
  -7  -8  -1    0.87    0.25
  -7  -8  -1    0.54    0.41
  -7  -8  -1    0.45    0.20
  -7  -8  -1    0.24    0.40
  -8  -8  -1    0.71    0.45
  -8  -8  -1    1.17    0.31
  -8  -8  -1    0.74    0.26
  -9  -8  -1    0.51    0.24
   4  -9  -1   -6.71    7.93
   4  -9  -1    0.05    0.12
   3  -9  -1   -4.83    7.64
   3  -9  -1    0.10    0.14
  -3   9   1    0.63    0.66
   2  -9  -1   -0.03    0.10
  -2   9   1   -0.02    0.62
   1  -9  -1    0.67    0.18
   0  -9  -1    1.42    0.25
   0  -9  -1    1.23    0.19
   0   9   1    0.88    0.13
  -1  -9  -1    0.91    0.16
  -1  -9  -1    0.93    0.22
   1   9   1    0.78    0.13
  -2  -9  -1    3.95    0.42
  -2  -9  -1    3.50    0.24
  -2  -9  -1    3.98    0.42
  -2  -9  -1    4.31    0.35
   2   9   1    4.23    0.25
  -3  -9  -1    2.10    0.33
  -3  -9  -1    2.11    0.31
  -3  -9  -1    1.55    0.24
  -3  -9  -1    1.78    0.18
   3   9   1    1.72    0.20
  -4  -9  -1    0.23    0.15
  -4  -9  -1    0.16    0.15
  -4  -9  -1   -0.01    0.45
  -4  -9  -1    0.15    0.11
  -5  -9  -1    0.41    0.19
  -5  -9  -1    1.05    0.60
  -5  -9  -1    0.33    0.16
  -6  -9  -1    0.80    0.46
  -6  -9  -1    1.15    0.28
  -6  -9  -1    1.69    0.66
  -6  -9  -1    1.12    0.29
  -7  -9  -1   -0.12    0.12
  -7  -9  -1   -0.17    0.41
  -7  -9  -1    0.23    0.17
  -7  -9  -1    0.89    0.52
  -8  -9  -1    9.54    0.72
  -8  -9  -1    9.96    0.71
   2 -10  -1    0.11    0.14
  -2  10   1    0.20    0.75
   1 -10  -1    1.05    0.21
   1 -10  -1    1.26    0.27
   0 -10  -1    1.29    0.27
   0 -10  -1    1.12    0.20
   0  10   1    1.04    0.14
  -1 -10  -1    1.18    0.20
  -1 -10  -1    1.40    0.27
   1  10   1    0.94    0.15
  -2 -10  -1    0.02    0.11
  -2 -10  -1    0.20    0.10
   2  10   1    0.10    0.09
  -3 -10  -1    2.68    0.34
  -3 -10  -1    2.18    0.22
  -3 -10  -1    2.77    0.39
  -3 -10  -1    3.02    0.39
   3  10   1    2.04    0.22
  -4 -10  -1    9.03    0.63
  -4 -10  -1   10.42    0.64
  -4 -10  -1    9.60    0.53
   4  10   1   10.60    0.45
  -5 -10  -1    0.89    0.65
  -5 -10  -1    0.87    0.26
  -5 -10  -1    1.14    0.31
  -6 -10  -1   -0.11    0.52
  -6 -10  -1    0.10    0.17
  -6 -10  -1    0.14    0.17
  -7 -10  -1    0.11    0.17
  -7 -10  -1   -0.07    0.15
   1 -11  -1    0.51    0.18
   0 -11  -1    0.46    0.18
   0 -11  -1    0.56    0.17
   0  11   1    0.52    0.11
  -1 -11  -1    1.27    0.28
  -1 -11  -1    0.71    0.17
   1  11   1    0.95    0.16
  -2 -11  -1    1.01    0.18
  -2 -11  -1    1.14    0.27
   2  11   1    1.23    0.18
  -3 -11  -1    0.81    0.15
  -3 -11  -1    0.59    0.20
  -3 -11  -1    1.21    0.28
   3  11   1    0.57    0.14
  -4 -11  -1    0.10    0.17
  -4 -11  -1    0.11    0.14
  -4 -11  -1    0.04    0.13
   4  11   1    0.01    0.10
  -5 -11  -1    0.52    0.23
  -5 -11  -1    0.30    0.19
   4  11  -2    1.35    0.20
  -4 -11   2    1.39    0.34
   3  11  -2    0.42    0.13
  -3 -11   2    0.27    0.11
  -3 -11   2    0.43    0.21
  -3 -11   2    0.29    0.18
   2  11  -2    0.12    0.10
  -2 -11   2   -0.01    0.14
  -2 -11   2    0.12    0.11
   1  11  -2   -0.05    0.08
  -1 -11   2    0.07    0.12
  -6 -10   2    4.25    0.54
  -6 -10   2    3.92    0.52
  -6 -10   2    6.90    1.28
  -5 -10   2    2.36    0.41
  -5 -10   2    2.68    0.88
  -5 -10   2    2.20    0.39
   4  10  -2   -0.15    0.08
  -4 -10   2    0.01    0.14
  -4 -10   2    0.06    0.15
   3  10  -2   -0.03    0.08
  -3 -10   2   -0.04    0.07
  -3 -10   2    0.06    0.13
  -3 -10   2   -0.14    0.13
  -3 -10   2   -0.02    0.12
   2  10  -2   -0.12    0.06
  -2 -10   2    0.15    0.10
  -2 -10   2    0.00    0.12
   1  10  -2    0.08    0.08
  -1 -10   2    0.06    0.10
  -1 -10   2    0.24    0.15
   0  10  -2    0.07    0.07
   0 -10   2    0.21    0.15
   0 -10   2   -0.05    0.10
   1 -10   2    0.60    0.17
   1 -10   2    0.85    0.24
   2 -10   2    1.43    0.30
   7   9  -2    0.27    0.23
  -7  -9   2    0.45    0.23
  -7  -9   2    0.70    0.27
  -7  -9   2    1.11    0.62
   6   9  -2    2.38    0.40
  -6  -9   2    2.54    0.41
  -6  -9   2    3.46    0.94
  -6  -9   2    2.30    0.39
  -5  -9   2    4.16    0.50
  -5  -9   2    8.24    1.32
  -5  -9   2    5.99    0.50
  -4  -9   2    0.55    0.59
  -4  -9   2    0.40    0.16
  -4  -9   2    0.70    0.21
  -4  -9   2    0.41    0.20
   3   9  -2    0.48    0.12
  -3  -9   2    0.33    0.15
  -3  -9   2    0.40    0.11
  -3  -9   2    0.41    0.16
  -3  -9   2    0.31    0.17
   2   9  -2    0.43    0.12
  -2  -9   2    0.37    0.17
  -2  -9   2    0.91    0.22
  -2  -9   2    0.51    0.13
   1   9  -2    0.02    0.07
  -1  -9   2    0.03    0.09
  -1  -9   2    0.19    0.14
   0   9  -2    0.33    0.09
   0  -9   2    0.33    0.16
   0  -9   2    0.27    0.12
   1  -9   2    1.47    0.27
  -2   9  -2    0.45    0.73
   2  -9   2    0.17    0.14
  -3   9  -2    0.46    0.72
   3  -9   2    0.50    0.18
   8   8  -2    5.89    0.66
  -8  -8   2    4.16    0.55
  -8  -8   2    4.98    0.60
   7   8  -2    1.20    0.31
  -7  -8   2    0.31    0.43
  -7  -8   2    1.32    0.31
  -7  -8   2    0.87    0.53
  -7  -8   2    0.82    0.25
   6   8  -2    1.77    0.34
  -6  -8   2    0.71    0.45
  -6  -8   2    2.31    0.70
  -6  -8   2    1.58    0.32
  -6  -8   2    1.47    0.30
   5   8  -2    3.39    0.43
  -5  -8   2    2.79    0.59
  -5  -8   2    2.72    0.39
  -5  -8   2    3.40    0.43
  -5  -8   2    5.14    0.95
  -4  -8   2   14.50    0.70
  -4  -8   2   17.16    1.43
  -4  -8   2   14.24    0.60
  -4  -8   2   13.78    0.73
  -4  -8   2   15.83    1.30
   3   8  -2   12.44    0.45
  -3  -8   2   12.09    0.41
  -3  -8   2   11.55    0.54
  -3  -8   2   11.11    0.59
  -3  -8   2   10.74    0.62
   2   8  -2    4.97    0.26
  -2  -8   2    4.99    0.38
  -2  -8   2    4.34    0.26
  -2  -8   2    4.14    0.36
  -2  -8   2    4.72    0.35
   1   8  -2   -0.04    0.05
  -1  -8   2    0.01    0.10
  -1  -8   2    0.08    0.09
  -1  -8   2   -0.04    0.07
   0   8  -2    0.20    0.14
   0   8  -2    0.14    0.08
   0  -8   2    0.20    0.10
   0  -8   2   -0.01    0.09
  -1   8  -2    0.59    0.65
  -1   8  -2    0.75    0.22
  -1   8  -2    0.73    0.09
   1  -8   2    0.69    0.18
  -2   8  -2    0.33    0.65
   2  -8   2   -0.11    0.10
   2  -8   2   -3.89    7.24
  -3   8  -2   -0.09    0.63
  -3   8  -2    0.65    0.63
   3  -8   2    0.67    0.19
   3  -8   2   -0.76    9.53
  -4   8  -2    1.78    0.77
  -4   8  -2    1.68    0.67
   4  -8   2    1.81    0.28
   4  -8   2    2.47    9.52
   5  -8   2    3.49    9.64
   9   7  -2    0.09    0.24
  -9  -7   2   -0.03    0.16
  -9  -7   2   -0.06    0.16
   8   7  -2    0.01    0.21
  -8  -7   2   -0.18    0.44
  -8  -7   2    0.07    0.15
  -8  -7   2    0.01    0.15
   7   7  -2    1.83    0.36
  -7  -7   2    1.09    0.45
  -7  -7   2    4.02    0.75
  -7  -7   2    1.99    0.35
  -7  -7   2    2.62    0.41
   6   7  -2    9.89    0.65
  -6  -7   2    8.38    0.84
  -6  -7   2    7.80    0.56
  -6  -7   2    9.67    1.02
  -6  -7   2    9.72    0.59
  -5  -7   2    1.10    0.24
  -5  -7   2    1.00    0.43
  -5  -7   2    1.76    0.57
  -5  -7   2    0.73    0.21
  -4  -7   2    0.57    0.56
  -4  -7   2    1.03    0.22
  -4  -7   2    1.48    0.49
  -4  -7   2    1.08    0.23
   3   7  -2    0.96    0.14
  -3  -7   2    0.87    0.12
  -3  -7   2    0.97    0.20
  -3  -7   2    1.04    0.20
  -3  -7   2    0.79    0.16
  -3  -7   2    1.81    0.67
   2   7  -2   14.49    0.46
  -2  -7   2   14.25    0.61
  -2  -7   2   13.90    0.63
  -2  -7   2   15.05    0.47
  -2  -7   2   14.21    0.57
   1   7  -2    7.11    0.42
   1   7  -2    7.15    0.30
  -1  -7   2    6.62    0.41
  -1  -7   2    6.79    0.32
  -1  -7   2    7.24    0.42
   0   7  -2   21.03    0.85
   0  -7   2   22.35    0.78
   0  -7   2   22.49    0.66
   0  -7   2   24.17    0.81
  -1   7  -2    1.31    0.61
  -1   7  -2    2.00    0.29
  -1   7  -2    2.36    0.14
   1  -7   2    2.13    0.26
  -2   7  -2    1.19    0.62
  -2   7  -2    1.18    0.62
  -2   7  -2    1.98    0.31
   2  -7   2    1.64    0.24
  -3   7  -2    1.70    0.67
  -3   7  -2    1.17    0.61
  -3   7  -2    1.50    0.29
   3  -7   2    1.29    0.22
  -4   7  -2    1.16    0.67
  -4   7  -2    0.66    0.54
   4  -7   2    0.52    0.16
  -5   7  -2    0.30    0.63
   5  -7   2   -0.85    8.40
   5  -7   2    0.06    0.12
   6  -7   2   -4.01    8.71
   9   6  -2    3.65    0.55
  -9  -6   2    3.34    0.48
  -9  -6   2    2.63    0.43
   8   6  -2    0.02    0.20
  -8  -6   2    0.33    0.40
  -8  -6   2    0.29    0.18
  -8  -6   2    0.46    0.20
   7   6  -2    0.38    0.19
  -7  -6   2    0.10    0.14
  -7  -6   2    0.20    0.34
  -7  -6   2    0.69    0.22
  -6  -6   2    5.87    0.82
  -6  -6   2    4.71    0.42
  -6  -6   2    5.28    0.42
  -6  -6   2    4.76    0.62
  -5  -6   2    1.57    0.43
  -5  -6   2    1.50    0.53
  -5  -6   2    1.10    0.22
  -5  -6   2    1.25    0.24
  -4  -6   2    3.61    0.31
  -4  -6   2    4.15    0.57
  -4  -6   2    4.61    0.77
  -4  -6   2    4.24    0.35
   3   6  -2    4.75    0.24
  -3  -6   2    6.54    0.91
  -3  -6   2    4.81    0.33
  -3  -6   2    5.13    0.36
  -3  -6   2    5.03    0.61
  -3  -6   2    5.04    0.21
  -3  -6   2    5.70    0.31
   2   6  -2    6.55    0.27
   2   6  -2    6.46    0.34
  -2  -6   2    6.32    0.33
  -2  -6   2    5.52    0.25
  -2  -6   2    5.51    0.34
  -2  -6   2    5.86    0.81
  -2  -6   2    6.51    0.38
   1   6  -2    6.72    0.27
   1   6  -2    6.83    0.37
  -1  -6   2    7.26    0.38
  -1  -6   2    7.45    0.37
  -1  -6   2    6.62    0.29
  -1  -6   2    6.73    0.37
   0   6  -2    4.59    0.20
   0   6  -2    4.37    0.76
   0   6  -2    4.30    0.32
   0  -6   2    4.55    0.29
   0  -6   2    4.28    0.24
   0  -6   2    4.71    0.30
  -1   6  -2    0.02    0.46
  -1   6  -2    0.15    0.09
  -1   6  -2    0.13    0.10
  -1   6  -2    0.14    0.05
  -1   6  -2    0.18    0.47
   1  -6   2    0.33    0.11
   1  -6   2    0.17    0.09
  -2   6  -2   11.29    0.61
  -2   6  -2   12.28    0.99
  -2   6  -2   12.40    1.02
  -2   6  -2   10.25    0.59
   2  -6   2   12.11    0.51
  -3   6  -2    2.66    0.68
  -3   6  -2    1.34    0.26
  -3   6  -2    0.80    0.53
   3  -6   2    1.68    0.23
  -4   6  -2    0.19    0.53
  -4   6  -2    0.11    0.47
  -4   6  -2    0.28    0.16
   4  -6   2    0.37    0.14
  -5   6  -2    0.59    0.57
   5  -6   2    0.74    0.19
  -6   6  -2   10.58    1.01
   6  -6   2    9.65    0.55
   6  -6   2    5.87    9.81
   9   5  -2    4.34    0.58
  -9  -5   2    4.19    0.51
  -9  -5   2    3.99    0.51
   8   5  -2    3.19    0.46
  -8  -5   2    2.91    0.41
  -8  -5   2    3.13    0.42
  -8  -5   2    2.13    0.50
   7   5  -2    0.16    0.15
  -7  -5   2   -0.12    0.07
  -7  -5   2   -0.02    0.28
  -7  -5   2    0.08    0.10
  -6  -5   2    1.37    0.25
  -6  -5   2    1.65    0.28
  -6  -5   2    1.11    0.40
  -6  -5   2    1.42    0.44
  -5  -5   2    1.57    0.24
  -5  -5   2    1.55    0.25
  -5  -5   2    1.54    0.40
  -5  -5   2    0.62    0.43
   4   5  -2    4.96    0.28
  -4  -5   2    5.07    0.34
  -4  -5   2    4.77    0.53
  -4  -5   2    4.96    0.65
  -4  -5   2    5.21    0.36
   3   5  -2    3.54    0.23
  -3  -5   2    3.25    0.21
  -3  -5   2    3.64    0.28
  -3  -5   2    3.29    0.25
  -3  -5   2    5.49    0.75
  -3  -5   2    3.42    0.15
  -3  -5   2    3.12    0.44
   2   5  -2    8.25    0.36
   2   5  -2    7.99    0.28
  -2  -5   2    9.29    0.77
  -2  -5   2    8.66    0.41
  -2  -5   2    7.68    0.34
  -2  -5   2    8.07    0.28
  -2  -5   2    8.54    0.63
  -2  -5   2    7.72    0.37
   1   5  -2   43.80    0.93
   1   5  -2   45.64    1.18
  -1  -5   2   44.96    1.13
  -1  -5   2   45.02    1.93
  -1  -5   2   46.08    0.97
  -1  -5   2   44.57    1.15
   0   5  -2   21.60    0.50
   0   5  -2   20.91    0.71
   0   5  -2   20.35    1.21
   0  -5   2   21.27    0.65
   0  -5   2   20.18    0.64
   0  -5   2   21.37    0.55
  -1   5  -2   -0.25    0.36
  -1   5  -2   -0.04    0.05
  -1   5  -2   -0.04    0.05
  -1   5  -2   -0.41    0.37
  -1   5  -2    0.06    0.03
   1  -5   2    0.03    0.05
   1  -5   2   -0.01    0.05
   1  -5   2    0.14    0.08
  -2   5  -2   16.68    1.05
  -2   5  -2   15.90    0.70
  -2   5  -2   15.83    0.69
  -2   5  -2   15.46    1.01
   2  -5   2   15.47    0.55
  -3   5  -2   -0.22    0.41
  -3   5  -2    0.03    0.08
  -3   5  -2    0.00    0.08
  -3   5  -2   -0.07    0.41
   3  -5   2   -0.04    0.07
  -4   5  -2   10.39    0.87
  -4   5  -2    8.99    0.86
  -4   5  -2    9.01    0.58
   4  -5   2   10.23    0.47
  -5   5  -2   11.00    0.92
  -5   5  -2    9.35    0.64
   5  -5   2   10.01    0.51
   5  -5   2   10.27    0.68
  -6   5  -2    3.67    0.70
   6  -5   2    1.55    0.25
   7  -5   2   -7.21    7.78
  10   4  -2    0.13    0.22
 -10  -4   2    0.14    0.17
   9   4  -2    0.20    0.22
  -9  -4   2    0.18    0.17
   8   4  -2    4.42    0.52
  -8  -4   2    3.71    0.43
  -8  -4   2    3.98    0.48
   7   4  -2    0.45    0.20
  -7  -4   2    0.90    0.21
  -7  -4   2    0.89    0.22
   6   4  -2    0.70    0.20
  -6  -4   2    1.57    0.26
  -6  -4   2    1.25    0.23
  -6  -4   2    1.11    0.37
   5   4  -2   33.66    0.96
  -5  -4   2   31.10    1.00
  -5  -4   2   31.27    1.41
  -5  -4   2   33.65    1.41
  -5  -4   2   32.14    1.03
   4   4  -2   73.86    1.77
  -4  -4   2   75.59    2.68
  -4  -4   2   74.45    2.73
  -4  -4   2   76.22    1.79
  -4  -4   2   74.47    1.83
   3   4  -2   22.70    0.67
  -3  -4   2   22.44    0.73
  -3  -4   2   22.23    1.11
  -3  -4   2   22.04    0.70
  -3  -4   2   22.44    1.04
  -3  -4   2   22.20    0.43
   2   4  -2   60.68    1.41
   2   4  -2   59.76    1.16
  -2  -4   2   59.55    1.14
  -2  -4   2   58.06    2.24
  -2  -4   2   58.60    1.37
  -2  -4   2   57.87    1.41
   1   4  -2   10.46    0.30
   1   4  -2   10.20    0.39
  -1  -4   2   10.12    0.38
  -1  -4   2   10.44    0.31
  -1  -4   2    9.94    0.39
   0   4  -2   20.06    0.46
   0   4  -2   20.62    0.64
   0   4  -2   18.51    1.03
   0  -4   2   20.47    0.58
   0  -4   2   20.14    0.49
   0  -4   2   19.03    0.57
  -1   4  -2   55.81    2.16
  -1   4  -2   55.25    2.11
  -1   4  -2   58.03    1.47
  -1   4  -2   57.44    1.04
  -1   4  -2   55.53    1.56
   1  -4   2   56.67    1.28
   1  -4   2   55.05    1.26
  -2   4  -2    5.48    0.62
  -2   4  -2    5.53    0.35
  -2   4  -2    5.93    0.56
  -2   4  -2    5.88    0.36
   2  -4   2    5.72    0.26
   2  -4   2    5.07    0.27
  -3   4  -2    7.31    0.63
  -3   4  -2    7.25    0.45
  -3   4  -2    6.66    0.43
  -3   4  -2    6.91    0.67
   3  -4   2    6.79    0.33
  -4   4  -2    0.05    0.11
  -4   4  -2    0.17    0.34
  -4   4  -2   -0.29    0.35
   4  -4   2    0.05    0.08
  -5   4  -2   19.90    0.92
  -5   4  -2   21.34    1.14
   5  -4   2   20.86    0.95
   5  -4   2   20.53    0.71
   6  -4   2    2.60    0.29
   7  -4   2    0.02    0.12
   8  -4   2   -3.63    7.09
  10   3  -2    1.81    0.37
  10   3  -2    1.77    0.38
 -10  -3   2    2.05    0.37
   9   3  -2    5.18    0.57
  -9  -3   2    4.69    0.51
   8   3  -2    4.30    0.50
  -8  -3   2    4.34    0.47
   7   3  -2    3.82    0.44
  -7  -3   2    2.89    0.34
  -7  -3   2    3.61    0.41
   6   3  -2    0.76    0.16
   6   3  -2    0.32    0.16
  -6  -3   2    0.53    0.16
  -6  -3   2    0.45    0.14
   5   3  -2   36.03    1.01
  -5  -3   2   32.90    1.02
  -5  -3   2   33.78    1.02
   4   3  -2   32.93    0.90
  -4  -3   2   32.12    1.32
  -4  -3   2   32.10    1.29
  -4  -3   2   30.42    0.91
  -4  -3   2   32.33    0.93
   3   3  -2    5.30    0.26
  -3  -3   2    4.65    0.41
  -3  -3   2    4.77    0.45
  -3  -3   2    4.41    0.26
  -3  -3   2    5.41    0.28
   2   3  -2   12.72    0.41
  -2  -3   2   12.31    0.30
  -2  -3   2   12.34    0.43
  -2  -3   2   12.55    0.42
  -2  -3   2   11.62    0.69
   1   3  -2  131.04    2.77
  -1  -3   2  129.48    2.30
  -1  -3   2  129.40    2.64
  -1  -3   2  127.69    2.58
   0   3  -2    8.35    0.23
   0  -3   2    8.15    0.29
   0  -3   2    8.44    0.29
  -1   3  -2    1.00    0.15
  -1   3  -2    1.33    0.33
  -1   3  -2    0.96    0.14
  -1   3  -2    1.07    0.06
   1  -3   2    1.11    0.12
   1  -3   2    1.23    0.12
  -2   3  -2  169.24    3.68
  -2   3  -2  164.22    5.29
  -2   3  -2  166.77    5.29
  -2   3  -2  160.24    3.96
   2  -3   2  166.40    3.32
   2  -3   2  170.56    3.28
  -3   3  -2    3.75    0.46
  -3   3  -2    3.72    0.42
  -3   3  -2    4.07    0.31
   3  -3   2    3.72    0.22
   3  -3   2    3.88    0.21
  -4   3  -2    0.42    0.14
   4  -3   2    0.72    0.13
  -5   3  -2    3.22    0.25
  -5   3  -2    2.01    0.30
   5  -3   2    2.30    0.33
   5  -3   2    3.09    0.25
  -6   3  -2    0.09    0.10
  -6   3  -2    0.10    0.11
   6  -3   2    0.06    0.11
   6  -3   2    0.02    0.10
  -7   3  -2    4.11    0.33
   7  -3   2    4.59    0.35
  10   2  -2    0.69    0.24
  10   2  -2    0.63    0.29
 -10  -2   2    0.79    0.24
   9   2  -2    2.75    0.40
   9   2  -2    1.84    0.34
  -9  -2   2    1.63    0.30
   8   2  -2    0.33    0.19
  -8  -2   2    0.35    0.16
   7   2  -2    0.14    0.11
   7   2  -2    0.02    0.13
  -7  -2   2    0.17    0.12
  -7  -2   2    0.22    0.12
   6   2  -2   35.42    1.16
   6   2  -2   33.59    1.08
  -6  -2   2   35.23    1.04
  -6  -2   2   35.10    1.08
   5   2  -2   49.85    1.42
   5   2  -2   50.74    1.35
  -5  -2   2   50.71    1.33
  -5  -2   2   48.76    1.29
   4   2  -2   50.59    1.27
  -4  -2   2   49.58    1.25
  -4  -2   2   48.51    1.23
   3   2  -2    1.67    0.14
  -3  -2   2    1.83    0.15
  -3  -2   2    2.45    0.32
  -3  -2   2    1.89    0.16
   2   2  -2   18.33    0.52
  -2  -2   2   18.01    0.52
  -2  -2   2   19.05    0.53
   1   2  -2  149.13    3.05
  -1  -2   2  142.43    2.83
   0   2  -2   16.01    0.45
   0  -2   2   16.21    0.41
  -1   2  -2    0.43    0.09
  -1   2  -2    0.38    0.07
   1  -2   2    0.41    0.06
  -2   2  -2    4.95    0.41
  -2   2  -2    5.25    0.29
  -2   2  -2    5.26    0.28
   2  -2   2    4.83    0.21
   2  -2   2    5.26    0.22
  -3   2  -2   26.34    0.66
  -3   2  -2   25.54    0.84
  -3   2  -2   26.50    0.68
   3  -2   2   26.10    0.67
   3  -2   2   25.10    0.66
  -4   2  -2    7.79    0.31
  -4   2  -2    7.65    0.44
  -4   2  -2    7.56    0.33
   4  -2   2    8.00    0.34
   4  -2   2    7.57    0.32
  -5   2  -2   16.34    0.74
  -5   2  -2   18.10    0.60
   5  -2   2   18.65    0.79
   5  -2   2   17.83    0.59
  -6   2  -2    3.45    0.27
  -6   2  -2    2.49    0.35
   6  -2   2    2.42    0.35
   6  -2   2    2.58    0.27
  -7   2  -2    0.22    0.15
  -7   2  -2    0.40    0.14
   7  -2   2    0.43    0.14
   7  -2   2    0.24    0.16
   9  -2   2    1.14   10.55
  10   1  -2    3.27    0.46
 -10  -1   2    3.15    0.44
   9   1  -2    0.50    0.20
  -9  -1   2    0.31    0.17
   8   1  -2    3.21    0.39
   8   1  -2    3.12    0.39
   8   1  -2    2.57    0.37
  -8  -1   2    2.93    0.37
   7   1  -2   19.64    0.83
   7   1  -2   19.03    0.80
   7   1  -2   18.07    0.75
  -7  -1   2   17.43    0.78
  -7  -1   2   18.66    0.75
   6   1  -2    8.21    0.47
   6   1  -2    7.51    0.45
  -6  -1   2    7.24    0.44
  -6  -1   2    7.35    0.42
  -6  -1   2    7.82    0.40
   5   1  -2   45.61    1.29
   5   1  -2   45.39    1.28
  -5  -1   2   44.37    1.27
  -5  -1   2   46.06    1.21
  -5  -1   2   44.79    1.16
   4   1  -2   46.70    1.25
  -4  -1   2   48.38    1.19
  -4  -1   2   48.23    1.16
  -4  -1   2   47.75    1.25
   3   1  -2    1.77    0.15
  -3  -1   2    1.83    0.14
  -3  -1   2    1.86    0.18
   2   1  -2    1.53    0.12
  -2  -1   2    1.89    0.14
   1   1  -2   49.14    1.10
   0   1  -2   36.72    0.91
   0   1  -2   35.88    0.82
  -1   1  -2  686.18   16.12
   1  -1   2  716.86   16.15
  -2   1  -2    0.82    0.08
  -2   1  -2    0.83    0.11
   2  -1   2    0.89    0.08
  -3   1  -2   14.91    0.55
  -3   1  -2   14.97    0.43
  -3   1  -2   15.27    0.44
   3  -1   2   15.24    0.44
   3  -1   2   15.36    0.44
  -4   1  -2   19.91    0.72
  -4   1  -2   19.32    0.56
  -4   1  -2   18.59    0.56
   4  -1   2   20.27    0.58
   4  -1   2   19.72    0.57
   4  -1   2   19.55    0.72
  -5   1  -2   13.76    0.63
  -5   1  -2   13.93    0.47
  -5   1  -2   12.87    0.48
   5  -1   2   13.54    0.63
   5  -1   2   13.53    0.48
   5  -1   2   13.91    0.49
  -6   1  -2    7.92    0.51
  -6   1  -2    7.90    0.40
   6  -1   2    8.01    0.40
   6  -1   2    8.20    0.52
  -7   1  -2    0.09    0.12
  -7   1  -2    0.28    0.13
   7  -1   2    0.30    0.13
   7  -1   2    0.17    0.14
   9   0  -2    0.43    0.20
  -9   0   2    0.11    0.13
   8   0  -2    4.70    0.40
   8   0  -2    4.07    0.47
  -8   0   2    4.34    0.38
  -8   0   2    4.46    0.49
   7   0  -2    6.49    0.43
   7   0  -2    6.40    0.43
   7   0  -2    6.48    0.48
  -7   0   2    6.33    0.42
  -7   0   2    6.97    0.49
   6   0  -2    0.19    0.11
   6   0  -2    0.30    5.27
   6   0  -2    0.10    0.11
   6   0  -2    0.08    0.10
  -6   0   2   -0.05    0.08
  -6   0   2    0.09    0.09
   5   0  -2   -0.01    3.85
   5   0  -2   -0.06    0.06
   5   0  -2   -0.05    0.08
   5   0  -2    0.01    0.07
  -5   0   2   -0.05    0.05
  -5   0   2    0.05    0.07
  -5   0   2    0.09    0.07
   4   0  -2    0.19    0.08
  -4   0   2    0.21    0.08
  -4   0   2    0.25    0.07
  -4   0   2    0.17    0.07
   3   0  -2  240.48    5.02
  -3   0   2  238.60    5.01
  -3   0   2  234.17    4.62
   2   0  -2  137.03    2.87
  -2   0   2  135.86    2.87
  -2   0   2  129.26    2.64
   1   0  -2   74.75    1.60
   0   0  -2    0.59    0.05
   0   0   2    0.59    0.05
  -1   0  -2    1.07    0.07
  -2   0  -2   86.86    1.90
  -3   0  -2    8.26    0.30
  -3   0  -2    9.17    0.36
  -3   0  -2    7.26    0.27
   3   0   2    8.43    0.29
   3   0   2    8.74    0.31
  -4   0  -2    0.84    0.12
  -4   0  -2    0.83    0.14
  -4   0  -2    0.90    0.12
   4   0   2    0.80    0.12
   4   0   2    1.07    0.13
   4   0   2    0.84    0.14
  -5   0  -2    7.19    0.33
  -5   0  -2    7.23    0.33
  -5   0  -2    6.68    0.40
   5   0   2    6.96    0.34
   5   0   2    7.01    0.34
   5   0   2    7.11    0.41
  -6   0  -2   31.81    1.09
  -6   0  -2   31.19    0.92
  -6   0  -2   32.08    0.92
   6   0   2   33.10    1.11
   6   0   2   33.80    0.95
   6   0   2   33.32    0.95
  -7   0  -2    1.81    0.29
  -7   0  -2    1.64    0.22
   7   0   2    1.74    0.25
   7   0   2    1.69    0.29
   9  -1  -2    0.60    0.22
  -9   1   2    0.50    0.21
   8  -1  -2   11.63   10.22
   7  -1  -2    0.49    0.17
   7  -1  -2    0.18    0.15
   7  -1  -2   -2.36    6.17
  -7   1   2    0.22    0.12
  -7   1   2    0.29    0.16
   6  -1  -2   -0.22    5.53
   6  -1  -2   16.92    0.78
   6  -1  -2   16.78    0.66
  -6   1   2   17.53    0.67
  -6   1   2   16.81    0.76
   5  -1  -2    7.92    5.43
   5  -1  -2   21.26    0.71
   5  -1  -2   22.18    0.71
   5  -1  -2   20.55    0.82
  -5   1   2   22.23    0.71
  -5   1   2   20.86    0.81
   4  -1  -2   -0.17    3.25
   4  -1  -2    2.12    0.18
   4  -1  -2    2.18    0.25
  -4   1   2    2.45    0.20
  -4   1   2    1.89    0.23
   3  -1  -2    7.66    0.29
   3  -1  -2    7.51    0.31
   3  -1  -2    7.46    0.37
  -3   1   2    7.80    0.37
  -3   1   2    8.35    0.33
   2  -1  -2   22.45    0.56
   2  -1  -2   22.61    0.65
   2  -1  -2   22.07    0.57
  -2   1   2   21.66    0.64
   1  -1  -2  389.41    7.50
  -1   1   2  387.47    7.50
  -1   1   2  331.86    8.28
   0  -1  -2  171.08    3.48
   0   1   2  171.73    3.48
   1   1   2   -0.08    0.02
  -2  -1  -2   62.40    1.32
   2   1   2   58.97    1.31
  -3  -1  -2  160.07    3.33
  -3  -1  -2  156.69    3.18
   3   1   2  153.96    3.32
  -4  -1  -2   -0.02    0.03
  -4  -1  -2   -0.05    0.03
  -4  -1  -2    0.04    0.05
   4   1   2    0.10    0.05
  -5  -1  -2    4.47    0.26
  -5  -1  -2    4.22    0.29
  -5  -1  -2    4.11    0.26
   5   1   2    4.18    0.28
  -6  -1  -2   30.42    0.91
  -6  -1  -2   32.02    1.01
  -6  -1  -2   30.68    0.90
   6   1   2   30.30    0.90
   6   1   2   29.75    1.01
   6   1   2   30.33    0.93
  -7  -1  -2   24.71    0.94
  -7  -1  -2   24.16    0.84
  -7  -1  -2   26.51    0.86
   7   1   2   25.93    0.85
   7   1   2   26.14    0.88
   7   1   2   25.57    0.96
   9  -2  -2    0.69    9.48
   9  -2  -2    2.09    0.34
  -9   2   2    2.31    0.35
   8  -2  -2   -2.34    7.81
   7  -2  -2    0.29    0.17
   7  -2  -2    4.86    8.44
   7  -2  -2    0.25    0.13
  -7   2   2    0.64    0.22
  -7   2   2    0.16    0.11
   6  -2  -2    1.06    5.87
   6  -2  -2    1.92    0.25
   6  -2  -2    2.14    0.33
  -6   2   2    2.36    0.28
  -6   2   2    1.92    0.30
   5  -2  -2    0.72    0.15
   5  -2  -2   -2.00    4.20
   5  -2  -2    0.79    0.20
  -5   2   2    1.06    0.21
   4  -2  -2    0.22    3.78
   4  -2  -2    2.15    0.19
   4  -2  -2    1.98    0.26
  -4   2   2    2.06    0.25
  -4   2   2    2.36    0.20
   3  -2  -2    2.95    3.48
   3  -2  -2    9.45    0.34
   3  -2  -2    9.81    0.46
   3  -2  -2    9.69    0.37
  -3   2   2    9.20    0.50
  -3   2   2    9.50    0.59
  -3   2   2   10.11    0.37
  -3   2   2    9.74    0.45
   2  -2  -2    1.21    0.16
   2  -2  -2    1.06    0.11
  -2   2   2    1.04    0.15
  -2   2   2    0.89    0.11
  -2   2   2    1.04    0.21
  -2   2   2    1.14    0.09
   1  -2  -2    2.88    0.17
   1  -2  -2    2.69    0.14
  -1   2   2    2.82    0.17
  -1   2   2    2.83    0.14
   0   2   2 1000.00   20.58
  -1  -2  -2    2.40    0.07
   1   2   2    2.48    0.08
   2   2   2   13.79    0.33
  -3  -2  -2   51.30    1.21
  -3  -2  -2   51.56    1.16
  -3  -2  -2   50.26    1.13
   3   2   2   50.79    1.15
  -4  -2  -2    4.63    0.24
  -4  -2  -2    4.58    0.25
  -4  -2  -2    5.06    0.28
   4   2   2    4.19    0.23
  -5  -2  -2   42.07    1.08
  -5  -2  -2   40.08    1.10
  -5  -2  -2   42.97    1.13
   5   2   2   41.04    1.12
  -6  -2  -2    1.09    0.19
  -6  -2  -2    1.25    0.20
  -6  -2  -2    1.07    0.18
   6   2   2    1.10    0.18
  -7  -2  -2    7.96    0.44
  -7  -2  -2    7.69    0.44
  -8  -2  -2   13.83    0.64
   8   2   2   13.29    0.73
   9  -3  -2    2.11    0.34
  -9   3   2    3.00    0.40
   8  -3  -2    0.46    8.76
   8  -3  -2    0.36    0.17
  -8   3   2    0.08    0.14
   7  -3  -2    0.52    8.19
   7  -3  -2    0.35    0.15
  -7   3   2    0.23    0.13
   6  -3  -2    5.05    0.36
   6  -3  -2    3.78    6.96
   6  -3  -2    4.29    0.49
  -6   3   2    5.79    0.38
  -6   3   2    4.45    0.43
   5  -3  -2    3.28    5.88
   4  -3  -2   26.93    0.78
   4  -3  -2   26.37    0.97
   4  -3  -2   19.34    8.16
  -4   3   2   26.86    1.15
  -4   3   2   25.53    0.95
  -4   3   2   25.99    0.77
   3  -3  -2   23.11    0.81
   3  -3  -2   22.23    0.65
   3  -3  -2   18.69    6.99
  -3   3   2   22.55    0.80
  -3   3   2   22.49    1.06
  -3   3   2   22.59    0.66
  -3   3   2   21.44    0.99
   2  -3  -2    0.14    0.06
   2  -3  -2    0.06    0.06
  -2   3   2    0.27    0.23
  -2   3   2    0.06    0.04
  -2   3   2    0.07    0.04
  -2   3   2    0.10    0.07
   1  -3  -2   68.63    1.45
  -1   3   2   69.41    1.24
  -1   3   2   70.20    1.64
   0  -3  -2    0.43    0.07
   0   3   2    0.37    0.07
  -1  -3  -2    0.85    0.10
   1   3   2    0.79    0.07
  -2  -3  -2   35.45    0.88
  -2  -3  -2   34.67    0.81
   2   3   2   34.69    0.75
  -3  -3  -2   81.28    1.73
  -3  -3  -2   84.15    1.85
  -3  -3  -2   77.30    2.67
   3   3   2   84.11    1.73
  -4  -3  -2   50.42    1.28
  -4  -3  -2   49.02    1.20
   4   3   2   50.77    1.17
  -5  -3  -2   29.58    0.87
  -5  -3  -2   30.60    0.93
  -6  -3  -2    0.11    0.09
  -6  -3  -2    0.01    0.08
  -7  -3  -2   18.40    0.76
  -7  -3  -2   17.52    0.71
  -8  -3  -2    0.15    0.10
   9   3   2    1.89    0.38
  10   3   2    0.26    0.26
   8  -4  -2   10.79   11.64
   7  -4  -2    0.27    0.14
   7  -4  -2   -7.57    7.38
  -7   4   2    0.37    0.15
   6  -4  -2    8.25   10.06
   6  -4  -2   17.27    0.69
   6  -4  -2   15.41    0.86
  -6   4   2   16.59    1.01
  -6   4   2   16.00    0.85
  -6   4   2   15.59    0.66
   5  -4  -2    2.02    6.41
   5  -4  -2    4.97    0.44
   5  -4  -2    4.90    0.33
  -5   4   2    5.33    0.62
  -5   4   2    5.48    0.35
  -5   4   2    4.87    0.43
   4  -4  -2   -0.90    5.40
   4  -4  -2    0.24    0.10
   4  -4  -2    0.14    0.11
  -4   4   2   -0.12    0.35
  -4   4   2    0.04    0.31
  -4   4   2    0.34    0.11
  -4   4   2    0.14    0.12
   3  -4  -2    1.92    0.26
   3  -4  -2    1.50    0.18
   3  -4  -2    3.94    4.95
  -3   4   2    2.10    0.19
  -3   4   2    1.60    0.23
  -3   4   2    1.89    0.40
  -3   4   2    2.08    0.41
  -3   4   2    1.69    0.19
   2  -4  -2   22.41    0.65
   2  -4  -2   36.54    9.31
  -2   4   2   22.62    0.78
  -2   4   2   23.24    1.11
  -2   4   2   21.96    1.08
  -2   4   2   22.62    0.73
   1  -4  -2   63.85    1.40
  -1   4   2   64.38    1.17
  -1   4   2   61.85    2.33
  -1   4   2   63.30    1.58
   0  -4  -2    5.72    0.22
   0  -4  -2    5.35    0.24
   0   4   2    6.01    0.20
   0   4   2    5.99    0.28
  -1  -4  -2   10.06    0.37
  -1  -4  -2    9.81    0.34
  -1  -4  -2    9.98    0.29
   1   4   2    9.74    0.27
   1   4   2   10.45    0.33
  -2  -4  -2   47.94    1.92
  -2  -4  -2   52.62    0.98
  -2  -4  -2   52.69    1.18
  -2  -4  -2   55.53    1.28
   2   4   2   53.05    1.15
  -3  -4  -2   56.47    2.14
  -3  -4  -2   61.10    1.46
  -3  -4  -2   59.98    2.09
  -3  -4  -2   58.69    1.35
   3   4   2   60.69    1.29
  -4  -4  -2    1.46    0.29
  -4  -4  -2    1.36    0.18
  -4  -4  -2    1.32    0.20
  -4  -4  -2    1.69    0.31
  -5  -4  -2    2.18    0.27
  -5  -4  -2    2.82    0.24
  -5  -4  -2    3.02    0.40
  -6  -4  -2    2.66    0.31
  -6  -4  -2    2.35    0.29
  -7  -4  -2   11.87    0.62
  -7  -4  -2   13.23    0.62
  -8  -4  -2    0.96    0.23
  -8  -4  -2    0.87    0.22
  -9  -4  -2   -0.07    0.11
   9   4   2   -0.03    0.21
  10   4   2    4.46    0.59
   7  -5  -2    1.62    8.52
   6  -5  -2   -2.17    6.74
   6  -5  -2    0.00    0.10
  -6   5   2    0.11    0.45
   5  -5  -2   -4.92    5.44
   5  -5  -2    0.01    0.11
   5  -5  -2    0.01    0.12
  -5   5   2    0.11    0.14
  -5   5   2    0.42    0.48
   4  -5  -2    9.71    0.47
   4  -5  -2    8.31    0.56
   4  -5  -2   11.04    8.38
  -4   5   2    8.27    0.55
  -4   5   2    8.62    0.83
  -4   5   2    8.78    0.84
   3  -5  -2    1.86    0.22
   3  -5  -2    4.34    5.45
   3  -5  -2    1.74    0.28
  -3   5   2    1.58    0.46
  -3   5   2    1.57    0.25
  -3   5   2    1.45    0.45
   2  -5  -2    1.41    0.18
   2  -5  -2   -0.24    4.87
  -2   5   2    1.51    0.44
  -2   5   2    1.09    0.43
  -2   5   2    1.14    0.18
  -2   5   2    1.21    0.21
   1  -5  -2   24.91    7.92
   1  -5  -2   19.01    0.51
   1  -5  -2   19.57    0.60
  -1   5   2   17.54    1.09
  -1   5   2   18.25    0.68
  -1   5   2   19.43    0.44
   0  -5  -2    0.23    0.07
   0  -5  -2    0.42    0.08
   0  -5  -2    0.11    0.06
   0   5   2    0.07    0.35
   0   5   2    0.17    0.08
   0   5   2    0.17    0.05
  -1  -5  -2   11.53    0.43
  -1  -5  -2   12.56    0.46
  -1  -5  -2   12.57    0.37
   1   5   2   12.44    0.43
   1   5   2   11.43    0.33
  -2  -5  -2    6.72    0.23
  -2  -5  -2    6.57    0.31
  -2  -5  -2    6.58    0.34
  -2  -5  -2    6.24    0.73
   2   5   2    6.38    0.23
   2   5   2    7.03    0.26
  -3  -5  -2   15.27    0.82
  -3  -5  -2   15.51    0.31
  -3  -5  -2   15.06    1.00
  -3  -5  -2   16.41    0.55
  -3  -5  -2   15.41    0.47
  -3  -5  -2   16.18    0.61
  -4  -5  -2   14.25    1.00
  -4  -5  -2   15.97    0.59
  -4  -5  -2   16.19    0.45
  -4  -5  -2   16.10    0.65
  -4  -5  -2   16.77    0.87
  -5  -5  -2    0.42    0.13
  -5  -5  -2    0.42    0.29
  -5  -5  -2    0.47    0.15
  -5  -5  -2    0.28    0.26
  -6  -5  -2    0.14    0.11
  -6  -5  -2    0.28    0.14
  -6  -5  -2    0.34    0.25
  -7  -5  -2   19.57    0.80
  -7  -5  -2   20.03    0.86
  -8  -5  -2   -0.04    0.10
  -9  -5  -2    6.55    0.54
 -10  -5  -2   -0.10    0.13
  10   5   2    0.14    0.25
   7  -6  -2    2.12    9.10
   6  -6  -2    0.19    8.99
   6  -6  -2    0.27    0.15
  -6   6   2    0.67    0.58
   5  -6  -2    5.32    8.48
   5  -6  -2    9.97    0.54
  -5   6   2   11.02    0.98
   4  -6  -2    2.12    6.80
   4  -6  -2    0.95    0.25
   4  -6  -2    1.32    0.21
  -4   6   2    1.34    0.28
  -4   6   2    0.84    0.48
  -4   6   2    0.71    0.51
   3  -6  -2    5.08    0.42
   3  -6  -2    9.88    7.73
   3  -6  -2    6.02    0.37
  -3   6   2    6.01    0.79
  -3   6   2    4.60    0.40
  -3   6   2    5.86    0.76
   2  -6  -2   11.84    7.77
   2  -6  -2    4.64    0.30
  -2   6   2    3.38    0.60
  -2   6   2    2.88    0.57
  -2   6   2    4.77    0.37
  -2   6   2    3.07    0.28
   1  -6  -2   -0.01    0.06
   1  -6  -2    2.14    5.06
   1  -6  -2   -0.03    0.05
  -1   6   2    0.10    0.05
  -1   6   2   -0.98    0.42
  -1   6   2    0.03    0.08
  -1   6   2   -0.65    0.43
   0  -6  -2   11.99    0.48
   0  -6  -2   13.28    0.42
   0  -6  -2    7.91    5.32
   0  -6  -2   13.13    0.47
   0   6   2   12.34    1.01
   0   6   2   12.31    0.36
   0   6   2   12.41    0.52
  -1  -6  -2   33.89    0.89
  -1  -6  -2   33.52    0.91
  -1  -6  -2   33.19    0.93
  -1  -6  -2   31.81    0.77
   1   6   2   31.14    0.73
   1   6   2   33.32    0.93
  -2  -6  -2   17.66    1.19
  -2  -6  -2   17.45    0.60
  -2  -6  -2   17.42    0.56
  -2  -6  -2   16.85    0.94
  -2  -6  -2   16.73    0.46
  -2  -6  -2   17.73    0.65
   2   6   2   17.69    0.47
  -3  -6  -2    4.92    0.34
  -3  -6  -2    6.31    0.83
  -3  -6  -2    4.79    0.18
  -3  -6  -2    4.50    0.53
  -3  -6  -2    4.79    0.27
  -3  -6  -2    4.54    0.30
  -4  -6  -2   42.80    1.79
  -4  -6  -2   43.64    1.20
  -4  -6  -2   44.25    1.95
  -4  -6  -2   44.06    1.30
  -4  -6  -2   43.37    1.01
  -5  -6  -2    0.49    0.32
  -5  -6  -2    0.87    0.19
  -5  -6  -2    1.05    0.43
  -5  -6  -2    0.68    0.18
  -6  -6  -2   12.87    0.62
  -6  -6  -2   14.01    0.89
  -6  -6  -2   12.69    0.86
  -6  -6  -2   13.13    0.68
  -7  -6  -2    0.96    0.39
  -7  -6  -2    1.12    0.26
  -7  -6  -2    1.37    0.26
  -8  -6  -2    0.30    0.17
  -8  -6  -2    0.21    0.30
  -8  -6  -2    0.34    0.17
  -9  -6  -2    9.23    0.65
   6  -7  -2    0.09    0.14
   6  -7  -2    1.02    9.04
  -6   7   2   -0.14    0.61
   5  -7  -2    0.40    0.16
   5  -7  -2    1.97    8.37
  -5   7   2    0.54    0.48
  -5   7   2    0.23    0.58
   4  -7  -2   -0.05    0.09
   4  -7  -2   -1.31    7.01
  -4   7   2   -0.26    0.45
  -4   7   2    0.05    0.54
   3  -7  -2   14.91   10.46
   2  -7  -2    6.84    0.39
   2  -7  -2    3.44    6.64
  -2   7   2    5.42    0.43
  -2   7   2    6.62    0.92
   1  -7  -2    1.37    0.21
   1  -7  -2   -2.09    4.27
  -1   7   2    0.24    0.54
   0  -7  -2    8.19    0.35
   0  -7  -2    7.57    0.41
   0   7   2    7.60    0.29
   0   7   2    8.14    0.45
  -1  -7  -2   86.04    2.05
  -1  -7  -2   88.76    1.76
  -1  -7  -2   85.71    2.01
   1   7   2   87.09    1.69
  -2  -7  -2   22.33    0.80
  -2  -7  -2   21.44    0.76
  -2  -7  -2   26.06    1.55
  -2  -7  -2   22.47    0.60
  -2  -7  -2   22.59    0.73
   2   7   2   22.62    0.60
  -3  -7  -2   12.99    1.24
  -3  -7  -2   14.37    0.59
  -3  -7  -2   14.00    0.39
  -3  -7  -2   12.78    0.90
  -3  -7  -2   13.89    0.52
  -3  -7  -2   14.17    0.63
  -4  -7  -2    3.06    0.69
  -4  -7  -2    3.23    0.59
  -4  -7  -2    2.09    0.30
  -4  -7  -2    2.30    0.29
  -4  -7  -2    2.72    0.22
  -5  -7  -2    0.32    0.32
  -5  -7  -2    0.22    0.40
  -5  -7  -2    0.57    0.16
  -5  -7  -2    0.26    0.14
  -6  -7  -2   10.65    0.91
  -6  -7  -2   10.45    0.58
  -6  -7  -2   10.75    0.85
  -6  -7  -2   10.63    0.64
  -7  -7  -2   -0.07    0.09
  -7  -7  -2    0.05    0.13
  -7  -7  -2   -0.39    0.31
  -8  -7  -2    0.24    0.17
  -8  -7  -2   -0.22    0.32
  -8  -7  -2   -0.03    0.12
  -9  -7  -2    0.12    0.18
   5  -8  -2    1.10    9.41
   5  -8  -2    1.08    0.25
  -5   8   2    1.25    0.71
  -5   8   2    0.66    0.56
   4  -8  -2    0.19    0.13
   4  -8  -2   -1.15    7.41
  -4   8   2   -0.06    0.62
  -4   8   2    0.11    0.53
   3  -8  -2    1.75    0.26
   3  -8  -2   -0.57    6.88
  -3   8   2    1.72    0.67
  -3   8   2    1.75    0.64
   2  -8  -2    0.07    0.11
   2  -8  -2    0.02    0.13
   2  -8  -2   -0.13    6.89
  -2   8   2    0.04    0.12
  -2   8   2   -0.15    0.55
   1  -8  -2    0.11    0.10
   1  -8  -2    0.12    0.10
  -1   8   2    0.25    0.07
  -1   8   2    0.17    0.63
   0  -8  -2    4.90    0.30
   0  -8  -2    5.73    0.37
   0   8   2    5.20    0.25
  -1  -8  -2    0.59    0.17
  -1  -8  -2    0.45    0.12
   1   8   2    0.55    0.11
  -2  -8  -2    0.88    0.18
  -2  -8  -2    0.65    0.12
  -2  -8  -2    0.65    0.17
  -2  -8  -2    0.68    0.18
   2   8   2    0.84    0.13
  -3  -8  -2    8.48    1.18
  -3  -8  -2    6.23    0.37
  -3  -8  -2    6.11    0.41
  -3  -8  -2    6.72    0.28
  -3  -8  -2    7.75    0.48
   3   8   2    6.54    0.31
  -4  -8  -2    0.74    0.16
  -4  -8  -2    0.96    0.23
  -4  -8  -2    0.81    0.42
  -4  -8  -2    0.59    0.50
  -4  -8  -2    0.98    0.21
  -5  -8  -2    0.00    0.12
  -5  -8  -2    0.30    0.44
  -5  -8  -2    0.10    0.09
  -5  -8  -2   -0.16    0.32
  -5  -8  -2    0.09    0.11
  -6  -8  -2    0.35    0.16
  -6  -8  -2    0.06    0.38
  -6  -8  -2    0.32    0.43
  -6  -8  -2    0.56    0.19
  -7  -8  -2    0.48    0.43
  -7  -8  -2    1.27    0.51
  -7  -8  -2    1.08    0.27
  -7  -8  -2    0.65    0.23
  -8  -8  -2    5.34    0.59
  -8  -8  -2    2.49    0.55
  -9  -8  -2    1.32    0.33
   4  -9  -2    0.12    0.15
   4  -9  -2   -0.11    8.48
   3  -9  -2    1.91    0.31
   3  -9  -2    6.00    9.36
  -3   9   2    1.24    0.71
   2  -9  -2    0.16    0.12
  -2   9   2    0.39    0.65
   1  -9  -2    1.37    0.25
   1  -9  -2    1.35    0.20
  -1   9   2    1.47    0.13
   0  -9  -2    4.32    0.37
   0  -9  -2    4.99    0.32
   0   9   2    4.63    0.24
  -1  -9  -2    0.33    0.12
  -1  -9  -2    0.23    0.13
   1   9   2    0.43    0.11
  -2  -9  -2    2.42    0.31
  -2  -9  -2    2.24    0.31
  -2  -9  -2    2.20    0.22
   2   9   2    2.20    0.21
  -3  -9  -2    0.35    0.10
  -3  -9  -2    0.22    0.13
  -3  -9  -2    0.16    0.12
  -3  -9  -2    0.42    0.19
   3   9   2    0.25    0.10
  -4  -9  -2    0.03    0.10
  -4  -9  -2    0.51    0.54
  -4  -9  -2    0.23    0.15
  -4  -9  -2   -0.03    0.09
  -5  -9  -2    0.02    0.10
  -5  -9  -2   -0.04    0.11
  -5  -9  -2    0.16    0.15
  -5  -9  -2    0.37    0.50
  -6  -9  -2    0.22    0.16
  -6  -9  -2    0.06    0.14
  -6  -9  -2    0.17    0.42
  -6  -9  -2    0.11    0.50
  -7  -9  -2    0.41    0.20
  -7  -9  -2    0.52    0.21
  -7  -9  -2    0.71    0.51
  -7  -9  -2    0.18    0.43
  -8  -9  -2    0.52    0.25
   2 -10  -2    0.14    0.14
  -2  10   2    0.45    0.76
   1 -10  -2   -0.03    0.10
   1 -10  -2    0.01    0.11
   0 -10  -2    1.15    0.20
   0 -10  -2    1.37    0.27
   0  10   2    1.03    0.15
  -1 -10  -2    0.00    0.12
  -1 -10  -2   -0.01    0.10
   1  10   2   -0.03    0.07
  -2 -10  -2    1.38    0.28
  -2 -10  -2    1.29    0.19
   2  10   2    1.11    0.17
  -3 -10  -2    0.14    0.14
  -3 -10  -2    0.11    0.13
  -3 -10  -2    0.09    0.13
  -3 -10  -2   -0.07    0.07
   3  10   2    0.00    0.08
  -4 -10  -2    0.21    0.16
  -4 -10  -2   -0.14    0.13
  -4 -10  -2    0.13    0.14
  -4 -10  -2    0.64    0.60
  -5 -10  -2    2.31    0.40
  -5 -10  -2    2.34    0.80
  -5 -10  -2    1.98    0.35
  -5 -10  -2    1.71    0.25
  -6 -10  -2    0.18    0.19
  -6 -10  -2    0.06    0.15
  -6 -10  -2    0.27    0.53
  -7 -10  -2    0.15    0.19
  -7 -10  -2    0.20    0.19
   1 -11  -2   -0.18    0.11
   0 -11  -2    0.50    0.17
   0 -11  -2    0.39    0.19
   0  11   2    0.75    0.13
  -1 -11  -2   -0.21    0.08
  -1 -11  -2   -0.06    0.09
   1  11   2    0.03    0.08
  -2 -11  -2    2.64    0.27
  -2 -11  -2    3.38    0.44
   2  11   2    2.62    0.26
  -3 -11  -2    0.40    0.11
  -3 -11  -2    0.29    0.16
  -3 -11  -2    0.24    0.17
   3  11   2    0.13    0.11
  -4 -11  -2    0.32    0.18
  -4 -11  -2    0.16    0.17
  -4 -11  -2    0.18    0.16
   4  11   2    0.01    0.09
  -5 -11  -2    0.74    0.20
  -5 -11  -2    1.03    0.30
  -5 -11  -2    0.89    0.27
  -5 -11  -2    0.77    0.70
   3  11  -3    0.37    0.13
  -3 -11   3    0.32    0.12
   2  11  -3    0.07    0.09
  -2 -11   3    0.13    0.11
  -6 -10   3    0.16    0.19
  -6 -10   3    0.22    0.19
  -5 -10   3    0.23    0.17
  -5 -10   3    0.14    0.17
  -5 -10   3   -0.13    0.60
   4  10  -3    3.64    0.27
  -4 -10   3    3.13    0.43
  -4 -10   3    2.58    0.42
   3  10  -3    0.46    0.13
  -3 -10   3    0.44    0.20
  -3 -10   3    0.44    0.20
  -3 -10   3    0.53    0.19
  -3 -10   3    0.64    0.14
   2  10  -3    0.35    0.11
  -2 -10   3    0.17    0.11
  -2 -10   3    0.18    0.15
  -2 -10   3    0.45    0.19
   1  10  -3    0.18    0.09
  -1 -10   3    0.20    0.12
  -1 -10   3    0.20    0.16
   0  10  -3   -0.01    0.07
   0 -10   3   -0.05    0.10
   0 -10   3   -0.02    0.11
   1 -10   3    0.07    0.14
   7   9  -3    0.56    0.27
  -7  -9   3    0.15    0.17
  -7  -9   3    0.61    0.24
  -7  -9   3    0.68    0.61
  -6  -9   3   -0.08    0.13
  -6  -9   3    0.14    0.52
  -6  -9   3   -0.03    0.14
  -5  -9   3    1.42    0.30
  -5  -9   3    1.21    0.29
  -5  -9   3    1.03    0.64
   4   9  -3    2.13    0.24
  -4  -9   3    1.77    0.34
  -4  -9   3    1.92    0.33
   3   9  -3    0.32    0.11
  -3  -9   3    0.53    0.18
  -3  -9   3    0.49    0.20
  -3  -9   3    0.50    0.12
  -3  -9   3    0.14    0.14
   2   9  -3   -0.05    0.06
  -2  -9   3   -0.02    0.11
  -2  -9   3    0.12    0.09
  -2  -9   3    0.06    0.13
   1   9  -3    2.02    0.20
  -1  -9   3    2.18    0.32
  -1  -9   3    2.08    0.24
  -1  -9   3    2.04    0.31
   0   9  -3    6.45    0.28
   0  -9   3    5.94    0.45
   0  -9   3    6.55    0.38
   1  -9   3    0.24    0.16
  -2   9  -3    0.55    0.75
   2  -9   3    0.14    0.15
   3  -9   3    0.32    0.19
   8   8  -3    1.26    0.36
  -8  -8   3    1.14    0.30
  -8  -8   3    1.57    0.34
   7   8  -3    1.75    0.37
  -7  -8   3    0.41    0.49
  -7  -8   3    1.39    0.32
  -7  -8   3    1.89    0.37
  -7  -8   3    1.78    0.65
   6   8  -3   -0.04    0.15
  -6  -8   3   -0.02    0.37
  -6  -8   3   -0.03    0.11
  -6  -8   3    0.14    0.13
  -6  -8   3    0.09    0.48
   5   8  -3    0.81    0.25
  -5  -8   3    0.23    0.17
  -5  -8   3    1.58    0.66
  -5  -8   3    0.96    0.64
  -5  -8   3    0.50    0.20
  -4  -8   3    4.96    0.42
  -4  -8   3    5.66    0.47
  -4  -8   3    7.19    1.01
   3   8  -3    1.28    0.17
  -3  -8   3    1.44    0.17
  -3  -8   3    1.56    0.23
  -3  -8   3    1.52    0.27
  -3  -8   3    1.40    0.25
   2   8  -3    1.08    0.15
  -2  -8   3    1.52    0.26
  -2  -8   3    1.15    0.23
  -2  -8   3    0.90    0.19
  -2  -8   3    1.12    0.16
   1   8  -3    0.29    0.09
  -1  -8   3    0.16    0.12
  -1  -8   3    0.24    0.13
  -1  -8   3    0.19    0.10
   0   8  -3   15.41    0.75
   0  -8   3   14.93    0.55
   0  -8   3   15.74    0.69
  -1   8  -3    3.32    0.80
  -1   8  -3    4.11    0.46
   1  -8   3    5.00    0.39
  -2   8  -3    0.93    0.70
   2  -8   3    0.64    0.19
  -3   8  -3    2.17    0.72
  -3   8  -3    2.04    0.81
   3  -8   3    7.84   10.35
   3  -8   3    1.94    0.30
  -4   8  -3    0.48    0.61
  -4   8  -3   -0.03    0.69
   4  -8   3   -9.17    7.18
   4  -8   3    0.19    0.15
   9   7  -3    0.18    0.24
  -9  -7   3    0.07    0.17
  -9  -7   3    0.01    0.17
   8   7  -3    1.28    0.35
  -8  -7   3    1.75    0.36
  -8  -7   3    0.50    0.50
  -8  -7   3    1.65    0.37
   7   7  -3    0.50    0.25
  -7  -7   3    0.35    0.19
  -7  -7   3    0.14    0.16
  -7  -7   3    0.11    0.39
  -7  -7   3    0.21    0.42
   6   7  -3    0.91    0.27
  -6  -7   3    0.91    0.23
  -6  -7   3    0.67    0.43
  -6  -7   3    0.82    0.50
  -6  -7   3    0.52    0.19
   5   7  -3   16.97    0.80
  -5  -7   3   14.64    0.76
  -5  -7   3   16.24    0.76
  -5  -7   3   16.84    1.16
  -5  -7   3   16.70    1.28
   4   7  -3    2.39    0.33
  -4  -7   3    2.12    0.53
  -4  -7   3    2.88    0.73
  -4  -7   3    2.42    0.32
  -4  -7   3    2.38    0.33
   3   7  -3    0.24    0.09
  -3  -7   3    0.27    0.12
  -3  -7   3    0.32    0.14
  -3  -7   3    0.30    0.14
  -3  -7   3    0.46    0.10
  -3  -7   3    1.93    0.68
   2   7  -3    6.87    0.40
   2   7  -3    6.22    0.29
  -2  -7   3    6.43    0.38
  -2  -7   3    6.74    0.41
  -2  -7   3    6.19    0.41
  -2  -7   3    6.72    0.31
   1   7  -3    0.01    0.08
   1   7  -3    0.01    0.06
  -1  -7   3    0.03    0.07
  -1  -7   3    0.12    0.10
  -1  -7   3   -0.03    0.07
   0   7  -3   10.53    0.35
   0   7  -3   10.51    0.57
   0  -7   3   10.70    0.52
   0  -7   3   10.17    0.42
   0  -7   3   10.89    0.52
  -1   7  -3    0.61    0.61
  -1   7  -3    0.28    0.15
  -1   7  -3    0.42    0.07
   1  -7   3    0.50    0.15
  -2   7  -3    0.87    0.23
  -2   7  -3    1.19    0.63
  -2   7  -3    0.94    0.63
   2  -7   3    1.07    0.21
  -3   7  -3    4.90    0.90
  -3   7  -3    4.67    0.81
   3  -7   3    5.26    0.38
  -4   7  -3    0.50    0.56
  -4   7  -3    0.86    0.66
   4  -7   3    0.91    0.22
  -5   7  -3    0.44    0.65
   5  -7   3    0.44    0.17
   9   6  -3    2.46    0.46
  -9  -6   3    2.84    0.44
  -9  -6   3    3.29    0.48
   8   6  -3    1.10    0.32
  -8  -6   3    1.14    0.28
  -8  -6   3    1.27    0.30
  -8  -6   3    0.32    0.46
   7   6  -3    0.61    0.23
  -7  -6   3    0.85    0.24
  -7  -6   3    0.78    0.22
  -7  -6   3    0.72    0.38
  -7  -6   3    1.09    0.44
   6   6  -3    3.77    0.45
  -6  -6   3    2.75    0.55
  -6  -6   3    5.33    0.78
  -6  -6   3    3.12    0.39
  -6  -6   3    3.16    0.39
   5   6  -3   12.60    0.67
  -5  -6   3   12.86    0.64
  -5  -6   3   12.74    0.93
  -5  -6   3   12.99    1.06
  -5  -6   3   12.15    0.64
   4   6  -3    1.89    0.28
  -4  -6   3    1.34    0.43
  -4  -6   3    1.13    0.21
  -4  -6   3    1.63    0.60
  -4  -6   3    1.84    0.27
   3   6  -3    7.66    0.44
   3   6  -3    8.52    0.33
   3   6  -3    7.90    0.39
  -3  -6   3    7.39    0.87
  -3  -6   3    7.89    0.73
  -3  -6   3    7.10    0.42
  -3  -6   3    7.48    0.44
  -3  -6   3    7.72    0.28
  -3  -6   3    8.05    0.38
   2   6  -3    1.97    0.23
   2   6  -3    2.27    0.16
  -2  -6   3    2.44    0.25
  -2  -6   3    2.24    0.26
  -2  -6   3    2.36    0.17
  -2  -6   3    3.63    0.78
  -2  -6   3    2.37    0.27
   1   6  -3   10.84    0.49
   1   6  -3   10.21    0.35
  -1  -6   3   11.34    0.48
  -1  -6   3   10.43    0.48
  -1  -6   3    9.54    0.37
   0   6  -3    3.43    0.18
   0   6  -3    2.99    0.29
   0   6  -3    2.86    0.27
   0   6  -3    2.77    0.70
   0  -6   3    3.27    0.25
   0  -6   3    3.38    0.21
   0  -6   3    3.55    0.27
  -1   6  -3    2.13    0.62
  -1   6  -3    0.69    0.48
  -1   6  -3    2.17    0.12
  -1   6  -3    2.10    0.30
  -1   6  -3    2.20    0.28
   1  -6   3    1.93    0.23
   1  -6   3    2.31    0.24
  -2   6  -3    0.46    0.49
  -2   6  -3   -0.03    0.08
  -2   6  -3   -0.17    0.47
  -2   6  -3    0.16    0.13
   2  -6   3    0.08    0.09
  -3   6  -3    1.38    0.56
  -3   6  -3    0.80    0.21
  -3   6  -3    1.04    0.57
   3  -6   3    0.96    0.18
  -4   6  -3   -0.23    0.47
  -4   6  -3   -0.45    0.49
   4  -6   3    0.07    0.10
  -5   6  -3    0.60    0.58
   5  -6   3    0.40    0.16
  -6   6  -3    1.23    0.64
   9   5  -3    1.10    0.34
  -9  -5   3    1.48    0.33
  -9  -5   3    0.78    0.25
   8   5  -3   10.47    0.72
  -8  -5   3   11.68    0.69
  -8  -5   3    9.13    0.87
  -8  -5   3    9.73    0.63
   7   5  -3    0.96    0.25
  -7  -5   3    1.04    0.39
  -7  -5   3    1.10    0.26
  -7  -5   3    1.14    0.26
   6   5  -3   11.26    0.65
  -6  -5   3   10.26    0.58
  -6  -5   3   11.31    0.61
  -6  -5   3    9.77    0.83
  -6  -5   3   10.54    0.82
   5   5  -3    0.82    0.21
  -5  -5   3    0.81    0.35
  -5  -5   3    0.74    0.18
  -5  -5   3    0.80    0.19
  -5  -5   3    1.38    0.51
   4   5  -3    2.84    0.23
   4   5  -3    1.83    0.26
  -4  -5   3    3.55    0.66
  -4  -5   3    2.76    0.31
  -4  -5   3    3.20    0.53
  -4  -5   3    2.59    0.30
   3   5  -3   15.14    0.55
  -3  -5   3   15.82    0.92
  -3  -5   3   15.45    0.61
  -3  -5   3   15.07    0.59
  -3  -5   3   15.41    0.39
  -3  -5   3   14.60    0.99
   2   5  -3    0.19    0.06
   2   5  -3    0.42    0.10
  -2  -5   3    0.44    0.28
  -2  -5   3    0.31    0.10
  -2  -5   3    0.15    0.08
  -2  -5   3    0.15    0.06
  -2  -5   3    0.60    0.40
  -2  -5   3    0.08    0.07
   1   5  -3    0.02    0.04
   1   5  -3   -0.02    0.05
  -1  -5   3    0.07    0.06
  -1  -5   3   -0.02    0.05
  -1  -5   3    0.03    0.05
   0   5  -3   31.96    1.55
   0   5  -3   31.92    0.69
   0   5  -3   27.84    1.45
   0   5  -3   31.37    0.95
   0  -5   3   31.36    0.74
   0  -5   3   31.43    0.87
   0  -5   3   32.35    0.88
  -1   5  -3    0.13    0.09
  -1   5  -3    0.15    0.04
  -1   5  -3   -0.03    0.37
  -1   5  -3    0.17    0.10
  -1   5  -3   -0.17    0.39
   1  -5   3    0.16    0.07
   1  -5   3    0.20    0.09
  -2   5  -3   24.71    0.92
  -2   5  -3   25.06    1.31
  -2   5  -3   25.37    1.36
  -2   5  -3   25.01    0.96
   2  -5   3   25.36    0.76
   2  -5   3   24.13    0.72
  -3   5  -3   10.45    0.59
  -3   5  -3   11.40    0.93
  -3   5  -3   11.16    0.89
  -3   5  -3   11.52    0.63
   3  -5   3   11.45    0.48
  -4   5  -3    2.79    0.58
  -4   5  -3    4.67    0.80
  -4   5  -3    2.30    0.34
   4  -5   3    3.38    0.28
  -5   5  -3    8.55    0.85
   5  -5   3    7.53    0.43
  -6   5  -3    3.65    0.74
   6  -5   3    1.88    0.28
  -7   5  -3    0.58    0.57
   9   4  -3    4.11    0.55
  -9  -4   3    3.27    0.46
   8   4  -3    2.89    0.43
  -8  -4   3    2.93    0.41
  -8  -4   3    3.27    0.40
   7   4  -3    3.98    0.46
  -7  -4   3    4.23    0.46
  -7  -4   3    4.46    0.39
   6   4  -3   -0.12    0.10
  -6  -4   3   -0.03    0.07
  -6  -4   3    0.08    0.10
  -6  -4   3    0.30    0.30
   5   4  -3   12.86    0.63
   5   4  -3   12.27    0.52
  -5  -4   3   13.24    0.86
  -5  -4   3   12.86    0.82
  -5  -4   3   11.24    0.56
  -5  -4   3   12.61    0.58
   4   4  -3    9.83    0.50
   4   4  -3   10.02    0.43
  -4  -4   3    9.77    0.48
  -4  -4   3   10.00    0.48
  -4  -4   3   10.36    0.77
  -4  -4   3    9.88    0.71
   3   4  -3   56.11    1.40
  -3  -4   3   56.19    1.41
  -3  -4   3   57.18    2.13
  -3  -4   3   56.59    2.20
  -3  -4   3   56.32    1.39
  -3  -4   3   55.97    1.03
   2   4  -3    3.66    0.17
   2   4  -3    3.43    0.22
  -2  -4   3    4.93    0.65
  -2  -4   3    3.45    0.23
  -2  -4   3    3.16    0.23
  -2  -4   3    3.75    0.16
   1   4  -3  107.41    2.00
   1   4  -3  111.34    2.45
  -1  -4   3  110.18    2.29
  -1  -4   3  109.14    2.02
  -1  -4   3  109.53    2.34
   0   4  -3    2.67    0.48
   0   4  -3    2.18    0.12
   0   4  -3    1.99    0.18
   0  -4   3    2.16    0.17
   0  -4   3    2.06    0.13
   0  -4   3    2.51    0.18
  -1   4  -3   17.79    1.04
  -1   4  -3   19.00    0.67
  -1   4  -3   19.85    0.73
  -1   4  -3   18.20    0.99
   1  -4   3   19.20    0.57
   1  -4   3   19.42    0.57
  -2   4  -3   17.89    0.70
  -2   4  -3   19.11    0.75
  -2   4  -3   18.21    1.00
  -2   4  -3   18.14    1.05
   2  -4   3   18.78    0.56
   2  -4   3   18.89    0.58
  -3   4  -3    4.37    0.58
  -3   4  -3    3.37    0.31
  -3   4  -3    3.28    0.30
   3  -4   3    3.34    0.22
   3  -4   3    3.26    0.24
  -4   4  -3    4.68    0.39
  -4   4  -3    4.24    0.60
  -4   4  -3    4.70    0.60
   4  -4   3    4.71    0.29
  -5   4  -3    1.55    0.29
  -5   4  -3    3.78    0.66
   5  -4   3    2.28    0.26
   6  -4   3   -0.07    0.09
  10   3  -3    0.76    0.29
  10   3  -3    0.52    0.22
 -10  -3   3    0.69    0.26
   9   3  -3    5.60    0.52
  -9  -3   3    4.52    0.53
   8   3  -3    2.02    0.36
  -8  -3   3    2.20    0.35
   7   3  -3    8.38    0.56
  -7  -3   3    8.83    0.51
  -7  -3   3    9.25    0.54
   6   3  -3   39.36    1.29
   6   3  -3   38.75    1.18
  -6  -3   3   39.78    1.19
  -6  -3   3   39.54    1.21
   5   3  -3  130.18    3.11
   5   3  -3  130.71    2.95
  -5  -3   3  128.44    2.87
  -5  -3   3  127.89    2.86
  -5  -3   3  127.54    4.25
   4   3  -3    2.84    0.22
   4   3  -3    2.03    0.25
  -4  -3   3    2.44    0.22
  -4  -3   3    3.39    0.51
  -4  -3   3    2.53    0.27
  -4  -3   3    3.59    0.45
   3   3  -3   10.54    0.41
  -3  -3   3   10.34    0.67
  -3  -3   3   10.53    0.43
  -3  -3   3   10.16    0.42
  -3  -3   3   10.91    0.64
   2   3  -3   10.39    0.38
  -2  -3   3   10.64    0.39
  -2  -3   3   10.04    0.38
  -2  -3   3   10.07    0.65
  -2  -3   3   10.21    0.27
   1   3  -3  152.78    3.24
  -1  -3   3  149.80    3.00
  -1  -3   3  152.61    2.68
  -1  -3   3  151.24    3.08
   0   3  -3    0.01    0.04
   0   3  -3    0.01    0.02
   0  -3   3   -0.03    0.02
   0  -3   3    0.43    0.08
  -1   3  -3    0.16    0.03
  -1   3  -3    0.08    0.06
  -1   3  -3   -0.01    0.23
  -1   3  -3    0.36    0.09
   1  -3   3    0.15    0.05
   1  -3   3    0.12    0.05
  -2   3  -3   22.34    1.10
  -2   3  -3   22.64    1.05
  -2   3  -3   24.45    0.84
  -2   3  -3   24.93    0.79
   2  -3   3   24.02    0.64
   2  -3   3   23.31    0.63
  -3   3  -3    4.36    0.50
  -3   3  -3    4.08    0.45
  -3   3  -3    4.78    0.34
   3  -3   3    4.44    0.24
   3  -3   3    4.41    0.24
  -4   3  -3   21.69    0.86
   4  -3   3   21.86    0.66
  -5   3  -3    7.51    0.51
   5  -3   3    8.08    0.39
  -6   3  -3    1.63    0.31
   6  -3   3    1.60    0.32
   6  -3   3    1.59    0.22
  10   2  -3    0.66    0.24
  10   2  -3    0.26    0.25
 -10  -2   3    0.38    0.20
   9   2  -3    0.54    0.21
   9   2  -3    0.31    0.23
  -9  -2   3    0.86    0.25
   8   2  -3    0.70    0.22
  -8  -2   3    0.68    0.21
   7   2  -3    0.80    0.20
   7   2  -3    0.82    0.22
  -7  -2   3    0.93    0.22
   6   2  -3    0.42    0.14
   6   2  -3    0.71    0.19
  -6  -2   3    0.58    0.14
  -6  -2   3    0.78    0.18
   5   2  -3   16.08    0.62
   5   2  -3   16.03    0.66
  -5  -2   3   15.52    0.59
  -5  -2   3   15.85    0.63
   4   2  -3  110.84    2.51
   4   2  -3  108.52    2.60
  -4  -2   3  110.71    2.40
  -4  -2   3  111.65    2.40
  -4  -2   3  108.34    3.57
   3   2  -3    0.00    0.04
  -3  -2   3   -0.01    0.03
  -3  -2   3   -0.07    0.15
  -3  -2   3    0.05    0.05
   2   2  -3   54.38    1.26
  -2  -2   3   51.97    1.19
  -2  -2   3   52.60    1.20
   1   2  -3    0.38    0.07
  -1  -2   3    0.43    0.07
  -1  -2   3    0.46    0.07
   0   2  -3    1.14    0.10
   0   2  -3    1.04    0.11
   0  -2   3    1.00    0.10
   0  -2   3    1.01    0.10
  -1   2  -3  244.89    5.04
   1  -2   3  244.56    4.58
   1  -2   3  236.25    4.71
  -2   2  -3   21.36    0.67
  -2   2  -3   20.99    0.73
  -2   2  -3   19.23    0.89
   2  -2   3   21.45    0.54
   2  -2   3   22.29    0.58
  -3   2  -3    0.49    0.09
  -3   2  -3    0.32    0.10
  -3   2  -3    0.27    0.20
   3  -2   3    0.43    0.09
   3  -2   3    0.36    0.08
  -4   2  -3   21.35    0.61
  -4   2  -3   20.42    0.79
  -4   2  -3   20.77    0.61
   4  -2   3   21.38    0.63
   4  -2   3   20.59    0.60
  -5   2  -3    1.33    0.18
  -5   2  -3    1.18    0.23
   5  -2   3    1.12    0.16
  -6   2  -3    0.68    0.14
  -6   2  -3    0.69    0.20
   6  -2   3    0.89    0.22
   6  -2   3    0.77    0.16
  -7   2  -3   -0.01    0.11
   7  -2   3    0.11    0.14
  10   1  -3    0.71    0.25
 -10  -1   3    0.88    0.26
   9   1  -3    0.02    0.12
   9   1  -3    0.16    0.19
  -9  -1   3    0.02    0.13
   8   1  -3    8.64    0.57
   8   1  -3    8.40    0.54
   8   1  -3    7.90    0.53
  -8  -1   3    8.03    0.52
   7   1  -3    5.63    0.42
   7   1  -3    5.45    0.42
  -7  -1   3    6.15    0.43
   6   1  -3    1.73    0.25
   6   1  -3    2.03    0.27
  -6  -1   3    2.33    0.29
   5   1  -3    7.15    0.40
   5   1  -3    7.32    0.42
  -5  -1   3    6.80    0.38
  -5  -1   3    7.22    0.36
   4   1  -3   11.25    0.47
   4   1  -3   11.13    0.47
  -4  -1   3   11.59    0.47
  -4  -1   3   11.16    0.42
   3   1  -3   11.76    0.43
  -3  -1   3   11.12    0.55
  -3  -1   3   11.34    0.42
  -3  -1   3   11.87    0.39
   2   1  -3   34.51    0.87
  -2  -1   3   33.93    0.82
   1   1  -3    0.04    0.04
   0   1  -3   81.25    1.93
   0   1  -3   81.85    1.76
  -1   1  -3  272.23    6.46
  -1   1  -3  308.80    5.87
   1  -1   3  279.47    6.45
  -2   1  -3  203.70    4.07
  -2   1  -3  187.83    3.77
   2  -1   3  184.35    3.78
   2  -1   3  192.90    3.65
  -3   1  -3   -0.01    0.03
  -3   1  -3    0.00    0.02
  -3   1  -3   -0.03    0.04
   3  -1   3    0.04    0.04
   3  -1   3    0.07    0.04
  -4   1  -3   40.88    0.98
  -4   1  -3   38.54    1.15
  -4   1  -3   39.89    0.95
   4  -1   3   39.25    0.94
   4  -1   3   40.92    1.00
  -5   1  -3   20.75    0.62
  -5   1  -3   19.10    0.61
  -5   1  -3   19.30    0.77
   5  -1   3   19.27    0.62
   5  -1   3   20.48    0.80
   5  -1   3   19.20    0.60
  -6   1  -3   10.49    0.45
  -6   1  -3   10.60    0.59
   6  -1   3   10.22    0.59
   6  -1   3   10.44    0.45
  -7   1  -3    0.38    0.16
   7  -1   3    0.26    0.15
   9   0  -3    0.48    0.20
  -9   0   3    1.03    0.25
   8   0  -3    0.86    0.23
   8   0  -3    0.89    0.24
  -8   0   3    1.30    0.26
   7   0  -3   10.43    0.55
   7   0  -3   10.60    0.55
   7   0  -3    9.60    0.59
  -7   0   3    9.65    0.54
  -7   0   3    9.56    0.58
   6   0  -3    2.55    0.29
   6   0  -3   -2.68    4.48
   6   0  -3    1.79    0.27
   6   0  -3    2.25    0.29
  -6   0   3    2.13    0.29
  -6   0   3    2.55    0.30
   5   0  -3   28.42    0.89
   5   0  -3   28.90    0.97
  -5   0   3   28.05    0.95
  -5   0   3   28.65    0.88
   4   0  -3    0.30    0.10
  -4   0   3    0.15    0.08
  -4   0   3    0.16    0.08
  -4   0   3    0.21    0.06
   3   0  -3   27.08    0.79
  -3   0   3   26.21    0.72
  -3   0   3   26.80    0.79
   2   0  -3  278.11    5.58
  -2   0   3  257.04    5.13
  -2   0   3  272.33    5.57
   1   0  -3   77.48    1.68
   0   0  -3   40.54    0.90
   0   0   3   40.42    0.98
  -1   0  -3  125.89    2.60
  -2   0  -3   78.53    1.73
  -3   0  -3   71.07    1.47
  -3   0  -3   71.40    1.55
  -3   0  -3   73.86    1.69
   3   0   3   70.33    1.56
   3   0   3   71.77    1.47
  -4   0  -3    9.71    0.37
  -4   0  -3    9.72    0.43
   4   0   3    9.60    0.35
   4   0   3    9.82    0.44
   4   0   3    9.46    0.38
  -5   0  -3    1.00    0.14
  -5   0  -3    1.25    0.20
  -5   0  -3    1.09    0.16
   5   0   3    1.24    0.17
   5   0   3    1.27    0.20
   5   0   3    1.26    0.16
  -6   0  -3   16.28    0.58
  -6   0  -3   16.76    0.60
  -6   0  -3   15.85    0.71
   6   0   3   15.61    0.71
   6   0   3   16.60    0.59
   6   0   3   18.09    0.63
  -7   0  -3    0.32    0.14
   7   0   3    0.67    0.20
   9  -1  -3    0.96    0.24
  -9   1   3    0.73    0.21
   8  -1  -3    0.94    0.23
  -8   1   3    0.79    0.20
   7  -1  -3    0.44    6.06
   7  -1  -3   15.31    0.80
   7  -1  -3   15.52    0.69
  -7   1   3   16.79    0.70
  -7   1   3   14.20    0.76
   6  -1  -3    0.06    0.10
   6  -1  -3    0.09    0.10
   6  -1  -3    0.04    0.10
   6  -1  -3   -1.71    5.88
  -6   1   3    0.16    0.11
  -6   1   3    0.08    0.09
   5  -1  -3   23.91    0.77
   5  -1  -3   23.53    0.75
   5  -1  -3   22.76    0.87
  -5   1   3   23.34    0.87
  -5   1   3   21.84    0.74
   4  -1  -3   15.15    0.54
   4  -1  -3   15.13    0.62
   4  -1  -3    2.05    3.22
  -4   1   3   15.16    0.54
  -4   1   3   14.71    0.60
   3  -1  -3   33.67    0.87
   3  -1  -3   35.29    0.86
   3  -1  -3   34.60    0.98
  -3   1   3   33.73    0.97
  -3   1   3   33.31    0.87
   2  -1  -3   28.98    0.68
   2  -1  -3   28.98    0.71
   2  -1  -3   28.78    0.80
  -2   1   3   29.43    0.72
   1  -1  -3  213.36    4.43
  -1   1   3  215.42    4.43
   0  -1  -3   36.14    0.81
  -1  -1  -3    8.88    0.22
  -2  -1  -3   30.96    0.73
  -3  -1  -3   95.91    2.08
  -3  -1  -3   93.35    1.89
  -3  -1  -3   95.15    2.00
   3   1   3   92.84    2.07
  -4  -1  -3   -0.04    0.04
  -4  -1  -3    0.03    0.04
  -4  -1  -3    0.02    0.04
   4   1   3   -0.02    0.04
  -5  -1  -3   12.87    0.49
  -5  -1  -3   12.82    0.53
   5   1   3   12.17    0.50
   5   1   3   13.17    0.47
   5   1   3   13.25    0.54
  -6  -1  -3    2.42    0.28
  -6  -1  -3    2.44    0.26
  -6  -1  -3    2.72    0.27
   6   1   3    2.99    0.24
   6   1   3    2.95    0.31
   6   1   3    2.86    0.29
  -7  -1  -3    1.39    0.21
  -7  -1  -3    0.96    0.19
   7   1   3    1.37    0.22
   9  -2  -3    0.20    0.16
  -9   2   3    0.17    0.14
   8  -2  -3   -1.42    8.64
   7  -2  -3    0.73    0.19
   7  -2  -3    0.71    0.23
   7  -2  -3    2.92    7.52
  -7   2   3    0.99    0.25
  -7   2   3    0.78    0.19
   6  -2  -3    0.93    6.01
   6  -2  -3   -0.06    0.08
   6  -2  -3   -0.08    0.06
  -6   2   3    0.01    0.08
  -6   2   3    0.16    0.12
   5  -2  -3   -5.21    3.96
   5  -2  -3    0.10    0.10
   5  -2  -3   -0.03    0.07
  -5   2   3    0.08    0.09
  -5   2   3    0.00    0.07
   4  -2  -3    7.21    4.93
   4  -2  -3   19.43    0.75
   4  -2  -3   17.70    0.61
  -4   2   3   18.72    0.61
  -4   2   3   18.04    0.73
   3  -2  -3    5.60    4.26
   3  -2  -3   18.49    0.67
   3  -2  -3   18.79    0.57
  -3   2   3   17.46    0.86
  -3   2   3   18.44    0.56
  -3   2   3   17.80    0.79
  -3   2   3   18.11    0.66
   2  -2  -3    6.48    0.26
   2  -2  -3    6.07    0.31
  -2   2   3    6.65    0.32
  -2   2   3    6.15    0.49
  -2   2   3    6.00    0.26
  -2   2   3    6.03    0.22
   1  -2  -3   19.31    0.49
   1  -2  -3   20.11    0.57
  -1   2   3   19.45    0.57
  -1   2   3   19.34    0.49
   0  -2  -3  172.11    3.54
   0   2   3  172.30    3.54
  -1  -2  -3   21.15    0.45
  -2  -2  -3   45.84    0.94
  -2  -2  -3   43.80    1.03
   2   2   3   44.15    0.93
   2   2   3   45.02    0.93
  -3  -2  -3   10.02    0.31
  -3  -2  -3    9.88    0.33
  -3  -2  -3    9.82    0.38
   3   2   3    9.52    0.31
  -4  -2  -3   12.77    0.43
  -4  -2  -3   13.63    0.49
  -4  -2  -3   10.94    0.41
   4   2   3   12.77    0.43
  -5  -2  -3   85.80    1.98
  -5  -2  -3   85.04    1.99
   5   2   3   84.55    2.00
  -6  -2  -3    0.75    0.16
  -6  -2  -3    0.83    0.16
  -7  -2  -3   25.89    0.89
  -7  -2  -3   24.80    0.83
   7   2   3   25.78    0.90
  -8  -2  -3    9.50    0.54
   8   2   3   10.91    0.59
   8  -3  -3    1.41    0.28
   8  -3  -3    5.54    9.77
  -8   3   3    2.10    0.31
   7  -3  -3    2.87    0.34
   7  -3  -3    6.01    8.56
  -7   3   3    2.95    0.34
   6  -3  -3   13.57    0.77
   6  -3  -3    4.76    7.85
   6  -3  -3   14.33    0.61
  -6   3   3   13.22    0.73
  -6   3   3   14.29    0.62
   5  -3  -3    7.13    0.39
   5  -3  -3    6.16    0.47
   5  -3  -3    3.00    6.16
  -5   3   3    7.71    0.60
  -5   3   3    6.80    0.39
  -5   3   3    6.92    0.48
   4  -3  -3    0.31    5.04
   4  -3  -3    0.13    0.10
   4  -3  -3   -0.06    0.05
  -4   3   3    0.08    0.07
  -4   3   3   -0.04    0.07
  -4   3   3    0.18    0.26
   3  -3  -3    6.95    0.41
   3  -3  -3    7.75    0.34
   3  -3  -3    2.96    4.42
  -3   3   3    7.93    0.34
  -3   3   3    8.15    0.66
  -3   3   3    7.87    0.55
  -3   3   3    7.95    0.43
   2  -3  -3   21.87    0.61
   2  -3  -3   22.00    0.73
  -2   3   3   22.28    0.62
  -2   3   3   22.36    0.64
  -2   3   3   22.41    0.73
  -2   3   3   21.60    0.99
   1  -3  -3  170.62    3.61
   1  -3  -3  167.46    3.28
  -1   3   3  165.69    2.90
  -1   3   3  170.24    3.62
  -1   3   3  168.30    3.28
   0  -3  -3  196.79    3.88
   0  -3  -3  206.99    4.22
   0   3   3  205.91    4.22
  -1  -3  -3    6.56    0.23
   1   3   3    7.04    0.21
  -2  -3  -3    3.88    0.22
  -2  -3  -3    3.90    0.18
  -3  -3  -3   -0.01    0.02
  -3  -3  -3    0.11    0.06
  -3  -3  -3   -0.17    0.15
   3   3   3    0.06    0.03
  -4  -3  -3   29.16    0.87
   4   3   3   29.94    0.74
  -5  -3  -3   26.30    0.78
  -5  -3  -3   26.62    0.86
  -6  -3  -3   11.65    0.55
  -6  -3  -3   12.99    0.53
  -7  -3  -3    7.27    0.43
  -7  -3  -3    6.77    0.45
  -8  -3  -3    5.74    0.42
   8  -4  -3   -8.95    6.61
   8  -4  -3    0.34    0.18
  -8   4   3    0.33    0.17
   7  -4  -3    2.16    7.74
   7  -4  -3    0.08    0.13
  -7   4   3    0.14    0.12
  -7   4   3    0.16    0.45
   6  -4  -3    3.18    8.52
   5  -4  -3    1.18    0.21
   5  -4  -3    1.06    0.24
   5  -4  -3    0.48    5.77
  -5   4   3    0.85    0.42
  -5   4   3    0.97    0.19
  -5   4   3    0.66    0.19
   4  -4  -3    6.77    0.47
   4  -4  -3    4.73    5.74
   4  -4  -3    7.27    0.38
  -4   4   3    7.71    0.39
  -4   4   3    6.84    0.65
  -4   4   3    6.24    0.65
  -4   4   3    6.69    0.46
   3  -4  -3   10.97    0.44
   3  -4  -3   11.80    6.49
   3  -4  -3   10.78    0.55
  -3   4   3   10.65    0.54
  -3   4   3   10.64    0.76
  -3   4   3   11.09    0.44
  -3   4   3   10.57    0.73
   2  -4  -3    0.39    0.09
   2  -4  -3   -0.57    2.96
   2  -4  -3    0.29    0.10
  -2   4   3    0.22    0.27
  -2   4   3    0.29    0.29
  -2   4   3    0.28    0.11
  -2   4   3    0.31    0.08
   1  -4  -3  204.16    4.08
   1  -4  -3  214.48    4.50
  -1   4   3  207.01    3.61
  -1   4   3  211.49    4.50
   0  -4  -3    7.92    0.26
   0  -4  -3    7.93    0.30
   0   4   3    7.59    0.24
   0   4   3    8.13    0.33
  -1  -4  -3    0.52    0.07
  -1  -4  -3    0.38    0.09
  -1  -4  -3    0.35    0.07
   1   4   3    0.49    0.07
  -2  -4  -3   36.40    0.70
  -2  -4  -3   35.97    0.86
  -2  -4  -3   36.19    0.94
  -2  -4  -3   32.60    1.45
   2   4   3   36.94    0.79
  -3  -4  -3    0.72    0.09
  -3  -4  -3    0.97    0.24
  -3  -4  -3    1.32    0.15
  -3  -4  -3    0.90    0.28
  -3  -4  -3    0.81    0.15
   3   4   3    0.59    0.05
  -4  -4  -3   30.15    1.19
  -4  -4  -3   30.08    0.91
  -4  -4  -3   30.86    0.83
  -4  -4  -3   27.22    1.19
  -5  -4  -3    0.65    0.14
  -5  -4  -3    0.28    0.11
  -6  -4  -3    0.02    0.07
  -6  -4  -3    0.05    0.08
  -7  -4  -3   14.05    0.62
  -7  -4  -3   13.87    0.67
  -8  -4  -3    1.46    0.28
  -9  -4  -3    0.61    0.20
  10   4   3    5.81    0.67
   7  -5  -3    0.50    0.19
   7  -5  -3   -2.50    7.12
   6  -5  -3    0.28    0.14
   6  -5  -3   -1.40    6.97
  -6   5   3    0.02    0.12
  -6   5   3    0.35    0.49
   5  -5  -3   16.83    0.88
   5  -5  -3   19.57   10.72
   5  -5  -3   17.97    0.71
  -5   5   3   17.53    1.12
  -5   5   3   15.53    0.83
   4  -5  -3    0.10    0.13
   4  -5  -3    0.54    6.39
   4  -5  -3    0.15    0.10
  -4   5   3    0.18    0.15
  -4   5   3    0.09    0.39
  -4   5   3   -0.56    0.42
   3  -5  -3    6.52    0.35
   3  -5  -3    6.49    0.44
   3  -5  -3    3.38    5.76
  -3   5   3    6.30    0.43
  -3   5   3    6.86    0.69
  -3   5   3    5.25    0.70
   2  -5  -3    4.01    0.32
   2  -5  -3    2.55    5.56
   2  -5  -3    3.51    0.24
  -2   5   3    4.18    0.27
  -2   5   3    3.62    0.53
  -2   5   3    4.03    0.56
  -2   5   3    3.96    0.32
   1  -5  -3   19.58    7.18
   1  -5  -3   17.59    0.57
   1  -5  -3   18.66    0.50
  -1   5   3   18.86    0.44
  -1   5   3   18.27    1.04
  -1   5   3   18.51    1.08
  -1   5   3   18.70    0.67
   0  -5  -3    1.74    0.14
   0  -5  -3    1.94    0.16
   0  -5  -3    1.95    0.15
   0   5   3    1.97    0.12
   0   5   3    1.34    0.41
   0   5   3    2.48    0.20
  -1  -5  -3    1.49    0.17
  -1  -5  -3    1.38    0.16
  -1  -5  -3    1.09    0.11
   1   5   3    1.20    0.11
   1   5   3    1.34    0.13
  -2  -5  -3    2.55    0.18
  -2  -5  -3    2.86    0.35
  -2  -5  -3    2.27    0.20
  -2  -5  -3    2.60    0.13
  -2  -5  -3    2.79    0.46
  -2  -5  -3    2.56    0.19
   2   5   3    2.35    0.14
   2   5   3    2.44    0.14
  -3  -5  -3    6.20    0.66
  -3  -5  -3    4.95    0.32
  -3  -5  -3    5.38    0.47
  -3  -5  -3    5.10    0.24
  -3  -5  -3    5.32    0.29
  -4  -5  -3   26.15    1.29
  -4  -5  -3   27.42    0.91
  -4  -5  -3   27.41    0.82
  -4  -5  -3   28.72    1.22
  -4  -5  -3   28.21    0.66
  -5  -5  -3    9.76    0.45
  -5  -5  -3    9.79    0.51
  -5  -5  -3    7.68    0.69
  -5  -5  -3   10.00    0.65
  -6  -5  -3    9.38    0.54
  -6  -5  -3    8.79    0.63
  -6  -5  -3    9.43    0.49
  -7  -5  -3    4.10    0.35
  -7  -5  -3    3.54    0.41
  -8  -5  -3    0.07    0.11
  -9  -5  -3    1.54    0.32
 -10  -5  -3    2.19    0.37
  10   5   3    2.89    0.49
   7  -6  -3   -0.67    8.29
   7  -6  -3    0.63    0.21
   6  -6  -3   -5.13    6.92
   6  -6  -3    0.51    0.18
  -6   6   3    0.55    0.57
   5  -6  -3    0.32    0.15
   5  -6  -3   -2.20    6.94
  -5   6   3    0.45    0.51
   4  -6  -3   -2.43    4.92
   4  -6  -3    1.64    0.30
   4  -6  -3    1.81    0.26
  -4   6   3    2.27    0.60
  -4   6   3    1.90    0.52
  -4   6   3    1.49    0.30
   3  -6  -3    0.03    0.07
   3  -6  -3    0.65    5.69
   3  -6  -3    0.13    0.11
  -3   6   3    0.38    0.47
  -3   6   3   -0.29    0.41
  -3   6   3    0.11    0.11
   2  -6  -3    0.34    0.14
   2  -6  -3    1.32    5.72
   2  -6  -3    0.35    0.11
  -2   6   3    0.30    0.44
  -2   6   3    0.01    0.44
  -2   6   3    0.44    0.15
   1  -6  -3    3.31    5.32
   1  -6  -3    2.04    0.22
   1  -6  -3    1.55    0.17
  -1   6   3    0.42    0.44
  -1   6   3    2.04    0.13
  -1   6   3    0.77    0.49
  -1   6   3    1.72    0.23
   0  -6  -3    2.52    0.18
   0  -6  -3    2.42    0.24
   0  -6  -3    1.64    4.01
   0   6   3    2.65    0.15
   0   6   3    2.03    0.53
   0   6   3    2.87    0.24
  -1  -6  -3   49.87    1.18
  -1  -6  -3   49.32    1.06
  -1  -6  -3   48.66    2.13
  -1  -6  -3   50.22    1.25
  -1  -6  -3   49.07    1.22
   1   6   3   48.97    1.26
   1   6   3   48.79    1.02
  -2  -6  -3    8.58    0.93
  -2  -6  -3    8.77    0.43
  -2  -6  -3    8.73    0.64
  -2  -6  -3    8.66    0.30
  -2  -6  -3    8.64    0.38
  -2  -6  -3    8.95    0.40
   2   6   3    8.38    0.30
  -3  -6  -3    0.28    0.11
  -3  -6  -3    0.06    0.27
  -3  -6  -3    0.19    0.35
  -3  -6  -3    0.13    0.05
  -3  -6  -3    0.19    0.10
  -3  -6  -3    0.13    0.08
  -4  -6  -3    1.96    0.19
  -4  -6  -3    2.10    0.25
  -4  -6  -3    3.03    0.61
  -4  -6  -3    1.96    0.28
  -4  -6  -3    3.03    0.51
  -5  -6  -3    1.18    0.42
  -5  -6  -3    1.42    0.23
  -5  -6  -3    1.17    0.22
  -5  -6  -3    1.42    0.40
  -6  -6  -3    0.52    0.31
  -6  -6  -3    0.50    0.33
  -6  -6  -3    0.51    0.16
  -6  -6  -3    0.25    0.15
  -7  -6  -3    0.26    0.15
  -7  -6  -3    0.45    0.16
  -7  -6  -3    0.41    0.31
  -8  -6  -3   -0.02    0.11
  -9  -6  -3    3.22    0.46
   6  -7  -3   -0.08    0.12
   6  -7  -3    0.96    8.84
  -6   7   3    0.47    0.63
   5  -7  -3    0.22    7.45
   5  -7  -3    1.04    0.23
  -5   7   3    1.63    0.68
  -5   7   3    1.68    0.57
   4  -7  -3    4.74    8.65
   3  -7  -3    8.67    8.13
   3  -7  -3    0.83    0.18
   3  -7  -3    1.41    0.29
  -3   7   3    0.85    0.56
  -3   7   3    0.21    0.48
  -3   7   3    0.93    0.24
   2  -7  -3   16.47   10.03
   2  -7  -3    8.27    0.53
   2  -7  -3    9.51    0.47
  -2   7   3   11.14    1.06
  -2   7   3    8.45    0.93
  -2   7   3   10.11    0.58
   1  -7  -3    2.59    0.28
   1  -7  -3    1.54    5.39
   1  -7  -3    2.01    0.20
  -1   7   3    1.91    0.13
  -1   7   3    1.30    0.57
  -1   7   3    1.84    0.27
   0  -7  -3    5.72    0.35
   0  -7  -3    2.34    4.60
   0  -7  -3    5.81    0.29
   0   7   3    5.50    0.24
   0   7   3    5.76    0.37
  -1  -7  -3   -0.15    0.06
  -1  -7  -3   -0.07    0.08
  -1  -7  -3   -0.10    0.09
  -1  -7  -3    0.02    0.08
   1   7   3    0.03    0.06
  -2  -7  -3   55.12    1.33
  -2  -7  -3   57.49    2.45
  -2  -7  -3   54.04    1.40
  -2  -7  -3   56.33    1.48
  -2  -7  -3   53.86    1.16
   2   7   3   53.39    1.15
  -3  -7  -3   23.07    0.54
  -3  -7  -3   21.71    0.69
  -3  -7  -3   21.56    0.76
  -3  -7  -3   20.93    1.47
  -3  -7  -3   22.71    1.19
  -3  -7  -3   22.39    0.83
  -4  -7  -3    0.40    0.15
  -4  -7  -3    0.37    0.35
  -4  -7  -3    0.06    0.08
  -4  -7  -3    0.36    0.44
  -4  -7  -3    0.28    0.12
  -5  -7  -3    0.76    0.13
  -5  -7  -3    0.47    0.17
  -5  -7  -3    0.81    0.44
  -5  -7  -3    0.51    0.35
  -5  -7  -3    0.47    0.15
  -6  -7  -3   20.69    1.19
  -6  -7  -3   20.02    1.14
  -6  -7  -3   18.69    0.80
  -6  -7  -3   18.71    0.87
  -7  -7  -3    1.82    0.46
  -7  -7  -3    3.07    0.40
  -7  -7  -3    1.85    0.32
  -8  -7  -3   -0.08    0.33
  -8  -7  -3   -0.16    0.11
  -9  -7  -3    0.20    0.19
   5  -8  -3    4.39    9.87
   5  -8  -3    1.40    0.28
  -5   8   3    1.40    0.62
  -5   8   3    1.17    0.76
   4  -8  -3    0.09    0.13
   4  -8  -3   -2.97    6.62
  -4   8   3   -0.15    0.53
  -4   8   3    0.01    0.64
   3  -8  -3    0.79    0.19
   3  -8  -3    0.53    7.61
  -3   8   3    1.20    0.60
  -3   8   3    0.62    0.61
   2  -8  -3    7.17    0.44
   2  -8  -3    7.50    0.53
   2  -8  -3    6.82    8.11
  -2   8   3    8.65    1.05
  -2   8   3    7.61    0.54
   1  -8  -3    0.38    0.12
   1  -8  -3   -1.11    5.05
   1  -8  -3    0.55    0.16
  -1   8   3    0.55    0.09
  -1   8   3    0.36    0.62
   0  -8  -3    1.10    0.20
   0  -8  -3    1.10    0.17
   0   8   3    0.95    0.13
  -1  -8  -3    2.31    0.22
  -1  -8  -3    2.30    0.28
   1   8   3    2.92    0.20
  -2  -8  -3    1.17    0.21
  -2  -8  -3    0.93    0.14
  -2  -8  -3    0.92    0.20
  -2  -8  -3    1.15    0.20
   2   8   3    1.29    0.15
  -3  -8  -3   13.29    1.33
  -3  -8  -3   11.84    0.62
  -3  -8  -3   11.98    0.57
  -3  -8  -3   12.05    0.52
  -3  -8  -3   12.04    0.38
   3   8   3   12.39    0.43
  -4  -8  -3   14.07    1.31
  -4  -8  -3   12.92    0.94
  -4  -8  -3   12.98    0.52
  -4  -8  -3   12.60    0.67
  -4  -8  -3   13.00    0.61
  -5  -8  -3    6.59    0.95
  -5  -8  -3    4.76    0.64
  -5  -8  -3    4.37    0.28
  -5  -8  -3    4.01    0.45
  -5  -8  -3    4.68    0.39
  -6  -8  -3    0.14    0.37
  -6  -8  -3    0.03    0.13
  -6  -8  -3    0.24    0.14
  -6  -8  -3   -0.08    0.32
  -7  -8  -3    1.77    0.55
  -7  -8  -3    0.78    0.43
  -7  -8  -3    1.66    0.32
  -7  -8  -3    1.56    0.32
  -8  -8  -3   -0.07    0.13
  -8  -8  -3    0.35    0.41
  -9  -8  -3    6.39    0.68
   4  -9  -3   -7.63    6.60
   4  -9  -3    0.11    0.13
   3  -9  -3   -1.36    8.10
   3  -9  -3    0.97    0.23
  -3   9   3    0.87    0.66
   2  -9  -3    0.02    0.11
   2  -9  -3   -1.93    6.65
  -2   9   3    0.14    0.62
   1  -9  -3    0.38    0.15
   1  -9  -3    0.68    0.16
  -1   9   3    0.58    0.09
   0  -9  -3   11.63    0.59
   0  -9  -3   11.12    0.48
   0   9   3   11.18    0.39
  -1  -9  -3    0.12    0.09
  -1  -9  -3    0.16    0.12
   1   9   3    0.14    0.08
  -2  -9  -3    2.14    0.22
  -2  -9  -3    2.25    0.29
  -2  -9  -3    1.97    0.29
   2   9   3    2.54    0.23
  -3  -9  -3    0.31    0.14
  -3  -9  -3    0.27    0.09
  -3  -9  -3    0.24    0.16
  -3  -9  -3    0.38    0.15
   3   9   3    0.24    0.10
  -4  -9  -3    1.20    0.63
  -4  -9  -3    1.40    0.27
  -4  -9  -3    1.18    0.21
  -4  -9  -3    1.35    0.28
  -5  -9  -3    4.79    0.52
  -5  -9  -3    5.56    0.44
  -5  -9  -3    5.65    0.75
  -5  -9  -3    6.12    1.04
  -5  -9  -3    4.44    0.31
  -6  -9  -3    0.03    0.40
  -6  -9  -3    0.27    0.18
  -6  -9  -3    0.21    0.16
  -6  -9  -3    0.36    0.48
  -7  -9  -3    0.04    0.42
  -7  -9  -3    0.06    0.46
  -7  -9  -3   -0.03    0.14
  -7  -9  -3   -0.14    0.11
  -8  -9  -3    5.88    0.65
   3 -10  -3    0.18    0.15
   2 -10  -3    0.27    0.16
  -2  10   3    0.34    0.76
   1 -10  -3    0.08    0.12
   1 -10  -3    0.17    0.14
   0 -10  -3   -0.10    0.09
   0 -10  -3    0.00    0.10
   0  10   3   -0.03    0.06
  -1 -10  -3    0.46    0.14
  -1 -10  -3    0.66    0.20
   1  10   3    0.48    0.12
  -2 -10  -3    1.40    0.27
  -2 -10  -3    1.53    0.20
   2  10   3    1.38    0.19
  -3 -10  -3    2.23    0.34
  -3 -10  -3    2.78    0.21
  -3 -10  -3    2.18    0.30
   3  10   3    2.68    0.26
  -4 -10  -3    0.16    0.13
  -4 -10  -3    0.05    0.11
  -4 -10  -3   -0.08    0.54
  -4 -10  -3   -0.01    0.14
  -5 -10  -3    0.97    0.20
  -5 -10  -3    1.71    0.34
  -5 -10  -3    1.23    0.29
  -5 -10  -3    1.79    0.80
  -6 -10  -3    0.83    0.58
  -6 -10  -3    0.38    0.21
  -6 -10  -3    0.35    0.20
  -7 -10  -3    3.99    0.84
  -7 -10  -3    4.97    0.61
   1 -11  -3    0.33    0.16
   1 -11  -3    0.03    0.13
   0 -11  -3    1.00    0.25
   0 -11  -3    1.03    0.21
   0  11   3    1.01    0.14
  -1 -11  -3    0.19    0.16
  -1 -11  -3    0.21    0.11
   1  11   3    0.27    0.11
  -2 -11  -3    0.88    0.16
  -2 -11  -3    0.36    0.19
   2  11   3    0.73    0.16
  -3 -11  -3    0.54    0.20
  -3 -11  -3    0.64    0.13
  -3 -11  -3    0.45    0.19
   3  11   3    0.64    0.15
  -4 -11  -3    0.79    0.25
  -4 -11  -3    0.79    0.21
   4  11   3    0.80    0.17
  -5 -11  -3   -0.02    0.13
  -5 -11  -3   -0.01    0.53
  -5 -11  -3    0.09    0.19
  -5 -11  -3    0.05    0.12
  -6 -11  -3    1.26    0.34
  -5 -10   4    0.01    0.16
  -5 -10   4    0.15    0.63
   4  10  -4    0.31    0.13
  -4 -10   4    0.42    0.24
  -4 -10   4    0.48    0.20
   3  10  -4    0.21    0.11
  -3 -10   4    0.37    0.19
  -3 -10   4    0.45    0.12
  -3 -10   4    0.25    0.19
  -3 -10   4    0.45    0.19
   2  10  -4   -0.04    0.07
  -2 -10   4    0.17    0.15
  -2 -10   4   -0.06    0.12
  -2 -10   4    0.02    0.09
   1  10  -4    0.15    0.09
  -1 -10   4    0.09    0.10
  -1 -10   4    0.06    0.14
   0 -10   4    0.25    0.17
   0 -10   4    0.29    0.13
   1 -10   4   -0.01    0.15
   7   9  -4    3.64    0.51
  -7  -9   4    3.75    0.52
  -7  -9   4    4.57    0.57
  -6  -9   4    1.70    0.73
  -6  -9   4    0.85    0.25
  -6  -9   4    1.26    0.31
  -5  -9   4    0.10    0.13
  -5  -9   4    0.20    0.19
  -5  -9   4   -0.32    0.50
   4   9  -4    1.90    0.23
  -4  -9   4    1.72    0.33
  -4  -9   4    1.65    0.31
   3   9  -4    1.86    0.22
  -3  -9   4    1.89    0.20
  -3  -9   4    1.94    0.33
  -3  -9   4    1.98    0.32
  -3  -9   4    2.41    0.33
   2   9  -4    0.56    0.13
  -2  -9   4    0.13    0.12
  -2  -9   4    0.61    0.21
  -2  -9   4    0.77    0.15
   1   9  -4    0.19    0.09
  -1  -9   4    0.18    0.14
  -1  -9   4    0.09    0.10
  -1  -9   4    0.20    0.15
   0   9  -4    0.05    0.07
   0  -9   4   -0.03    0.11
   0  -9   4    0.05    0.10
   1  -9   4    4.87    0.42
  -2   9  -4    0.12    0.75
   2  -9   4    0.30    0.18
   3  -9   4    0.20    0.17
   8   8  -4    0.25    0.23
  -8  -8   4    0.21    0.20
  -8  -8   4    0.55    0.24
   7   8  -4    1.51    0.36
  -7  -8   4    1.60    0.64
  -7  -8   4    1.24    0.32
  -7  -8   4    0.38    0.47
  -7  -8   4    1.52    0.34
   6   8  -4    0.87    0.26
  -6  -8   4    0.67    0.23
  -6  -8   4    0.42    0.44
  -6  -8   4    0.85    0.56
  -6  -8   4    0.33    0.16
  -5  -8   4    2.32    0.74
  -5  -8   4    3.73    0.45
  -5  -8   4    2.47    0.38
  -4  -8   4    0.06    0.14
  -4  -8   4    0.39    0.16
  -4  -8   4    0.36    0.64
   3   8  -4    0.14    0.09
  -3  -8   4    0.16    0.13
  -3  -8   4    0.07    0.14
  -3  -8   4    0.30    0.09
  -3  -8   4    0.42    0.15
   2   8  -4    0.01    0.07
  -2  -8   4    0.04    0.07
  -2  -8   4   -0.01    0.09
  -2  -8   4   -0.03    0.10
   1   8  -4    0.03    0.06
   1   8  -4    0.10    0.11
  -1  -8   4   -0.06    0.10
  -1  -8   4    0.13    0.09
  -1  -8   4   -0.07    0.09
   0   8  -4    9.73    0.60
   0  -8   4   10.27    0.57
   0  -8   4   10.16    0.45
   0  -8   4   10.20    0.55
  -1   8  -4   25.99    1.75
   1  -8   4   21.73    0.87
  -2   8  -4    2.18    0.76
   2  -8   4    2.64    0.34
  -3   8  -4    1.30    0.71
  -3   8  -4    1.28    0.79
   3  -8   4    1.25    0.25
  -4   8  -4    1.70    0.71
  -4   8  -4    1.63    0.82
   4  -8   4    2.29    9.44
   4  -8   4    1.20    0.25
   8   7  -4    0.78    0.29
  -8  -7   4    0.65    0.24
  -8  -7   4    0.40    0.21
  -8  -7   4    0.21    0.45
   7   7  -4    3.76    0.50
  -7  -7   4    3.91    0.50
  -7  -7   4    6.74    0.99
  -7  -7   4    4.04    0.51
   6   7  -4   -0.16    0.13
  -6  -7   4   -0.14    0.37
  -6  -7   4   -0.05    0.11
  -6  -7   4   -0.06    0.10
  -6  -7   4    0.06    0.50
   5   7  -4   18.39    0.85
  -5  -7   4   19.47    1.42
  -5  -7   4   18.96    0.84
  -5  -7   4   18.48    1.26
  -5  -7   4   17.98    0.86
   4   7  -4    9.14    0.54
  -4  -7   4    7.54    0.51
  -4  -7   4    8.14    1.02
  -4  -7   4    8.59    0.53
   3   7  -4    8.32    0.36
  -3  -7   4    9.21    0.46
  -3  -7   4    8.36    0.49
  -3  -7   4    9.08    1.05
  -3  -7   4    8.86    0.34
  -3  -7   4    8.35    0.51
   2   7  -4    6.12    0.39
   2   7  -4    6.58    0.30
  -2  -7   4    6.31    0.41
  -2  -7   4    6.88    0.40
  -2  -7   4    6.43    0.30
  -2  -7   4    6.72    0.44
   1   7  -4    2.06    0.19
   1   7  -4    1.98    0.27
  -1  -7   4    2.16    0.28
  -1  -7   4    2.26    0.22
  -1  -7   4    2.55    0.30
   0   7  -4   19.66    0.53
   0   7  -4   20.24    0.84
   0  -7   4   19.06    0.61
   0  -7   4   19.79    0.75
   0  -7   4   19.06    0.74
  -1   7  -4    0.23    0.06
  -1   7  -4    0.60    0.61
  -1   7  -4    0.44    0.16
   1  -7   4    0.27    0.13
  -2   7  -4    2.36    0.35
  -2   7  -4    1.73    0.65
  -2   7  -4    2.21    0.69
   2  -7   4    2.59    0.31
  -3   7  -4    4.85    0.84
  -3   7  -4    3.99    0.83
   3  -7   4    4.42    0.36
  -4   7  -4    0.31    0.59
  -4   7  -4    0.58    0.67
   4  -7   4    0.11    0.14
  -5   7  -4   -0.34    0.63
   9   6  -4    0.73    0.29
  -9  -6   4    0.37    0.22
  -9  -6   4    0.56    0.24
   8   6  -4    6.68    0.60
  -8  -6   4    7.16    0.56
  -8  -6   4    7.03    0.57
   7   6  -4    0.28    0.20
  -7  -6   4    0.41    0.19
  -7  -6   4    0.04    0.11
  -7  -6   4    0.23    0.36
   6   6  -4    0.36    0.19
  -6  -6   4    0.10    0.10
  -6  -6   4   -0.15    0.49
  -6  -6   4    0.15    0.34
  -6  -6   4    0.03    0.12
   5   6  -4   12.40    0.66
  -5  -6   4   11.76    0.64
  -5  -6   4   12.61    0.65
  -5  -6   4   12.49    0.96
  -5  -6   4   12.79    1.08
   4   6  -4    5.94    0.42
  -4  -6   4    5.32    0.40
  -4  -6   4    5.59    0.65
  -4  -6   4    5.25    0.39
   3   6  -4   27.65    0.92
   3   6  -4   26.15    0.69
   3   6  -4   25.88    0.86
  -3  -6   4   25.53    0.88
  -3  -6   4   26.96    0.64
  -3  -6   4   27.51    1.56
  -3  -6   4   25.83    0.92
  -3  -6   4   27.08    1.40
   2   6  -4    0.30    0.08
   2   6  -4    0.41    0.12
  -2  -6   4    0.36    0.12
  -2  -6   4    0.26    0.11
  -2  -6   4    0.31    0.12
  -2  -6   4    0.46    0.10
   1   6  -4    0.02    0.05
   1   6  -4    0.00    0.07
  -1  -6   4    0.01    0.05
  -1  -6   4    0.00    0.07
  -1  -6   4    0.07    0.08
   0   6  -4    6.86    0.46
   0   6  -4    7.26    0.43
   0   6  -4    6.39    0.93
   0   6  -4    6.57    0.26
   0  -6   4    6.73    0.31
   0  -6   4    6.82    0.38
   0  -6   4    7.10    0.39
  -1   6  -4    5.05    0.41
  -1   6  -4    5.53    0.86
  -1   6  -4    5.14    0.20
  -1   6  -4    5.33    0.40
   1  -6   4    5.19    0.33
   1  -6   4    5.58    0.33
  -2   6  -4    1.34    0.59
  -2   6  -4    1.31    0.24
  -2   6  -4    0.96    0.55
   2  -6   4    1.13    0.19
  -3   6  -4    0.50    0.54
  -3   6  -4    0.37    0.16
  -3   6  -4    0.62    0.51
   3  -6   4    0.60    0.17
  -4   6  -4    0.68    0.55
  -4   6  -4    0.24    0.51
   4  -6   4    0.34    0.15
  -5   6  -4    0.80    0.62
   5  -6   4    0.72    0.19
  -6   6  -4   -0.23    0.59
   9   5  -4    1.07    0.32
  -9  -5   4    0.79    0.26
   8   5  -4    1.90    0.38
  -8  -5   4    0.86    0.44
  -8  -5   4    1.96    0.34
  -8  -5   4    1.51    0.32
   7   5  -4   -0.02    0.13
  -7  -5   4    0.00    0.11
  -7  -5   4    0.21    0.33
  -7  -5   4    0.22    0.14
   6   5  -4   10.43    0.64
  -6  -5   4   11.54    0.90
  -6  -5   4   10.83    0.61
  -6  -5   4   11.36    0.92
  -6  -5   4   10.29    0.59
   5   5  -4    0.58    0.19
  -5  -5   4    0.43    0.15
  -5  -5   4    0.20    0.12
  -5  -5   4    0.51    0.47
  -5  -5   4    0.67    0.35
   4   5  -4    2.45    0.26
   4   5  -4    2.28    0.29
  -4  -5   4    2.12    0.27
  -4  -5   4    3.01    0.61
  -4  -5   4    2.67    0.30
  -4  -5   4    2.62    0.49
   3   5  -4   14.29    0.55
   3   5  -4   13.86    0.43
   3   5  -4   14.26    0.59
  -3  -5   4   13.19    0.56
  -3  -5   4   14.06    0.59
  -3  -5   4   14.08    0.90
  -3  -5   4   14.54    0.38
  -3  -5   4   14.19    1.01
   2   5  -4   11.32    0.37
   2   5  -4   10.85    0.47
  -2  -5   4   11.12    0.49
  -2  -5   4   11.54    0.79
  -2  -5   4   11.39    0.89
  -2  -5   4   11.51    0.36
  -2  -5   4   11.46    0.49
  -2  -5   4   12.37    0.46
   1   5  -4   10.53    0.46
   1   5  -4   10.56    0.34
  -1  -5   4    9.96    0.44
  -1  -5   4   10.51    0.35
  -1  -5   4   10.94    0.45
   0   5  -4    5.04    0.33
   0   5  -4    5.50    0.75
   0   5  -4    6.16    0.23
   0   5  -4    6.17    0.39
   0  -5   4    6.03    0.26
   0  -5   4    6.12    0.32
   0  -5   4    5.30    0.30
  -1   5  -4    0.36    0.41
  -1   5  -4   -0.21    0.41
  -1   5  -4    0.15    0.10
  -1   5  -4    0.08    0.04
  -1   5  -4    0.11    0.09
   1  -5   4    0.19    0.09
   1  -5   4    0.06    0.06
  -2   5  -4    6.83    0.84
  -2   5  -4    4.92    0.37
  -2   5  -4    4.66    0.38
  -2   5  -4    5.36    0.68
   2  -5   4    5.37    0.32
   2  -5   4    4.88    0.29
  -3   5  -4    7.29    0.80
  -3   5  -4    7.41    0.51
  -3   5  -4    6.98    0.76
  -3   5  -4    7.11    0.49
   3  -5   4    7.15    0.38
  -4   5  -4    0.07    0.46
  -4   5  -4    0.03    0.11
  -4   5  -4    0.09    0.44
   4  -5   4   -0.06    0.07
  -5   5  -4    2.89    0.71
   5  -5   4    1.83    0.26
  -6   5  -4    0.22    0.51
   9   4  -4    2.98    0.47
  -9  -4   4    2.78    0.43
   8   4  -4    0.25    0.22
  -8  -4   4    0.23    0.16
  -8  -4   4    0.57    0.20
   7   4  -4    1.04    0.25
  -7  -4   4    1.08    0.25
  -7  -4   4    1.25    0.42
  -7  -4   4    1.54    0.27
   6   4  -4   13.30    0.60
   6   4  -4   13.47    0.70
  -6  -4   4   13.59    0.92
  -6  -4   4   12.81    0.63
  -6  -4   4   13.25    0.65
   5   4  -4    0.35    0.12
   5   4  -4    0.41    0.16
  -5  -4   4    0.75    0.41
  -5  -4   4    0.48    0.33
  -5  -4   4    0.50    0.15
  -5  -4   4    0.34    0.14
   4   4  -4   10.66    0.53
   4   4  -4   11.18    0.48
  -4  -4   4   10.78    0.82
  -4  -4   4   11.47    0.76
  -4  -4   4   10.94    0.51
  -4  -4   4   10.73    0.50
   3   4  -4   16.01    0.57
   3   4  -4   14.92    0.59
  -3  -4   4   15.49    0.96
  -3  -4   4   15.40    0.89
  -3  -4   4   15.30    0.36
  -3  -4   4   15.33    0.58
  -3  -4   4   16.25    0.59
   2   4  -4    4.11    0.25
   2   4  -4    3.63    0.18
  -2  -4   4    3.53    0.24
  -2  -4   4    3.76    0.25
  -2  -4   4    4.28    0.54
  -2  -4   4    3.81    0.18
   1   4  -4    0.31    0.09
   1   4  -4    0.30    0.07
  -1  -4   4    0.68    0.09
  -1  -4   4    0.52    0.11
  -1  -4   4    0.43    0.10
   0   4  -4    4.64    0.31
   0   4  -4    4.96    0.29
   0   4  -4    4.31    0.59
   0   4  -4    5.09    0.19
   0  -4   4    5.13    0.27
   0  -4   4    4.97    0.21
   0  -4   4    4.93    0.26
  -1   4  -4    0.40    0.05
  -1   4  -4    0.14    0.33
  -1   4  -4    0.44    0.36
  -1   4  -4    0.78    0.16
  -1   4  -4    0.52    0.12
   1  -4   4    0.42    0.09
   1  -4   4    0.48    0.08
   1  -4   4    0.47    0.08
   1  -4   4    0.40    0.09
  -2   4  -4    3.47    0.29
  -2   4  -4    3.87    0.32
  -2   4  -4    5.78    0.72
  -2   4  -4    5.73    0.72
   2  -4   4    3.82    0.24
   2  -4   4    3.67    0.24
  -3   4  -4   12.33    0.83
  -3   4  -4   11.13    0.58
  -3   4  -4   12.41    0.87
   3  -4   4   12.45    0.47
   3  -4   4   11.69    0.46
  -4   4  -4    0.65    0.44
  -4   4  -4    0.39    0.39
  -4   4  -4    0.27    0.13
   4  -4   4    0.20    0.10
  -5   4  -4    1.66    0.55
  -5   4  -4    1.01    0.23
   5  -4   4    0.68    0.15
  10   3  -4    0.38    0.22
   9   3  -4    1.90    0.37
  -9  -3   4    1.56    0.33
   8   3  -4    0.94    0.27
  -8  -3   4    0.86    0.23
   7   3  -4    0.39    0.19
  -7  -3   4    0.03    0.12
  -7  -3   4    0.36    0.14
   6   3  -4    1.79    0.30
   6   3  -4    1.30    0.21
  -6  -3   4    1.20    0.23
  -6  -3   4    0.93    0.19
  -6  -3   4    1.57    0.39
   5   3  -4   26.45    0.95
   5   3  -4   27.89    0.89
  -5  -3   4   28.02    0.93
  -5  -3   4   27.76    0.90
  -5  -3   4   27.94    1.27
  -5  -3   4   27.12    1.27
   4   3  -4   26.84    0.91
   4   3  -4   28.15    0.86
  -4  -3   4   27.94    0.86
  -4  -3   4   28.98    0.88
  -4  -3   4   26.93    1.27
  -4  -3   4   27.97    1.25
   3   3  -4    0.27    0.08
  -3  -3   4    0.08    0.05
  -3  -3   4    0.02    0.05
  -3  -3   4    0.17    0.22
  -3  -3   4    0.11    0.20
   2   3  -4    0.04    0.04
  -2  -3   4    0.00    0.02
  -2  -3   4    0.03    0.04
  -2  -3   4    0.04    0.22
  -2  -3   4    0.13    0.06
   1   3  -4   41.21    1.04
   1   3  -4   40.27    0.82
  -1  -3   4   40.49    0.96
  -1  -3   4   38.97    0.97
  -1  -3   4   39.17    0.82
   0   3  -4   23.85    0.71
   0   3  -4   23.97    0.80
   0   3  -4   24.35    0.53
   0  -3   4   24.47    0.66
   0  -3   4   24.76    0.56
   0  -3   4   25.61    0.56
   0  -3   4   24.97    0.65
  -1   3  -4    7.29    0.19
  -1   3  -4    7.17    0.38
  -1   3  -4    6.50    0.58
  -1   3  -4    7.38    0.35
   1  -3   4    7.49    0.29
   1  -3   4    7.63    0.31
  -2   3  -4    9.15    0.64
  -2   3  -4   10.24    0.50
  -2   3  -4   10.56    0.71
  -2   3  -4    9.73    0.46
   2  -3   4    9.69    0.35
   2  -3   4   10.25    0.38
  -3   3  -4    0.32    0.29
  -3   3  -4    0.46    0.33
  -3   3  -4    0.53    0.14
   3  -3   4    0.60    0.11
   3  -3   4    0.55    0.11
  -4   3  -4   48.69    1.82
  -4   3  -4   43.76    1.41
   4  -3   4   45.39    1.13
   4  -3   4   47.13    1.18
  -5   3  -4    1.52    0.28
   5  -3   4    2.08    0.23
  -6   3  -4    2.04    0.34
   6  -3   4    1.75    0.32
  10   2  -4    0.07    0.18
 -10  -2   4    0.03    0.16
   9   2  -4    2.13    0.35
   9   2  -4    3.09    0.42
  -9  -2   4    2.90    0.41
   8   2  -4    0.10    0.16
  -8  -2   4    0.30    0.16
   7   2  -4    6.18    0.46
   7   2  -4    6.40    0.45
  -7  -2   4    7.30    0.47
   6   2  -4    0.16    0.13
   6   2  -4    0.09    0.09
  -6  -2   4    0.04    0.09
  -6  -2   4    0.14    0.09
   5   2  -4    2.92    0.25
   5   2  -4    3.75    0.31
  -5  -2   4    3.38    0.27
  -5  -2   4    4.35    0.53
  -5  -2   4    3.35    0.29
   4   2  -4  109.86    2.59
   4   2  -4  110.02    2.52
  -4  -2   4  109.37    2.40
  -4  -2   4  111.65    2.38
  -4  -2   4  101.87    3.57
  -4  -2   4  109.46    3.62
   3   2  -4   40.64    1.06
  -3  -2   4   40.46    1.03
  -3  -2   4   38.04    1.52
  -3  -2   4   40.17    1.01
  -3  -2   4   40.68    1.53
   2   2  -4   52.78    1.26
  -2  -2   4   52.34    0.95
  -2  -2   4   49.09    1.86
  -2  -2   4   50.79    1.18
  -2  -2   4   51.78    1.19
   1   2  -4   10.00    0.36
  -1  -2   4    9.14    0.32
  -1  -2   4    9.71    0.26
  -1  -2   4    9.65    0.33
  -1  -2   4    9.47    0.26
   0   2  -4   35.24    0.88
   0   2  -4   32.76    0.66
   0   2  -4   33.30    0.95
   0  -2   4   33.02    0.80
   0  -2   4   33.78    0.77
  -1   2  -4   84.06    2.89
  -1   2  -4   86.40    1.96
  -1   2  -4   85.97    2.17
  -1   2  -4   87.99    1.51
   1  -2   4   88.55    1.74
   1  -2   4   86.48    1.82
  -2   2  -4   44.16    1.66
  -2   2  -4   46.74    1.21
   2  -2   4   45.79    1.08
   2  -2   4   47.56    1.01
  -3   2  -4    1.48    0.32
  -3   2  -4    1.07    0.17
   3  -2   4    1.38    0.16
   3  -2   4    1.27    0.13
  -4   2  -4    0.98    0.19
  -4   2  -4    1.60    0.18
   4  -2   4    1.14    0.14
   4  -2   4    1.16    0.16
  -5   2  -4   31.97    0.90
  -5   2  -4   31.08    1.12
  -5   2  -4   33.11    0.89
   5  -2   4   31.98    0.91
   5  -2   4   34.13    0.89
  -6   2  -4    2.54    0.35
   6  -2   4    2.36    0.34
  -7   2  -4    0.50    0.19
   7  -2   4    0.55    0.20
   9   1  -4    0.63    0.22
   9   1  -4    0.13    0.20
  -9  -1   4    0.43    0.19
   8   1  -4    2.19    0.34
   8   1  -4    2.25    0.33
   8   1  -4    2.84    0.38
  -8  -1   4    3.24    0.40
   7   1  -4    9.46    0.57
   7   1  -4   10.34    0.57
  -7  -1   4   10.10    0.55
   6   1  -4    0.11    0.09
   6   1  -4    0.07    0.10
  -6  -1   4    0.21    0.11
   5   1  -4   20.45    0.74
   5   1  -4   20.85    0.76
  -5  -1   4   21.12    0.73
  -5  -1   4   20.50    0.67
   4   1  -4   54.48    1.43
   4   1  -4   54.51    1.43
  -4  -1   4   53.22    1.92
  -4  -1   4   55.55    1.37
  -4  -1   4   57.44    1.97
  -4  -1   4   55.92    1.31
   3   1  -4    0.30    0.08
  -3  -1   4    0.07    0.05
  -3  -1   4    0.30    0.08
  -3  -1   4    0.33    0.17
   2   1  -4   70.87    1.61
  -2  -1   4   68.44    1.47
  -2  -1   4   68.97    1.50
   1   1  -4  252.73    5.17
  -1  -1   4  248.20    4.76
   0   1  -4    9.16    0.34
   0   1  -4    9.16    0.32
   0  -1   4    9.17    0.34
  -1   1  -4   29.61    0.77
  -1   1  -4   30.91    0.89
  -2   1  -4   13.61    0.46
  -2   1  -4   12.17    0.61
  -2   1  -4   13.56    0.41
   2  -1   4   13.59    0.42
   2  -1   4   13.58    0.35
  -3   1  -4   61.35    1.29
  -3   1  -4   60.55    1.37
  -3   1  -4   62.93    1.55
   3  -1   4   60.71    1.39
   3  -1   4   62.24    1.29
  -4   1  -4    0.22    0.07
  -4   1  -4    0.23    0.08
  -4   1  -4    0.25    0.10
   4  -1   4    0.23    0.07
   4  -1   4    0.18    0.07
  -5   1  -4    0.86    0.14
  -5   1  -4    0.79    0.18
   5  -1   4    1.16    0.15
   5  -1   4    0.73    0.14
  -6   1  -4   -0.03    0.08
   6  -1   4    0.09    0.11
  -7   1  -4    9.24    0.60
   7  -1   4   10.34    0.63
   9   0  -4    1.26    0.28
  -9   0   4    1.05    0.26
   8   0  -4    1.82    0.32
   8   0  -4    1.46    0.26
  -8   0   4    1.41    0.27
   7   0  -4    0.33    0.15
   7   0  -4    0.34    0.18
   7   0  -4    0.11    0.14
  -7   0   4    0.42    0.15
  -7   0   4    0.24    0.14
   6   0  -4    0.06    0.12
   6   0  -4    0.15    4.69
   6   0  -4    0.17    0.11
   6   0  -4    0.00    0.08
  -6   0   4    0.05    0.10
  -6   0   4    0.16    0.10
   5   0  -4   44.30    1.27
   5   0  -4   46.16    1.36
  -5   0   4   47.01    1.36
  -5   0   4   47.67    1.26
   4   0  -4   27.70    0.84
   4   0  -4   28.57    0.90
  -4   0   4   28.29    0.89
  -4   0   4   27.71    0.73
  -4   0   4   27.77    0.82
   3   0  -4    2.72    0.21
  -3   0   4    2.34    0.19
  -3   0   4    2.53    0.29
   2   0  -4    7.43    0.32
  -2   0   4    8.20    0.30
   1   0  -4   19.27    0.54
   1   0  -4   19.02    0.50
   0   0  -4   97.56    2.06
   0   0   4   96.60    2.25
  -1   0  -4  421.02    8.84
  -2   0  -4   16.76    0.46
  -2   0  -4   16.80    0.49
   2   0   4   16.31    0.47
  -3   0  -4  141.56    2.71
  -3   0  -4  141.17    2.86
  -3   0  -4  145.07    3.07
   3   0   4  136.46    2.71
   3   0   4  137.79    2.87
  -4   0  -4   16.75    0.48
  -4   0  -4   17.94    0.63
  -4   0  -4   16.74    0.54
   4   0   4   17.14    0.49
   4   0   4   17.26    0.56
  -5   0  -4    0.07    0.06
  -5   0  -4    0.22    0.08
  -5   0  -4    0.16    0.09
   5   0   4    0.20    0.08
   5   0   4    0.14    0.09
   5   0   4    0.11    0.07
  -6   0  -4    8.22    0.40
  -6   0  -4    8.64    0.50
   6   0   4    8.53    0.43
   6   0   4    8.74    0.51
  -7   0  -4    6.35    0.46
   7   0   4    6.15    0.46
   9  -1  -4    0.00    0.14
  -9   1   4   -0.14    0.11
   8  -1  -4    2.92    0.38
  -8   1   4    3.17    0.38
   7  -1  -4    4.71    0.38
   7  -1  -4    3.41    0.42
   7  -1  -4    8.12    8.26
  -7   1   4    4.54    0.37
  -7   1   4    4.10    0.45
   6  -1  -4    0.07    0.10
   6  -1  -4    0.03    0.09
   6  -1  -4   -2.11    5.10
   6  -1  -4   -0.05    0.10
  -6   1   4   -0.04    0.09
  -6   1   4    0.04    0.09
   5  -1  -4    2.25    5.38
   5  -1  -4   13.59    0.63
   5  -1  -4   13.38    0.55
   5  -1  -4   13.91    0.55
  -5   1   4   12.92    0.61
  -5   1   4   12.89    0.55
   4  -1  -4    0.05    0.07
   4  -1  -4    0.17    0.08
   4  -1  -4   -1.23    2.97
  -4   1   4    0.16    0.08
  -4   1   4    0.11    0.07
   3  -1  -4   23.81    0.68
   3  -1  -4   24.28    0.58
   3  -1  -4   23.41    0.76
  -3   1   4   24.73    0.77
  -3   1   4   22.64    0.99
  -3   1   4   22.78    0.67
   2  -1  -4   24.38    0.64
   2  -1  -4   24.61    0.72
  -2   1   4   24.30    0.71
  -2   1   4   24.29    0.64
   1  -1  -4    1.35    0.11
  -1   1   4    1.08    0.10
  -1   1   4    1.17    0.05
   0  -1  -4    4.50    0.17
  -1  -1  -4  281.55    5.74
  -2  -1  -4    1.25    0.09
  -2  -1  -4    1.08    0.11
   2   1   4    0.90    0.11
  -3  -1  -4   85.44    1.83
  -3  -1  -4   85.82    1.88
   3   1   4   81.42    1.83
  -4  -1  -4    0.54    0.11
  -4  -1  -4    0.49    0.11
  -4  -1  -4    0.45    0.08
   4   1   4    0.52    0.11
   4   1   4    0.48    0.09
   4   1   4    0.70    0.13
  -5  -1  -4   19.18    0.59
  -5  -1  -4   19.65    0.65
  -5  -1  -4   20.15    0.70
   5   1   4   19.48    0.59
   5   1   4   20.37    0.70
   5   1   4   18.48    0.66
  -6  -1  -4   13.16    0.53
  -6  -1  -4   12.49    0.47
  -6  -1  -4   11.95    0.56
   6   1   4   11.81    0.57
   6   1   4   12.85    0.55
  -7  -1  -4    0.58    0.15
   7   1   4    0.97    0.19
   9  -2  -4    0.14    0.13
  -9   2   4    0.12    0.14
   8  -2  -4    4.13    8.94
   8  -2  -4    1.28    0.26
  -8   2   4    0.69    0.19
   7  -2  -4   -0.03    0.12
   7  -2  -4   -3.43    5.69
   7  -2  -4   -0.08    0.08
  -7   2   4   -0.02    0.11
  -7   2   4    0.04    0.10
   6  -2  -4   -1.53    5.33
   6  -2  -4    0.11    0.11
   6  -2  -4   -0.08    0.10
  -6   2   4    0.16    0.11
  -6   2   4    0.00    0.10
   5  -2  -4   -0.01    0.08
   5  -2  -4    0.01    5.00
   5  -2  -4    0.11    0.09
  -5   2   4    0.07    0.09
  -5   2   4    0.15    0.09
   4  -2  -4    0.17    0.08
   4  -2  -4    0.02    0.07
   4  -2  -4   -1.42    3.55
  -4   2   4    0.12    0.24
  -4   2   4   -0.01    0.06
  -4   2   4    0.02    0.06
   3  -2  -4   82.43    1.81
   3  -2  -4   84.62    2.05
  -3   2   4   84.88    2.04
  -3   2   4   83.28    1.81
  -3   2   4   81.46    2.79
  -3   2   4   81.93    2.79
   2  -2  -4    3.15    0.18
   2  -2  -4    2.89    0.21
  -2   2   4    2.78    0.21
  -2   2   4    2.78    0.17
  -2   2   4    2.79    0.34
   1  -2  -4   78.07    1.60
   1  -2  -4   80.39    1.78
  -1   2   4   80.67    1.78
  -1   2   4   76.14    1.60
   0  -2  -4  174.73    3.62
   0   2   4  175.93    3.62
  -1  -2  -4    0.09    0.02
  -2  -2  -4  153.87    3.09
  -2  -2  -4  151.57    3.09
  -3  -2  -4    0.12    0.04
  -3  -2  -4    0.14    0.06
   3   2   4    0.15    0.05
  -4  -2  -4   17.98    0.60
  -4  -2  -4   18.34    0.53
  -4  -2  -4   17.95    0.55
   4   2   4   18.15    0.55
  -5  -2  -4   30.97    0.83
  -5  -2  -4   31.98    0.93
  -5  -2  -4   31.20    0.90
   5   2   4   30.79    0.89
  -6  -2  -4   18.68    0.69
  -6  -2  -4   18.24    0.62
  -7  -2  -4    0.24    0.13
   7   2   4    0.53    0.17
  -8  -2  -4    5.29    0.40
   8   2   4    5.51    0.43
   8  -3  -4   -0.16    7.75
   8  -3  -4    0.31    0.15
  -8   3   4    0.26    0.14
   7  -3  -4    0.45    0.16
   7  -3  -4   -5.13    6.29
   6  -3  -4   -5.00    5.05
   5  -3  -4   14.16    0.74
   5  -3  -4   15.52    0.61
   5  -3  -4   11.36    7.34
  -5   3   4   16.24    0.92
  -5   3   4   15.37    0.74
  -5   3   4   15.51    0.61
   4  -3  -4   11.50    0.48
   4  -3  -4   12.04    0.60
   4  -3  -4    2.88    4.89
  -4   3   4   12.58    0.82
  -4   3   4   11.11    0.47
  -4   3   4   11.96    0.60
  -4   3   4   11.39    0.73
   3  -3  -4   17.41    0.56
   3  -3  -4   16.43    0.67
   3  -3  -4    6.89    4.38
  -3   3   4   16.43    0.95
  -3   3   4   16.80    0.67
  -3   3   4   16.31    0.86
  -3   3   4   17.76    0.57
   2  -3  -4    0.14    0.06
   2  -3  -4    0.28    0.09
   2  -3  -4    0.12    2.74
  -2   3   4    0.21    0.08
  -2   3   4    0.39    0.24
  -2   3   4    0.37    0.07
  -2   3   4    0.54    0.26
  -2   3   4    0.31    0.07
   1  -3  -4  328.65    6.44
   1  -3  -4  356.79    7.06
  -1   3   4  328.21    5.92
  -1   3   4  359.45    7.07
  -1   3   4  332.33    6.44
   0  -3  -4    2.87    0.16
   0  -3  -4    2.91    0.15
   0   3   4    2.80    0.16
  -1  -3  -4    0.46    0.06
  -1  -3  -4    0.61    0.06
  -1  -3  -4    0.32    0.06
   1   3   4    0.70    0.06
  -2  -3  -4   17.82    0.46
  -2  -3  -4   17.99    0.54
  -3  -3  -4  164.52    3.16
  -3  -3  -4  166.24    3.36
  -3  -3  -4  152.54    5.03
   3   3   4  162.25    3.25
  -4  -3  -4   82.17    1.76
  -4  -3  -4   78.78    1.90
  -4  -3  -4   83.08    1.78
   4   3   4   83.15    1.78
  -5  -3  -4    0.82    0.17
  -5  -3  -4    1.04    0.16
  -6  -3  -4    7.63    0.44
  -6  -3  -4    7.96    0.39
  -7  -3  -4    4.68    0.37
  -8  -3  -4    5.62    0.42
   8   3   4    6.45    0.47
  -9  -3  -4    4.59    0.47
   9   3   4    5.18    0.46
   8  -4  -4    1.38    0.28
   8  -4  -4    0.92    9.19
   7  -4  -4    3.84    9.06
   6  -4  -4    0.41    0.19
   6  -4  -4    0.69    0.19
   6  -4  -4   -0.93    7.23
  -6   4   4    1.39    0.51
  -6   4   4    0.65    0.22
  -6   4   4    0.88    0.20
   5  -4  -4    6.92    7.58
   5  -4  -4    3.36    0.29
   5  -4  -4    2.99    0.39
  -5   4   4    3.02    0.32
  -5   4   4    4.40    0.63
  -5   4   4    2.52    0.35
   4  -4  -4    3.69    0.28
   4  -4  -4   -0.70    4.79
   4  -4  -4    3.84    0.36
  -4   4   4    3.83    0.60
  -4   4   4    3.59    0.53
  -4   4   4    3.46    0.27
  -4   4   4    3.99    0.36
   3  -4  -4    0.29    0.12
   3  -4  -4    0.22    0.08
   3  -4  -4    1.38    4.58
  -3   4   4   -0.31    0.30
  -3   4   4    0.16    0.08
  -3   4   4    0.26    0.11
  -3   4   4    0.08    0.32
   2  -4  -4    0.09    0.08
   2  -4  -4   -2.68    2.52
   2  -4  -4    0.25    0.08
  -2   4   4    0.00    0.06
  -2   4   4    0.25    0.08
  -2   4   4    0.20    0.28
  -2   4   4    0.12    0.05
  -2   4   4   -0.10    0.25
   1  -4  -4    4.56    0.24
   1  -4  -4    4.31    0.28
  -1   4   4    4.81    0.54
  -1   4   4    4.46    0.28
  -1   4   4    4.51    0.16
   0  -4  -4  263.27    4.47
   0  -4  -4  255.37    5.32
   0  -4  -4  243.95    4.89
   0   4   4  265.90    5.34
   0   4   4  251.60    4.42
  -1  -4  -4    7.44    0.28
  -1  -4  -4    8.01    0.27
  -1  -4  -4    8.04    0.25
  -1  -4  -4    7.89    0.31
   1   4   4    7.88    0.27
   1   4   4    7.87    0.24
  -2  -4  -4    1.77    0.09
  -2  -4  -4    1.91    0.14
  -2  -4  -4    2.83    0.43
  -2  -4  -4    1.51    0.17
  -3  -4  -4    0.14    0.05
  -3  -4  -4    0.20    0.17
  -3  -4  -4    0.12    0.21
  -3  -4  -4    0.01    0.03
  -3  -4  -4    0.17    0.08
  -4  -4  -4    2.56    0.35
  -4  -4  -4    2.59    0.31
  -4  -4  -4    2.56    0.27
  -6  -4  -4    0.00    0.07
  -6  -4  -4    0.01    0.05
  -7  -4  -4    1.54    0.27
  -8  -4  -4    7.58    0.50
  -9  -4  -4    0.11    0.14
   9   4   4    0.14    0.15
  10   4   4   -0.33    0.22
   7  -5  -4    1.13    0.25
   7  -5  -4    3.10    8.70
  -7   5   4    3.34    0.74
  -7   5   4    1.07    0.24
   6  -5  -4    0.51    0.17
   6  -5  -4    3.15    7.83
  -6   5   4    0.09    0.48
  -6   5   4    0.24    0.13
   5  -5  -4   -3.53    5.42
   5  -5  -4    1.22    0.28
   5  -5  -4    0.92    0.19
  -5   5   4    1.03    0.20
  -5   5   4    1.47    0.55
  -5   5   4    1.17    0.27
  -5   5   4    1.44    0.45
   4  -5  -4   42.09   12.86
   4  -5  -4   55.72    1.73
   4  -5  -4   55.29    1.44
  -4   5   4   49.52    1.66
  -4   5   4   56.68    1.46
  -4   5   4   57.91    2.33
  -4   5   4   58.44    2.24
   3  -5  -4   -1.43    4.25
   3  -5  -4    0.23    0.10
   3  -5  -4    0.24    0.12
  -3   5   4    0.33    0.14
  -3   5   4   -0.44    0.36
  -3   5   4    0.16    0.39
   2  -5  -4   19.61    0.76
   2  -5  -4   36.71   10.11
   2  -5  -4   19.05    0.62
  -2   5   4   18.80    0.66
  -2   5   4   19.15    0.75
  -2   5   4   19.04    1.10
  -2   5   4   19.51    1.13
   1  -5  -4    1.90    0.20
   1  -5  -4    1.52    0.15
   1  -5  -4    5.88    4.97
   1  -5  -4    1.87    0.23
  -1   5   4    1.06    0.40
  -1   5   4    1.96    0.23
  -1   5   4    0.86    0.38
  -1   5   4    1.61    0.11
   0  -5  -4   15.92    0.48
   0  -5  -4   15.14    0.44
   0  -5  -4   15.34    0.54
   0  -5  -4   15.63    0.50
   0   5   4   15.62    0.41
   0   5   4   15.50    0.97
   0   5   4   16.59    0.56
  -1  -5  -4    8.08    0.77
  -1  -5  -4    7.33    0.27
  -1  -5  -4    7.91    0.32
  -1  -5  -4    7.25    0.33
   1   5   4    7.61    0.25
   1   5   4    7.86    0.31
  -2  -5  -4   21.35    0.59
  -2  -5  -4   20.87    0.61
  -2  -5  -4   19.13    1.13
  -2  -5  -4   21.03    0.98
  -2  -5  -4   21.22    0.68
  -2  -5  -4   20.95    0.49
   2   5   4   21.11    0.50
  -3  -5  -4   -0.01    0.19
  -3  -5  -4    0.02    0.04
  -3  -5  -4   -0.18    0.21
  -3  -5  -4   -0.03    0.05
  -3  -5  -4   -0.01    0.06
  -4  -5  -4   47.23    1.83
  -4  -5  -4   49.30    1.02
  -4  -5  -4   47.92    1.90
  -4  -5  -4   49.74    1.23
  -4  -5  -4   49.63    1.35
  -5  -5  -4   10.56    0.66
  -5  -5  -4   10.92    0.77
  -5  -5  -4    9.98    0.53
  -5  -5  -4   10.74    0.47
  -6  -5  -4    0.49    0.15
  -6  -5  -4    0.40    0.25
  -6  -5  -4    0.53    0.16
  -7  -5  -4    7.68    0.52
  -8  -5  -4    0.12    0.14
  -9  -5  -4    4.91    0.52
 -10  -5  -4    0.50    0.22
  10   5   4    1.19    0.32
   7  -6  -4    1.76   10.06
   6  -6  -4   -2.54    7.03
   6  -6  -4    0.96    0.22
  -6   6   4    1.54    0.63
   5  -6  -4    2.28    7.42
   5  -6  -4    0.60    0.17
  -5   6   4    1.02    0.58
  -5   6   4    0.72    0.46
   4  -6  -4    6.17    0.39
   4  -6  -4    6.18    0.50
   4  -6  -4    9.92    8.72
  -4   6   4    5.59    0.47
  -4   6   4    6.08    0.79
  -4   6   4    7.30    0.81
   3  -6  -4   -0.09    0.08
   3  -6  -4   -0.78    5.01
   3  -6  -4    0.13    0.09
  -3   6   4   -0.20    0.43
  -3   6   4    0.14    0.43
  -3   6   4    0.10    0.12
   2  -6  -4    4.21    6.12
   2  -6  -4    4.72    0.31
   2  -6  -4    5.16    0.39
  -2   6   4    3.06    0.58
  -2   6   4    4.91    0.70
  -2   6   4    5.30    0.39
   1  -6  -4   20.35    0.76
   1  -6  -4   19.51    7.71
   1  -6  -4   20.90    0.58
   1  -6  -4   19.50    0.65
  -1   6   4   19.70    1.22
  -1   6   4   20.52    0.76
  -1   6   4   18.98    1.23
  -1   6   4   20.28    0.49
   0  -6  -4    0.29    0.09
   0  -6  -4    0.27    0.08
   0  -6  -4   -0.61    3.08
   0   6   4    0.11    0.43
   0   6   4    0.28    0.10
   0   6   4    0.33    0.07
  -1  -6  -4    8.09    0.36
  -1  -6  -4    8.08    0.37
  -1  -6  -4    7.52    0.37
  -1  -6  -4    6.89    0.29
  -1  -6  -4    8.69    0.95
   1   6   4    7.79    0.28
  -2  -6  -4   83.90    3.11
  -2  -6  -4   83.50    1.86
  -2  -6  -4   84.24    1.96
  -2  -6  -4   82.43    1.76
  -2  -6  -4   82.06    1.59
  -2  -6  -4   81.67    2.95
   2   6   4   83.48    1.60
  -3  -6  -4   38.14    1.60
  -3  -6  -4   37.34    0.93
  -3  -6  -4   38.36    0.75
  -3  -6  -4   37.75    1.02
  -3  -6  -4   39.98    1.14
  -3  -6  -4   36.60    1.78
  -4  -6  -4    0.58    0.11
  -4  -6  -4    0.34    0.35
  -4  -6  -4    0.44    0.32
  -4  -6  -4    0.76    0.18
  -4  -6  -4    0.59    0.14
  -5  -6  -4    4.05    0.62
  -5  -6  -4    3.14    0.35
  -5  -6  -4    3.32    0.27
  -5  -6  -4    4.27    0.59
  -6  -6  -4   12.56    0.66
  -6  -6  -4   13.39    0.84
  -6  -6  -4   14.20    0.62
  -7  -6  -4    7.86    0.66
  -7  -6  -4    7.24    0.52
  -8  -6  -4    0.93    0.24
  -9  -6  -4    0.71    0.25
   6  -7  -4    1.55    8.82
   6  -7  -4    0.09    0.15
  -6   7   4    0.23    0.65
   5  -7  -4    1.22    0.25
   5  -7  -4   -3.17    6.86
  -5   7   4    1.61    0.69
   4  -7  -4    1.60    7.02
   4  -7  -4    0.48    0.17
  -4   7   4    0.27    0.49
  -4   7   4   -0.35    0.52
   3  -7  -4    2.30    0.35
   3  -7  -4   -1.98    5.23
   3  -7  -4    1.94    0.27
  -3   7   4    3.84    0.77
  -3   7   4    1.66    0.30
  -3   7   4    1.48    0.56
   2  -7  -4   11.57    8.14
   2  -7  -4   10.71    0.51
   2  -7  -4   10.04    0.59
  -2   7   4   10.44    0.60
  -2   7   4   10.11    1.01
  -2   7   4   11.95    1.09
   1  -7  -4    0.22    0.10
   1  -7  -4   -2.95    4.29
   1  -7  -4    0.35    0.12
   1  -7  -4    0.24    0.12
  -1   7   4    0.29    0.07
  -1   7   4    0.37    0.49
  -1   7   4    0.49    0.15
   0  -7  -4    1.65    4.01
   0  -7  -4    0.84    0.14
   0  -7  -4    0.57    0.14
   0   7   4    0.72    0.11
  -1  -7  -4    5.04    0.26
  -1  -7  -4    5.08    0.31
  -1  -7  -4    4.34    0.30
   1   7   4    4.29    0.23
  -2  -7  -4    5.95    0.39
  -2  -7  -4    6.30    0.37
  -2  -7  -4    6.10    0.27
  -2  -7  -4    6.42    0.35
  -2  -7  -4    8.81    1.11
   2   7   4    7.03    0.29
  -3  -7  -4   21.87    0.52
  -3  -7  -4   23.41    1.50
  -3  -7  -4   22.17    0.75
  -3  -7  -4   22.36    0.69
  -3  -7  -4   21.08    0.81
  -3  -7  -4   22.12    1.17
  -4  -7  -4    0.35    0.31
  -4  -7  -4    0.11    0.37
  -4  -7  -4    0.30    0.14
  -4  -7  -4    0.51    0.15
  -4  -7  -4    0.09    0.09
  -5  -7  -4    1.22    0.25
  -5  -7  -4    1.39    0.24
  -5  -7  -4    1.28    0.48
  -5  -7  -4    1.56    0.45
  -6  -7  -4    1.61    0.44
  -6  -7  -4    2.09    0.46
  -6  -7  -4    1.41    0.28
  -6  -7  -4    1.61    0.27
  -7  -7  -4    7.69    0.73
  -7  -7  -4    7.25    0.54
  -8  -7  -4    2.78    0.43
  -8  -7  -4    1.80    0.45
  -9  -7  -4    1.57    0.34
   5  -8  -4   -2.06    8.09
   5  -8  -4    1.19    0.25
  -5   8   4    1.47    0.63
  -5   8   4    1.25    0.76
   4  -8  -4   -1.10    7.49
   4  -8  -4    0.76    0.20
  -4   8   4    0.49    0.55
  -4   8   4    0.47    0.68
   3  -8  -4    1.72    0.26
   3  -8  -4    4.13    7.35
  -3   8   4    0.99    0.58
  -3   8   4    1.43    0.67
   2  -8  -4   -0.13    5.91
   2  -8  -4    0.26    0.16
   2  -8  -4    0.06    0.09
  -2   8   4    0.03    0.13
  -2   8   4    0.30    0.57
   1  -8  -4    0.27    0.12
   1  -8  -4   -2.33    4.99
   1  -8  -4    0.39    0.12
  -1   8   4    0.32    0.08
  -1   8   4    0.06    0.57
   0  -8  -4    3.56    0.25
   0  -8  -4    2.64    0.30
   0   8   4    3.09    0.19
  -1  -8  -4    2.32    0.22
  -1  -8  -4    2.38    0.29
   1   8   4    2.22    0.18
  -2  -8  -4    0.43    0.10
  -2  -8  -4    0.85    0.18
  -2  -8  -4    0.16    0.12
  -2  -8  -4    0.56    0.16
   2   8   4    0.53    0.11
  -3  -8  -4    2.12    0.16
  -3  -8  -4    2.67    0.31
  -3  -8  -4    1.81    0.28
  -3  -8  -4    2.09    0.25
  -3  -8  -4    3.28    0.74
   3   8   4    1.74    0.18
  -4  -8  -4    5.80    0.44
  -4  -8  -4    5.42    0.66
  -4  -8  -4    5.73    0.33
  -4  -8  -4    7.08    1.02
  -4  -8  -4    5.72    0.40
  -5  -8  -4    4.28    0.44
  -5  -8  -4    3.54    0.43
  -5  -8  -4    4.67    0.78
  -5  -8  -4    4.35    0.68
  -5  -8  -4    3.62    0.25
  -6  -8  -4    0.39    0.17
  -6  -8  -4    0.57    0.37
  -6  -8  -4    0.42    0.42
  -6  -8  -4    0.18    0.16
  -7  -8  -4    0.33    0.39
  -7  -8  -4    0.47    0.19
  -8  -8  -4    1.62    0.34
  -8  -8  -4    1.02    0.47
  -9  -8  -4    1.06    0.29
   4  -9  -4    4.12    8.77
   3  -9  -4    0.41    8.17
   3  -9  -4    0.16    0.14
  -3   9   4    0.22    0.63
   2  -9  -4    2.78    0.35
   2  -9  -4    4.18    7.96
  -2   9   4    1.07    0.67
   1  -9  -4    0.91    0.20
   1  -9  -4    1.36    0.21
  -1   9   4    1.23    0.13
   0  -9  -4    1.74    0.22
   0  -9  -4    1.67    0.26
   0   9   4    1.79    0.18
  -1  -9  -4    2.60    0.25
  -1  -9  -4    2.93    0.35
   1   9   4    2.69    0.21
  -2  -9  -4    1.77    0.28
  -2  -9  -4    1.76    0.26
  -2  -9  -4    1.49    0.18
   2   9   4    1.74    0.19
  -3  -9  -4    4.17    0.23
  -3  -9  -4    4.36    0.44
  -3  -9  -4    4.37    0.34
  -3  -9  -4    4.96    0.41
   3   9   4    3.95    0.25
  -4  -9  -4   -0.20    0.44
  -4  -9  -4   -0.09    0.08
  -4  -9  -4   -0.03    0.09
  -4  -9  -4    0.03    0.10
  -5  -9  -4    0.32    0.13
  -5  -9  -4    0.30    0.16
  -5  -9  -4    0.06    0.14
  -5  -9  -4    0.96    0.52
  -5  -9  -4    0.85    0.47
  -6  -9  -4    2.64    0.41
  -6  -9  -4    3.89    0.88
  -6  -9  -4    2.71    0.39
  -6  -9  -4    1.93    0.57
  -7  -9  -4    0.44    0.47
  -7  -9  -4    0.54    0.53
  -7  -9  -4    1.02    0.29
  -8  -9  -4    2.36    0.42
   3 -10  -4   -1.69    7.90
   3 -10  -4    0.07    0.15
   2 -10  -4   -0.06    0.09
  -2  10   4   -0.74    0.69
   1 -10  -4    0.16    0.12
   1 -10  -4    0.36    0.16
   0 -10  -4    0.71    0.21
   0 -10  -4    1.16    0.20
   0  10   4    0.82    0.13
  -1 -10  -4    0.19    0.11
  -1 -10  -4    0.17    0.13
   1  10   4    0.27    0.10
  -2 -10  -4    0.55    0.13
  -2 -10  -4    0.36    0.16
  -2 -10  -4    0.44    0.17
   2  10   4    0.26    0.10
  -3 -10  -4    5.96    0.42
  -3 -10  -4    5.75    0.29
  -3 -10  -4    6.69    0.48
  -4 -10  -4    0.13    0.13
  -4 -10  -4    0.59    0.21
  -4 -10  -4    0.05    0.52
  -4 -10  -4    0.30    0.16
  -5 -10  -4   -0.06    0.10
  -5 -10  -4    0.16    0.17
  -5 -10  -4    0.26    0.51
  -5 -10  -4    0.05    0.12
  -6 -10  -4    0.33    0.18
  -6 -10  -4    0.46    0.23
  -6 -10  -4   -0.07    0.50
  -7 -10  -4    3.94    0.53
  -7 -10  -4    3.68    0.80
   1 -11  -4    3.17    0.42
   1 -11  -4    2.73    0.32
   0 -11  -4    0.02    0.12
   0 -11  -4    0.17    0.16
   0  11   4    0.24    0.10
  -1 -11  -4    0.62    0.15
  -1 -11  -4    0.87    0.24
   1  11   4    0.55    0.13
  -2 -11  -4    0.54    0.14
  -2 -11  -4    0.47    0.18
   2  11   4    0.80    0.16
  -3 -11  -4    0.07    0.08
  -3 -11  -4    0.09    0.15
  -3 -11  -4   -0.07    0.13
   3  11   4    0.05    0.09
  -4 -11  -4    1.79    0.29
  -4 -11  -4    1.45    0.32
   4  11   4    1.70    0.22
  -5 -11  -4    0.17    0.13
  -5 -11  -4    0.24    0.16
  -5 -11  -4    0.15    0.17
  -5 -11  -4    0.23    0.56
  -6 -11  -4    0.53    0.25
  -5 -10   5    0.23    0.20
   4  10  -5    0.77    0.17
  -4 -10   5    1.10    0.28
  -4 -10   5    0.95    0.28
   3  10  -5    1.22    0.19
  -3 -10   5    1.30    0.30
  -3 -10   5    1.30    0.19
  -3 -10   5    1.39    0.33
   2  10  -5    0.93    0.16
  -2 -10   5    0.61    0.23
  -2 -10   5    0.55    0.15
  -2 -10   5    1.27    0.30
   1  10  -5    0.17    0.09
  -1 -10   5    0.01    0.10
  -1 -10   5    0.23    0.17
   0 -10   5    0.54    0.21
   0 -10   5    0.84    0.19
  -7  -9   5    1.10    0.31
  -6  -9   5    0.04    0.17
  -6  -9   5    0.15    0.16
  -6  -9   5    0.20    0.57
  -5  -9   5    0.14    0.17
  -5  -9   5    0.15    0.15
  -5  -9   5    0.11    0.67
  -5  -9   5   -0.23    0.55
   4   9  -5    0.41    0.13
  -4  -9   5    0.13    0.14
  -4  -9   5    0.59    0.22
   3   9  -5    0.73    0.15
  -3  -9   5    0.83    0.15
  -3  -9   5    1.03    0.27
  -3  -9   5    0.54    0.20
   2   9  -5    0.86    0.15
  -2  -9   5    0.51    0.18
  -2  -9   5    0.95    0.17
  -2  -9   5    0.92    0.25
   1   9  -5    0.19    0.09
  -1  -9   5    0.26    0.12
  -1  -9   5    0.05    0.12
  -1  -9   5    0.12    0.16
   0   9  -5    0.29    0.09
   0  -9   5    0.23    0.13
   0  -9   5    0.55    0.20
   1  -9   5    8.56    0.56
  -2   9  -5    0.47    0.78
   2  -9   5   -0.06    0.12
  -8  -8   5    0.18    0.19
   7   8  -5    2.74    0.44
  -7  -8   5    2.75    0.45
  -7  -8   5    2.84    0.45
  -7  -8   5    4.89    1.05
   6   8  -5   -0.18    0.14
  -6  -8   5    0.01    0.48
  -6  -8   5    0.32    0.59
  -6  -8   5   -0.06    0.11
  -6  -8   5   -0.29    0.41
  -6  -8   5    0.09    0.14
  -5  -8   5    1.12    0.27
  -5  -8   5    0.92    0.24
  -5  -8   5    0.92    0.71
  -4  -8   5    4.90    0.51
  -4  -8   5    4.65    1.00
  -4  -8   5    6.05    0.23
  -4  -8   5    5.00    0.43
   3   8  -5    0.42    0.12
  -3  -8   5    0.44    0.11
  -3  -8   5    0.55    0.19
  -3  -8   5    0.26    0.15
   2   8  -5    4.21    0.26
  -2  -8   5    4.32    0.39
  -2  -8   5    5.14    0.40
  -2  -8   5    4.39    0.28
   1   8  -5    0.14    0.07
   1   8  -5    0.20    0.13
  -1  -8   5    0.07    0.09
  -1  -8   5    0.10    0.12
  -1  -8   5    0.14    0.12
   0   8  -5   -0.01    0.13
   0   8  -5    0.02    0.06
   0  -8   5    0.01    0.12
   0  -8   5    0.04    0.12
   0  -8   5    0.04    0.10
  -1   8  -5    3.40    0.87
   1  -8   5    2.79    0.35
  -2   8  -5    2.34    0.80
   2  -8   5    2.57    0.34
  -3   8  -5   -0.32    0.66
   3  -8   5   -0.22    0.11
   8   7  -5    2.41    0.43
  -8  -7   5    2.34    0.41
  -8  -7   5    1.59    0.33
   7   7  -5    0.30    0.23
  -7  -7   5    1.02    0.50
  -7  -7   5    0.09    0.15
  -7  -7   5    0.33    0.44
  -7  -7   5    0.42    0.21
   6   7  -5   -0.14    0.13
  -6  -7   5   -0.23    0.52
  -6  -7   5    0.04    0.11
  -6  -7   5   -0.14    0.35
  -6  -7   5    0.04    0.13
   5   7  -5    7.65    0.53
  -5  -7   5    7.35    0.54
  -5  -7   5    7.56    0.52
  -5  -7   5    7.49    0.88
  -5  -7   5    7.94    1.03
  -4  -7   5    2.18    0.33
  -4  -7   5    2.49    0.34
  -4  -7   5    3.02    0.79
  -4  -7   5    2.30    0.13
   3   7  -5    1.36    0.17
  -3  -7   5    1.26    0.15
  -3  -7   5    1.13    0.23
  -3  -7   5    1.00    0.69
  -3  -7   5    1.44    0.25
   2   7  -5    0.34    0.09
   2   7  -5    0.41    0.13
  -2  -7   5    0.16    0.08
  -2  -7   5    0.43    0.15
  -2  -7   5    0.40    0.14
  -2  -7   5    0.24    0.12
   1   7  -5    1.70    0.17
   1   7  -5    2.13    0.29
  -1  -7   5    2.03    0.28
  -1  -7   5    2.10    0.22
  -1  -7   5    1.67    0.26
   0   7  -5    9.52    0.56
   0   7  -5    8.92    0.32
   0  -7   5    7.99    0.46
   0  -7   5    8.50    0.39
   0  -7   5    9.71    0.51
  -1   7  -5    6.31    1.01
  -1   7  -5    5.05    0.43
  -1   7  -5    5.55    0.20
   1  -7   5    5.69    0.39
   1  -7   5    5.88    0.40
  -2   7  -5   -0.04    0.56
  -2   7  -5    0.20    0.59
   2  -7   5    0.08    0.11
  -3   7  -5   -0.02    0.58
  -3   7  -5    0.03    0.59
   3  -7   5    0.00    0.10
  -4   7  -5   -0.30    0.61
  -4   7  -5    0.29    0.61
   4  -7   5   -0.01    0.13
  -5   7  -5   -0.18    0.67
   9   6  -5    1.87    0.40
  -9  -6   5    1.47    0.34
  -9  -6   5    1.26    0.33
   8   6  -5    3.67    0.51
  -8  -6   5    3.72    0.51
  -8  -6   5    3.15    0.45
   7   6  -5    6.08    0.52
  -7  -6   5    5.73    0.58
  -7  -6   5    5.56    0.58
   6   6  -5    7.17    0.53
  -6  -6   5    6.75    0.50
  -6  -6   5    5.86    0.76
  -6  -6   5    7.41    0.90
  -6  -6   5    6.72    0.50
   5   6  -5    0.12    0.16
  -5  -6   5    0.95    0.56
  -5  -6   5   -0.05    0.09
  -5  -6   5    0.48    0.40
  -5  -6   5   -0.04    0.10
   4   6  -5    8.08    0.44
   4   6  -5    7.42    0.47
  -4  -6   5    8.83    0.93
  -4  -6   5    8.08    0.50
  -4  -6   5    8.00    0.78
  -4  -6   5    9.42    0.52
   3   6  -5   17.79    0.54
   3   6  -5   17.49    0.68
  -3  -6   5   17.70    1.28
  -3  -6   5   18.41    0.72
  -3  -6   5   17.50    0.49
  -3  -6   5   17.63    0.73
   2   6  -5    3.07    0.20
   2   6  -5    3.01    0.26
  -2  -6   5    3.35    0.29
  -2  -6   5    3.38    0.20
  -2  -6   5    2.66    0.30
  -2  -6   5    2.86    0.29
   1   6  -5    0.32    0.11
   1   6  -5    0.36    0.09
  -1  -6   5    0.42    0.13
  -1  -6   5    0.24    0.08
  -1  -6   5    0.16    0.10
   0   6  -5    2.36    0.29
   0   6  -5    2.28    0.73
   0   6  -5    2.62    0.16
   0  -6   5    2.25    0.26
   0  -6   5    2.83    0.30
   0  -6   5    2.73    0.20
  -1   6  -5   26.21    0.56
  -1   6  -5   24.59    1.46
  -1   6  -5   25.86    1.58
  -1   6  -5   22.74    0.93
   1  -6   5   25.36    0.83
   1  -6   5   24.10    0.82
  -2   6  -5    0.86    0.58
  -2   6  -5    0.84    0.21
  -2   6  -5    1.13    0.61
   2  -6   5    0.78    0.18
   2  -6   5    1.04    0.18
  -3   6  -5   11.58    1.05
  -3   6  -5   12.05    1.07
  -3   6  -5   10.33    0.66
   3  -6   5   10.57    0.51
  -4   6  -5    0.65    0.56
  -4   6  -5    1.58    0.66
   4  -6   5    0.71    0.18
  -5   6  -5    0.43    0.60
  -6   6  -5    0.31    0.65
   9   5  -5    1.21    0.35
  -9  -5   5    0.59    0.24
   8   5  -5    0.12    0.19
  -8  -5   5   -0.32    0.40
  -8  -5   5    0.04    0.15
  -8  -5   5    0.06    0.13
   7   5  -5    2.08    0.35
  -7  -5   5    2.07    0.33
  -7  -5   5    1.41    0.30
  -7  -5   5    1.46    0.47
   6   5  -5   11.93    0.67
  -6  -5   5   12.76    0.66
  -6  -5   5   10.63    0.97
  -6  -5   5   13.65    0.69
  -6  -5   5   12.26    0.97
   5   5  -5    7.48    0.49
   5   5  -5    7.95    0.44
  -5  -5   5    7.88    0.49
  -5  -5   5    8.40    0.84
  -5  -5   5    7.51    0.77
  -5  -5   5    7.68    0.48
   4   5  -5    1.08    0.19
   4   5  -5    1.07    0.22
  -4  -5   5    0.84    0.45
  -4  -5   5    0.97    0.20
  -4  -5   5    1.12    0.21
  -4  -5   5    0.92    0.37
   3   5  -5   10.57    0.47
   3   5  -5    9.61    0.36
   3   5  -5   10.49    0.50
  -3  -5   5    9.89    0.49
  -3  -5   5    9.77    0.31
  -3  -5   5   10.29    0.50
  -3  -5   5   10.62    0.92
  -3  -5   5   10.28    0.79
   2   5  -5   14.52    0.44
   2   5  -5   14.87    0.58
  -2  -5   5   15.80    1.08
  -2  -5   5   14.30    0.43
  -2  -5   5   14.13    0.53
  -2  -5   5   14.17    0.58
  -2  -5   5   15.13    0.59
   1   5  -5    6.58    0.27
   1   5  -5    7.31    0.39
  -1  -5   5    6.76    0.37
  -1  -5   5    6.94    0.36
  -1  -5   5    6.36    0.34
  -1  -5   5    6.83    0.29
   0   5  -5   17.00    1.13
   0   5  -5   16.91    0.74
   0   5  -5   16.90    0.66
   0   5  -5   17.30    0.45
   0  -5   5   17.81    0.61
   0  -5   5   17.20    0.61
   0  -5   5   18.14    0.51
  -1   5  -5    0.30    0.43
  -1   5  -5    0.14    0.04
  -1   5  -5    0.37    0.46
  -1   5  -5    0.19    0.11
  -1   5  -5   -0.07    0.06
   1  -5   5    0.21    0.10
   1  -5   5    0.22    0.09
  -2   5  -5    1.07    0.51
  -2   5  -5    1.86    0.58
  -2   5  -5    0.71    0.18
  -2   5  -5    0.94    0.20
   2  -5   5    0.94    0.16
   2  -5   5    0.95    0.17
  -3   5  -5   18.25    1.18
  -3   5  -5   15.51    0.77
  -3   5  -5   17.10    1.13
   3  -5   5   17.26    0.63
  -4   5  -5    1.31    0.27
  -4   5  -5    1.81    0.55
  -4   5  -5    2.16    0.66
   4  -5   5    1.69    0.23
  -5   5  -5    2.32    0.70
  -6   5  -5    0.45    0.56
   9   4  -5    3.71    0.52
  -9  -4   5    3.99    0.52
   8   4  -5    0.14    0.19
  -8  -4   5    0.04    0.14
  -8  -4   5   -0.21    0.39
  -7  -4   5   -0.03    0.09
  -7  -4   5    0.14    0.36
  -7  -4   5    0.09    0.11
   6   4  -5   27.17    1.04
   6   4  -5   27.71    0.96
  -6  -4   5   25.23    0.96
  -6  -4   5   28.36    1.39
  -6  -4   5   27.19    1.43
  -6  -4   5   27.89    1.02
   5   4  -5   58.31    1.57
   5   4  -5   56.86    1.66
  -5  -4   5   58.22    2.34
  -5  -4   5   55.59    1.56
  -5  -4   5   61.48    2.36
  -5  -4   5   58.91    1.60
   4   4  -5   28.62    0.97
   4   4  -5   29.27    0.92
  -4  -4   5   28.27    0.93
  -4  -4   5   30.14    1.46
  -4  -4   5   30.19    0.95
  -4  -4   5   29.20    1.39
   3   4  -5   29.71    0.89
   3   4  -5   28.27    0.90
  -3  -4   5   28.11    0.87
  -3  -4   5   28.29    1.35
  -3  -4   5   29.13    0.61
  -3  -4   5   28.42    1.41
  -3  -4   5   27.57    0.87
   2   4  -5    0.75    0.10
   2   4  -5    0.71    0.13
  -2  -4   5    1.08    0.40
  -2  -4   5    0.61    0.09
  -2  -4   5    0.85    0.14
  -2  -4   5    0.63    0.13
   1   4  -5   78.53    1.51
   1   4  -5   80.07    1.90
  -1  -4   5   79.56    2.93
  -1  -4   5   76.03    1.52
  -1  -4   5   77.61    1.75
  -1  -4   5   78.94    1.80
   0   4  -5    3.41    0.16
   0   4  -5    3.32    0.24
   0   4  -5    3.48    0.62
   0   4  -5    2.95    0.26
   0  -4   5    3.23    0.18
   0  -4   5    2.88    0.22
   0  -4   5    3.29    0.18
   0  -4   5    3.85    0.24
  -1   4  -5    0.66    0.07
  -1   4  -5    0.93    0.42
  -1   4  -5    0.57    0.13
  -1   4  -5    0.73    0.16
  -1   4  -5    0.55    0.36
   1  -4   5    0.68    0.12
   1  -4   5    0.91    0.14
  -2   4  -5    4.19    0.64
  -2   4  -5    3.59    0.32
  -2   4  -5    4.92    0.70
  -2   4  -5    3.60    0.30
   2  -4   5    3.73    0.24
   2  -4   5    3.86    0.25
  -3   4  -5    1.17    0.47
  -3   4  -5    1.47    0.49
  -3   4  -5    1.34    0.23
   3  -4   5    0.86    0.15
   3  -4   5    0.75    0.14
  -4   4  -5    1.77    0.52
  -4   4  -5    1.10    0.23
  -4   4  -5    1.02    0.44
   4  -4   5    0.85    0.16
  -5   4  -5    0.66    0.21
  -5   4  -5    0.89    0.52
  -6   4  -5    1.12    0.54
   9   3  -5    6.35    0.55
  -9  -3   5    5.90    0.52
   8   3  -5    0.85    0.27
  -8  -3   5    1.14    0.27
   7   3  -5    4.55    0.42
   7   3  -5    4.48    0.37
  -7  -3   5    4.60    0.59
  -7  -3   5    4.37    0.46
  -7  -3   5    4.36    0.37
   6   3  -5   10.61    0.59
   6   3  -5   10.53    0.54
  -6  -3   5    9.68    0.55
  -6  -3   5   12.04    0.82
  -6  -3   5   10.69    0.55
   5   3  -5    2.26    0.29
   5   3  -5    1.76    0.24
  -5  -3   5    2.09    0.28
  -5  -3   5    3.54    0.55
  -5  -3   5    2.04    0.26
  -5  -3   5    3.34    0.52
   4   3  -5    4.55    0.32
   4   3  -5    4.55    0.30
  -4  -3   5    4.87    0.31
  -4  -3   5    3.78    0.52
  -4  -3   5    4.79    0.33
  -4  -3   5    4.26    0.50
   3   3  -5   15.66    0.57
   3   3  -5   15.36    0.56
  -3  -3   5   14.67    0.55
  -3  -3   5   15.12    0.54
  -3  -3   5   14.32    0.87
  -3  -3   5   15.61    0.86
  -3  -3   5   14.48    0.32
   2   3  -5    0.09    0.06
   2   3  -5    0.22    0.06
  -2  -3   5    0.16    0.07
  -2  -3   5    0.23    0.07
  -2  -3   5    0.07    0.04
  -2  -3   5    0.35    0.24
   1   3  -5   15.17    0.40
   1   3  -5   15.20    0.53
  -1  -3   5   14.64    0.49
  -1  -3   5   14.92    0.40
  -1  -3   5   15.10    0.49
   0   3  -5    7.49    0.64
   0   3  -5    8.13    0.25
   0   3  -5    8.26    0.41
   0   3  -5    8.33    0.36
   0  -3   5    8.34    0.34
   0  -3   5    7.73    0.31
   0  -3   5    8.52    0.27
  -1   3  -5    6.34    0.33
  -1   3  -5    6.67    0.19
  -1   3  -5    5.72    0.57
  -1   3  -5    6.05    0.53
  -1   3  -5    7.49    0.40
   1  -3   5    6.48    0.30
   1  -3   5    6.31    0.27
  -2   3  -5   22.32    0.77
  -2   3  -5   22.68    0.85
  -2   3  -5   22.44    1.05
  -2   3  -5   21.43    1.08
   2  -3   5   22.69    0.62
   2  -3   5   22.72    0.67
  -3   3  -5    4.96    0.59
  -3   3  -5    4.83    0.50
  -3   3  -5    4.89    0.35
   3  -3   5    4.74    0.28
   3  -3   5    4.46    0.25
  -4   3  -5   13.58    0.67
  -4   3  -5   13.90    0.91
   4  -3   5   14.97    0.51
   4  -3   5   13.94    0.54
  -5   3  -5   20.09    1.07
  -5   3  -5   20.32    0.90
  -6   3  -5    1.03    0.26
   9   2  -5    0.99    0.26
   9   2  -5    1.49    0.32
  -9  -2   5    1.02    0.27
   8   2  -5    0.28    0.15
   8   2  -5    0.32    0.19
  -8  -2   5    0.43    0.18
   7   2  -5   12.02    0.63
   7   2  -5   13.49    0.68
  -7  -2   5   11.86    0.63
   6   2  -5    2.81    0.33
   6   2  -5    3.27    0.29
  -6  -2   5    2.73    0.30
  -6  -2   5    3.39    0.37
   5   2  -5   53.96    1.56
   5   2  -5   56.75    1.55
  -5  -2   5   57.87    1.52
  -5  -2   5   58.39    2.17
  -5  -2   5   57.63    1.45
   4   2  -5    0.40    0.12
   4   2  -5    0.26    0.10
  -4  -2   5    0.16    0.26
  -4  -2   5    0.29    0.10
  -4  -2   5    0.32    0.10
  -4  -2   5    0.23    0.28
   3   2  -5   15.56    0.55
  -3  -2   5   15.17    0.54
  -3  -2   5   14.62    0.50
  -3  -2   5   14.67    0.81
  -3  -2   5   15.00    0.80
   2   2  -5  123.19    2.70
  -2  -2   5  123.24    2.54
  -2  -2   5  122.22    2.16
  -2  -2   5  121.62    2.52
  -2  -2   5  119.78    4.03
   1   2  -5    1.63    0.15
  -1  -2   5    1.51    0.13
  -1  -2   5    1.57    0.10
  -1  -2   5    1.70    0.13
   0   2  -5    4.39    0.16
   0   2  -5    4.48    0.26
   0   2  -5    4.37    0.23
   0  -2   5    4.26    0.19
   0  -2   5    4.34    0.22
  -1   2  -5  197.83    4.10
  -1   2  -5  187.56    4.52
  -1   2  -5  193.86    3.28
  -1   2  -5  185.36    6.05
   1  -2   5  197.50    3.69
   1  -2   5  190.70    3.84
  -2   2  -5   54.29    1.96
  -2   2  -5   56.58    1.42
  -2   2  -5   53.77    1.99
   2  -2   5   56.17    1.30
   2  -2   5   57.32    1.19
  -3   2  -5    3.79    0.45
  -3   2  -5    4.19    0.30
  -3   2  -5    4.03    0.45
   3  -2   5    4.30    0.21
   3  -2   5    4.01    0.24
  -4   2  -5    2.07    0.21
  -4   2  -5    2.66    0.31
   4  -2   5    2.07    0.17
   4  -2   5    2.10    0.22
  -5   2  -5   30.25    1.10
  -5   2  -5   31.60    0.90
   5  -2   5   31.51    0.92
  -6   2  -5    4.74    0.42
   6  -2   5    5.22    0.45
   9   1  -5    9.15    0.61
  -9  -1   5    8.10    0.58
   8   1  -5    0.10    0.12
   8   1  -5   -0.05    0.13
  -8  -1   5    0.08    0.12
   7   1  -5    1.19    0.25
   7   1  -5    1.21    0.25
  -7  -1   5    1.50    0.27
   6   1  -5    1.22    0.22
   6   1  -5    1.28    0.23
  -6  -1   5    1.91    0.27
   5   1  -5   37.88    1.15
   5   1  -5   39.13    1.18
  -5  -1   5   39.63    1.05
  -5  -1   5   37.23    1.11
   4   1  -5    4.49    0.30
   4   1  -5    4.77    0.31
  -4  -1   5    4.21    0.46
  -4  -1   5    4.58    0.31
  -4  -1   5    4.36    0.45
  -4  -1   5    4.50    0.26
   3   1  -5   13.88    0.51
  -3  -1   5   13.39    0.44
  -3  -1   5   12.77    0.69
  -3  -1   5   13.27    0.71
  -3  -1   5   13.00    0.48
   2   1  -5    3.15    0.20
  -2  -1   5    3.15    0.11
  -2  -1   5    2.97    0.19
  -2  -1   5    3.14    0.17
   1   1  -5  261.32    5.81
   1   1  -5  261.84    5.35
  -1  -1   5  252.45    4.91
  -1  -1   5  255.67    5.01
   0   1  -5   -0.04    0.03
   0   1  -5    0.01    0.04
   0  -1   5    0.23    0.06
  -1   1  -5  237.57    4.72
   1  -1   5  215.31    4.45
  -2   1  -5    0.89    0.22
  -2   1  -5    0.94    0.13
   2  -1   5    0.79    0.11
   2  -1   5    1.01    0.09
  -3   1  -5   36.98    1.06
  -3   1  -5   39.11    0.95
   3  -1   5   37.34    0.96
   3  -1   5   38.28    0.85
  -4   1  -5   79.99    1.82
  -4   1  -5   82.86    2.05
  -4   1  -5   82.80    1.71
   4  -1   5   83.72    1.71
   4  -1   5   79.20    1.83
  -5   1  -5    6.98    0.35
  -5   1  -5    6.83    0.43
   5  -1   5    7.07    0.37
  -6   1  -5    1.18    0.18
  -6   1  -5    0.92    0.21
   6  -1   5    1.00    0.18
   6  -1   5    1.06    0.23
  -7   1  -5    2.03    0.33
   7  -1   5    1.96    0.34
   9   0  -5    0.79    0.24
  -9   0   5    1.07    0.27
   8   0  -5    0.84    0.22
   8   0  -5    0.37    0.17
  -8   0   5    0.77    0.22
   7   0  -5    0.19    0.14
   7   0  -5    0.24    0.15
   7   0  -5    0.48    0.18
  -7   0   5    0.18    0.13
   6   0  -5    6.04    0.40
   6   0  -5    6.67    0.41
   6   0  -5    6.18    0.44
  -6   0   5    5.65    0.39
   5   0  -5   33.05    1.02
   5   0  -5   34.74    1.11
  -5   0   5   33.73    1.01
   4   0  -5   64.99    1.63
   4   0  -5   66.47    1.69
  -4   0   5   66.05    1.45
  -4   0   5   63.88    1.56
  -4   0   5   64.79    2.28
  -4   0   5   64.10    2.25
   3   0  -5    7.91    0.38
  -3   0   5    8.45    0.52
  -3   0   5    8.27    0.36
  -3   0   5    7.93    0.51
   2   0  -5   97.62    2.18
  -2   0   5   95.90    2.01
   1   0  -5    1.37    0.12
   1   0  -5    1.28    0.09
   0   0  -5  123.82    2.59
   0   0   5  120.08    2.82
  -1   0  -5  329.49    6.47
  -1   0  -5  313.14    6.12
   1   0   5  309.40    6.13
  -2   0  -5   81.06    1.70
  -2   0  -5   82.45    1.79
  -2   0  -5   75.65    2.59
   2   0   5   81.71    1.71
  -3   0  -5    0.01    0.04
  -3   0  -5    0.05    0.04
   3   0   5    0.01    0.04
  -4   0  -5    6.04    0.24
  -4   0  -5    5.68    0.29
  -4   0  -5    5.82    0.33
   4   0   5    5.64    0.23
   4   0   5    5.59    0.29
  -5   0  -5    9.04    0.40
  -5   0  -5    7.77    0.44
   5   0   5    8.60    0.40
  -6   0  -5    0.79    0.16
  -6   0  -5    0.95    0.20
   6   0   5    1.06    0.21
   6   0   5    0.94    0.18
  -7   0  -5   -0.11    0.07
  -7   0  -5    0.04    0.11
   9  -1  -5    0.27    0.18
  -9   1   5    0.28    0.17
   8  -1  -5    5.35    0.43
  -8   1   5    5.54    0.43
   7  -1  -5    3.33    0.39
   7  -1  -5    2.55    0.37
   7  -1  -5   -0.86    7.06
  -7   1   5    3.00    0.39
  -7   1   5    2.72    0.34
   6  -1  -5    3.46    0.35
   6  -1  -5    0.53    5.19
   6  -1  -5    2.85    0.36
   6  -1  -5    3.51    0.29
  -6   1   5    3.02    0.33
  -6   1   5    2.93    0.35
   5  -1  -5    0.30    0.13
   5  -1  -5    0.38    0.13
   5  -1  -5   -3.44    3.60
   5  -1  -5    0.48    0.12
  -5   1   5    0.59    0.14
  -5   1   5    0.32    0.13
   4  -1  -5    5.88    0.31
   4  -1  -5    5.19    0.31
   4  -1  -5    5.77    0.36
   4  -1  -5    1.02    3.04
  -4   1   5    5.16    0.31
  -4   1   5    4.44    0.44
  -4   1   5    5.16    0.34
   3  -1  -5  114.55    2.56
   3  -1  -5  113.65    2.33
  -3   1   5  105.60    3.58
  -3   1   5  109.00    2.32
  -3   1   5  107.11    3.59
  -3   1   5  111.52    2.55
   2  -1  -5   14.49    0.46
   2  -1  -5   15.54    0.52
  -2   1   5   15.90    0.47
  -2   1   5   15.32    0.52
  -2   1   5   13.07    0.76
   1  -1  -5    3.33    0.18
   1  -1  -5    3.18    0.16
  -1   1   5    3.22    0.16
  -1   1   5    3.33    0.12
   0  -1  -5   59.53    1.32
  -1  -1  -5    2.78    0.13
  -2  -1  -5    3.03    0.15
  -2  -1  -5    2.89    0.17
   2   1   5    2.91    0.17
  -3  -1  -5   16.63    0.52
  -3  -1  -5   16.95    0.52
  -4  -1  -5   24.36    0.73
  -4  -1  -5   24.03    0.60
  -4  -1  -5   23.93    0.71
   4   1   5   23.82    0.60
   4   1   5   23.86    0.73
  -5  -1  -5   19.36    0.65
  -5  -1  -5   18.37    0.67
   5   1   5   19.48    0.67
   5   1   5   18.67    0.68
  -6  -1  -5   14.12    0.57
  -6  -1  -5   13.90    0.61
   6   1   5   13.07    0.60
   6   1   5   13.58    0.57
  -7  -1  -5    3.70    0.31
   7   1   5    4.40    0.35
   9  -2  -5    0.00    0.13
  -9   2   5   -0.12    0.11
   8  -2  -5    4.25    8.63
   7  -2  -5    0.26    6.43
   7  -2  -5    4.83    0.39
  -7   2   5    4.04    0.35
   6  -2  -5   14.78    0.78
   6  -2  -5    2.37    5.90
   6  -2  -5   16.65    0.69
  -6   2   5   16.48    0.68
  -6   2   5   16.21    0.79
   5  -2  -5   10.93    0.59
   5  -2  -5    0.97    4.96
   5  -2  -5   10.90    0.50
  -5   2   5    9.44    0.55
  -5   2   5    9.79    0.48
  -5   2   5   10.76    0.72
   4  -2  -5    0.57    0.13
   4  -2  -5    0.44    0.13
   4  -2  -5   -2.32    2.88
  -4   2   5    0.42    0.29
  -4   2   5    0.68    0.14
  -4   2   5    0.60    0.26
  -4   2   5    0.38    0.12
   3  -2  -5    1.07    0.17
   3  -2  -5    1.25    0.16
   3  -2  -5   -0.51    2.81
  -3   2   5    1.61    0.31
  -3   2   5    1.34    0.28
  -3   2   5    0.86    0.16
  -3   2   5    0.99    0.14
   2  -2  -5   13.60    0.50
   2  -2  -5   13.18    0.43
  -2   2   5   12.14    0.78
  -2   2   5   13.45    0.50
  -2   2   5   13.29    0.43
   1  -2  -5    2.94    0.18
   1  -2  -5    2.76    0.15
  -1   2   5    2.74    0.15
  -1   2   5    2.86    0.11
  -1   2   5    3.07    0.19
   0  -2  -5   68.01    1.50
  -1  -2  -5   70.76    1.49
  -2  -2  -5  119.28    2.49
  -2  -2  -5  121.74    2.47
  -3  -2  -5   26.25    0.75
  -3  -2  -5   27.58    0.67
  -4  -2  -5   15.43    0.55
  -4  -2  -5   15.15    0.44
  -4  -2  -5   14.72    0.48
   4   2   5   13.91    0.47
  -5  -2  -5    7.50    0.36
  -5  -2  -5    7.31    0.39
   5   2   5    7.73    0.41
  -6  -2  -5   14.92    0.61
   6   2   5   13.71    0.60
  -7  -2  -5    0.43    0.15
   7   2   5    0.45    0.15
  -8  -2  -5    1.16    0.23
   8   2   5    0.99    0.23
   8  -3  -5   -2.13    7.74
   8  -3  -5    0.44    0.17
  -8   3   5    0.70    0.20
   7  -3  -5    2.38    0.32
   7  -3  -5    9.36    9.16
  -7   3   5    2.25    0.31
   6  -3  -5   -2.93    5.00
   6  -3  -5    2.10    0.30
   6  -3  -5    1.85    0.32
  -6   3   5    2.46    0.31
  -6   3   5    2.20    0.33
  -6   3   5    3.41    0.59
   5  -3  -5   -0.01    0.09
   5  -3  -5    0.08    0.09
   5  -3  -5   -1.94    4.50
  -5   3   5   -0.08    0.36
  -5   3   5    0.15    0.11
  -5   3   5    0.07    0.10
   4  -3  -5    7.80    0.48
   4  -3  -5    7.93    0.40
   4  -3  -5   -0.32    3.97
  -4   3   5    9.11    0.79
  -4   3   5    7.81    0.66
  -4   3   5    7.82    0.40
  -4   3   5    7.28    0.46
   3  -3  -5    5.36    4.63
   3  -3  -5   10.10    0.50
   3  -3  -5    9.89    0.41
  -3   3   5    9.71    0.80
  -3   3   5    9.85    0.41
  -3   3   5   10.34    0.69
  -3   3   5    9.73    0.49
   2  -3  -5    3.43    3.23
   2  -3  -5   10.54    0.38
   2  -3  -5   10.82    0.47
  -2   3   5   10.78    0.33
  -2   3   5   10.77    0.68
  -2   3   5    9.79    0.37
  -2   3   5   10.36    0.67
  -2   3   5   10.78    0.47
   1  -3  -5   37.08    0.88
   1  -3  -5   36.84    1.00
  -1   3   5   38.46    0.75
  -1   3   5   37.27    0.88
  -1   3   5   39.79    1.01
   0  -3  -5  110.92    2.24
   0  -3  -5  116.25    2.45
   0   3   5  111.41    2.02
   0   3   5  117.02    2.45
  -1  -3  -5    0.10    0.04
  -1  -3  -5   -0.05    0.03
  -1  -3  -5    0.04    0.03
  -1  -3  -5   -0.02    0.02
  -2  -3  -5    6.93    0.55
  -2  -3  -5    7.51    0.32
  -3  -3  -5  141.54    2.91
  -3  -3  -5  140.24    2.70
  -3  -3  -5  139.16    4.33
  -3  -3  -5  128.22    4.33
  -4  -3  -5   16.91    0.62
  -4  -3  -5   17.42    0.52
  -5  -3  -5   12.43    0.54
  -5  -3  -5   12.96    0.47
  -6  -3  -5    0.16    0.10
  -7  -3  -5    8.02    0.47
   7   3   5    7.58    0.48
  -8  -3  -5    7.63    0.49
   8   3   5    5.72    0.45
  -9  -3  -5    0.31    0.15
   9   3   5    0.31    0.17
   8  -4  -5    0.52    8.52
   8  -4  -5    0.53    0.19
  -8   4   5    0.55    0.20
   7  -4  -5    0.22    0.15
   7  -4  -5    1.94    7.96
  -7   4   5    0.44    0.52
  -7   4   5    0.14    0.13
   6  -4  -5    1.70    0.27
   6  -4  -5   -0.14    7.19
  -6   4   5    2.48    0.59
  -6   4   5    1.65    0.26
   5  -4  -5    1.62    6.04
   5  -4  -5    0.62    0.21
   5  -4  -5    0.74    0.17
  -5   4   5    0.58    0.16
  -5   4   5    1.20    0.26
  -5   4   5    1.05    0.48
   4  -4  -5   46.35    1.24
   4  -4  -5   46.02    1.48
   4  -4  -5   20.61    8.54
  -4   4   5   47.42    1.89
  -4   4   5   49.20    1.98
  -4   4   5   44.58    1.45
  -4   4   5   46.30    1.24
   3  -4  -5    3.42    0.31
   3  -4  -5    3.32    0.24
   3  -4  -5    3.18    5.28
  -3   4   5    3.70    0.31
  -3   4   5    3.74    0.26
  -3   4   5    3.13    0.52
  -3   4   5    3.34    0.52
   2  -4  -5    2.23    3.67
   2  -4  -5    2.69    0.24
   2  -4  -5    2.85    0.20
  -2   4   5    2.72    0.20
  -2   4   5    1.65    0.38
  -2   4   5    2.36    0.16
  -2   4   5    2.57    0.24
  -2   4   5    2.45    0.09
  -2   4   5    1.94    0.39
   1  -4  -5   26.01    0.79
   1  -4  -5   21.35    5.98
   1  -4  -5   26.09    0.61
   1  -4  -5   24.56    0.68
  -1   4   5   26.45    0.80
  -1   4   5   25.69    0.55
  -1   4   5   25.51    1.21
   0  -4  -5   45.26    0.93
   0  -4  -5   44.28    1.12
   0  -4  -5   45.92    1.03
   0   4   5   45.80    0.90
   0   4   5   45.51    1.13
  -1  -4  -5   42.65    0.96
  -1  -4  -5   40.42    1.00
  -1  -4  -5   40.24    0.94
  -1  -4  -5   40.31    0.84
   1   4   5   43.06    0.97
   1   4   5   42.73    0.84
  -2  -4  -5   18.14    0.56
  -2  -4  -5   17.84    0.37
  -2  -4  -5   15.01    0.89
  -2  -4  -5   14.04    0.45
  -3  -4  -5   12.68    0.66
  -3  -4  -5   13.67    0.37
  -3  -4  -5   13.36    0.42
  -3  -4  -5   11.78    0.78
  -3  -4  -5   12.67    0.50
  -4  -4  -5    0.31    0.05
  -4  -4  -5    0.33    0.23
  -4  -4  -5    0.29    0.08
  -4  -4  -5    0.32    0.11
  -4  -4  -5    0.36    0.19
  -5  -4  -5   37.58    1.13
  -5  -4  -5   37.97    1.00
  -6  -4  -5    0.80    0.19
  -7  -4  -5    1.92    0.29
  -8  -4  -5    1.54    0.28
  -9  -4  -5    0.24    0.16
   9   4   5    0.66    0.23
 -10  -4  -5    0.06    0.16
   7  -5  -5    1.04    0.25
   7  -5  -5   -6.06    6.32
  -7   5   5    1.51    0.64
  -7   5   5    0.84    0.22
   6  -5  -5    2.27    0.31
   6  -5  -5    3.63    7.52
  -6   5   5    3.38    0.72
  -6   5   5    2.30    0.31
   5  -5  -5    0.32    5.98
   5  -5  -5    2.95    0.41
   5  -5  -5    3.53    0.36
  -5   5   5    2.92    0.63
  -5   5   5    3.42    0.35
  -5   5   5    4.41    0.61
  -5   5   5    2.66    0.38
   4  -5  -5    0.05    0.09
   4  -5  -5   -5.58    4.32
   4  -5  -5    0.03    0.12
  -4   5   5    0.70    0.40
  -4   5   5    0.04    0.12
  -4   5   5    0.12    0.10
  -4   5   5    0.55    0.48
   3  -5  -5    5.81    0.42
   3  -5  -5    1.79    5.69
   3  -5  -5    5.28    0.33
  -3   5   5    5.36    0.67
  -3   5   5    4.22    0.61
  -3   5   5    5.24    0.40
   2  -5  -5   16.41    7.77
   2  -5  -5   13.05    0.49
   2  -5  -5   12.51    0.59
  -2   5   5   13.00    0.29
  -2   5   5   13.46    0.61
  -2   5   5   14.15    0.97
  -2   5   5   13.16    0.92
   1  -5  -5   36.58    0.84
   1  -5  -5   51.61   10.23
   1  -5  -5   37.25    1.08
   1  -5  -5   37.16    0.95
  -1   5   5   37.29    1.66
  -1   5   5   36.20    1.66
  -1   5   5   37.02    0.77
  -1   5   5   36.90    1.08
   0  -5  -5    9.96    0.35
   0  -5  -5    9.32    0.37
   0  -5  -5   10.07    0.33
   0  -5  -5    9.36    0.40
   0   5   5    9.32    0.78
   0   5   5   10.17    0.30
   0   5   5   10.22    0.42
  -1  -5  -5    7.60    0.30
  -1  -5  -5    7.78    0.75
  -1  -5  -5    7.28    0.27
  -1  -5  -5    7.52    0.31
  -1  -5  -5    7.77    0.34
   1   5   5    7.90    0.31
  -2  -5  -5    4.19    0.23
  -2  -5  -5    4.28    0.54
  -2  -5  -5    3.68    0.39
  -2  -5  -5    3.95    0.17
  -2  -5  -5    4.16    0.23
  -2  -5  -5    4.44    0.27
   2   5   5    4.25    0.18
  -3  -5  -5    0.26    0.23
  -3  -5  -5    0.26    0.08
  -3  -5  -5    0.18    0.07
  -3  -5  -5    0.23    0.27
  -3  -5  -5    0.07    0.07
  -4  -5  -5    0.82    0.17
  -4  -5  -5    1.33    0.33
  -4  -5  -5    0.72    0.10
  -4  -5  -5    0.89    0.34
  -5  -5  -5   11.46    0.69
  -5  -5  -5   10.77    0.80
  -5  -5  -5   11.26    0.56
  -5  -5  -5   11.66    0.48
  -6  -5  -5    5.15    0.48
  -6  -5  -5    5.24    0.40
  -7  -5  -5    0.57    0.19
  -8  -5  -5    0.32    0.15
  -9  -5  -5    6.28    0.51
 -10  -5  -5    0.03    0.13
  10   5   5    0.01    0.15
   7  -6  -5    0.29    0.16
   7  -6  -5   -1.74    7.24
   6  -6  -5    0.07    0.12
   6  -6  -5   -0.28    7.42
  -6   6   5   -0.11    0.56
   5  -6  -5    0.72    7.13
   5  -6  -5    0.34    0.14
  -5   6   5    0.09    0.53
  -5   6   5    0.04    0.41
   4  -6  -5    2.96    7.08
   4  -6  -5    2.12    0.28
   4  -6  -5    2.18    0.35
  -4   6   5    2.22    0.62
  -4   6   5    2.19    0.53
  -4   6   5    3.42    0.43
   3  -6  -5    6.11    0.37
   3  -6  -5    6.11    6.81
   3  -6  -5    5.03    0.42
  -3   6   5    6.39    0.81
  -3   6   5    5.83    0.44
  -3   6   5    6.22    0.78
   2  -6  -5    3.48    0.32
   2  -6  -5    3.46    0.26
   2  -6  -5    1.12    4.70
  -2   6   5    2.00    0.52
  -2   6   5    1.85    0.51
  -2   6   5    3.52    0.12
  -2   6   5    2.86    0.34
   1  -6  -5   34.20    1.06
   1  -6  -5   33.15    0.82
   1  -6  -5   49.37   11.19
   1  -6  -5   33.74    0.93
  -1   6   5   34.78    0.73
  -1   6   5   31.92    1.65
  -1   6   5   32.40    1.65
  -1   6   5   33.36    1.06
   0  -6  -5    0.46    0.12
   0  -6  -5    0.39    0.10
   0  -6  -5    0.60    0.11
   0   6   5    0.46    0.12
   0   6   5    0.48    0.43
   0   6   5    0.55    0.09
  -1  -6  -5    5.11    0.29
  -1  -6  -5    5.16    0.30
  -1  -6  -5    5.61    0.30
  -1  -6  -5    5.40    0.70
  -1  -6  -5    5.63    0.25
   1   6   5    5.66    0.24
  -2  -6  -5    7.66    0.36
  -2  -6  -5    8.28    0.36
  -2  -6  -5    7.99    0.28
  -2  -6  -5    8.13    0.60
  -2  -6  -5    7.21    0.39
  -2  -6  -5    9.39    0.90
   2   6   5    7.23    0.28
  -3  -6  -5   13.02    0.49
  -3  -6  -5   12.07    0.54
  -3  -6  -5   11.18    0.99
  -3  -6  -5   11.88    0.29
  -3  -6  -5   11.72    0.77
  -3  -6  -5   11.68    0.43
  -4  -6  -5    7.11    0.30
  -4  -6  -5    7.47    0.79
  -4  -6  -5    6.88    0.43
  -4  -6  -5    6.92    0.61
  -4  -6  -5    7.29    0.37
  -5  -6  -5    3.14    0.35
  -5  -6  -5    3.28    0.28
  -5  -6  -5    4.24    0.66
  -5  -6  -5    3.86    0.55
  -5  -6  -5    3.15    0.16
  -6  -6  -5    2.02    0.43
  -6  -6  -5    1.32    0.27
  -7  -6  -5   13.84    0.73
  -7  -6  -5   14.33    0.88
  -8  -6  -5    0.07    0.14
  -9  -6  -5    0.10    0.15
   6  -7  -5    0.13    0.14
   6  -7  -5    0.41    8.37
  -6   7   5   -0.02    0.68
   5  -7  -5   -3.63    6.19
   5  -7  -5    1.13    0.23
  -5   7   5    1.22    0.55
  -5   7   5    0.88    0.65
   4  -7  -5    2.58    7.10
   4  -7  -5    1.02    0.21
  -4   7   5    0.83    0.62
  -4   7   5    1.33    0.55
   3  -7  -5    0.34    0.17
   3  -7  -5    0.12    0.11
   3  -7  -5    0.01    5.27
  -3   7   5    0.26    0.56
  -3   7   5    0.26    0.49
  -3   7   5    0.08    0.12
   2  -7  -5    5.20    0.34
   2  -7  -5   11.02    8.29
   2  -7  -5    5.25    0.41
  -2   7   5    3.28    0.65
  -2   7   5    4.37    0.38
  -2   7   5    3.07    0.65
   1  -7  -5   18.45    0.58
   1  -7  -5   24.03    8.79
   1  -7  -5   17.56    0.74
   1  -7  -5   18.81    0.67
  -1   7   5   19.01    0.49
  -1   7   5   19.08    1.30
  -1   7   5   18.60    0.77
   0  -7  -5    0.34    0.11
   0  -7  -5    0.84    0.14
   0   7   5    0.42    0.09
  -1  -7  -5    2.42    0.26
  -1  -7  -5    2.40    0.26
  -1  -7  -5    2.60    0.19
   1   7   5    2.81    0.18
  -2  -7  -5    9.31    0.44
  -2  -7  -5    9.67    1.08
  -2  -7  -5    8.36    0.45
  -2  -7  -5    9.23    0.33
  -2  -7  -5    9.34    0.42
   2   7   5    8.38    0.32
  -3  -7  -5    7.42    0.44
  -3  -7  -5    8.08    1.01
  -3  -7  -5    7.54    0.37
  -3  -7  -5    7.91    0.41
  -3  -7  -5    7.51    0.66
  -3  -7  -5    7.58    0.25
  -4  -7  -5   24.75    0.83
  -4  -7  -5   24.26    1.44
  -4  -7  -5   25.63    0.93
  -4  -7  -5   26.13    1.28
  -4  -7  -5   24.46    0.71
  -5  -7  -5   -0.04    0.36
  -5  -7  -5    0.33    0.13
  -5  -7  -5    0.12    0.31
  -5  -7  -5    0.26    0.09
  -5  -7  -5    0.35    0.16
  -6  -7  -5    4.16    0.46
  -6  -7  -5    5.19    0.72
  -6  -7  -5    4.85    0.58
  -7  -7  -5    1.60    0.44
  -7  -7  -5    1.76    0.32
  -8  -7  -5    2.06    0.48
  -8  -7  -5    2.24    0.37
  -9  -7  -5    0.21    0.20
   5  -8  -5    2.48    8.72
   5  -8  -5    0.09    0.14
  -5   8   5    0.07    0.74
  -5   8   5    0.42    0.55
   4  -8  -5    7.71    8.95
   3  -8  -5    1.30    7.80
   3  -8  -5    0.28    0.13
  -3   8   5    0.17    0.63
  -3   8   5    0.19    0.57
   2  -8  -5   -4.53    4.92
   2  -8  -5    0.78    0.18
  -2   8   5    0.56    0.57
   1  -8  -5    3.52    5.82
   0  -8  -5    4.88    0.34
   0  -8  -5    4.65    0.28
   0   8   5    4.24    0.23
  -1  -8  -5   15.61    0.64
  -1  -8  -5   16.27    0.53
   1   8   5   15.52    0.49
  -2  -8  -5   15.55    0.61
  -2  -8  -5   16.58    0.50
  -2  -8  -5   15.67    0.64
  -2  -8  -5   15.15    0.66
  -3  -8  -5    0.60    0.45
  -3  -8  -5    0.11    0.10
  -3  -8  -5    0.55    0.18
  -3  -8  -5    0.26    0.07
  -3  -8  -5    0.49    0.14
   3   8   5    0.32    0.09
  -4  -8  -5    4.31    0.29
  -4  -8  -5    4.86    0.82
  -4  -8  -5    3.78    0.33
  -4  -8  -5    4.29    0.61
  -4  -8  -5    4.10    0.43
  -5  -8  -5    2.60    0.34
  -5  -8  -5    3.18    0.70
  -5  -8  -5    3.02    0.60
  -5  -8  -5    2.41    0.23
  -5  -8  -5    1.83    0.31
  -6  -8  -5   10.09    0.86
  -6  -8  -5    9.49    0.63
  -6  -8  -5   10.63    0.97
  -7  -8  -5    0.71    0.23
  -7  -8  -5    0.89    0.45
  -8  -8  -5   -0.08    0.13
  -8  -8  -5    0.04    0.40
  -9  -8  -5    6.23    0.66
   4  -9  -5   -2.56    7.63
   4  -9  -5    0.01    0.11
   3  -9  -5    9.85   10.32
   2  -9  -5   -5.15    6.27
   2  -9  -5    0.21    0.13
  -2   9   5   -0.18    0.63
   1  -9  -5    0.12    0.10
   1  -9  -5   -0.06    0.08
  -1   9   5   -0.07    0.05
   0  -9  -5    0.25    0.11
   0  -9  -5    0.23    0.13
   0   9   5    0.12    0.08
  -1  -9  -5    0.34    0.12
  -1  -9  -5    0.32    0.14
   1   9   5    0.16    0.09
  -2  -9  -5    0.65    0.18
  -2  -9  -5    0.60    0.12
  -2  -9  -5    0.52    0.17
   2   9   5    0.54    0.12
  -3  -9  -5    4.84    0.24
  -3  -9  -5    5.20    0.39
  -3  -9  -5    5.56    0.44
  -3  -9  -5    4.52    0.35
   3   9   5    4.97    0.29
  -4  -9  -5    0.90    0.18
  -4  -9  -5    0.65    0.54
  -4  -9  -5    0.43    0.16
  -4  -9  -5    0.49    0.17
  -5  -9  -5    0.22    0.13
  -5  -9  -5    0.08    0.09
  -5  -9  -5    0.14    0.42
  -5  -9  -5    0.02    0.14
  -5  -9  -5   -0.30    0.36
  -6  -9  -5    6.17    0.53
  -6  -9  -5    5.94    0.77
  -6  -9  -5    7.70    1.08
  -7  -9  -5    0.13    0.49
  -7  -9  -5    2.79    0.59
  -8  -9  -5    4.30    0.56
   3 -10  -5    0.71    8.09
   3 -10  -5    0.11    0.14
   2 -10  -5    0.07    0.12
  -2  10   5   -0.82    0.69
   1 -10  -5    1.92    0.31
   1 -10  -5    1.67    0.24
   0 -10  -5    0.46    0.15
   0 -10  -5    0.46    0.18
   0  10   5    0.42    0.11
  -1 -10  -5    4.51    0.38
  -1 -10  -5    4.44    0.30
   1  10   5    4.05    0.26
  -2 -10  -5    0.07    0.14
  -2 -10  -5    0.21    0.10
  -2 -10  -5    0.56    0.18
   2  10   5    0.28    0.11
  -3 -10  -5    2.98    0.34
  -3 -10  -5    2.76    0.37
  -3 -10  -5    2.67    0.20
   3  10   5    2.72    0.25
  -4 -10  -5    0.13    0.14
  -4 -10  -5    0.38    0.20
  -4 -10  -5    0.37    0.54
  -4 -10  -5    0.06    0.11
  -5 -10  -5    0.39    0.18
  -5 -10  -5    0.46    0.54
  -5 -10  -5    0.46    0.22
  -5 -10  -5    0.35    0.15
  -6 -10  -5    0.59    0.23
  -6 -10  -5    0.36    0.56
  -7 -10  -5    0.07    0.18
  -7 -10  -5    0.30    0.52
   1 -11  -5    0.17    0.15
   1 -11  -5    0.21    0.14
   0 -11  -5    5.27    0.54
   0 -11  -5    5.23    0.36
   0  11   5    5.35    0.27
  -1 -11  -5    1.01    0.19
  -1 -11  -5    0.91    0.24
   1  11   5    0.96    0.16
  -2 -11  -5    0.32    0.17
  -2 -11  -5    0.24    0.12
   2  11   5    0.35    0.13
  -3 -11  -5   -0.04    0.08
  -3 -11  -5   -0.02    0.13
  -3 -11  -5    0.09    0.14
   3  11   5   -0.05    0.08
  -4 -11  -5   -0.05    0.12
  -4 -11  -5    0.10    0.15
   4  11   5    0.04    0.10
  -5 -11  -5    1.66    0.26
  -5 -11  -5    2.27    0.40
  -5 -11  -5    2.15    0.78
  -5 -11  -5    1.24    0.32
  -6 -11  -5   -0.07    0.18
   4  10  -6    0.44    0.14
  -4 -10   6    0.50    0.22
  -4 -10   6    0.18    0.19
   3  10  -6    2.03    0.23
  -3 -10   6    1.60    0.33
  -3 -10   6    1.96    0.35
  -3 -10   6    1.85    0.22
   2  10  -6    0.51    0.13
  -2 -10   6    0.71    0.16
  -2 -10   6    0.74    0.23
  -2 -10   6    0.36    0.21
   1  10  -6    0.36    0.11
  -1 -10   6    0.39    0.19
  -1 -10   6    0.35    0.14
   0 -10   6   -0.07    0.11
  -6  -9   6    3.21    1.02
  -6  -9   6    1.41    0.32
  -6  -9   6    1.45    0.33
  -5  -9   6    0.31    0.20
  -5  -9   6    0.53    0.72
  -5  -9   6    0.61    0.22
   4   9  -6    0.38    0.13
  -4  -9   6    0.74    0.25
  -4  -9   6    0.46    0.21
   3   9  -6    0.21    0.10
  -3  -9   6    0.28    0.17
  -3  -9   6    0.99    0.25
  -3  -9   6    0.19    0.09
   2   9  -6    0.02    0.08
  -2  -9   6    0.12    0.14
  -2  -9   6    0.25    0.11
  -2  -9   6    0.14    0.15
   1   9  -6    1.66    0.19
  -1  -9   6    1.78    0.31
  -1  -9   6    1.68    0.30
  -1  -9   6    1.88    0.24
   0   9  -6    0.70    0.11
   0  -9   6    0.33    0.14
   0  -9   6    0.63    0.20
   1  -9   6    2.36    0.35
   2  -9   6    0.51    0.21
   7   8  -6    0.24    0.22
  -7  -8   6    0.27    0.19
  -7  -8   6    0.71    0.59
  -7  -8   6    0.30    0.20
   6   8  -6    1.11    0.29
  -6  -8   6    0.96    0.64
  -6  -8   6    1.55    0.33
  -6  -8   6    1.24    0.29
  -5  -8   6    1.83    0.35
  -5  -8   6    1.92    0.34
  -5  -8   6    1.19    0.74
   4   8  -6    4.02    0.28
  -4  -8   6    3.43    0.92
  -4  -8   6    4.44    0.21
  -4  -8   6    4.00    0.46
  -4  -8   6    3.73    0.46
   3   8  -6    4.85    0.29
  -3  -8   6    4.56    0.27
  -3  -8   6    5.58    0.46
  -3  -8   6    4.75    0.40
   2   8  -6    1.47    0.18
  -2  -8   6    1.67    0.20
  -2  -8   6    1.50    0.26
  -2  -8   6    1.83    0.31
   1   8  -6    3.50    0.22
   1   8  -6    2.89    0.37
  -1  -8   6    3.89    0.27
  -1  -8   6    2.88    0.35
  -1  -8   6    3.77    0.42
   0   8  -6    0.00    0.06
   0  -8   6    0.03    0.09
   0  -8   6   -0.18    0.08
   0  -8   6    0.20    0.14
  -1   8  -6    0.75    0.77
   1  -8   6    0.76    0.21
  -2   8  -6    0.07    0.69
   2  -8   6    0.07    0.13
  -3   8  -6    0.39    0.74
   3  -8   6    0.03    0.15
   8   7  -6    0.35    0.24
  -8  -7   6    0.08    0.17
  -8  -7   6    0.23    0.21
   7   7  -6    5.05    0.56
  -7  -7   6    4.55    0.54
  -7  -7   6    4.36    0.54
   6   7  -6    1.63    0.33
  -6  -7   6    0.53    0.43
  -6  -7   6    0.74    0.62
  -6  -7   6    1.66    0.32
  -6  -7   6    1.65    0.32
   5   7  -6    0.40    0.20
  -5  -7   6    0.08    0.44
  -5  -7   6    0.61    0.19
  -5  -7   6    0.01    0.58
  -5  -7   6    0.55    0.19
  -4  -7   6    4.34    0.46
  -4  -7   6    4.77    0.89
  -4  -7   6    5.34    0.21
  -4  -7   6    4.37    0.38
   3   7  -6    0.66    0.13
   3   7  -6    0.43    0.14
  -3  -7   6    0.66    0.19
  -3  -7   6    0.59    0.12
  -3  -7   6    0.66    0.19
   2   7  -6    4.94    0.27
   2   7  -6    5.05    0.38
  -2  -7   6    5.14    0.38
  -2  -7   6    5.17    0.28
  -2  -7   6    4.93    0.39
  -2  -7   6    5.16    0.40
   1   7  -6    0.00    0.06
   1   7  -6    0.07    0.09
  -1  -7   6   -0.03    0.06
  -1  -7   6   -0.05    0.09
  -1  -7   6    0.00    0.09
   0   7  -6    4.34    0.22
   0   7  -6    4.78    0.40
   0  -7   6    4.35    0.28
   0  -7   6    4.45    0.36
   0  -7   6    4.59    0.36
  -1   7  -6    4.27    0.93
  -1   7  -6    3.83    0.44
   1  -7   6    3.98    0.34
   1  -7   6    3.79    0.34
  -2   7  -6    0.69    0.64
   2  -7   6    0.37    0.15
  -3   7  -6    0.22    0.61
  -3   7  -6    0.28    0.63
   3  -7   6    0.06    0.13
  -4   7  -6   -0.03    0.61
  -4   7  -6    0.25    0.63
  -9  -6   6    0.08    0.18
   8   6  -6    3.79    0.51
  -8  -6   6    3.79    0.51
  -8  -6   6    3.37    0.48
   7   6  -6    1.38    0.31
  -7  -6   6    0.73    0.46
  -7  -6   6    1.28    0.58
  -7  -6   6    1.72    0.35
  -7  -6   6    1.48    0.31
   6   6  -6    5.52    0.46
  -6  -6   6    4.49    0.79
  -6  -6   6    3.27    0.60
  -6  -6   6    5.40    0.46
  -6  -6   6    5.25    0.45
   5   6  -6    1.76    0.30
  -5  -6   6    1.44    0.64
  -5  -6   6    0.76    0.48
  -5  -6   6    1.95    0.32
  -5  -6   6    1.72    0.30
   4   6  -6    1.39    0.24
   4   6  -6    1.05    0.20
  -4  -6   6    0.93    0.21
  -4  -6   6    0.78    0.42
  -4  -6   6    1.72    0.64
  -4  -6   6    0.95    0.22
   3   6  -6    1.38    0.17
   3   6  -6    1.33    0.21
  -3  -6   6    1.06    0.21
  -3  -6   6    1.43    0.61
  -3  -6   6    1.29    0.23
  -3  -6   6    1.47    0.15
   2   6  -6    4.22    0.32
   2   6  -6    4.31    0.24
  -2  -6   6    4.03    0.32
  -2  -6   6    3.57    0.31
  -2  -6   6    3.77    0.23
   1   6  -6    3.71    0.21
   1   6  -6    2.94    0.28
  -1  -6   6    3.41    0.22
  -1  -6   6    3.26    0.28
  -1  -6   6    3.31    0.34
   0   6  -6    0.71    0.18
   0   6  -6    0.54    0.58
   0   6  -6    0.77    0.11
   0  -6   6    0.35    0.13
   0  -6   6    0.51    0.12
   0  -6   6    0.49    0.14
  -1   6  -6   13.58    0.69
  -1   6  -6   15.21    1.28
   1  -6   6   14.80    0.60
   1  -6   6   14.91    0.61
  -2   6  -6    0.08    0.11
  -2   6  -6   -0.02    0.52
  -2   6  -6    0.05    0.54
   2  -6   6    0.01    0.08
   2  -6   6   -0.01    0.09
  -3   6  -6    0.72    0.60
  -3   6  -6    0.23    0.56
  -4   6  -6    4.39    0.89
  -4   6  -6    3.61    0.73
  -5   6  -6   -0.27    0.59
   9   5  -6    0.63    0.29
  -9  -5   6    0.84    0.28
   8   5  -6    0.46    0.25
  -8  -5   6    0.02    0.47
  -8  -5   6    0.30    0.20
  -8  -5   6    0.37    0.19
   7   5  -6    0.63    0.22
  -7  -5   6    0.35    0.44
  -7  -5   6    0.47    0.20
  -7  -5   6    0.38    0.42
  -7  -5   6    0.80    0.23
   6   5  -6    2.21    0.34
  -6  -5   6    1.55    0.48
  -6  -5   6    1.72    0.30
  -6  -5   6    1.77    0.61
  -6  -5   6    2.08    0.32
   5   5  -6   28.68    0.98
   5   5  -6   29.73    1.05
  -5  -5   6   28.47    1.59
  -5  -5   6   28.66    1.04
  -5  -5   6   28.11    1.53
  -5  -5   6   28.98    1.04
   4   5  -6   12.34    0.57
   4   5  -6   13.86    0.62
  -4  -5   6   12.45    0.60
  -4  -5   6   13.70    0.96
  -4  -5   6   12.96    0.62
  -4  -5   6   12.81    1.03
   3   5  -6    0.65    0.17
   3   5  -6    0.69    0.12
   3   5  -6    0.90    0.17
  -3  -5   6    0.46    0.13
  -3  -5   6    0.89    0.38
  -3  -5   6    0.74    0.10
  -3  -5   6    1.14    0.51
  -3  -5   6    0.49    0.15
   2   5  -6    4.33    0.31
   2   5  -6    4.15    0.22
  -2  -5   6    4.31    0.31
  -2  -5   6    3.78    0.30
  -2  -5   6    5.31    0.83
  -2  -5   6    4.20    0.22
   1   5  -6    2.12    0.28
   1   5  -6    1.53    0.15
   1   5  -6    1.69    0.22
  -1  -5   6    2.27    0.17
  -1  -5   6    1.82    0.23
  -1  -5   6    2.10    0.24
   0   5  -6    8.45    0.51
   0   5  -6    8.07    0.29
   0   5  -6    7.77    0.44
   0   5  -6    9.64    0.92
   0  -5   6    8.86    0.34
   0  -5   6    8.05    0.41
   0  -5   6    7.36    0.38
  -1   5  -6    0.61    0.45
  -1   5  -6    0.44    0.07
  -1   5  -6    0.45    0.15
  -1   5  -6    0.84    0.48
  -1   5  -6    0.28    0.13
   1  -5   6    0.34    0.12
   1  -5   6    0.29    0.10
  -2   5  -6   -0.11    0.47
  -2   5  -6   -0.17    0.40
  -2   5  -6    0.12    0.10
   2  -5   6    0.17    0.10
   2  -5   6    0.12    0.08
  -3   5  -6    1.83    0.62
  -3   5  -6    2.00    0.31
  -3   5  -6    2.94    0.67
   3  -5   6    1.86    0.23
   3  -5   6    1.50    0.22
  -4   5  -6    1.30    0.53
  -4   5  -6    1.17    0.26
  -4   5  -6    2.28    0.67
  -5   5  -6    0.14    0.56
  -6   5  -6   -0.08    0.55
   9   4  -6    4.21    0.55
  -9  -4   6    4.02    0.52
   8   4  -6    1.05    0.30
  -8  -4   6    0.55    0.45
  -8  -4   6    1.12    0.28
   7   4  -6    0.73    0.22
  -7  -4   6    0.46    0.39
  -7  -4   6    0.56    0.19
  -7  -4   6    0.60    0.19
   6   4  -6    1.63    0.26
   6   4  -6    1.89    0.31
  -6  -4   6    2.00    0.53
  -6  -4   6    1.46    0.27
  -6  -4   6    2.10    0.56
  -6  -4   6    1.91    0.29
   5   4  -6    1.01    0.19
   5   4  -6    0.78    0.20
  -5  -4   6    1.57    0.49
  -5  -4   6    0.99    0.22
  -5  -4   6    0.90    0.20
  -5  -4   6    1.50    0.45
   4   4  -6   27.10    0.93
   4   4  -6   27.90    0.91
  -4  -4   6   28.83    1.45
  -4  -4   6   26.94    0.92
  -4  -4   6   27.25    1.38
  -4  -4   6   27.60    0.91
   3   4  -6   23.27    0.80
   3   4  -6   25.40    0.81
   3   4  -6   24.43    0.62
  -3  -4   6   25.03    0.81
  -3  -4   6   23.82    1.25
  -3  -4   6   24.21    1.31
  -3  -4   6   24.01    0.55
  -3  -4   6   24.00    0.80
   2   4  -6    0.26    0.07
   2   4  -6    0.19    0.08
  -2  -4   6    0.16    0.08
  -2  -4   6    0.32    0.10
  -2  -4   6    0.29    0.35
  -2  -4   6    0.34    0.07
  -2  -4   6    0.15    0.26
   1   4  -6   20.86    0.79
   1   4  -6   20.79    0.71
   1   4  -6   21.08    0.54
  -1  -4   6   20.27    0.54
  -1  -4   6   20.99    0.66
  -1  -4   6   20.69    0.68
   0   4  -6    4.88    0.31
   0   4  -6    4.44    0.60
   0   4  -6    4.47    0.34
   0   4  -6    4.77    0.67
   0   4  -6    5.37    0.21
   0  -4   6    5.04    0.23
   0  -4   6    5.20    0.28
   0  -4   6    5.62    0.31
   0  -4   6    5.44    0.24
  -1   4  -6    5.73    0.69
  -1   4  -6    5.18    0.38
  -1   4  -6    5.55    0.62
  -1   4  -6    5.01    0.34
  -1   4  -6    5.90    0.19
   1  -4   6    5.53    0.31
   1  -4   6    5.45    0.29
  -2   4  -6    1.10    0.21
  -2   4  -6    0.75    0.45
  -2   4  -6    0.62    0.16
  -2   4  -6    0.97    0.46
   2  -4   6    1.20    0.16
   2  -4   6    0.73    0.14
  -3   4  -6    2.09    0.29
  -3   4  -6    2.43    0.57
  -3   4  -6    3.51    0.65
   3  -4   6    2.37    0.24
   3  -4   6    2.62    0.26
  -4   4  -6    2.19    0.32
  -4   4  -6    2.29    0.55
  -4   4  -6    3.84    0.72
  -5   4  -6    5.00    0.69
  -5   4  -6    4.05    0.47
  -6   4  -6    0.59    0.53
   9   3  -6    0.66    0.26
  -9  -3   6    0.23    0.19
   8   3  -6    5.42    0.48
  -8  -3   6    5.27    0.46
   7   3  -6    0.33    0.14
   7   3  -6    0.37    0.17
  -7  -3   6    0.50    0.35
  -7  -3   6    0.27    0.16
   6   3  -6   22.48    0.90
   6   3  -6   22.25    0.87
  -6  -3   6   22.66    0.90
  -6  -3   6   22.72    1.18
  -6  -3   6   23.13    1.25
  -6  -3   6   23.56    0.86
   5   3  -6    0.28    0.12
   5   3  -6   -0.02    0.10
  -5  -3   6    0.03    0.31
  -5  -3   6    0.02    0.07
  -5  -3   6    0.03    0.09
  -5  -3   6   -0.26    0.29
   4   3  -6    1.77    0.24
   4   3  -6    2.01    0.24
  -4  -3   6    1.64    0.21
  -4  -3   6    2.56    0.49
  -4  -3   6    1.49    0.38
  -4  -3   6    1.69    0.24
   3   3  -6   18.76    0.67
   3   3  -6   20.09    0.69
  -3  -3   6   19.59    0.68
  -3  -3   6   19.34    1.06
  -3  -3   6   19.26    0.43
  -3  -3   6   20.05    1.05
  -3  -3   6   21.29    0.68
   2   3  -6    9.98    0.32
   2   3  -6    9.88    0.43
  -2  -3   6    9.00    0.40
  -2  -3   6    9.59    0.40
  -2  -3   6    9.45    0.29
  -2  -3   6    9.15    0.71
   1   3  -6    2.06    0.19
   1   3  -6    2.09    0.14
   1   3  -6    2.07    0.20
  -1  -3   6    2.41    0.14
  -1  -3   6    3.15    0.21
  -1  -3   6    2.02    0.13
  -1  -3   6    2.27    0.18
   0   3  -6    7.09    0.35
   0   3  -6    6.08    0.36
   0   3  -6    6.80    0.23
   0   3  -6    6.28    0.62
   0  -3   6    6.80    0.29
   0  -3   6    6.94    0.25
   0  -3   6    6.28    0.31
  -1   3  -6    1.09    0.07
  -1   3  -6    1.53    0.43
  -1   3  -6    1.44    0.39
  -1   3  -6    1.27    0.18
  -1   3  -6    0.88    0.17
   1  -3   6    1.14    0.16
   1  -3   6    1.15    0.14
  -2   3  -6   14.06    0.66
  -2   3  -6   13.14    0.81
  -2   3  -6   14.66    0.89
  -2   3  -6   14.03    0.59
   2  -3   6   14.38    0.52
   2  -3   6   15.42    0.47
  -3   3  -6    6.41    0.65
  -3   3  -6    5.63    0.55
  -3   3  -6    5.71    0.39
   3  -3   6    6.24    0.33
   3  -3   6    6.45    0.30
  -4   3  -6    2.20    0.49
  -4   3  -6    2.04    0.29
   4  -3   6    2.19    0.25
  -5   3  -6    6.30    0.48
  -6   3  -6   -0.03    0.36
  -6   3  -6    0.14    0.14
   9   2  -6    2.62    0.41
   9   2  -6    1.69    0.33
  -9  -2   6    2.12    0.36
   8   2  -6   -0.13    0.15
  -8  -2   6   -0.11    0.10
   7   2  -6    0.67    0.21
   7   2  -6    0.52    0.18
  -7  -2   6    0.92    0.42
  -7  -2   6    0.77    0.20
   6   2  -6   20.82    0.83
   6   2  -6   21.12    0.84
  -6  -2   6   22.09    1.16
  -6  -2   6   19.08    0.81
  -6  -2   6   20.83    0.76
   5   2  -6    0.24    0.12
   5   2  -6   -0.04    0.06
  -5  -2   6    0.00    0.29
  -5  -2   6    0.08    0.09
  -5  -2   6    0.25    0.10
  -5  -2   6   -0.14    0.31
   4   2  -6    0.92    0.16
   4   2  -6    0.90    0.18
  -4  -2   6    1.03    0.35
  -4  -2   6    1.13    0.19
  -4  -2   6    0.79    0.14
  -4  -2   6    0.88    0.34
   3   2  -6   16.31    0.60
   3   2  -6   17.34    0.61
  -3  -2   6   16.04    0.55
  -3  -2   6   17.43    0.60
  -3  -2   6   16.88    0.92
  -3  -2   6   17.42    0.91
   2   2  -6   46.61    1.20
  -2  -2   6   45.92    0.90
  -2  -2   6   44.80    1.80
  -2  -2   6   44.70    1.11
  -2  -2   6   45.93    1.11
   1   2  -6   28.98    0.64
   1   2  -6   29.32    0.84
   1   2  -6   30.02    0.89
  -1  -2   6   28.86    0.76
  -1  -2   6   29.12    0.75
  -1  -2   6   29.63    0.63
   0   2  -6    4.73    0.18
   0   2  -6    5.29    0.27
   0   2  -6    5.01    0.29
   0  -2   6    4.99    0.25
   0  -2   6    5.16    0.22
   0  -2   6    5.11    0.19
  -1   2  -6    0.02    0.02
  -1   2  -6    0.01    0.05
  -1   2  -6   -0.03    0.24
  -1   2  -6    0.02    0.04
   1  -2   6    0.02    0.04
   1  -2   6    0.00    0.03
  -2   2  -6   46.09    1.24
  -2   2  -6   46.10    1.76
  -2   2  -6   44.59    1.72
   2  -2   6   46.21    1.14
   2  -2   6   46.84    1.02
  -3   2  -6    5.30    0.34
  -3   2  -6    5.41    0.49
  -3   2  -6    5.23    0.54
   3  -2   6    4.99    0.23
   3  -2   6    4.95    0.29
  -4   2  -6    5.90    0.41
   4  -2   6    6.70    0.36
  -5   2  -6    0.42    0.16
  -5   2  -6    0.47    0.13
   5  -2   6    0.51    0.14
  -6   2  -6    2.01    0.32
   9   1  -6    0.45    0.20
   9   1  -6    1.36    0.29
  -9  -1   6    1.29    0.28
   8   1  -6    1.10    0.26
   8   1  -6    0.63    0.21
  -8  -1   6    0.65    0.19
   7   1  -6    0.02    0.14
   7   1  -6   -0.04    0.10
  -7  -1   6    0.07    0.11
   6   1  -6    3.21    0.35
   6   1  -6    2.53    0.32
  -6  -1   6    2.72    0.33
  -6  -1   6    3.05    0.49
   5   1  -6    7.97    0.45
   5   1  -6    7.31    0.43
  -5  -1   6    8.46    0.45
  -5  -1   6    7.72    0.64
  -5  -1   6    8.04    0.38
   4   1  -6   15.13    0.59
   4   1  -6   15.53    0.61
  -4  -1   6   15.57    0.84
  -4  -1   6   15.89    0.53
  -4  -1   6   15.43    0.60
  -4  -1   6   16.50    0.88
   3   1  -6    9.96    0.42
   3   1  -6   10.02    0.44
  -3  -1   6    9.76    0.63
  -3  -1   6   10.19    0.37
  -3  -1   6    9.88    0.64
  -3  -1   6   10.67    0.43
   2   1  -6   12.52    0.47
  -2  -1   6   11.76    0.72
  -2  -1   6   12.29    0.44
  -2  -1   6   13.25    0.41
  -2  -1   6   13.08    0.31
   1   1  -6   44.69    1.14
   1   1  -6   41.93    1.08
  -1  -1   6   43.33    0.99
  -1  -1   6   41.40    0.97
  -1  -1   6   41.57    0.84
   0   1  -6   19.92    0.64
   0   1  -6   18.91    0.44
   0   1  -6   18.87    0.58
   0  -1   6   19.85    0.55
  -1   1  -6   27.54    0.75
  -1   1  -6   25.45    1.15
  -1   1  -6   28.06    0.52
  -2   1  -6  277.10    5.45
  -2   1  -6  264.42    8.50
  -2   1  -6  285.73    5.79
   2  -1   6  270.69    5.46
   2  -1   6  284.89    5.19
  -3   1  -6    2.27    0.34
  -3   1  -6    1.84    0.19
  -3   1  -6    3.19    0.37
  -3   1  -6    2.04    0.23
   3  -1   6    1.83    0.19
   3  -1   6    1.69    0.12
  -4   1  -6  115.73    2.47
  -4   1  -6  110.74    2.70
   4  -1   6  115.31    2.49
  -5   1  -6    3.33    0.31
  -5   1  -6    4.24    0.28
   5  -1   6    4.12    0.29
  -6   1  -6    0.23    0.13
  -6   1  -6    0.12    0.09
   6  -1   6    0.03    0.11
   6  -1   6    0.22    0.11
  -7   1  -6    0.50    0.20
   7  -1   6    0.78    0.23
   9   0  -6    0.14    0.17
  -9   0   6    0.01    0.13
   8   0  -6    0.03    0.15
   8   0  -6    0.08    0.11
  -8   0   6   -0.04    0.10
   7   0  -6    1.39    0.28
   7   0  -6    1.64    0.28
   7   0  -6    1.04    0.20
  -7   0   6    1.20    0.24
   6   0  -6    6.87    0.43
   6   0  -6    6.18    0.44
   6   0  -6    6.12    0.41
  -6   0   6    6.31    0.41
   5   0  -6   26.10    0.94
   5   0  -6   26.49    0.88
  -5   0   6   27.28    0.89
  -5   0   6   26.76    1.23
   4   0  -6   28.04    0.87
   4   0  -6   28.77    0.93
  -4   0   6   28.14    0.75
  -4   0   6   27.74    1.24
  -4   0   6   28.12    1.21
  -4   0   6   28.05    0.86
   3   0  -6    0.23    0.08
  -3   0   6    0.12    0.21
  -3   0   6    0.40    0.23
  -3   0   6    0.26    0.07
   2   0  -6    1.85    0.16
   2   0  -6    1.63    0.11
  -2   0   6    1.63    0.08
  -2   0   6    1.95    0.16
  -2   0   6    2.51    0.36
  -2   0   6    1.79    0.12
   1   0  -6    0.29    0.06
   1   0  -6    0.12    0.05
  -1   0   6    0.22    0.04
  -1   0   6    0.14    0.05
   0   0  -6    1.85    0.14
   0   0   6    1.99    0.13
   0   0   6    1.73    0.14
  -1   0  -6  203.49    4.06
  -1   0  -6  213.10    4.30
   1   0   6  202.49    4.07
  -2   0  -6    1.77    0.25
  -2   0  -6    2.45    0.16
  -2   0  -6    2.59    0.16
   2   0   6    2.42    0.16
  -3   0  -6    0.93    0.12
  -3   0  -6    0.84    0.13
   3   0   6    0.79    0.12
  -4   0  -6    1.86    0.20
  -4   0  -6    1.72    0.21
   4   0   6    1.99    0.21
  -5   0  -6   22.04    0.81
  -5   0  -6   23.07    0.73
   5   0   6   22.78    0.74
  -6   0  -6    8.31    0.43
  -6   0  -6    8.34    0.50
   6   0   6    9.06    0.46
   6   0   6    8.28    0.50
  -7   0  -6    1.31    0.21
   7   0   6    1.33    0.23
   9  -1  -6    1.79    0.33
  -9   1   6    1.79    0.32
   8  -1  -6    3.71    0.43
  -8   1   6    3.21    0.39
   7  -1  -6   -0.43    6.03
   7  -1  -6    2.26    0.32
   7  -1  -6    2.74    0.38
  -7   1   6    2.48    0.33
   6  -1  -6    6.49    0.42
   6  -1  -6    5.43    0.37
   6  -1  -6    5.40    0.43
   6  -1  -6   -1.82    4.32
  -6   1   6    5.90    0.40
  -6   1   6    5.72    0.44
   5  -1  -6   -3.94    3.61
   5  -1  -6    3.86    0.31
   5  -1  -6    3.60    0.33
   5  -1  -6    3.85    0.29
  -5   1   6    3.55    0.48
  -5   1   6    4.04    0.34
  -5   1   6    4.10    0.32
   4  -1  -6   33.30    0.95
   4  -1  -6   31.97    1.04
  -4   1   6   31.89    1.33
  -4   1   6   33.61    1.05
  -4   1   6   32.13    1.36
  -4   1   6   33.74    0.95
   3  -1  -6    1.12    0.17
   3  -1  -6    1.39    0.18
  -3   1   6    1.25    0.29
  -3   1   6    1.28    0.17
  -3   1   6    1.34    0.29
   2  -1  -6   85.68    1.96
  -2   1   6   86.23    1.47
  -2   1   6   80.53    2.84
  -2   1   6   82.63    1.78
   1  -1  -6   60.51    1.39
  -1   1   6   58.01    1.09
  -1   1   6   59.07    1.38
  -1   1   6   57.83    1.25
   0  -1  -6   32.89    0.82
  -1  -1  -6  111.18    2.25
  -1  -1  -6  113.36    2.35
   1   1   6  107.85    2.26
  -2  -1  -6    0.16    0.19
  -2  -1  -6    0.15    0.05
  -2  -1  -6    0.21    0.06
   2   1   6    0.10    0.05
  -3  -1  -6   57.94    1.35
  -3  -1  -6   57.83    1.34
   3   1   6   55.34    1.33
  -4  -1  -6    0.09    0.06
  -4  -1  -6    0.15    0.07
   4   1   6    0.09    0.06
  -5  -1  -6   30.12    0.89
  -5  -1  -6   30.25    0.93
   5   1   6   29.93    0.93
   5   1   6   28.83    0.89
  -6  -1  -6    0.81    0.16
   6   1   6    0.54    0.14
  -7  -1  -6    2.34    0.28
   7   1   6    2.19    0.29
  -8  -1  -6    3.03    0.34
   9  -2  -6    0.51    0.21
  -9   2   6    0.22    0.17
   8  -2  -6    9.14    9.32
   7  -2  -6    2.61    6.68
   7  -2  -6    1.37    0.25
  -7   2   6    1.54    0.26
   6  -2  -6   -2.60    5.01
   6  -2  -6    3.42    0.42
   6  -2  -6    3.31    0.37
  -6   2   6    2.62    0.36
  -6   2   6    3.46    0.37
   5  -2  -6   21.16    0.88
   5  -2  -6    0.09    5.40
   5  -2  -6   19.66    0.74
  -5   2   6   21.38    1.10
  -5   2   6   19.08    0.83
  -5   2   6   21.27    0.76
   4  -2  -6   -1.53    3.35
   4  -2  -6    9.92    0.45
   4  -2  -6    8.93    0.49
  -4   2   6    9.03    0.43
  -4   2   6    9.13    0.66
  -4   2   6    9.32    0.50
  -4   2   6    9.00    0.65
   3  -2  -6   -0.17    2.77
   3  -2  -6    0.19    0.09
   3  -2  -6    0.11    0.07
  -3   2   6    0.14    0.07
  -3   2   6    0.31    0.23
  -3   2   6    0.23    0.24
  -3   2   6    0.07    0.07
   2  -2  -6   43.17    1.12
   2  -2  -6   40.03    0.98
  -2   2   6   41.23    1.11
  -2   2   6   38.61    1.60
  -2   2   6   41.01    0.74
  -2   2   6   39.66    0.98
   1  -2  -6    0.76    0.11
   1  -2  -6    0.59    0.08
  -1   2   6    0.84    0.08
  -1   2   6    0.85    0.10
   0  -2  -6  117.79    2.51
  -1  -2  -6    0.28    0.04
  -1  -2  -6    0.35    0.07
  -1  -2  -6    0.44    0.06
   1   2   6    0.37    0.07
  -2  -2  -6    3.03    0.19
  -2  -2  -6    3.15    0.13
  -2  -2  -6    3.42    0.37
   2   2   6    2.73    0.18
  -3  -2  -6   61.72    1.33
  -3  -2  -6   56.11    2.00
  -3  -2  -6   59.17    1.39
   3   2   6   58.40    1.40
  -4  -2  -6   33.25    0.87
  -4  -2  -6   32.02    0.92
   4   2   6   33.57    0.95
  -5  -2  -6   10.88    0.49
   5   2   6   11.67    0.51
  -6  -2  -6    3.08    0.28
   6   2   6    3.70    0.31
  -7  -2  -6    0.23    0.11
   7   2   6    0.42    0.15
  -8  -2  -6    3.75    0.39
   8   2   6    2.90    0.36
   8  -3  -6   -7.46    6.66
   8  -3  -6    1.50    0.27
  -8   3   6    1.73    0.31
   7  -3  -6    0.58    7.73
   7  -3  -6    3.74    0.40
  -7   3   6    3.45    0.39
   6  -3  -6   -0.01    0.09
   6  -3  -6    0.08    0.12
   6  -3  -6   -0.58    6.00
  -6   3   6    0.06    0.09
  -6   3   6   -0.10    0.08
  -6   3   6    0.25    0.41
   5  -3  -6    9.03    0.47
   5  -3  -6    2.14    5.68
   5  -3  -6   10.09    0.60
  -5   3   6   10.61    0.83
  -5   3   6   10.27    0.60
  -5   3   6   10.87    0.52
   4  -3  -6   10.12    0.56
   4  -3  -6   10.79    0.47
   4  -3  -6    1.24    4.31
  -4   3   6    9.64    0.46
  -4   3   6    9.18    0.70
  -4   3   6    9.56    0.54
  -4   3   6   10.56    0.77
   3  -3  -6   14.62    0.63
   3  -3  -6    6.29    4.96
   3  -3  -6   15.10    0.53
  -3   3   6   13.55    0.61
  -3   3   6   15.12    0.54
  -3   3   6   15.03    0.89
  -3   3   6   15.17    1.00
   2  -3  -6    3.18    0.25
   2  -3  -6    3.15    0.20
   2  -3  -6    2.21    3.18
  -2   3   6    3.26    0.21
  -2   3   6    2.96    0.13
  -2   3   6    3.20    0.42
  -2   3   6    2.83    0.41
  -2   3   6    3.00    0.10
  -2   3   6    3.11    0.24
   1  -3  -6    4.11    0.24
   1  -3  -6    3.48    0.19
  -1   3   6    3.34    0.19
  -1   3   6    3.79    0.45
  -1   3   6    3.44    0.15
  -1   3   6    3.57    0.23
   0  -3  -6   31.65    0.68
   0  -3  -6   31.94    0.81
   0   3   6   31.81    0.66
   0   3   6   32.29    0.82
  -1  -3  -6   72.25    1.52
  -1  -3  -6   68.81    1.32
  -1  -3  -6   73.53    1.55
  -2  -3  -6    0.00    0.04
  -2  -3  -6    0.06    0.19
  -3  -3  -6   22.45    0.95
  -3  -3  -6   25.44    0.54
  -3  -3  -6   23.54    1.04
  -3  -3  -6   23.90    0.72
  -4  -3  -6    0.33    0.10
  -4  -3  -6    0.49    0.18
  -5  -3  -6   10.98    0.51
  -6  -3  -6    2.52    0.30
   6   3   6    2.51    0.31
  -7  -3  -6    3.41    0.36
   7   3   6    3.85    0.40
  -8  -3  -6   11.63    0.62
   8   3   6   10.76    0.62
  -9  -3  -6    3.04    0.39
   9   3   6    2.33    0.36
   8  -4  -6   -1.80    8.53
   8  -4  -6    0.06    0.15
  -8   4   6    0.02    0.14
  -8   4   6   -0.26    0.55
   7  -4  -6    0.09    0.12
   7  -4  -6   -0.01    8.24
  -7   4   6    0.23    0.14
  -7   4   6    0.16    0.50
   6  -4  -6    2.25    0.30
   6  -4  -6    0.54    6.52
  -6   4   6    1.95    0.28
  -6   4   6    2.98    0.64
   5  -4  -6    1.33    0.27
   5  -4  -6   -3.59    4.37
  -5   4   6    1.19    0.25
  -5   4   6    1.67    0.54
   4  -4  -6   -2.65    4.72
   4  -4  -6    7.16    0.39
   4  -4  -6    7.39    0.50
  -4   4   6    7.15    0.49
  -4   4   6    7.56    0.40
  -4   4   6    8.19    0.78
  -4   4   6    7.61    0.72
   3  -4  -6   89.41    2.01
   3  -4  -6   90.09    2.31
  -3   4   6   86.42    2.27
  -3   4   6   90.19    2.01
  -3   4   6   92.32    3.30
  -3   4   6   91.48    3.21
   2  -4  -6    3.67    4.17
   2  -4  -6    2.94    0.25
   2  -4  -6    2.91    0.21
  -2   4   6    3.09    0.22
  -2   4   6    2.04    0.43
  -2   4   6    3.18    0.11
  -2   4   6    2.21    0.43
  -2   4   6    2.86    0.25
   1  -4  -6   20.34    0.58
   1  -4  -6   20.25    0.67
   1  -4  -6   20.96    0.52
  -1   4   6   20.32    0.68
  -1   4   6   19.14    1.05
  -1   4   6   20.45    0.47
   0  -4  -6   11.17    0.41
   0  -4  -6   11.13    0.37
   0  -4  -6   11.16    0.34
   0   4   6   11.17    0.31
   0   4   6   11.54    0.41
  -1  -4  -6    4.98    0.25
  -1  -4  -6    5.01    0.20
  -1  -4  -6    5.06    0.20
   1   4   6    5.26    0.21
   1   4   6    5.15    0.19
  -2  -4  -6  105.29    3.57
  -2  -4  -6  112.97    1.92
  -2  -4  -6  109.28    2.17
  -2  -4  -6  113.11    2.35
  -2  -4  -6  101.29    3.63
  -3  -4  -6    1.50    0.19
  -3  -4  -6    1.23    0.26
  -3  -4  -6    1.94    0.34
  -3  -4  -6    1.56    0.12
  -3  -4  -6    1.75    0.16
  -4  -4  -6    8.39    0.43
  -4  -4  -6    9.17    0.23
  -4  -4  -6    8.35    0.53
  -4  -4  -6    7.74    0.65
  -4  -4  -6    8.76    0.34
  -5  -4  -6   44.96    1.27
  -5  -4  -6   42.89    1.62
  -6  -4  -6    0.40    0.13
  -7  -4  -6   -0.01    0.08
  -8  -4  -6    1.08    0.24
   8   4   6    1.04    0.25
  -9  -4  -6    0.53    0.20
   9   4   6    0.46    0.20
 -10  -4  -6    3.42    0.43
  10   4   6    3.65    0.48
   7  -5  -6   -1.21    7.22
   7  -5  -6    1.74    0.29
  -7   5   6    1.70    0.28
  -7   5   6    2.05    0.69
   6  -5  -6    1.07    0.22
   6  -5  -6   -1.76    6.32
  -6   5   6    1.64    0.63
   5  -5  -6    3.36    0.36
   5  -5  -6   -6.47    4.99
   5  -5  -6    3.96    0.48
  -5   5   6    4.59    0.65
  -5   5   6    3.61    0.70
  -5   5   6    2.81    0.39
  -5   5   6    3.68    0.32
   4  -5  -6    0.77    0.21
   4  -5  -6    0.52    0.14
   4  -5  -6    0.18    5.99
  -4   5   6    1.05    0.44
  -4   5   6    0.48    0.14
  -4   5   6    0.71    0.49
  -4   5   6    0.50    0.18
   3  -5  -6   20.34    0.70
   3  -5  -6   20.47    0.85
   3  -5  -6   10.50    6.90
  -3   5   6   20.63    0.71
  -3   5   6   19.92    0.84
  -3   5   6   20.78    1.20
  -3   5   6   22.40    1.27
   2  -5  -6    2.74    4.70
   2  -5  -6    8.23    0.46
   2  -5  -6    9.07    0.40
  -2   5   6    9.14    0.81
  -2   5   6    8.13    0.22
  -2   5   6    8.79    0.82
  -2   5   6    7.72    0.45
   1  -5  -6   50.76    1.09
   1  -5  -6   51.11    1.37
   1  -5  -6   51.34    1.22
   1  -5  -6   54.90   11.01
  -1   5   6   52.33    1.38
  -1   5   6   50.04    1.01
  -1   5   6   49.76    2.09
   0  -5  -6    0.03    0.06
   0  -5  -6   -0.05    0.03
   0  -5  -6    0.06    0.05
   0   5   6    0.01    0.05
   0   5   6    0.04    0.04
   0   5   6    0.13    0.34
  -1  -5  -6    0.00    0.06
  -1  -5  -6    0.11    0.06
  -1  -5  -6    0.14    0.05
  -1  -5  -6    0.18    0.06
  -1  -5  -6    0.19    0.26
   1   5   6    0.06    0.04
   1   5   6    0.01    0.04
  -2  -5  -6   13.18    0.50
  -2  -5  -6   12.16    0.93
  -2  -5  -6   12.80    0.34
  -2  -5  -6   13.65    0.44
  -2  -5  -6   12.34    0.73
   2   5   6   12.52    0.35
  -3  -5  -6   92.58    2.10
  -3  -5  -6   88.38    3.07
  -3  -5  -6   85.95    3.15
  -3  -5  -6   92.15    1.80
  -3  -5  -6   89.71    1.91
  -4  -5  -6   42.05    1.77
  -4  -5  -6   43.98    1.24
  -4  -5  -6   43.16    0.92
  -4  -5  -6   44.03    1.09
  -4  -5  -6   42.29    1.68
  -5  -5  -6    8.16    0.47
  -5  -5  -6    7.92    0.58
  -6  -5  -6    1.21    0.33
  -6  -5  -6    0.83    0.20
  -7  -5  -6   18.64    0.82
  -8  -5  -6    3.71    0.43
  -9  -5  -6    0.45    0.19
   9   5   6    0.50    0.21
 -10  -5  -6    0.22    0.17
  10   5   6    0.19    0.20
   7  -6  -6   -0.24    8.17
   7  -6  -6    0.08    0.15
   6  -6  -6    2.29    7.10
   6  -6  -6    0.49    0.18
  -6   6   6    0.47    0.62
   5  -6  -6    0.95    0.20
   5  -6  -6   -0.17    6.25
  -5   6   6    1.43    0.51
  -5   6   6    0.58    0.57
   4  -6  -6    0.00    0.12
   4  -6  -6    0.41    0.14
   4  -6  -6   -5.63    4.50
  -4   6   6    0.04    0.49
  -4   6   6    0.16    0.14
  -4   6   6   -0.11    0.43
   3  -6  -6    0.78    0.17
   3  -6  -6   -3.72    4.56
   3  -6  -6    0.68    0.20
  -3   6   6    1.01    0.53
  -3   6   6    0.47    0.17
  -3   6   6    0.75    0.44
   2  -6  -6    5.74    0.34
   2  -6  -6   11.89    6.99
   2  -6  -6    5.57    0.40
  -2   6   6    5.53    0.17
  -2   6   6    5.40    0.40
  -2   6   6    6.12    0.82
  -2   6   6    6.31    0.80
   1  -6  -6   42.12   10.62
   1  -6  -6   35.68    0.87
   1  -6  -6   34.32    1.09
   1  -6  -6   36.41    0.98
  -1   6   6   36.48    1.11
  -1   6   6   35.71    0.77
  -1   6   6   35.87    1.74
   0  -6  -6    9.46    0.35
   0  -6  -6    9.69    0.41
   0  -6  -6   10.13    0.44
   0   6   6    9.58    0.44
   0   6   6    9.42    0.32
   0   6   6    8.94    0.89
  -1  -6  -6    0.93    0.34
  -1  -6  -6    0.84    0.14
  -1  -6  -6    0.85    0.14
  -1  -6  -6    0.93    0.15
  -1  -6  -6    0.84    0.12
   1   6   6    0.88    0.11
  -2  -6  -6    0.69    0.31
  -2  -6  -6    0.53    0.12
  -2  -6  -6    0.72    0.13
  -2  -6  -6    0.57    0.09
  -2  -6  -6    0.56    0.14
  -2  -6  -6    0.81    0.31
   2   6   6    0.42    0.08
  -3  -6  -6   52.77    0.96
  -3  -6  -6   51.74    1.26
  -3  -6  -6   52.39    2.02
  -3  -6  -6   52.61    1.40
  -3  -6  -6   49.67    2.15
  -3  -6  -6   51.94    1.19
  -4  -6  -6   16.48    0.68
  -4  -6  -6   15.27    0.90
  -4  -6  -6   16.74    0.50
  -4  -6  -6   14.09    1.09
  -5  -6  -6    0.04    0.27
  -5  -6  -6    0.08    0.06
  -5  -6  -6    0.18    0.13
  -5  -6  -6    0.21    0.37
  -6  -6  -6    4.13    0.43
  -6  -6  -6    3.93    0.50
  -7  -6  -6    3.95    0.51
  -7  -6  -6    4.41    0.48
  -8  -6  -6    1.34    0.28
  -9  -6  -6    0.49    0.21
   6  -7  -6    3.89    7.68
   6  -7  -6    1.03    0.24
  -6   7   6    0.36    0.75
   5  -7  -6   -3.41    5.66
   5  -7  -6    0.18    0.14
  -5   7   6    1.26    0.70
  -5   7   6    0.38    0.51
   4  -7  -6   -4.12    5.25
   3  -7  -6    0.02    0.10
   3  -7  -6    0.29    0.15
   3  -7  -6    2.22    6.20
  -3   7   6    0.03    0.57
  -3   7   6    0.30    0.49
  -3   7   6    0.17    0.14
   2  -7  -6   12.97    0.67
   2  -7  -6   12.38    7.86
   2  -7  -6   13.30    0.58
  -2   7   6   13.71    1.16
  -2   7   6   13.60    1.16
  -2   7   6   13.31    0.68
   1  -7  -6    0.05    0.07
   1  -7  -6   -0.56    4.75
   1  -7  -6    0.11    0.09
  -1   7   6   -0.01    0.05
  -1   7   6    0.33    0.50
   0  -7  -6   -0.06    0.05
   0  -7  -6   -0.05    0.06
   0   7   6   -0.02    0.04
  -1  -7  -6    2.64    0.23
  -1  -7  -6    2.86    0.28
  -1  -7  -6    3.02    0.20
   1   7   6    2.93    0.19
  -2  -7  -6    9.18    0.34
  -2  -7  -6   10.00    1.07
  -2  -7  -6    9.86    0.45
  -2  -7  -6    9.73    0.47
  -2  -7  -6    9.61    0.43
   2   7   6    9.80    0.35
  -3  -7  -6    7.99    1.00
  -3  -7  -6    7.22    0.24
  -3  -7  -6    6.92    0.38
  -3  -7  -6    7.34    0.65
  -3  -7  -6    6.94    0.35
  -3  -7  -6    6.48    0.42
  -4  -7  -6   18.98    0.78
  -4  -7  -6   17.53    0.58
  -4  -7  -6   18.56    1.04
  -4  -7  -6   17.41    0.66
  -4  -7  -6   18.13    1.26
  -5  -7  -6    2.40    0.18
  -5  -7  -6    2.03    0.30
  -5  -7  -6    3.55    0.60
  -5  -7  -6    3.69    0.69
  -6  -7  -6    3.91    0.64
  -6  -7  -6    3.85    0.61
  -6  -7  -6    2.74    0.38
  -7  -7  -6   -0.03    0.31
  -7  -7  -6    0.13    0.13
  -8  -7  -6    0.63    0.23
  -9  -7  -6    8.41    0.63
   5  -8  -6   -0.89    6.94
   5  -8  -6    0.79    0.22
  -5   8   6    1.39    0.60
  -5   8   6    0.55    0.76
   4  -8  -6    0.00    0.10
   4  -8  -6    2.10    6.92
  -4   8   6    0.17    0.53
  -4   8   6   -0.19    0.67
   3  -8  -6    0.20    0.13
   3  -8  -6   -2.65    5.27
  -3   8   6   -0.16    0.54
  -3   8   6    0.08    0.15
  -3   8   6    0.03    0.65
   2  -8  -6    0.49    0.15
   2  -8  -6    2.27    6.43
  -2   8   6    0.48    0.55
   1  -8  -6    7.15    0.42
   1  -8  -6    6.93    0.36
  -1   8   6    7.80    0.29
   0  -8  -6    0.07    0.09
   0  -8  -6    0.03    0.08
   0   8   6    0.05    0.06
  -1  -8  -6    4.11    0.25
  -1  -8  -6    3.81    0.31
   1   8   6    4.34    0.24
  -2  -8  -6    0.39    0.10
  -2  -8  -6    0.56    0.15
   2   8   6    0.50    0.12
  -3  -8  -6    4.84    0.83
  -3  -8  -6    3.32    0.34
  -3  -8  -6    3.65    0.28
  -3  -8  -6    3.03    0.35
  -3  -8  -6    3.37    0.18
  -4  -8  -6    0.19    0.10
  -4  -8  -6    0.20    0.11
  -4  -8  -6    0.07    0.43
  -4  -8  -6    0.31    0.15
  -4  -8  -6    0.36    0.37
  -5  -8  -6    2.38    0.55
  -5  -8  -6    2.32    0.64
  -5  -8  -6    1.83    0.21
  -5  -8  -6    1.58    0.28
  -6  -8  -6    4.24    0.48
  -6  -8  -6    6.51    0.86
  -6  -8  -6    5.34    0.66
  -7  -8  -6    2.98    0.64
  -7  -8  -6    2.04    0.36
  -8  -8  -6    0.94    0.50
  -8  -8  -6    1.52    0.34
  -9  -8  -6    2.97    0.46
   4  -9  -6   -3.63    7.76
   4  -9  -6    0.10    0.14
   3  -9  -6   -0.01    0.10
   3  -9  -6   -5.50    6.08
  -3   9   6    0.06    0.62
   2  -9  -6    2.21    0.31
  -2   9   6    1.02    0.70
   1  -9  -6    0.13    0.11
   1  -9  -6    0.28    0.12
  -1   9   6    0.05    0.06
   0  -9  -6    0.66    0.15
   0  -9  -6    0.48    0.16
   0   9   6    0.76    0.12
  -1  -9  -6    3.07    0.35
  -1  -9  -6    2.84    0.23
   1   9   6    2.75    0.21
  -2  -9  -6    3.13    0.33
  -2  -9  -6    3.01    0.22
  -2  -9  -6    3.40    0.37
   2   9   6    3.13    0.22
  -3  -9  -6   12.97    0.62
  -3  -9  -6   14.19    1.36
  -3  -9  -6   13.84    0.59
  -3  -9  -6   13.47    0.42
   3   9   6   12.77    0.48
  -4  -9  -6    0.03    0.12
  -4  -9  -6   -0.05    0.08
  -4  -9  -6   -0.07    0.47
  -4  -9  -6    0.07    0.10
  -5  -9  -6   -0.04    0.12
  -5  -9  -6   -0.15    0.35
  -5  -9  -6    0.09    0.46
  -5  -9  -6    0.06    0.09
  -6  -9  -6    0.52    0.21
  -6  -9  -6    1.01    0.54
  -6  -9  -6    0.54    0.43
  -7  -9  -6    3.17    0.73
  -7  -9  -6    3.30    0.69
  -7  -9  -6    2.52    0.40
  -8  -9  -6    2.41    0.42
   3 -10  -6   -0.01    0.12
   2 -10  -6    0.14    0.16
  -2  10   6   -0.31    0.71
   1 -10  -6    1.03    0.24
   1 -10  -6    1.02    0.20
   0 -10  -6    5.34    0.43
   0 -10  -6    4.70    0.33
   0  10   6    5.49    0.28
  -1 -10  -6    1.28    0.20
  -1 -10  -6    1.04    0.24
   1  10   6    1.13    0.17
  -2 -10  -6    3.97    0.44
  -2 -10  -6    3.46    0.25
  -2 -10  -6    3.45    0.37
   2  10   6    3.11    0.25
  -3 -10  -6    2.39    0.31
  -3 -10  -6    2.37    0.34
  -3 -10  -6    1.97    0.19
   3  10   6    1.97    0.23
  -4 -10  -6    0.16    0.15
  -4 -10  -6    0.04    0.54
  -4 -10  -6    0.31    0.16
  -4 -10  -6    0.41    0.15
  -5 -10  -6    9.77    0.49
  -5 -10  -6   12.63    1.26
  -5 -10  -6   10.69    0.69
  -6 -10  -6    0.06    0.47
  -6 -10  -6   -0.01    0.16
  -6 -10  -6    0.29    0.51
  -7 -10  -6    0.06    0.55
  -7 -10  -6   -0.04    0.15
   1 -11  -6    0.18    0.17
   1 -11  -6    0.33    0.15
   0 -11  -6    0.29    0.14
   0 -11  -6    0.28    0.17
   0  11   6    0.46    0.12
  -1 -11  -6    1.09    0.19
  -1 -11  -6    0.56    0.20
   1  11   6    0.98    0.16
  -2 -11  -6    3.68    0.45
  -2 -11  -6    3.18    0.25
   2  11   6    2.70    0.26
  -3 -11  -6    0.31    0.17
  -3 -11  -6    0.23    0.09
  -3 -11  -6    0.16    0.15
   3  11   6    0.46    0.14
  -4 -11  -6    0.67    0.19
  -4 -11  -6    0.86    0.25
   4  11   6    0.78    0.17
  -5 -11  -6    2.24    0.90
  -5 -11  -6    0.95    0.21
  -5 -11  -6    1.45    0.33
  -6 -11  -6   -0.07    0.16
   3  10  -7    1.40    0.19
  -3 -10   7    2.27    0.40
  -3 -10   7    2.11    0.24
   2  10  -7    0.04    0.08
  -2 -10   7    0.58    0.25
  -2 -10   7    0.15    0.11
  -2 -10   7    0.01    0.15
   1  10  -7    0.37    0.11
  -1 -10   7    0.36    0.15
  -6  -9   7    1.07    0.30
  -5  -9   7    0.06    0.16
  -5  -9   7    0.06    0.15
   4   9  -7    1.99    0.24
  -4  -9   7    2.00    0.37
  -4  -9   7    2.09    0.37
   3   9  -7    0.09    0.10
  -3  -9   7    0.16    0.16
  -3  -9   7    0.34    0.18
  -3  -9   7    0.41    0.12
   2   9  -7   -0.06    0.07
  -2  -9   7   -0.12    0.12
  -2  -9   7    0.08    0.16
  -2  -9   7   -0.02    0.08
  -1  -9   7    4.44    0.49
  -1  -9   7    4.50    0.32
  -1  -9   7    4.46    0.48
   0   9  -7    0.24    0.08
   0  -9   7    0.29    0.19
   0  -9   7    0.40    0.15
   1  -9   7    0.02    0.15
   7   8  -7    2.57    0.41
  -7  -8   7    2.02    0.39
  -7  -8   7    1.99    0.39
  -6  -8   7    0.18    0.18
  -6  -8   7    0.03    0.64
  -6  -8   7    0.08    0.15
  -5  -8   7    0.07    0.14
  -5  -8   7    0.23    0.69
  -5  -8   7    0.07    0.13
   4   8  -7    2.55    0.26
  -4  -8   7    3.31    0.42
  -4  -8   7    3.13    0.43
   3   8  -7    0.96    0.16
  -3  -8   7    1.36    0.17
  -3  -8   7    1.00    0.23
  -3  -8   7    1.35    0.28
   2   8  -7    6.17    0.32
  -2  -8   7    6.17    0.47
  -2  -8   7    6.07    0.34
  -2  -8   7    6.08    0.48
   1   8  -7    0.86    0.14
  -1  -8   7    0.94    0.22
  -1  -8   7    0.77    0.21
  -1  -8   7    1.10    0.18
   0   8  -7   -0.05    0.06
   0  -8   7    0.02    0.10
   0  -8   7   -0.02    0.10
   0  -8   7   -0.04    0.11
  -1   8  -7    2.39    0.93
   1  -8   7    2.07    0.31
  -2   8  -7    1.13    0.77
   2  -8   7    1.26    0.26
  -3   8  -7    0.95    0.76
   8   7  -7    0.15    0.21
  -8  -7   7   -0.08    0.16
  -8  -7   7    0.05    0.16
   7   7  -7    1.00    0.30
  -7  -7   7    0.72    0.25
  -7  -7   7    0.55    0.51
  -7  -7   7   -0.10    0.58
  -7  -7   7    1.08    0.29
   6   7  -7    1.78    0.32
  -6  -7   7    1.42    0.30
  -6  -7   7    0.90    0.48
  -6  -7   7    1.63    0.32
  -6  -7   7   -0.12    0.58
   5   7  -7    0.92    0.25
  -5  -7   7    0.92    0.25
  -5  -7   7    0.12    0.63
  -5  -7   7    0.71    0.22
  -4  -7   7    1.08    0.12
  -4  -7   7    0.99    0.64
  -4  -7   7    0.99    0.24
  -4  -7   7    1.00    0.23
   3   7  -7    3.33    0.32
   3   7  -7    3.86    0.25
  -3  -7   7    3.78    0.23
  -3  -7   7    3.96    0.42
  -3  -7   7    3.29    0.39
   2   7  -7    5.99    0.30
   2   7  -7    5.19    0.40
  -2  -7   7    5.61    0.42
  -2  -7   7    5.42    0.40
  -2  -7   7    5.29    0.29
   1   7  -7    1.23    0.24
   1   7  -7    1.20    0.15
  -1  -7   7    1.30    0.23
  -1  -7   7    1.22    0.24
  -1  -7   7    1.08    0.17
   0   7  -7    0.50    0.10
   0   7  -7    0.58    0.18
   0  -7   7    0.46    0.13
   0  -7   7    0.58    0.17
   0  -7   7    0.34    0.14
  -1   7  -7    7.26    1.14
   1  -7   7    8.08    0.48
   1  -7   7    6.39    0.45
  -2   7  -7   -0.09    0.63
   2  -7   7    0.02    0.11
  -3   7  -7    0.09    0.63
  -3   7  -7    0.91    0.67
  -4   7  -7    0.43    0.65
  -4   7  -7    0.06    0.68
   8   6  -7   -0.09    0.19
  -8  -6   7    0.03    0.16
  -8  -6   7    0.18    0.18
  -8  -6   7    0.18    0.52
   7   6  -7    1.53    0.32
  -7  -6   7    0.12    0.43
  -7  -6   7    0.09    0.54
  -7  -6   7    1.11    0.28
  -7  -6   7    1.25    0.29
   6   6  -7   -0.07    0.13
  -6  -6   7   -0.19    0.48
  -6  -6   7    0.06    0.12
  -6  -6   7   -0.24    0.38
  -6  -6   7    0.00    0.12
   5   6  -7    4.12    0.44
  -5  -6   7    3.16    0.40
  -5  -6   7    2.10    0.69
  -5  -6   7    2.21    0.54
  -5  -6   7    4.50    0.47
   4   6  -7    7.66    0.46
   4   6  -7    6.59    0.44
  -4  -6   7    6.42    0.47
  -4  -6   7    6.33    0.45
  -4  -6   7    6.64    0.22
  -4  -6   7    5.64    0.90
   3   6  -7    0.16    0.11
   3   6  -7    0.07    0.08
  -3  -6   7    0.13    0.48
  -3  -6   7    0.08    0.07
  -3  -6   7   -0.04    0.07
  -3  -6   7    0.06    0.10
   2   6  -7    9.88    0.51
   2   6  -7    9.20    0.37
  -2  -6   7   10.71    0.40
  -2  -6   7    9.71    0.51
  -2  -6   7    9.65    0.52
   1   6  -7    2.29    0.17
   1   6  -7    2.21    0.28
  -1  -6   7    1.92    0.20
  -1  -6   7    2.16    0.27
  -1  -6   7    2.16    0.28
   0   6  -7    0.90    0.20
   0   6  -7    0.85    0.12
   0  -6   7    0.88    0.15
   0  -6   7    1.00    0.19
   0  -6   7    0.65    0.17
  -1   6  -7    0.18    0.58
  -1   6  -7    0.01    0.10
  -1   6  -7    0.00    0.04
   1  -6   7    0.02    0.09
   1  -6   7   -0.03    0.09
  -2   6  -7    0.33    0.57
  -2   6  -7    0.29    0.16
  -2   6  -7    0.71    0.60
   2  -6   7    0.50    0.15
   2  -6   7    0.15    0.11
  -3   6  -7    2.64    0.73
  -3   6  -7    2.72    0.76
  -4   6  -7    3.53    0.84
  -4   6  -7    2.81    0.68
  -5   6  -7    0.53    0.64
   9   5  -7    0.04    0.21
  -9  -5   7    0.07    0.16
   8   5  -7    4.95    0.57
  -8  -5   7    3.93    0.52
  -8  -5   7    3.47    0.46
   7   5  -7    3.23    0.43
  -7  -5   7    3.52    0.45
  -7  -5   7    2.52    0.62
  -7  -5   7    3.71    0.46
   6   5  -7    0.32    0.18
  -6  -5   7    0.86    0.22
  -6  -5   7    0.65    0.21
  -6  -5   7    0.50    0.46
  -6  -5   7    0.23    0.46
   5   5  -7   22.46    0.86
   5   5  -7   20.85    0.87
  -5  -5   7   22.69    1.38
  -5  -5   7   23.35    0.91
  -5  -5   7   22.09    0.90
  -5  -5   7   22.83    1.42
   4   5  -7    9.40    0.51
   4   5  -7    9.18    0.50
  -4  -5   7    9.43    0.53
  -4  -5   7    9.57    0.86
  -4  -5   7    8.37    0.50
  -4  -5   7    8.93    0.92
   3   5  -7    0.44    0.10
   3   5  -7    0.80    0.18
   3   5  -7    0.57    0.14
  -3  -5   7    0.71    0.17
  -3  -5   7    0.01    0.44
  -3  -5   7    0.58    0.15
  -3  -5   7    0.63    0.10
   2   5  -7    0.38    0.09
   2   5  -7    0.32    0.12
  -2  -5   7    0.32    0.12
  -2  -5   7    0.29    0.11
  -2  -5   7    0.32    0.08
   1   5  -7    0.09    0.06
   1   5  -7    0.01    0.07
   1   5  -7   -0.01    0.08
  -1  -5   7    0.01    0.08
  -1  -5   7   -0.02    0.05
  -1  -5   7    0.05    0.07
   0   5  -7   94.03    2.38
   0   5  -7   97.51    2.66
   0   5  -7   95.86    1.80
   0   5  -7   95.73    3.62
   0  -5   7   95.44    2.22
   0  -5   7   95.99    2.15
   0  -5   7   93.88    1.89
  -1   5  -7    0.05    0.46
  -1   5  -7    0.34    0.49
  -1   5  -7    0.04    0.04
  -1   5  -7    0.11    0.10
   1  -5   7   -0.04    0.07
   1  -5   7    0.00    0.07
  -2   5  -7    0.96    0.58
  -2   5  -7    0.66    0.51
  -2   5  -7    0.99    0.22
   2  -5   7    1.32    0.20
   2  -5   7    1.35    0.21
  -3   5  -7    6.37    0.90
  -3   5  -7    5.90    0.90
  -3   5  -7    3.87    0.44
   3  -5   7    4.79    0.34
  -4   5  -7    1.36    0.55
  -4   5  -7    1.18    0.64
  -5   5  -7    0.42    0.54
  -6   5  -7    0.57    0.59
   9   4  -7    2.90    0.44
  -9  -4   7    2.10    0.37
   8   4  -7   13.51    0.77
  -8  -4   7   11.81    0.72
  -8  -4   7   10.06    1.04
   7   4  -7    0.32    0.19
  -7  -4   7   -0.09    0.10
  -7  -4   7   -0.09    0.36
  -7  -4   7   -0.03    0.10
   6   4  -7    9.36    0.54
   6   4  -7   11.22    0.62
  -6  -4   7   10.31    0.89
  -6  -4   7    9.58    0.92
  -6  -4   7   10.13    0.57
  -6  -4   7   10.12    0.60
   5   4  -7   -0.14    0.11
   5   4  -7    0.08    0.10
  -5  -4   7    0.07    0.11
  -5  -4   7   -0.24    0.34
  -5  -4   7    0.09    0.09
  -5  -4   7   -0.11    0.38
   4   4  -7   12.51    0.58
   4   4  -7   11.94    0.58
  -4  -4   7   12.52    0.98
  -4  -4   7   14.23    0.97
  -4  -4   7   11.40    0.56
  -4  -4   7   13.13    0.60
   3   4  -7    8.58    0.44
   3   4  -7    8.55    0.33
   3   4  -7    8.93    0.46
  -3  -4   7    8.08    0.75
  -3  -4   7    8.82    0.45
  -3  -4   7    9.58    0.47
  -3  -4   7    8.60    0.28
  -3  -4   7    9.07    0.84
   2   4  -7    0.66    0.14
   2   4  -7    1.15    0.18
   2   4  -7    0.71    0.11
  -2  -4   7    0.81    0.11
  -2  -4   7    0.85    0.16
  -2  -4   7    0.92    0.44
  -2  -4   7    0.71    0.15
   1   4  -7   10.41    0.34
   1   4  -7    9.74    0.52
   1   4  -7    9.90    0.47
  -1  -4   7   10.79    0.36
  -1  -4   7   10.17    0.45
  -1  -4   7   10.57    0.44
   0   4  -7   29.90    0.67
   0   4  -7   28.32    1.48
   0   4  -7   29.29    0.94
   0  -4   7   29.87    0.73
   0  -4   7   29.58    0.83
   0  -4   7   30.72    0.89
   0  -4   7   29.88    0.72
  -1   4  -7   17.74    1.12
  -1   4  -7   17.39    0.70
  -1   4  -7   17.01    0.77
  -1   4  -7   17.99    1.07
  -1   4  -7   18.16    0.41
   1  -4   7   17.55    0.58
   1  -4   7   17.78    0.63
  -2   4  -7   11.46    0.86
  -2   4  -7   11.59    0.58
  -2   4  -7   12.01    0.65
  -2   4  -7   11.20    0.90
   2  -4   7   11.91    0.46
   2  -4   7   12.02    0.50
  -3   4  -7    1.89    0.28
  -3   4  -7    2.31    0.58
  -3   4  -7    3.28    0.66
   3  -4   7    2.21    0.25
  -4   4  -7   -0.01    0.11
  -4   4  -7   -0.20    0.40
  -4   4  -7    0.05    0.42
   4  -4   7   -0.04    0.08
  -5   4  -7    3.90    0.78
  -6   4  -7    7.02    0.80
   9   3  -7    0.73    0.27
  -9  -3   7    0.76    0.25
  -9  -3   7    0.16    0.47
   8   3  -7    0.10    0.20
  -8  -3   7    0.14    0.41
  -8  -3   7    0.07    0.14
   7   3  -7   -0.03    0.14
   7   3  -7    0.12    0.11
  -7  -3   7    0.15    0.12
  -7  -3   7    0.36    0.37
   6   3  -7   17.71    0.76
   6   3  -7   17.82    0.79
  -6  -3   7   18.40    0.80
  -6  -3   7   17.34    1.12
  -6  -3   7   17.25    1.07
  -6  -3   7   17.23    0.72
   5   3  -7    5.03    0.36
   5   3  -7    5.27    0.38
  -5  -3   7    4.96    0.36
  -5  -3   7    4.64    0.62
  -5  -3   7    5.07    0.39
  -5  -3   7    5.21    0.69
   4   3  -7   29.08    0.95
   4   3  -7   27.21    0.93
  -4  -3   7   28.62    0.90
  -4  -3   7   28.10    1.40
  -4  -3   7   29.84    1.41
  -4  -3   7   27.66    0.93
   3   3  -7    9.39    0.46
   3   3  -7    9.77    0.45
  -3  -3   7    9.57    0.27
  -3  -3   7    9.14    0.75
  -3  -3   7    9.48    0.75
  -3  -3   7   10.40    0.47
  -3  -3   7    9.32    0.43
   2   3  -7    0.52    0.12
   2   3  -7    0.39    0.11
   2   3  -7    0.79    0.11
  -2  -3   7    0.36    0.10
  -2  -3   7    0.50    0.33
  -2  -3   7    0.27    0.09
  -2  -3   7    0.44    0.07
   1   3  -7    4.85    0.32
   1   3  -7    5.43    0.22
   1   3  -7    5.26    0.31
  -1  -3   7    5.29    0.29
  -1  -3   7    5.60    0.62
  -1  -3   7    5.65    0.23
  -1  -3   7    5.88    0.23
  -1  -3   7    5.87    0.29
   0   3  -7   -0.03    0.31
   0   3  -7    0.00    0.03
   0   3  -7    0.03    0.06
   0   3  -7    0.06    0.06
   0  -3   7   -0.02    0.04
   0  -3   7    0.00    0.05
   0  -3   7   -0.03    0.03
  -1   3  -7    1.63    0.23
  -1   3  -7    2.05    0.50
  -1   3  -7    3.05    0.53
  -1   3  -7    1.75    0.22
  -1   3  -7    1.82    0.10
   1  -3   7    1.89    0.21
   1  -3   7    1.76    0.17
  -2   3  -7   43.73    1.31
  -2   3  -7   43.73    1.87
  -2   3  -7   46.15    1.86
   2  -3   7   48.54    1.09
   2  -3   7   47.94    1.20
  -3   3  -7    0.22    0.33
  -3   3  -7    0.35    0.36
  -3   3  -7    0.25    0.11
   3  -3   7    0.19    0.10
  -4   3  -7    0.79    0.19
  -4   3  -7    1.28    0.44
   4  -3   7    0.80    0.17
  -5   3  -7    2.50    0.37
  -5   3  -7    2.92    0.56
  -6   3  -7    0.01    0.38
   9   2  -7    2.08    0.37
  -9  -2   7    2.40    0.39
   8   2  -7    2.31    0.35
  -8  -2   7    3.63    0.45
   7   2  -7    0.80    0.21
   7   2  -7    0.45    0.17
  -7  -2   7    0.18    0.13
  -7  -2   7    0.57    0.38
   6   2  -7   12.22    0.64
   6   2  -7   13.97    0.66
  -6  -2   7   13.59    0.97
  -6  -2   7   13.48    0.66
   5   2  -7    8.48    0.48
   5   2  -7    8.28    0.46
  -5  -2   7    8.25    0.42
  -5  -2   7    8.59    0.48
  -5  -2   7    8.95    0.74
  -5  -2   7    8.08    0.68
   4   2  -7   12.38    0.56
   4   2  -7   13.36    0.57
  -4  -2   7   13.36    0.52
  -4  -2   7   12.72    0.57
  -4  -2   7   13.18    0.85
  -4  -2   7   13.73    0.86
   3   2  -7   21.65    0.72
   3   2  -7   21.67    0.74
  -3  -2   7   21.05    0.67
  -3  -2   7   22.00    0.72
  -3  -2   7   21.60    0.45
  -3  -2   7   21.17    1.09
  -3  -2   7   21.76    1.13
   2   2  -7    0.00    0.04
   2   2  -7    0.11    0.05
   2   2  -7   -0.07    0.04
  -2  -2   7    0.01    0.04
  -2  -2   7    0.00    0.04
  -2  -2   7    0.03    0.03
  -2  -2   7    0.24    0.25
   1   2  -7   64.36    1.60
   1   2  -7   64.26    1.27
   1   2  -7   65.53    1.72
  -1  -2   7   65.18    1.26
  -1  -2   7   66.49    1.49
  -1  -2   7   64.65    1.45
   0   2  -7    4.56    0.18
   0   2  -7    4.20    0.52
   0   2  -7    4.41    0.26
   0   2  -7    4.32    0.29
   0  -2   7    4.57    0.19
   0  -2   7    4.25    0.21
   0  -2   7    4.47    0.25
  -1   2  -7    1.28    0.17
  -1   2  -7    1.16    0.18
  -1   2  -7    1.22    0.08
  -1   2  -7    1.82    0.40
  -1   2  -7    1.26    0.38
   1  -2   7    1.19    0.12
   1  -2   7    1.14    0.16
  -2   2  -7   41.51    1.66
  -2   2  -7   42.02    1.69
  -2   2  -7   40.89    1.17
   2  -2   7   42.60    0.95
   2  -2   7   42.53    1.09
  -3   2  -7    1.45    0.30
  -3   2  -7    2.47    0.42
  -3   2  -7    1.51    0.22
   3  -2   7    1.29    0.18
  -4   2  -7    8.74    0.50
  -4   2  -7    9.61    0.70
   4  -2   7    9.42    0.44
  -5   2  -7    4.63    0.57
  -5   2  -7    4.21    0.38
   5  -2   7    3.82    0.30
  -6   2  -7    0.27    0.15
   9   1  -7    1.64    0.31
   9   1  -7    2.37    0.40
  -9  -1   7    2.47    0.39
   8   1  -7   -0.03    0.14
   8   1  -7    0.01    0.12
  -8  -1   7   -0.04    0.11
   7   1  -7    0.60    0.19
   7   1  -7    1.26    0.25
  -7  -1   7    1.09    0.24
   6   1  -7    3.45    0.38
   6   1  -7    2.63    0.32
  -6  -1   7    3.21    0.56
  -6  -1   7    3.40    0.38
   5   1  -7    1.79    0.25
   5   1  -7    2.01    0.26
  -5  -1   7    2.05    0.27
  -5  -1   7    2.20    0.47
  -5  -1   7    2.97    0.46
   4   1  -7   34.59    1.07
   4   1  -7   33.70    1.03
  -4  -1   7   35.01    1.51
  -4  -1   7   34.17    0.93
  -4  -1   7   34.53    1.02
  -4  -1   7   33.99    1.47
   3   1  -7    2.07    0.22
   3   1  -7    1.90    0.21
  -3  -1   7    2.22    0.40
  -3  -1   7    1.28    0.31
  -3  -1   7    2.01    0.16
  -3  -1   7    1.94    0.22
   2   1  -7   46.19    1.18
   2   1  -7   44.78    1.19
  -2  -1   7   44.29    1.10
  -2  -1   7   42.65    1.77
  -2  -1   7   45.44    1.06
  -2  -1   7   45.45    0.88
  -2  -1   7   44.40    0.87
   1   1  -7    3.77    0.17
   1   1  -7    3.89    0.24
   1   1  -7    4.21    0.24
  -1  -1   7    3.70    0.20
  -1  -1   7    4.06    0.21
  -1  -1   7    4.04    0.17
   0   1  -7    3.04    0.20
   0   1  -7    2.77    0.13
   0   1  -7    2.79    0.21
   0  -1   7    2.58    0.15
   0  -1   7    2.64    0.18
  -1   1  -7   22.69    0.68
  -1   1  -7   20.62    1.04
  -1   1  -7   22.92    0.46
  -2   1  -7  187.03    6.00
  -2   1  -7  195.75    4.12
  -2   1  -7  187.12    6.04
   2  -1   7  195.06    3.63
   2  -1   7  191.42    3.89
  -3   1  -7   17.07    0.56
  -3   1  -7   16.14    0.87
  -3   1  -7   17.06    0.62
  -3   1  -7   16.13    0.81
   3  -1   7   16.28    0.56
  -4   1  -7   17.41    0.70
  -4   1  -7   18.78    0.63
   4  -1   7   18.01    0.64
  -5   1  -7    0.95    0.20
  -5   1  -7    1.30    0.19
   5  -1   7    0.93    0.18
  -6   1  -7    0.02    0.09
  -6   1  -7    0.14    0.09
   6  -1   7   -0.01    0.09
  -7   1  -7    0.16    0.13
   9   0  -7    0.51    0.21
  -9   0   7    0.74    0.23
   8   0  -7    1.36    0.28
  -8   0   7    2.18    0.33
   7   0  -7   10.89    0.61
   7   0  -7   12.57    0.70
   7   0  -7   12.14    0.62
  -7   0   7   12.48    0.64
   6   0  -7    0.09    0.12
   6   0  -7    0.02    0.10
  -6   0   7    0.00    0.35
  -6   0   7   -0.05    0.08
   5   0  -7    3.45    0.30
   5   0  -7    3.58    0.32
  -5   0   7    4.13    0.53
  -5   0   7    3.68    0.31
   4   0  -7    6.04    0.38
   4   0  -7    6.37    0.36
  -4   0   7    5.73    0.56
  -4   0   7    6.17    0.36
  -4   0   7    6.11    0.56
   3   0  -7    0.40    0.11
   3   0  -7    0.35    0.06
  -3   0   7    0.19    0.25
  -3   0   7    0.38    0.11
  -3   0   7    0.46    0.08
  -3   0   7    0.50    0.26
   2   0  -7  442.05    9.73
  -2   0   7  430.79    7.44
  -2   0   7  424.87    8.15
  -2   0   7  411.71   13.12
  -2   0   7  436.21    8.24
   1   0  -7   24.34    0.71
  -1   0   7   23.61    0.52
  -1   0   7   23.99    0.63
  -1   0   7   24.59    0.62
   0   0  -7    0.72    0.11
   0   0  -7    0.68    0.08
   0   0   7    0.81    0.11
  -1   0  -7   70.93    1.59
  -1   0  -7   69.54    1.24
  -1   0  -7   67.42    1.51
   1   0   7   67.86    1.52
  -2   0  -7    0.83    0.29
  -2   0  -7    1.65    0.14
  -2   0  -7    1.58    0.14
   2   0   7    1.86    0.16
  -3   0  -7    8.02    0.50
  -3   0  -7    9.09    0.39
  -3   0  -7    8.83    0.59
  -3   0  -7    9.40    0.37
   3   0   7    9.01    0.38
  -4   0  -7    2.49    0.22
  -4   0  -7    2.02    0.22
   4   0   7    2.42    0.24
  -5   0  -7   27.29    0.94
  -5   0  -7   27.92    0.84
   5   0   7   27.59    0.86
  -6   0  -7   14.06    0.58
  -6   0  -7   14.22    0.67
   6   0   7   13.60    0.66
   6   0   7   14.04    0.60
  -7   0  -7    3.19    0.34
   7   0   7    2.91    0.33
   9  -1  -7    1.13    0.26
  -9   1   7    0.54    0.20
   8  -1  -7    0.47    0.18
  -8   1   7    0.43    0.17
   7  -1  -7    0.18    0.14
   7  -1  -7    0.31    0.15
  -7   1   7    0.07    0.11
   6  -1  -7    0.15    0.12
   6  -1  -7    0.05    0.09
   6  -1  -7    1.20    4.99
  -6   1   7    0.00    0.09
  -6   1   7    0.26    0.37
   5  -1  -7   48.48    1.51
   5  -1  -7   49.20    1.37
  -5   1   7   53.36    2.05
  -5   1   7   51.66    1.39
  -5   1   7   50.82    1.93
   4  -1  -7    0.19    0.10
   4  -1  -7    0.25    0.10
  -4   1   7    0.31    0.27
  -4   1   7    0.76    0.33
  -4   1   7    0.27    0.10
   3  -1  -7   10.34    0.47
  -3   1   7   10.56    0.67
  -3   1   7    8.65    0.62
  -3   1   7   10.63    0.43
   2  -1  -7   15.87    0.57
  -2   1   7   16.37    0.35
  -2   1   7   16.62    0.51
  -2   1   7   13.63    0.94
   1  -1  -7   48.39    1.20
  -1   1   7   49.50    1.18
  -1   1   7   48.09    1.07
  -1   1   7   47.95    0.93
   0  -1  -7   23.67    0.52
   0  -1  -7   23.83    0.66
   0  -1  -7   23.89    0.60
   0   1   7   24.19    0.61
  -1  -1  -7   35.51    0.70
  -1  -1  -7   36.76    0.87
  -1  -1  -7   37.24    0.90
   1   1   7   36.19    0.87
  -2  -1  -7   13.25    0.43
  -2  -1  -7   10.45    0.67
  -2  -1  -7   13.68    0.41
   2   1   7   12.97    0.44
  -3  -1  -7   51.13    1.21
  -3  -1  -7   46.02    1.73
  -3  -1  -7   52.21    1.23
   3   1   7   50.05    1.22
  -4  -1  -7   96.50    2.14
  -4  -1  -7   97.51    2.23
   4   1   7   93.23    2.15
  -5  -1  -7    2.12    0.24
  -5  -1  -7    1.74    0.23
   5   1   7    2.07    0.25
  -6  -1  -7    1.95    0.25
   6   1   7    2.43    0.29
  -7  -1  -7    0.05    0.09
   7   1   7    0.08    0.09
  -8  -1  -7    0.50    0.17
   8   1   7    0.58    0.19
   9  -2  -7    0.85    0.24
  -9   2   7    1.20    0.27
   8  -2  -7    1.13    0.25
  -8   2   7    1.15    0.25
   7  -2  -7   -0.01    6.24
   7  -2  -7    0.60    0.19
  -7   2   7    0.12    0.13
   6  -2  -7    2.40    0.36
   6  -2  -7    1.53    5.98
   6  -2  -7    2.18    0.30
  -6   2   7    2.71    0.53
  -6   2   7    2.28    0.34
  -6   2   7    2.65    0.33
   5  -2  -7   41.88    1.20
   5  -2  -7   41.61    1.36
  -5   2   7   39.53    1.64
  -5   2   7   40.77    1.19
  -5   2   7   39.96    1.33
  -5   2   7   42.10    1.77
   4  -2  -7   -0.08    3.43
   4  -2  -7    1.31    0.19
   4  -2  -7    1.12    0.21
  -4   2   7    1.62    0.39
  -4   2   7    1.47    0.23
  -4   2   7    1.58    0.39
  -4   2   7    1.26    0.20
   3  -2  -7    7.38    0.40
   3  -2  -7    7.15    0.35
  -3   2   7    6.64    0.39
  -3   2   7    6.88    0.34
  -3   2   7    7.10    0.58
  -3   2   7    6.86    0.72
   2  -2  -7    1.14    0.16
   2  -2  -7    1.27    0.15
  -2   2   7    0.72    0.28
  -2   2   7    1.28    0.08
  -2   2   7    1.25    0.15
   1  -2  -7    2.26    0.15
   1  -2  -7    2.27    0.17
  -1   2   7    2.29    0.12
  -1   2   7    2.04    0.14
   0  -2  -7   31.08    0.80
   0  -2  -7   31.07    0.66
   0   2   7   31.96    0.65
  -1  -2  -7   79.66    1.69
  -1  -2  -7   78.34    1.44
  -1  -2  -7   81.16    1.73
   1   2   7   78.67    1.69
  -2  -2  -7    4.37    0.47
  -2  -2  -7    4.77    0.18
  -2  -2  -7    4.59    0.24
   2   2   7    4.74    0.25
  -3  -2  -7   24.78    0.63
  -3  -2  -7   21.14    0.99
  -3  -2  -7   23.31    0.69
   3   2   7   23.55    0.71
  -4  -2  -7    6.90    0.31
  -4  -2  -7    7.47    0.37
   4   2   7    6.87    0.36
  -5  -2  -7    2.01    0.23
   5   2   7    2.00    0.25
  -6  -2  -7    1.01    0.19
   6   2   7    1.25    0.22
  -7  -2  -7    0.32    0.13
   7   2   7    0.36    0.14
  -8  -2  -7   25.77    0.96
   8   2   7   25.62    0.98
  -9  -2  -7    0.41    0.17
   8  -3  -7    1.14    0.26
   8  -3  -7    0.52    8.06
  -8   3   7    1.10    0.26
   7  -3  -7    1.64    7.24
   6  -3  -7    2.47    0.37
   6  -3  -7    1.03    5.88
   6  -3  -7    2.33    0.30
  -6   3   7    2.92    0.39
  -6   3   7    3.49    0.63
  -6   3   7    2.64    0.32
   5  -3  -7    6.25    0.48
   5  -3  -7   -1.88    4.69
   5  -3  -7    6.59    0.41
  -5   3   7    6.51    0.41
  -5   3   7    6.25    0.66
  -5   3   7    6.38    0.48
  -5   3   7    7.20    0.74
   4  -3  -7    4.18    5.43
   4  -3  -7    9.70    0.55
   4  -3  -7    9.30    0.45
  -4   3   7    9.01    0.72
  -4   3   7    9.07    0.76
  -4   3   7    9.95    0.46
  -4   3   7    9.54    0.54
   3  -3  -7   83.13    1.86
   3  -3  -7   80.72    2.10
  -3   3   7   79.79    2.09
  -3   3   7   83.56    1.87
  -3   3   7   83.00    2.99
  -3   3   7   83.94    2.99
   2  -3  -7   32.42    0.97
   2  -3  -7   31.76    0.83
  -2   3   7   31.22    0.62
  -2   3   7   33.42    0.84
  -2   3   7   30.97    1.40
  -2   3   7   30.59    1.39
  -2   3   7   31.11    0.96
   1  -3  -7    1.91    0.17
   1  -3  -7    2.18    0.15
   1  -3  -7    2.23    0.14
  -1   3   7    1.09    0.31
  -1   3   7    2.03    0.18
  -1   3   7    2.13    0.12
  -1   3   7    2.03    0.15
   0  -3  -7   79.69    1.80
   0  -3  -7   80.61    1.51
   0  -3  -7   80.67    1.63
   0   3   7   80.80    1.49
   0   3   7   79.73    1.63
  -1  -3  -7   18.37    0.43
  -1  -3  -7   18.88    0.54
  -1  -3  -7   18.66    0.49
   1   3   7   18.14    0.53
  -2  -3  -7   30.04    0.80
  -2  -3  -7   29.92    0.65
  -2  -3  -7   26.68    1.23
  -2  -3  -7   29.59    0.54
   2   3   7   29.33    0.80
  -3  -3  -7    6.08    0.21
  -3  -3  -7    5.67    0.57
  -3  -3  -7    5.80    0.31
   3   3   7    5.74    0.31
  -4  -3  -7    8.85    0.42
  -4  -3  -7    7.78    0.49
   4   3   7    8.34    0.41
  -5  -3  -7   11.61    0.53
   5   3   7   12.61    0.56
  -6  -3  -7    3.39    0.29
   6   3   7    2.44    0.30
  -7  -3  -7    0.66    0.18
   7   3   7    0.81    0.20
  -8  -3  -7    1.44    0.26
   8   3   7    0.80    0.23
  -9  -3  -7    2.99    0.39
   9   3   7    3.64    0.45
   8  -4  -7    1.82    8.78
   7  -4  -7   -1.88    6.44
   7  -4  -7    0.08    0.12
  -7   4   7    0.04    0.11
  -7   4   7    0.11    0.51
   6  -4  -7    8.09    0.50
   6  -4  -7   -0.86    6.06
  -6   4   7    9.52    0.53
  -6   4   7   10.03    0.93
   5  -4  -7    4.35    6.45
   5  -4  -7    3.37    0.42
   5  -4  -7    3.67    0.32
  -5   4   7    4.94    0.63
  -5   4   7    4.15    0.68
  -5   4   7    3.54    0.42
  -5   4   7    3.22    0.34
   4  -4  -7    8.91    0.45
   4  -4  -7    3.43    5.41
   4  -4  -7    8.99    0.55
  -4   4   7   10.06    0.47
  -4   4   7    9.51    0.82
  -4   4   7    8.51    0.53
  -4   4   7    9.71    0.84
   3  -4  -7    6.50    0.35
   3  -4  -7    3.84    5.06
   3  -4  -7    6.36    0.43
  -3   4   7    6.37    0.35
  -3   4   7    7.15    0.72
  -3   4   7    6.98    0.70
  -3   4   7    6.25    0.42
   2  -4  -7    1.69    0.22
   2  -4  -7    2.21    0.19
  -2   4   7    2.14    0.25
  -2   4   7    1.59    0.42
  -2   4   7    1.77    0.10
  -2   4   7    1.97    0.20
  -2   4   7    1.57    0.41
   1  -4  -7    1.10    0.14
   1  -4  -7    1.37    0.18
   1  -4  -7    1.09    0.12
  -1   4   7    1.21    0.17
  -1   4   7    1.20    0.15
  -1   4   7    1.30    0.10
  -1   4   7    0.45    0.30
   0  -4  -7    2.43    0.15
   0  -4  -7    2.58    0.16
   0  -4  -7    2.39    0.17
   0   4   7    2.41    0.18
   0   4   7    2.14    0.13
  -1  -4  -7    0.33    0.07
  -1  -4  -7    0.30    0.06
  -1  -4  -7    0.40    0.07
  -1  -4  -7    0.32    0.30
  -1  -4  -7    0.30    0.08
   1   4   7    0.26    0.06
  -2  -4  -7  100.92    2.15
  -2  -4  -7   97.47    1.74
  -2  -4  -7   92.31    3.32
  -2  -4  -7   96.47    1.96
  -2  -4  -7  100.22    1.92
  -3  -4  -7    1.81    0.13
  -3  -4  -7    1.88    0.21
  -3  -4  -7    1.68    0.14
  -3  -4  -7    2.59    0.46
  -3  -4  -7    2.40    0.39
  -4  -4  -7    0.65    0.24
  -4  -4  -7    0.54    0.13
  -4  -4  -7    0.72    0.31
  -4  -4  -7    0.61    0.07
  -5  -4  -7    4.65    0.34
  -6  -4  -7    7.91    0.47
  -7  -4  -7   11.94    0.62
   7   4   7   11.63    0.63
  -8  -4  -7    0.11    0.13
  -9  -4  -7    0.32    0.18
   9   4   7    0.77    0.25
 -10  -4  -7    4.30    0.50
   7  -5  -7   -5.62    5.76
   7  -5  -7    0.06    0.13
  -7   5   7   -0.03    0.10
  -7   5   7    0.43    0.64
   6  -5  -7   -2.82    6.31
   6  -5  -7    0.68    0.19
  -6   5   7    1.48    0.64
   5  -5  -7   -0.02    0.13
   5  -5  -7   -0.09    0.07
   5  -5  -7    2.76    6.26
  -5   5   7   -0.09    0.50
  -5   5   7    0.17    0.37
  -5   5   7   -0.03    0.13
  -5   5   7    0.04    0.10
   4  -5  -7    0.16    0.14
   4  -5  -7    0.17    0.10
   4  -5  -7   -2.51    4.69
  -4   5   7    0.02    0.45
  -4   5   7    0.61    0.43
  -4   5   7    0.15    0.10
  -4   5   7    0.24    0.14
   3  -5  -7    4.09    0.36
   3  -5  -7    4.41    0.30
   3  -5  -7    2.71    5.41
  -3   5   7    4.42    0.31
  -3   5   7    3.17    0.60
  -3   5   7    4.50    0.37
  -3   5   7    4.12    0.64
   2  -5  -7   -0.05    0.07
   2  -5  -7   -0.77    3.71
   2  -5  -7   -0.01    0.05
  -2   5   7    0.06    0.41
  -2   5   7    0.00    0.03
  -2   5   7   -0.17    0.36
  -2   5   7   -0.01    0.07
   1  -5  -7   22.92    0.78
   1  -5  -7   25.14    0.62
   1  -5  -7   23.93    0.69
  -1   5   7   18.42    1.19
  -1   5   7   23.22    1.28
  -1   5   7   23.44    0.55
  -1   5   7   24.54    0.80
   0  -5  -7    0.43    0.10
   0  -5  -7    0.48    0.09
   0  -5  -7    0.27    0.09
   0   5   7    0.42    0.07
   0   5   7   -0.11    0.34
   0   5   7    0.57    0.11
  -1  -5  -7    0.53    0.34
  -1  -5  -7    0.23    0.06
  -1  -5  -7    0.31    0.08
  -1  -5  -7    0.30    0.09
   1   5   7    0.21    0.06
  -2  -5  -7    6.20    0.28
  -2  -5  -7    6.26    0.33
  -2  -5  -7    6.28    0.21
  -2  -5  -7    5.94    0.51
  -2  -5  -7    5.89    0.28
  -2  -5  -7    5.91    0.78
   2   5   7    6.14    0.23
  -3  -5  -7    0.26    0.07
  -3  -5  -7    0.30    0.11
  -3  -5  -7    0.20    0.08
  -3  -5  -7    0.17    0.31
  -3  -5  -7    0.20    0.25
  -4  -5  -7    1.49    0.14
  -4  -5  -7    1.33    0.42
  -4  -5  -7    1.31    0.22
  -4  -5  -7    2.24    0.40
  -5  -5  -7    3.64    0.49
  -5  -5  -7    2.88    0.46
  -5  -5  -7    2.46    0.31
  -6  -5  -7    3.49    0.48
  -6  -5  -7    2.18    0.30
  -7  -5  -7    8.46    0.54
  -8  -5  -7    7.51    0.53
   8   5   7    9.41    0.61
  -9  -5  -7   -0.13    0.11
   9   5   7    0.10    0.17
   7  -6  -7   -3.78    7.43
   7  -6  -7    1.24    0.27
   6  -6  -7    5.89    9.45
   5  -6  -7    0.00    0.08
   5  -6  -7   -2.33    4.76
  -5   6   7    0.14    0.55
  -5   6   7   -0.11    0.42
   4  -6  -7   -4.19    4.01
   4  -6  -7    4.99    0.36
   4  -6  -7    6.33    0.50
  -4   6   7    4.15    0.74
  -4   6   7    4.97    0.73
  -4   6   7    4.54    0.43
   3  -6  -7    0.40    5.20
   3  -6  -7    0.58    0.19
   3  -6  -7    0.44    0.14
  -3   6   7    0.61    0.18
  -3   6   7    0.35    0.53
  -3   6   7    0.55    0.45
   2  -6  -7    4.15    0.30
   2  -6  -7    1.55    4.96
   2  -6  -7    3.99    0.34
  -2   6   7    4.32    0.16
  -2   6   7    2.77    0.58
  -2   6   7    4.48    0.36
   1  -6  -7    6.22    0.39
   1  -6  -7    6.29    0.30
   1  -6  -7    6.53    0.35
  -1   6   7    6.19    0.24
  -1   6   7    6.93    0.41
  -1   6   7    6.35    0.82
   0  -6  -7   16.89    0.57
   0  -6  -7   17.05    0.51
   0   6   7   16.93    0.47
  -1  -6  -7    8.68    0.32
  -1  -6  -7    8.26    0.37
  -1  -6  -7    8.73    0.39
  -1  -6  -7    8.73    0.96
   1   6   7    9.30    0.32
  -2  -6  -7    1.03    0.16
  -2  -6  -7    0.70    0.10
  -2  -6  -7    1.12    0.34
  -2  -6  -7    0.73    0.15
  -2  -6  -7    1.01    0.15
  -2  -6  -7    1.04    0.37
   2   6   7    0.71    0.11
  -3  -6  -7    6.00    0.76
  -3  -6  -7    4.80    0.35
  -3  -6  -7    4.66    0.27
  -3  -6  -7    4.80    0.15
  -3  -6  -7    4.70    0.28
  -3  -6  -7    5.15    0.56
  -4  -6  -7    9.23    1.04
  -4  -6  -7   11.31    0.75
  -4  -6  -7   10.42    0.54
  -4  -6  -7   11.33    0.39
  -5  -6  -7   28.96    1.03
  -5  -6  -7   30.58    1.49
  -5  -6  -7   31.76    0.68
  -5  -6  -7   30.20    1.37
  -6  -6  -7    1.77    0.30
  -6  -6  -7    2.28    0.46
  -7  -6  -7    1.35    0.27
  -7  -6  -7    1.95    0.43
  -8  -6  -7    0.00    0.10
  -9  -6  -7    0.20    0.16
   9   6   7   -0.02    0.15
   6  -7  -7    4.36    8.30
   5  -7  -7   -0.93    5.90
   5  -7  -7    2.16    0.31
  -5   7   7    1.82    0.74
  -5   7   7    2.95    0.70
   4  -7  -7    1.19    6.33
   4  -7  -7    0.69    0.18
  -4   7   7    0.35    0.60
  -4   7   7    0.92    0.56
   3  -7  -7    0.39    0.17
   3  -7  -7    0.27    0.13
   3  -7  -7    2.18    5.97
  -3   7   7    0.06    0.47
  -3   7   7    0.41    0.18
  -3   7   7   -0.05    0.61
   2  -7  -7   13.85    8.18
   2  -7  -7    8.73    0.46
   2  -7  -7    9.43    0.55
  -2   7   7   10.08    1.05
  -2   7   7    9.29    0.56
   1  -7  -7    4.33    0.31
   1  -7  -7    4.75    0.28
  -1   7   7    4.68    0.22
   0  -7  -7    1.60    0.21
   0  -7  -7    1.53    0.18
   0   7   7    1.61    0.16
  -1  -7  -7   18.72    0.65
  -1  -7  -7   19.98    0.67
  -1  -7  -7   18.85    0.56
   1   7   7   19.05    0.54
  -2  -7  -7    7.10    0.40
  -2  -7  -7    6.90    0.37
  -2  -7  -7    7.19    0.37
  -2  -7  -7    8.79    1.01
  -2  -7  -7    6.93    0.29
   2   7   7    7.17    0.30
  -3  -7  -7   19.57    1.33
  -3  -7  -7   18.18    0.64
  -3  -7  -7   18.09    0.44
  -3  -7  -7   17.96    1.06
  -3  -7  -7   18.45    0.61
  -3  -7  -7   17.42    0.70
  -4  -7  -7    0.74    0.34
  -4  -7  -7    0.63    0.44
  -4  -7  -7    0.14    0.12
  -4  -7  -7    0.18    0.09
  -5  -7  -7    8.49    0.71
  -5  -7  -7    8.54    0.33
  -5  -7  -7    9.60    0.56
  -5  -7  -7    8.84    0.96
  -6  -7  -7    6.99    0.66
  -6  -7  -7    6.39    0.48
  -6  -7  -7    6.80    0.76
  -7  -7  -7    3.57    0.44
  -7  -7  -7    4.66    0.67
  -8  -7  -7   -0.06    0.34
  -8  -7  -7    0.02    0.13
  -9  -7  -7    1.08    0.28
   5  -8  -7   -1.88    7.04
   5  -8  -7    0.54    0.19
  -5   8   7    0.26    0.70
  -5   8   7    0.19    0.55
   4  -8  -7   -4.39    6.20
   4  -8  -7    0.51    0.19
  -4   8   7   -0.37    0.67
  -4   8   7   -0.01    0.56
   3  -8  -7    1.73    7.26
  -3   8   7    0.05    0.54
   2  -8  -7    7.89    0.47
  -2   8   7    9.15    1.10
   1  -8  -7    1.81    0.25
   1  -8  -7    1.50    0.20
  -1   8   7    1.45    0.15
   0  -8  -7    0.05    0.08
   0  -8  -7    0.20    0.09
   0   8   7    0.12    0.07
  -1  -8  -7    0.07    0.07
  -1  -8  -7    0.21    0.10
   1   8   7    0.14    0.08
  -2  -8  -7    0.51    0.15
  -2  -8  -7    0.38    0.13
  -2  -8  -7    0.61    0.12
   2   8   7    0.47    0.11
  -3  -8  -7    6.72    0.44
  -3  -8  -7    6.27    0.37
  -3  -8  -7    8.89    1.10
  -3  -8  -7    6.10    0.38
  -3  -8  -7    6.54    0.25
  -4  -8  -7    0.96    0.51
  -4  -8  -7    0.98    0.22
  -4  -8  -7    0.97    0.18
  -4  -8  -7    1.22    0.46
  -5  -8  -7    4.65    0.85
  -5  -8  -7    2.88    0.22
  -5  -8  -7    2.71    0.37
  -5  -8  -7    3.89    0.66
  -6  -8  -7    1.01    0.26
  -6  -8  -7    1.80    0.50
  -6  -8  -7    1.47    0.57
  -7  -8  -7    4.51    0.72
  -7  -8  -7    3.82    0.47
  -8  -8  -7    0.00    0.40
  -8  -8  -7    0.00    0.15
   4  -9  -7    0.83    8.40
   3  -9  -7    0.11    0.13
  -3   9   7   -0.38    0.58
   2  -9  -7    0.43    0.17
  -2   9   7    0.06    0.65
   1  -9  -7    0.31    0.13
   1  -9  -7    0.66    0.19
  -1   9   7    0.54    0.10
   0  -9  -7    3.20    0.36
   0  -9  -7    2.92    0.28
   0   9   7    2.80    0.20
  -1  -9  -7    0.58    0.17
  -1  -9  -7    0.47    0.12
   1   9   7    0.43    0.11
  -2  -9  -7    1.42    0.24
  -2  -9  -7    1.16    0.16
  -2  -9  -7    1.97    0.27
   2   9   7    1.01    0.16
  -3  -9  -7    8.50    0.32
  -3  -9  -7    8.73    0.47
  -3  -9  -7    8.66    0.50
  -3  -9  -7   11.42    1.29
   3   9   7    8.53    0.38
  -4  -9  -7    2.39    0.75
  -4  -9  -7    1.62    0.23
  -4  -9  -7    1.55    0.28
  -5  -9  -7    3.11    0.78
  -5  -9  -7    3.73    0.73
  -5  -9  -7    2.83    0.28
  -5  -9  -7    2.33    0.36
  -6  -9  -7    0.97    0.57
  -6  -9  -7    0.81    0.47
  -6  -9  -7    0.23    0.17
  -7  -9  -7    0.66    0.49
  -7  -9  -7    0.95    0.56
  -7  -9  -7    0.92    0.27
  -8  -9  -7    1.49    0.34
   3 -10  -7    0.17    0.16
   2 -10  -7    0.35    0.18
  -2  10   7   -0.02    0.72
   1 -10  -7    0.15    0.13
   1 -10  -7    0.13    0.12
   0 -10  -7    0.30    0.13
   0 -10  -7    0.63    0.19
   0  10   7    0.33    0.10
  -1 -10  -7    5.84    0.34
  -1 -10  -7    6.90    0.47
   1  10   7    6.70    0.33
  -2 -10  -7    3.85    0.40
  -2 -10  -7    4.65    0.40
  -2 -10  -7    4.18    0.28
   2  10   7    4.63    0.29
  -3 -10  -7    1.51    0.26
  -3 -10  -7    1.76    0.18
  -3 -10  -7    1.61    0.29
   3  10   7    1.43    0.19
  -4 -10  -7    0.65    0.18
  -4 -10  -7    0.54    0.63
  -5 -10  -7    0.93    0.26
  -5 -10  -7    1.90    0.77
  -5 -10  -7    1.04    0.20
  -6 -10  -7    6.44    0.96
  -6 -10  -7    8.10    1.08
  -6 -10  -7    5.79    0.33
  -6 -10  -7    4.83    0.56
  -7 -10  -7   -0.20    0.14
  -7 -10  -7   -0.19    0.52
   1 -11  -7   -0.10    0.12
   1 -11  -7    0.08    0.12
   0 -11  -7    0.16    0.15
   0 -11  -7    0.12    0.12
   0  11   7    0.22    0.10
  -1 -11  -7   -0.01    0.10
  -1 -11  -7   -0.02    0.12
   1  11   7    0.05    0.09
  -2 -11  -7    1.31    0.28
  -2 -11  -7    1.35    0.20
   2  11   7    0.99    0.17
  -3 -11  -7    0.59    0.20
  -3 -11  -7    0.47    0.19
  -3 -11  -7    0.27    0.10
   3  11   7    0.23    0.12
  -4 -11  -7   -0.09    0.11
  -5 -11  -7   -0.05    0.11
  -5 -11  -7    0.29    0.58
  -6 -11  -7    0.61    0.26
  -5  -9   8    0.15    0.17
  -5  -9   8    0.18    0.19
   4   9  -8    4.85    0.32
  -4  -9   8    4.86    0.56
  -4  -9   8    4.28    0.52
   3   9  -8    0.05    0.09
  -3  -9   8    0.00    0.14
  -3  -9   8    0.02    0.16
  -3  -9   8    0.00    0.09
   2   9  -8    1.68    0.20
  -2  -9   8    1.72    0.23
  -2  -9   8    1.89    0.34
  -2  -9   8    2.00    0.35
   1   9  -8    0.24    0.10
  -1  -9   8    0.54    0.21
  -1  -9   8    0.32    0.13
  -1  -9   8    0.22    0.18
   0  -9   8    3.05    0.41
   0  -9   8    3.00    0.32
   0  -9   8    2.57    0.38
   1  -9   8    0.47    0.21
  -6  -8   8    3.96    0.53
  -6  -8   8    4.59    0.54
  -5  -8   8    0.45    0.71
  -5  -8   8    1.11    0.28
  -5  -8   8    1.25    0.30
   4   8  -8    2.33    0.25
  -4  -8   8    3.16    0.42
  -4  -8   8    2.51    0.40
   3   8  -8    1.47    0.20
  -3  -8   8    1.89    0.20
  -3  -8   8    1.86    0.34
  -3  -8   8    2.20    0.34
   2   8  -8    1.42    0.18
  -2  -8   8    1.76    0.21
  -2  -8   8    1.04    0.25
  -2  -8   8    1.55    0.30
   1   8  -8    1.69    0.18
  -1  -8   8    2.30    0.26
  -1  -8   8    1.31    0.26
  -1  -8   8    2.38    0.35
   0   8  -8    0.03    0.06
   0  -8   8   -0.05    0.11
   0  -8   8    0.09    0.10
   0  -8   8    0.03    0.13
   1  -8   8    0.13    0.15
  -2   8  -8    0.61    0.78
   7   7  -8    2.07    0.37
  -7  -7   8    1.77    0.35
  -7  -7   8    0.38    0.60
  -7  -7   8    1.98    0.40
  -7  -7   8    0.43    0.55
   6   7  -8    0.13    0.17
  -6  -7   8    0.20    0.17
  -6  -7   8    0.07    0.15
  -6  -7   8    0.61    0.63
  -5  -7   8    0.11    0.63
  -5  -7   8    1.26    0.29
  -5  -7   8    1.57    0.30
   4   7  -8    0.04    0.09
  -4  -7   8    0.01    0.06
  -4  -7   8   -0.46    0.60
  -4  -7   8    0.03    0.12
  -4  -7   8    0.03    0.12
   3   7  -8    0.60    0.17
  -3  -7   8    0.39    0.18
  -3  -7   8    1.02    0.15
  -3  -7   8    0.76    0.21
   2   7  -8    0.43    0.16
   2   7  -8    0.44    0.11
  -2  -7   8    0.71    0.21
  -2  -7   8    0.73    0.20
  -2  -7   8    0.63    0.14
   1   7  -8    2.30    0.33
   1   7  -8    2.18    0.20
  -1  -7   8    2.60    0.25
  -1  -7   8    1.61    0.26
  -1  -7   8    2.60    0.33
   0   7  -8   -0.04    0.05
   0  -7   8   -0.06    0.10
   0  -7   8   -0.03    0.08
   0  -7   8    0.00    0.09
  -1   7  -8    0.18    0.71
   1  -7   8    0.62    0.18
   1  -7   8    0.65    0.19
  -2   7  -8   -0.07    0.63
  -3   7  -8    0.74    0.73
  -3   7  -8    0.84    0.69
  -4   7  -8   -0.04    0.65
  -4   7  -8    0.18    0.72
   8   6  -8    0.63    0.26
  -8  -6   8    0.43    0.23
  -8  -6   8    1.11    0.29
   7   6  -8    0.37    0.23
  -7  -6   8    0.21    0.16
  -7  -6   8    0.05    0.58
  -7  -6   8    0.57    0.22
  -7  -6   8    0.08    0.47
   6   6  -8    0.28    0.20
  -6  -6   8    0.34    0.17
  -6  -6   8    0.30    0.18
  -6  -6   8   -0.03    0.52
  -6  -6   8    0.02    0.42
   5   6  -8    3.85    0.42
  -5  -6   8    1.12    0.59
  -5  -6   8    2.72    0.38
  -5  -6   8    3.24    0.40
   4   6  -8    5.36    0.40
   4   6  -8    5.32    0.40
  -4  -6   8    5.35    0.44
  -4  -6   8    6.32    0.46
  -4  -6   8    3.36    0.77
  -4  -6   8    5.64    0.21
   3   6  -8    6.68    0.33
   3   6  -8    6.71    0.44
  -3  -6   8    6.91    0.30
  -3  -6   8    7.29    0.47
  -3  -6   8    7.05    0.47
   2   6  -8    2.02    0.27
   2   6  -8    1.64    0.18
  -2  -6   8    1.82    0.19
  -2  -6   8    1.67    0.26
  -2  -6   8    1.49    0.24
   1   6  -8    0.60    0.17
   1   6  -8    1.00    0.14
  -1  -6   8    0.76    0.14
  -1  -6   8    0.70    0.18
  -1  -6   8    0.59    0.16
   0   6  -8    4.79    0.23
   0   6  -8    4.42    0.38
   0  -6   8    5.28    0.36
   0  -6   8    5.20    0.38
   0  -6   8    5.01    0.29
  -1   6  -8    0.34    0.61
  -1   6  -8    0.42    0.16
  -1   6  -8    0.26    0.06
   1  -6   8    0.15    0.11
   1  -6   8    0.23    0.13
  -2   6  -8    0.29    0.59
  -2   6  -8    0.25    0.59
   2  -6   8    0.21    0.13
  -3   6  -8    2.53    0.74
  -3   6  -8    3.36    0.83
  -4   6  -8    1.60    0.71
  -4   6  -8    0.96    0.52
  -5   6  -8    0.28    0.62
   8   5  -8    1.56    0.35
  -8  -5   8    1.74    0.36
  -8  -5   8    0.34    0.56
   7   5  -8   -0.04    0.16
  -7  -5   8   -0.05    0.12
  -7  -5   8   -0.03    0.12
  -7  -5   8    0.15    0.49
  -7  -5   8   -0.05    0.45
   6   5  -8    0.06    0.16
  -6  -5   8   -0.01    0.11
  -6  -5   8   -0.06    0.40
  -6  -5   8   -0.06    0.10
  -6  -5   8   -0.19    0.43
   5   5  -8    0.11    0.11
   5   5  -8   -0.01    0.14
  -5  -5   8    0.09    0.11
  -5  -5   8    0.10    0.48
  -5  -5   8   -0.13    0.41
  -5  -5   8    0.09    0.12
   4   5  -8    0.13    0.13
   4   5  -8    0.11    0.10
  -4  -5   8    0.02    0.47
  -4  -5   8    0.04    0.11
  -4  -5   8   -0.02    0.09
  -4  -5   8    0.19    0.37
   3   5  -8    4.05    0.24
   3   5  -8    4.74    0.34
   3   5  -8    4.31    0.34
  -3  -5   8    4.48    0.35
  -3  -5   8    5.13    0.37
  -3  -5   8    5.40    0.83
  -3  -5   8    4.38    0.22
   2   5  -8   -0.01    0.07
   2   5  -8    0.02    0.09
   2   5  -8    0.15    0.07
  -2  -5   8    0.33    0.09
  -2  -5   8    0.02    0.08
  -2  -5   8   -0.02    0.07
   1   5  -8    0.14    0.12
   1   5  -8    0.06    0.06
   1   5  -8    0.03    0.07
  -1  -5   8    0.15    0.10
  -1  -5   8    0.02    0.08
  -1  -5   8    0.04    0.06
   0   5  -8   30.67    0.71
   0   5  -8   28.51    1.03
   0   5  -8   30.54    1.70
   0  -5   8   30.36    0.79
   0  -5   8   31.99    0.98
   0  -5   8   31.47    0.93
  -1   5  -8    5.14    0.19
  -1   5  -8    4.28    0.77
  -1   5  -8    6.56    0.96
  -1   5  -8    4.29    0.36
   1  -5   8    5.25    0.35
   1  -5   8    5.82    0.35
  -2   5  -8    0.67    0.55
  -2   5  -8    0.93    0.22
  -2   5  -8    1.17    0.57
   2  -5   8    0.83    0.17
   2  -5   8    0.86    0.18
  -3   5  -8    0.12    0.51
  -3   5  -8    0.09    0.12
  -3   5  -8    0.71    0.54
   3  -5   8    0.48    0.15
  -4   5  -8    1.87    0.65
  -4   5  -8    2.67    0.66
  -5   5  -8    2.44    0.76
  -6   5  -8    1.77    0.72
   9   4  -8    0.19    0.23
  -9  -4   8    0.01    0.17
   8   4  -8    3.50    0.46
  -8  -4   8    3.73    0.49
  -8  -4   8    1.99    0.62
   7   4  -8    2.38    0.36
  -7  -4   8    1.33    0.49
  -7  -4   8    2.23    0.37
  -7  -4   8    2.51    0.37
   6   4  -8    5.45    0.41
   6   4  -8    5.07    0.43
  -6  -4   8    4.49    0.72
  -6  -4   8    4.67    0.49
  -6  -4   8    4.95    0.42
  -6  -4   8    3.53    0.64
   5   4  -8    0.84    0.19
   5   4  -8    0.84    0.22
  -5  -4   8    0.59    0.45
  -5  -4   8    0.76    0.19
  -5  -4   8    0.62    0.48
  -5  -4   8    0.96    0.22
   4   4  -8    5.23    0.37
   4   4  -8    5.87    0.40
  -4  -4   8    5.69    0.39
  -4  -4   8    5.92    0.72
  -4  -4   8    5.39    0.40
  -4  -4   8    6.61    0.78
   3   4  -8   14.33    0.60
   3   4  -8   15.29    0.65
   3   4  -8   14.35    0.47
  -3  -4   8   15.60    1.10
  -3  -4   8   15.08    0.42
  -3  -4   8   14.99    1.02
  -3  -4   8   15.29    0.63
  -3  -4   8   15.37    0.63
   2   4  -8    3.98    0.22
   2   4  -8    4.27    0.33
   2   4  -8    4.34    0.31
   2   4  -8    4.14    0.28
  -2  -4   8    4.36    0.22
  -2  -4   8    4.02    0.30
  -2  -4   8    4.98    0.73
  -2  -4   8    4.64    0.32
   1   4  -8   18.96    0.52
   1   4  -8   18.23    0.71
   1   4  -8   18.79    0.79
  -1  -4   8   19.71    0.66
  -1  -4   8   18.36    0.67
  -1  -4   8   19.46    0.54
   0   4  -8    0.28    0.45
   0   4  -8   -0.01    0.08
   0   4  -8    0.02    0.08
   0   4  -8   -0.03    0.05
   0  -4   8    0.07    0.08
   0  -4   8    0.01    0.07
   0  -4   8    0.00    0.06
   0  -4   8    0.03    0.07
  -1   4  -8   15.60    0.67
  -1   4  -8   16.69    1.06
  -1   4  -8   15.75    0.76
  -1   4  -8   16.32    0.39
  -1   4  -8   16.06    1.11
   1  -4   8   17.14    0.58
   1  -4   8   17.24    0.63
  -2   4  -8    4.21    0.73
  -2   4  -8    3.31    0.68
  -2   4  -8    2.59    0.32
   2  -4   8    2.64    0.28
   2  -4   8    3.23    0.24
  -3   4  -8    4.86    0.40
  -3   4  -8    5.53    0.77
  -3   4  -8    4.76    0.75
   3  -4   8    3.87    0.31
  -4   4  -8    1.33    0.54
  -4   4  -8    1.19    0.26
  -4   4  -8    1.55    0.55
   4  -4   8    0.91    0.19
  -5   4  -8    0.73    0.53
  -6   4  -8    5.05    0.87
   9   3  -8    0.64    0.25
  -9  -3   8    0.68    0.26
   8   3  -8    0.65    0.26
  -8  -3   8    0.10    0.45
  -8  -3   8    0.85    0.23
   7   3  -8    0.46    0.18
   7   3  -8    0.10    0.16
  -7  -3   8    0.58    0.20
  -7  -3   8    0.30    0.39
   6   3  -8    5.34    0.42
   6   3  -8    5.93    0.43
  -6  -3   8    5.85    0.73
  -6  -3   8    5.69    0.70
  -6  -3   8    5.91    0.45
  -6  -3   8    5.81    0.42
   5   3  -8   27.46    0.99
   5   3  -8   28.55    1.00
  -5  -3   8   28.61    1.01
  -5  -3   8   26.99    0.94
  -5  -3   8   29.50    1.49
  -5  -3   8   28.80    1.47
   4   3  -8   43.09    1.28
   4   3  -8   43.44    1.27
  -4  -3   8   41.78    1.90
  -4  -3   8   42.16    1.89
  -4  -3   8   43.94    1.26
  -4  -3   8   41.88    1.20
   3   3  -8   17.59    0.66
   3   3  -8   17.98    0.69
  -3  -3   8   17.65    1.10
  -3  -3   8   18.35    0.66
  -3  -3   8   17.57    1.06
  -3  -3   8   16.99    0.65
  -3  -3   8   17.56    0.44
   2   3  -8    1.20    0.18
   2   3  -8    1.68    0.22
   2   3  -8    1.39    0.15
  -2  -3   8    1.37    0.13
  -2  -3   8    0.93    0.33
  -2  -3   8    1.74    0.47
  -2  -3   8    1.19    0.18
  -2  -3   8    1.59    0.20
   1   3  -8    6.69    0.40
   1   3  -8    6.78    0.37
   1   3  -8    7.14    0.27
  -1  -3   8    6.45    0.34
  -1  -3   8    6.77    0.27
  -1  -3   8    6.84    0.27
  -1  -3   8    6.91    0.34
   0   3  -8   70.43    1.37
   0   3  -8   71.95    2.74
   0   3  -8   70.40    1.79
   0   3  -8   71.90    1.98
   0  -3   8   72.19    1.42
   0  -3   8   68.85    1.66
   0  -3   8   70.50    1.58
  -1   3  -8    5.06    0.65
  -1   3  -8    5.01    0.37
  -1   3  -8    5.62    0.18
  -1   3  -8    5.08    0.33
  -1   3  -8    4.46    0.55
   1  -3   8    5.18    0.27
   1  -3   8    5.17    0.32
  -2   3  -8    0.28    0.11
  -2   3  -8    0.61    0.37
  -2   3  -8    0.20    0.39
   2  -3   8    0.24    0.11
  -3   3  -8   19.06    1.07
  -3   3  -8   18.55    1.10
  -3   3  -8   17.54    0.77
   3  -3   8   19.02    0.67
  -4   3  -8    0.41    0.39
  -4   3  -8    0.40    0.15
  -4   3  -8    0.38    0.43
   4  -3   8    0.49    0.14
  -5   3  -8    0.59    0.19
  -5   3  -8    0.64    0.42
   5  -3   8    0.46    0.14
  -6   3  -8    2.16    0.54
   9   2  -8    5.39    0.58
   9   2  -8    5.68    0.52
  -9  -2   8    5.51    0.57
  -9  -2   8    3.27    0.68
   8   2  -8    0.14    0.19
  -8  -2   8    0.06    0.44
  -8  -2   8    0.08    0.13
   7   2  -8    0.47    0.18
   7   2  -8    0.28    0.16
  -7  -2   8    0.29    0.39
  -7  -2   8    0.34    0.17
   6   2  -8    0.80    0.22
   6   2  -8    1.06    0.22
  -6  -2   8    0.91    0.48
  -6  -2   8    0.77    0.20
  -6  -2   8    0.78    0.40
   5   2  -8    0.48    0.14
   5   2  -8    0.38    0.16
  -5  -2   8    0.42    0.12
  -5  -2   8    0.33    0.13
  -5  -2   8    0.06    0.36
  -5  -2   8    0.31    0.35
   4   2  -8   15.17    0.63
   4   2  -8   15.61    0.66
  -4  -2   8   16.32    0.60
  -4  -2   8   16.12    1.00
  -4  -2   8   16.76    0.67
  -4  -2   8   16.34    1.02
   3   2  -8    6.17    0.37
   3   2  -8    6.63    0.36
  -3  -2   8    6.91    0.37
  -3  -2   8    6.72    0.62
  -3  -2   8    6.67    0.20
  -3  -2   8    6.64    0.34
  -3  -2   8    6.51    0.65
   2   2  -8    9.05    0.41
   2   2  -8    9.18    0.43
   2   2  -8    8.98    0.31
  -2  -2   8    9.54    0.39
  -2  -2   8    9.06    0.40
  -2  -2   8    8.93    0.71
  -2  -2   8    8.54    0.28
  -2  -2   8    8.55    0.28
   1   2  -8   26.65    0.88
   1   2  -8   27.40    0.84
   1   2  -8   26.19    0.63
  -1  -2   8   26.60    0.76
  -1  -2   8   26.55    0.74
  -1  -2   8   26.85    0.62
  -1  -2   8   26.88    1.31
   0   2  -8    5.91    0.68
   0   2  -8    6.54    0.23
   0   2  -8    6.88    0.35
   0   2  -8    6.88    0.39
   0  -2   8    6.82    0.29
   0  -2   8    6.73    0.25
   0  -2   8    6.55    0.32
  -1   2  -8    2.16    0.20
  -1   2  -8    2.08    0.11
  -1   2  -8    3.49    0.52
  -1   2  -8    2.63    0.45
  -1   2  -8    2.59    0.25
   1  -2   8    2.34    0.20
   1  -2   8    2.23    0.16
   1  -2   8    2.74    0.16
  -2   2  -8   41.56    1.19
  -2   2  -8   41.87    1.77
  -2   2  -8   40.07    1.68
   2  -2   8   42.27    1.11
  -3   2  -8   50.97    1.98
  -3   2  -8   50.84    1.99
  -3   2  -8   50.95    1.45
   3  -2   8   52.85    1.34
  -4   2  -8    7.30    0.46
  -4   2  -8    7.22    0.71
   4  -2   8    7.96    0.42
  -5   2  -8    4.77    0.60
  -5   2  -8    4.15    0.38
   5  -2   8    4.39    0.33
  -6   2  -8    0.05    0.12
   6  -2   8   -0.04    0.09
   9   1  -8    0.12    0.16
  -9  -1   8   -0.10    0.12
   8   1  -8    0.18    0.18
   8   1  -8    0.13    0.14
  -8  -1   8   -0.12    0.08
  -8  -1   8   -0.48    0.39
   7   1  -8    3.55    0.42
   7   1  -8    3.84    0.37
  -7  -1   8    4.84    0.65
  -7  -1   8    3.81    0.43
   6   1  -8   10.11    0.56
   6   1  -8   10.28    0.58
  -6  -1   8   11.88    0.92
  -6  -1   8    9.41    0.55
   5   1  -8   13.66    0.61
   5   1  -8   12.81    0.62
  -5  -1   8   13.82    0.61
  -5  -1   8   13.45    0.91
  -5  -1   8   12.70    0.87
   4   1  -8   14.72    0.60
   4   1  -8   15.58    0.64
  -4  -1   8   13.70    0.90
  -4  -1   8   15.21    0.54
  -4  -1   8   14.63    0.60
  -4  -1   8   15.73    0.93
   3   1  -8    0.27    0.07
   3   1  -8    0.23    0.09
  -3  -1   8    0.36    0.04
  -3  -1   8    0.06    0.26
  -3  -1   8    0.24    0.09
  -3  -1   8    0.42    0.10
  -3  -1   8    0.28    0.28
   2   1  -8    0.56    0.11
   2   1  -8    0.53    0.08
   2   1  -8    0.51    0.12
  -2  -1   8    0.66    0.08
  -2  -1   8    0.55    0.11
  -2  -1   8    0.55    0.10
  -2  -1   8    0.74    0.31
   1   1  -8   28.13    0.86
   1   1  -8   27.51    0.84
   1   1  -8   28.05    0.64
  -1  -1   8   27.97    0.74
  -1  -1   8   27.97    0.63
  -1  -1   8   28.90    0.76
   0   1  -8   15.93    0.56
   0   1  -8   15.92    0.40
   0   1  -8   15.62    0.60
   0  -1   8   15.48    0.51
   0  -1   8   16.00    0.45
   0  -1   8   15.94    0.41
  -1   1  -8    6.24    0.63
  -1   1  -8    5.84    0.31
  -1   1  -8    5.89    0.18
   1  -1   8    6.23    0.30
   1  -1   8    6.20    0.23
  -2   1  -8   40.64    1.11
  -2   1  -8   39.90    1.60
  -2   1  -8   38.80    1.65
   2  -1   8   42.90    1.07
  -3   1  -8   11.96    0.82
  -3   1  -8   13.19    0.50
  -3   1  -8   12.61    0.53
  -3   1  -8   11.82    0.77
   3  -1   8   12.79    0.50
  -4   1  -8   17.13    0.92
  -4   1  -8   18.76    0.65
  -4   1  -8   18.13    0.72
   4  -1   8   19.00    0.66
  -5   1  -8    2.40    0.31
  -5   1  -8    2.67    0.28
   5  -1   8    2.76    0.29
  -6   1  -8    2.89    0.31
  -6   1  -8    3.34    0.40
   6  -1   8    3.09    0.34
   9   0  -8    0.05    0.16
  -9   0   8    0.08    0.15
   8   0  -8    0.04    0.13
  -8   0   8    0.08    0.13
   7   0  -8    2.92    0.40
   7   0  -8    2.41    0.34
  -7   0   8    3.35    0.41
  -7   0   8    2.70    0.55
   6   0  -8   11.25    0.63
  -6   0   8   10.48    0.57
  -6   0   8   12.28    0.90
   5   0  -8    0.26    0.12
  -5   0   8    0.21    0.29
  -5   0   8    0.36    0.14
  -5   0   8    0.12    0.33
   4   0  -8    0.23    0.10
  -4   0   8    0.28    0.30
  -4   0   8    0.43    0.30
  -4   0   8    0.29    0.11
   3   0  -8    5.40    0.33
  -3   0   8    5.36    0.53
  -3   0   8    5.44    0.55
  -3   0   8    5.87    0.27
  -3   0   8    5.70    0.32
   2   0  -8   54.49    1.41
   2   0  -8   56.54    1.38
  -2   0   8   52.98    2.10
  -2   0   8   55.95    1.24
  -2   0   8   54.96    1.05
  -2   0   8   54.78    1.29
   1   0  -8   27.28    0.62
   1   0  -8   26.94    0.80
  -1   0   8   27.44    0.60
  -1   0   8   26.36    0.70
  -1   0   8   28.17    0.71
   0   0  -8    9.24    0.28
   0   0  -8    9.50    0.38
   0   0   8    9.22    0.35
   0   0   8    9.18    0.28
  -1   0  -8    7.81    0.33
  -1   0  -8    7.27    0.21
  -1   0  -8    7.63    0.62
   1   0   8    8.32    0.34
  -2   0  -8    3.53    0.38
  -2   0  -8    3.00    0.39
  -2   0  -8    4.16    0.24
  -2   0  -8    4.08    0.23
   2   0   8    4.26    0.25
  -3   0  -8   16.07    0.54
  -3   0  -8   14.56    0.81
  -3   0  -8   15.27    0.55
  -3   0  -8   14.29    0.76
   3   0   8   15.38    0.54
  -4   0  -8    0.17    0.08
  -4   0  -8    0.09    0.07
   4   0   8    0.14    0.08
  -5   0  -8    3.08    0.28
   5   0   8    3.46    0.28
  -6   0  -8    8.12    0.43
   6   0   8    7.59    0.45
  -7   0  -8    5.74    0.39
   7   0   8    6.41    0.43
   9  -1  -8    0.02    0.14
  -9   1   8   -0.03    0.12
   8  -1  -8    0.12    0.14
  -8   1   8    0.18    0.14
   7  -1  -8    0.21    0.14
  -7   1   8    0.43    0.17
  -7   1   8    0.68    0.47
   6  -1  -8    3.10    0.35
   6  -1  -8    3.69    0.41
  -6   1   8    3.44    0.59
  -6   1   8    3.89    0.34
   5  -1  -8    4.92    0.40
   5  -1  -8    5.24    0.36
  -5   1   8    5.38    0.57
  -5   1   8    6.32    0.64
  -5   1   8    5.27    0.37
   4  -1  -8   14.61    0.65
   4  -1  -8   14.24    0.58
  -4   1   8   15.05    0.90
  -4   1   8   15.51    0.60
  -4   1   8   15.57    0.92
   3  -1  -8    3.79    0.28
  -3   1   8    3.30    0.46
  -3   1   8    3.53    0.47
  -3   1   8    3.85    0.26
   2  -1  -8   10.53    0.45
  -2   1   8   10.29    0.28
  -2   1   8   10.64    0.86
  -2   1   8   11.03    0.33
  -2   1   8   10.33    0.40
   1  -1  -8   37.80    1.00
   1  -1  -8   37.33    0.79
  -1   1   8   36.52    0.87
  -1   1   8   37.65    0.97
  -1   1   8   38.21    0.89
  -1   1   8   37.12    0.77
   0  -1  -8   19.36    0.58
   0  -1  -8   19.30    0.46
   0   1   8   19.36    0.46
   0   1   8   18.67    0.54
  -1  -1  -8    5.87    0.26
  -1  -1  -8    6.23    0.19
  -1  -1  -8    5.66    0.55
   1   1   8    6.28    0.27
  -2  -1  -8    7.51    0.32
  -2  -1  -8    6.29    0.49
  -2  -1  -8    7.24    0.29
  -2  -1  -8    6.38    0.57
   2   1   8    7.21    0.32
  -3  -1  -8    1.48    0.26
  -3  -1  -8    1.75    0.15
  -3  -1  -8    1.54    0.18
  -3  -1  -8    2.01    0.09
   3   1   8    1.49    0.18
  -4  -1  -8   89.70    2.11
  -4  -1  -8   88.68    2.03
   4   1   8   89.94    2.06
  -5  -1  -8    0.80    0.15
  -5  -1  -8    1.48    0.21
   5   1   8    1.40    0.21
  -6  -1  -8    0.03    0.09
   6   1   8    0.08    0.10
  -7  -1  -8    0.60    0.16
   7   1   8    0.19    0.11
  -8  -1  -8    1.60    0.26
   8   1   8    1.45    0.27
   8  -2  -8    0.96    0.24
  -8   2   8    1.18    0.25
  -8   2   8    0.81    0.56
   7  -2  -8    0.07    0.12
  -7   2   8    0.12    0.45
  -7   2   8    0.12    0.12
   6  -2  -8    0.08    0.12
   6  -2  -8   -0.01    0.10
  -6   2   8    0.16    0.41
  -6   2   8    0.28    0.14
   5  -2  -8   11.67    0.56
   5  -2  -8   12.54    0.66
  -5   2   8   12.91    0.89
  -5   2   8   12.19    0.57
  -5   2   8   12.35    0.82
   4  -2  -8   17.69    0.75
   4  -2  -8   18.34    0.67
  -4   2   8   17.61    0.65
  -4   2   8   18.03    1.01
  -4   2   8   18.37    1.03
   3  -2  -8    9.88    0.49
   3  -2  -8   11.28    0.45
  -3   2   8   10.84    0.44
  -3   2   8   10.66    0.73
  -3   2   8    9.83    0.72
   2  -2  -8   34.09    0.99
   2  -2  -8   33.78    0.87
  -2   2   8   30.42    1.42
  -2   2   8   34.33    0.87
  -2   2   8   33.53    1.49
  -2   2   8   33.79    0.67
   1  -2  -8    0.05    0.05
   1  -2  -8   -0.02    0.03
   1  -2  -8    0.01    0.03
  -1   2   8    0.00    0.04
  -1   2   8   -0.12    0.22
  -1   2   8    0.01    0.03
   0  -2  -8   38.66    0.89
   0  -2  -8   38.52    0.98
   0  -2  -8   38.30    0.80
   0   2   8   39.63    0.90
  -1  -2  -8    3.88    0.52
  -1  -2  -8    3.99    0.21
  -1  -2  -8    4.44    0.21
  -1  -2  -8    4.29    0.16
   1   2   8    4.39    0.22
  -2  -2  -8    0.31    0.06
  -2  -2  -8    0.05    0.05
  -2  -2  -8    0.11    0.23
   2   2   8    0.04    0.05
  -3  -2  -8    0.36    0.07
  -3  -2  -8    0.52    0.25
  -3  -2  -8    0.29    0.09
  -3  -2  -8    0.44    0.06
   3   2   8    0.19    0.08
  -4  -2  -8    0.35    0.11
   4   2   8    0.33    0.10
  -5  -2  -8   17.13    0.65
   5   2   8   18.06    0.68
  -6  -2  -8    6.63    0.40
   6   2   8    6.65    0.42
  -7  -2  -8    0.21    0.12
   7   2   8   -0.02    0.09
  -8  -2  -8    7.08    0.47
   8   2   8    8.80    0.54
  -9  -2  -8    6.75    0.48
   9   2   8    6.96    0.52
   8  -3  -8    3.08    0.39
  -8   3   8    3.21    0.41
   7  -3  -8    4.31    8.19
  -7   3   8    0.30    0.15
  -7   3   8    0.88    0.49
   6  -3  -8    7.76    0.58
   6  -3  -8    5.91    7.62
   6  -3  -8    7.91    0.48
  -6   3   8    9.76    0.87
  -6   3   8    6.50    0.53
  -6   3   8    7.98    0.49
   5  -3  -8    8.86    0.57
   5  -3  -8    1.99    5.86
   5  -3  -8    8.54    0.47
  -5   3   8    9.81    0.78
  -5   3   8    8.14    0.46
  -5   3   8    9.95    0.84
  -5   3   8    8.68    0.56
   4  -3  -8   14.96    0.70
   4  -3  -8   15.90    0.61
  -4   3   8   15.65    1.00
  -4   3   8   15.14    0.95
  -4   3   8   14.46    0.69
  -4   3   8   15.18    0.60
   3  -3  -8   13.94    0.62
   3  -3  -8   14.18    0.53
  -3   3   8   14.25    0.54
  -3   3   8   14.42    0.63
  -3   3   8   14.61    1.05
  -3   3   8   14.78    0.92
   2  -3  -8   56.00    1.13
   2  -3  -8   56.35    1.47
   2  -3  -8   53.42    1.27
  -2   3   8   49.66    2.11
  -2   3   8   55.44    1.03
  -2   3   8   54.97    1.28
  -2   3   8   53.87    2.12
  -2   3   8   56.70    1.47
   1  -3  -8    1.16    0.12
   1  -3  -8    1.01    0.14
   1  -3  -8    0.85    0.11
  -1   3   8    0.50    0.28
  -1   3   8    1.01    0.10
  -1   3   8    0.94    0.12
   0  -3  -8   56.78    1.13
   0  -3  -8   58.32    1.35
   0  -3  -8   58.48    1.23
   0  -3  -8   56.68    1.20
   0   3   8   55.69    1.20
   0   3   8   56.36    1.23
   0   3   8   56.35    1.11
  -1  -3  -8   39.89    0.82
  -1  -3  -8   41.91    0.98
  -1  -3  -8   37.64    1.64
  -1  -3  -8   41.70    0.96
   1   3   8   41.56    0.83
   1   3   8   40.52    0.98
  -2  -3  -8    2.16    0.08
  -2  -3  -8    2.18    0.11
  -2  -3  -8    2.70    0.42
  -2  -3  -8    1.87    0.13
  -2  -3  -8    2.18    0.18
   2   3   8    2.12    0.18
  -3  -3  -8   55.26    1.10
  -3  -3  -8   50.64    2.00
  -3  -3  -8   56.99    1.36
   3   3   8   55.33    1.37
  -4  -3  -8    0.37    0.11
   4   3   8    0.34    0.11
  -5  -3  -8   40.69    1.18
   5   3   8   41.37    1.20
  -6  -3  -8    6.94    0.43
   6   3   8    7.66    0.46
  -7  -3  -8    0.48    0.16
   7   3   8    0.25    0.13
  -8  -3  -8    0.04    0.12
   8   3   8    0.25    0.15
  -9  -3  -8    0.81    0.23
   9   3   8    0.84    0.25
   8  -4  -8    1.80    9.08
   7  -4  -8    0.41    7.63
   7  -4  -8    2.26    0.34
  -7   4   8    2.88    0.36
  -7   4   8    3.50    0.75
   6  -4  -8    2.91    6.79
   6  -4  -8    5.92    0.43
  -6   4   8    5.83    0.42
  -6   4   8    6.90    0.84
   5  -4  -8    7.15    0.53
   5  -4  -8    7.09    0.44
   5  -4  -8    0.98    6.11
  -5   4   8    8.06    0.85
  -5   4   8    7.74    0.78
  -5   4   8    6.60    0.51
  -5   4   8    8.01    0.46
   4  -4  -8    4.36    0.38
   4  -4  -8   -0.12    4.16
   4  -4  -8    4.53    0.32
  -4   4   8    3.91    0.36
  -4   4   8    4.45    0.67
  -4   4   8    4.79    0.66
  -4   4   8    3.88    0.30
   3  -4  -8    0.11    0.11
   3  -4  -8    0.22    0.09
  -3   4   8   -0.08    0.08
  -3   4   8   -0.01    0.06
  -3   4   8    0.33    0.36
   2  -4  -8   12.44    0.55
   2  -4  -8   12.41    0.47
  -2   4   8   12.04    0.31
  -2   4   8   11.78    0.54
  -2   4   8   11.77    0.87
  -2   4   8   12.05    0.46
  -2   4   8   12.93    0.91
   1  -4  -8    6.46    0.26
   1  -4  -8    6.41    0.29
   1  -4  -8    6.23    0.34
  -1   4   8    6.27    0.23
  -1   4   8    6.22    0.67
  -1   4   8    5.97    0.28
  -1   4   8    6.48    0.35
   0  -4  -8   22.26    0.57
   0  -4  -8   23.65    0.60
   0  -4  -8   23.39    0.68
   0   4   8   22.70    0.54
   0   4   8   22.73    0.59
  -1  -4  -8    0.43    0.09
  -1  -4  -8    0.40    0.07
  -1  -4  -8    0.19    0.30
  -1  -4  -8    0.44    0.07
  -1  -4  -8    0.25    0.06
   1   4   8    0.27    0.06
   1   4   8    0.22    0.07
  -2  -4  -8   10.18    0.32
  -2  -4  -8   10.76    0.43
  -2  -4  -8   10.52    0.27
  -2  -4  -8   10.38    0.81
  -2  -4  -8   10.96    0.37
   2   4   8    9.98    0.42
  -3  -4  -8   27.38    0.83
  -3  -4  -8   27.36    0.66
  -3  -4  -8   26.81    1.29
  -4  -4  -8    5.96    0.48
  -4  -4  -8    7.00    0.21
  -4  -4  -8    6.25    0.37
  -4  -4  -8    6.02    0.66
  -5  -4  -8    3.76    0.42
  -5  -4  -8    4.24    0.32
   5   4   8    3.38    0.30
  -6  -4  -8    3.11    0.34
   6   4   8    3.18    0.36
  -7  -4  -8    1.30    0.24
   7   4   8    1.70    0.28
  -8  -4  -8   12.57    0.67
   8   4   8   13.07    0.71
  -9  -4  -8   -0.05    0.13
   9   4   8    0.02    0.13
   7  -5  -8    6.13    9.68
  -7   5   8    0.88    0.66
  -7   5   8    0.21    0.14
   6  -5  -8    3.84    7.44
   6  -5  -8    0.20    0.13
  -6   5   8    0.40    0.15
  -6   5   8    0.56    0.59
   5  -5  -8    1.22    0.23
   5  -5  -8    1.62    0.32
   5  -5  -8    0.82    6.06
  -5   5   8    1.48    0.24
  -5   5   8    2.24    0.53
  -5   5   8    1.52    0.60
  -5   5   8    1.32    0.29
   4  -5  -8    4.48    6.39
   4  -5  -8   10.89    0.64
   4  -5  -8    9.96    0.51
  -4   5   8   11.05    0.98
  -4   5   8   10.68    0.52
  -4   5   8   10.35    0.62
  -4   5   8   11.40    0.94
   3  -5  -8    1.04    0.22
   3  -5  -8    1.51    0.21
  -3   5   8    0.94    0.21
  -3   5   8    1.38    0.20
  -3   5   8    1.39    0.53
  -3   5   8    1.46    0.51
   2  -5  -8    3.40    0.25
   2  -5  -8    3.16    0.28
  -2   5   8    2.06    0.54
  -2   5   8    3.51    0.30
  -2   5   8    3.49    0.15
  -2   5   8    3.17    0.25
   1  -5  -8   24.16    0.80
   1  -5  -8   24.21    0.70
   1  -5  -8   23.62    0.62
  -1   5   8   19.66    1.24
  -1   5   8   23.70    1.30
  -1   5   8   25.07    0.81
  -1   5   8   23.49    0.56
   0  -5  -8    4.82    0.25
   0  -5  -8    4.93    0.23
   0  -5  -8    4.58    0.27
   0   5   8    4.57    0.21
   0   5   8    5.00    0.28
  -1  -5  -8    3.19    0.22
  -1  -5  -8    3.93    0.61
  -1  -5  -8    3.58    0.18
  -1  -5  -8    2.98    0.19
  -1  -5  -8    3.53    0.23
   1   5   8    3.60    0.18
  -2  -5  -8    3.95    0.58
  -2  -5  -8    3.38    0.16
  -2  -5  -8    3.18    0.20
  -2  -5  -8    3.16    0.21
  -2  -5  -8    3.38    0.24
   2   5   8    3.06    0.17
  -3  -5  -8   21.36    0.59
  -3  -5  -8   20.68    1.05
  -3  -5  -8   21.44    0.73
  -3  -5  -8   22.14    1.21
  -4  -5  -8   61.38    1.25
  -4  -5  -8   60.56    2.26
  -4  -5  -8   61.41    1.59
  -4  -5  -8   60.16    2.33
  -5  -5  -8    8.64    0.80
  -5  -5  -8   10.42    0.69
  -5  -5  -8    9.97    0.52
  -6  -5  -8   -0.15    0.22
  -6  -5  -8    0.14    0.09
  -7  -5  -8   -0.10    0.09
   7   5   8    0.08    0.13
  -8  -5  -8    8.76    0.58
   8   5   8   10.24    0.64
  -9  -5  -8    0.19    0.15
   9   5   8    0.17    0.15
   6  -6  -8    1.21    0.25
   6  -6  -8    1.51    7.77
  -6   6   8    1.00    0.23
  -6   6   8    1.20    0.70
   5  -6  -8   -0.03    0.09
   5  -6  -8    0.29    6.74
  -5   6   8    0.47    0.60
  -5   6   8   -0.01    0.11
  -5   6   8   -0.10    0.43
   4  -6  -8    2.38    0.29
   4  -6  -8    0.91    5.94
   4  -6  -8    2.61    0.37
  -4   6   8    3.11    0.64
  -4   6   8    1.77    0.31
  -4   6   8    1.84    0.62
   3  -6  -8   -0.80    4.56
   3  -6  -8    2.88    0.31
   3  -6  -8    3.21    0.39
  -3   6   8    3.17    0.65
  -3   6   8    3.23    0.38
  -3   6   8    2.09    0.60
   2  -6  -8    0.64    0.15
   2  -6  -8    0.60    0.18
  -2   6   8    0.27    0.50
  -2   6   8    0.16    0.43
  -2   6   8    0.53    0.07
  -2   6   8    0.60    0.17
   1  -6  -8    1.24    0.16
   1  -6  -8    1.42    0.21
   1  -6  -8    1.22    0.17
  -1   6   8    1.21    0.13
  -1   6   8    1.16    0.20
  -1   6   8    0.33    0.46
   0  -6  -8    0.01    0.05
   0  -6  -8    0.05    0.06
   0   6   8    0.05    0.05
  -1  -6  -8    8.87    0.33
  -1  -6  -8    8.90    1.02
  -1  -6  -8    8.54    0.39
  -1  -6  -8    8.35    0.36
   1   6   8    8.30    0.31
  -2  -6  -8   49.47    1.28
  -2  -6  -8   49.20    1.17
  -2  -6  -8   49.30    1.02
  -2  -6  -8   51.40    2.18
  -2  -6  -8   45.60    1.17
   2   6   8   49.67    1.05
  -3  -6  -8   70.25    1.55
  -3  -6  -8   72.74    1.78
  -3  -6  -8   71.84    2.66
  -3  -6  -8   70.05    1.27
  -3  -6  -8   72.84    2.83
  -4  -6  -8   16.23    0.69
  -4  -6  -8   16.88    0.51
  -4  -6  -8   17.14    0.97
  -4  -6  -8   15.79    1.18
  -5  -6  -8   12.93    0.83
  -5  -6  -8   13.03    1.02
  -5  -6  -8   14.03    0.37
  -5  -6  -8   12.92    0.64
  -6  -6  -8    0.15    0.12
  -6  -6  -8    0.46    0.32
  -7  -6  -8    0.41    0.18
  -7  -6  -8    0.85    0.36
  -8  -6  -8    0.02    0.11
  -9  -6  -8   -0.26    0.11
   9   6   8    0.09    0.16
   6  -7  -8    6.70    8.97
   5  -7  -8    0.06    0.12
   5  -7  -8   -1.39    7.02
  -5   7   8   -0.02    0.64
  -5   7   8    0.25    0.52
   4  -7  -8    2.86    7.20
   4  -7  -8    1.11    0.22
  -4   7   8    0.83    0.55
  -4   7   8    0.56    0.64
   3  -7  -8    0.75    0.18
   3  -7  -8    1.03    0.24
  -3   7   8    0.80    0.55
  -3   7   8    0.78    0.23
  -3   7   8    0.31    0.59
   2  -7  -8    7.95    0.51
   2  -7  -8    8.41    0.45
  -2   7   8    7.52    0.23
  -2   7   8    8.73    0.99
   1  -7  -8    0.13    0.09
   1  -7  -8    0.41    0.13
  -1   7   8    0.19    0.50
  -1   7   8    0.09    0.06
   0  -7  -8    0.15    0.09
   0  -7  -8    0.10    0.08
   0   7   8    0.07    0.06
  -1  -7  -8    0.46    0.11
  -1  -7  -8    0.32    0.12
  -1  -7  -8    0.50    0.13
   1   7   8    0.37    0.09
  -2  -7  -8   11.66    0.49
  -2  -7  -8   12.67    1.22
  -2  -7  -8   11.24    0.48
  -2  -7  -8   12.19    0.53
  -2  -7  -8   12.08    0.39
   2   7   8   11.90    0.41
  -3  -7  -8   12.07    0.48
  -3  -7  -8   12.42    0.87
  -3  -7  -8   12.33    1.16
  -3  -7  -8   12.24    0.57
  -3  -7  -8   12.07    0.32
  -4  -7  -8    7.61    0.47
  -4  -7  -8    7.78    0.36
  -4  -7  -8    8.58    1.05
  -4  -7  -8    8.51    0.72
  -5  -7  -8    1.72    0.55
  -5  -7  -8    1.74    0.17
  -5  -7  -8    2.26    0.52
  -5  -7  -8    1.02    0.23
  -6  -7  -8    6.31    0.48
  -6  -7  -8    6.33    0.77
  -6  -7  -8    6.13    0.63
  -7  -7  -8    4.64    0.60
  -7  -7  -8    5.20    0.46
  -8  -7  -8    3.06    0.59
  -8  -7  -8    2.47    0.38
  -9  -7  -8   -0.01    0.14
   5  -8  -8    1.52    0.28
   4  -8  -8    0.01    0.11
  -4   8   8    0.25    0.56
  -4   8   8    0.29    0.71
   3  -8  -8    1.18    0.23
  -3   8   8    1.11    0.62
   2  -8  -8    1.91    0.27
  -2   8   8    1.91    0.65
   1  -8  -8   15.07    0.63
   1  -8  -8   14.56    0.55
  -1   8   8   14.96    0.44
   0  -8  -8    0.08    0.08
   0  -8  -8    0.07    0.09
   0   8   8    0.08    0.06
  -1  -8  -8    1.08    0.16
  -1  -8  -8    0.81    0.17
   1   8   8    0.96    0.14
  -2  -8  -8    0.13    0.10
  -2  -8  -8    0.02    0.09
  -2  -8  -8    0.12    0.07
   2   8   8    0.24    0.09
  -3  -8  -8    7.48    0.47
  -3  -8  -8    8.70    0.43
  -3  -8  -8    8.98    0.29
  -3  -8  -8    9.58    1.17
  -3  -8  -8    8.54    0.45
  -4  -8  -8   18.02    1.37
  -4  -8  -8   16.88    0.60
  -4  -8  -8   16.17    1.08
  -4  -8  -8   15.79    0.74
  -5  -8  -8    0.29    0.49
  -5  -8  -8    0.49    0.40
  -5  -8  -8    0.28    0.17
  -5  -8  -8    0.46    0.11
  -6  -8  -8    0.11    0.14
  -6  -8  -8    0.24    0.43
  -6  -8  -8   -0.08    0.32
  -7  -8  -8    0.11    0.16
  -7  -8  -8    0.14    0.40
  -8  -8  -8    0.18    0.16
  -8  -8  -8    0.13    0.42
   4  -9  -8    0.83    0.23
   3  -9  -8    0.17    0.14
  -3   9   8    0.65    0.66
   2  -9  -8    2.24    0.31
  -2   9   8    0.78    0.67
   1  -9  -8    0.93    0.22
   1  -9  -8    1.18    0.19
  -1   9   8    1.01    0.13
   0  -9  -8    1.20    0.24
   0  -9  -8    1.23    0.19
   0   9   8    1.19    0.15
  -1  -9  -8    2.35    0.31
  -1  -9  -8    2.12    0.23
   1   9   8    2.17    0.21
  -2  -9  -8    0.55    0.17
  -2  -9  -8    0.82    0.20
  -2  -9  -8    0.57    0.12
   2   9   8    0.59    0.13
  -3  -9  -8    0.27    0.12
  -3  -9  -8    0.20    0.50
  -3  -9  -8    0.14    0.12
  -3  -9  -8    0.07    0.06
   3   9   8    0.04    0.09
  -4  -9  -8    6.09    0.46
  -4  -9  -8    5.40    0.36
  -4  -9  -8    8.92    1.27
  -5  -9  -8    0.08    0.10
  -5  -9  -8   -0.04    0.13
  -5  -9  -8    0.17    0.44
  -5  -9  -8   -0.05    0.50
  -6  -9  -8    8.88    0.35
  -6  -9  -8    9.94    0.94
  -6  -9  -8    8.56    0.62
  -6  -9  -8    9.82    1.04
  -7  -9  -8    0.00    0.16
  -7  -9  -8   -0.23    0.48
  -7  -9  -8   -0.17    0.42
  -8  -9  -8    2.04    0.39
   3 -10  -8    1.10    0.26
   2 -10  -8    2.17    0.33
   1 -10  -8    0.06    0.12
   1 -10  -8   -0.05    0.10
   0 -10  -8    0.07    0.12
   0 -10  -8   -0.11    0.08
   0  10   8   -0.03    0.07
  -1 -10  -8    0.67    0.20
  -1 -10  -8    0.64    0.15
   1  10   8    0.52    0.13
  -2 -10  -8    0.02    0.12
  -2 -10  -8    0.10    0.11
  -2 -10  -8    0.03    0.09
   2  10   8    0.02    0.08
  -3 -10  -8    1.60    0.17
  -3 -10  -8    1.46    0.25
   3  10   8    1.44    0.20
  -4 -10  -8    1.72    0.75
  -5 -10  -8    0.23    0.54
  -5 -10  -8   -0.01    0.09
  -5 -10  -8    0.25    0.19
  -6 -10  -8    2.34    0.24
  -6 -10  -8    2.63    0.41
  -6 -10  -8    4.35    0.99
  -6 -10  -8    3.28    0.73
  -7 -10  -8    0.24    0.20
   1 -11  -8    0.93    0.25
   1 -11  -8    0.76    0.19
   0 -11  -8    0.02    0.11
   0 -11  -8   -0.09    0.12
   0  11   8   -0.03    0.08
  -1 -11  -8    0.19    0.12
  -1 -11  -8    0.34    0.18
   1  11   8    0.23    0.10
  -2 -11  -8    0.80    0.23
  -2 -11  -8    1.06    0.18
  -2 -11  -8    1.01    0.25
   2  11   8    0.85    0.16
  -3 -11  -8    2.28    0.32
  -3 -11  -8    3.04    0.21
   3  11   8    3.69    0.29
  -4 -11  -8    0.11    0.13
  -5 -11  -8    0.23    0.60
  -5 -11  -8    0.08    0.12
   4   9  -9    0.74    0.17
  -4  -9   9    1.06    0.30
  -4  -9   9    0.84    0.25
   3   9  -9    0.54    0.14
  -3  -9   9    0.32    0.19
  -3  -9   9    0.53    0.14
  -3  -9   9    0.47    0.21
   2   9  -9    0.14    0.09
  -2  -9   9    0.05    0.16
  -2  -9   9    0.19    0.12
  -2  -9   9    0.13    0.16
  -1  -9   9    1.68    0.33
  -1  -9   9    1.15    0.28
  -1  -9   9    1.27    0.22
   0  -9   9    0.74    0.24
   0  -9   9    0.66    0.18
   0  -9   9    0.63    0.22
  -6  -8   9    0.03    0.16
  -6  -8   9    0.04    0.16
  -5  -8   9    0.49    0.21
  -5  -8   9    0.32    0.18
  -5  -8   9    0.82    0.75
   4   8  -9    0.60    0.15
  -4  -8   9    0.74    0.25
  -4  -8   9    0.51    0.21
   3   8  -9    1.72    0.21
  -3  -8   9    2.40    0.38
  -3  -8   9    2.29    0.37
  -3  -8   9    2.04    0.22
   2   8  -9    0.00    0.08
  -2  -8   9    0.16    0.15
  -2  -8   9   -0.08    0.12
  -2  -8   9    0.04    0.08
   1   8  -9    1.51    0.18
  -1  -8   9    1.81    0.33
  -1  -8   9    1.54    0.29
  -1  -8   9    1.67    0.23
   0   8  -9    0.08    0.07
   0  -8   9    0.17    0.12
   0  -8   9    0.01    0.14
   0  -8   9    0.08    0.15
   1  -8   9   -0.01    0.14
   7   7  -9   -0.03    0.19
  -7  -7   9    0.15    0.18
  -7  -7   9    0.03    0.16
   6   7  -9    1.24    0.28
  -6  -7   9    1.36    0.31
  -6  -7   9    1.38    0.32
  -6  -7   9    0.60    0.70
  -5  -7   9    0.11    0.14
  -5  -7   9   -0.22    0.58
  -5  -7   9    0.08    0.15
   4   7  -9    2.27    0.25
  -4  -7   9    2.36    0.16
  -4  -7   9    2.22    0.35
  -4  -7   9    2.04    0.34
   3   7  -9    0.60    0.13
  -3  -7   9    0.58    0.12
  -3  -7   9    0.70    0.22
  -3  -7   9    0.38    0.18
   2   7  -9    2.61    0.24
  -2  -7   9    2.35    0.33
  -2  -7   9    2.31    0.24
  -2  -7   9    2.59    0.36
   1   7  -9    4.76    0.26
  -1  -7   9    4.90    0.42
  -1  -7   9    4.57    0.38
  -1  -7   9    4.91    0.31
   0   7  -9    0.04    0.06
   0  -7   9    0.22    0.11
   0  -7   9    0.24    0.15
   0  -7   9    0.08    0.13
  -1   7  -9    0.28    0.75
   1  -7   9   -0.07    0.11
  -2   7  -9   -0.08    0.70
   2  -7   9    0.09    0.13
  -3   7  -9    0.03    0.66
   8   6  -9   -0.02    0.19
  -8  -6   9    0.18    0.20
  -8  -6   9    0.10    0.16
   7   6  -9    2.72    0.39
  -7  -6   9    3.24    0.46
  -7  -6   9    3.27    0.47
  -7  -6   9    1.52    0.68
   6   6  -9    0.42    0.20
  -6  -6   9    0.40    0.18
  -6  -6   9    0.26    0.45
  -6  -6   9   -0.02    0.54
  -6  -6   9    0.51    0.20
   5   6  -9    2.56    0.33
   5   6  -9    2.71    0.35
  -5  -6   9    3.30    0.42
  -5  -6   9    1.47    0.66
  -5  -6   9    3.04    0.42
   4   6  -9    7.43    0.49
  -4  -6   9    7.05    0.50
  -4  -6   9    7.12    0.26
  -4  -6   9    7.96    0.53
  -4  -6   9    7.34    0.98
   3   6  -9    0.17    0.09
   3   6  -9   -0.06    0.09
  -3  -6   9   -0.03    0.09
  -3  -6   9    0.06    0.11
  -3  -6   9    0.00    0.06
   2   6  -9    0.62    0.16
   2   6  -9    0.96    0.15
  -2  -6   9    1.19    0.16
  -2  -6   9    0.89    0.21
  -2  -6   9    1.13    0.22
   1   6  -9    1.07    0.14
   1   6  -9    0.89    0.20
  -1  -6   9    1.11    0.22
  -1  -6   9    0.65    0.14
  -1  -6   9    1.00    0.21
   0   6  -9    0.10    0.07
   0   6  -9    0.31    0.14
   0  -6   9    0.35    0.14
   0  -6   9    0.18    0.12
   0  -6   9    0.23    0.10
  -1   6  -9    2.97    0.38
  -1   6  -9    3.36    0.86
   1  -6   9    3.41    0.35
   1  -6   9    2.96    0.33
  -2   6  -9    0.00    0.61
   2  -6   9   -0.06    0.09
  -3   6  -9    0.13    0.59
  -3   6  -9    0.75    0.69
  -4   6  -9    8.70    1.06
  -4   6  -9    9.55    1.07
   8   5  -9    0.61    0.25
  -8  -5   9    0.37    0.54
  -8  -5   9    0.61    0.23
   7   5  -9    6.66    0.54
  -7  -5   9    3.74    0.76
  -7  -5   9    5.29    0.56
  -7  -5   9    5.38    0.57
   6   5  -9    0.00    0.10
   6   5  -9    0.19    0.15
  -6  -5   9   -0.09    0.43
  -6  -5   9   -0.08    0.10
  -6  -5   9   -0.24    0.45
  -6  -5   9    0.03    0.14
   5   5  -9    0.13    0.16
   5   5  -9    0.29    0.14
  -5  -5   9    0.01    0.52
  -5  -5   9    0.08    0.45
  -5  -5   9    0.22    0.15
  -5  -5   9    0.01    0.11
   4   5  -9    3.39    0.32
   4   5  -9    2.90    0.32
  -4  -5   9    3.18    0.37
  -4  -5   9    3.15    0.15
  -4  -5   9    2.30    0.64
  -4  -5   9    3.76    0.40
   3   5  -9   12.65    0.58
   3   5  -9   13.90    0.65
   3   5  -9   13.40    0.48
  -3  -5   9   14.15    1.16
  -3  -5   9   13.43    0.63
  -3  -5   9   13.51    0.64
  -3  -5   9   13.40    0.43
   2   5  -9    3.04    0.34
   2   5  -9    3.43    0.22
  -2  -5   9    3.22    0.22
  -2  -5   9    3.16    0.34
  -2  -5   9    3.01    0.33
   1   5  -9    1.01    0.13
   1   5  -9    0.93    0.19
  -1  -5   9    1.00    0.15
  -1  -5   9    0.93    0.18
  -1  -5   9    0.97    0.19
   0   5  -9    0.81    0.19
   0   5  -9    0.69    0.11
   0  -5   9    0.82    0.14
   0  -5   9    0.61    0.16
   0  -5   9    0.83    0.16
   0  -5   9    0.68    0.14
  -1   5  -9   18.76    0.43
  -1   5  -9   18.65    1.33
  -1   5  -9   17.74    0.80
   1  -5   9   19.06    0.68
   1  -5   9   18.95    0.73
  -2   5  -9    0.09    0.50
  -2   5  -9    0.45    0.17
  -2   5  -9    0.17    0.52
   2  -5   9    0.34    0.14
  -3   5  -9    3.44    0.80
  -3   5  -9    3.47    0.81
   3  -5   9    2.77    0.33
  -4   5  -9    0.18    0.54
  -4   5  -9    0.25    0.54
  -5   5  -9    0.39    0.61
   8   4  -9    0.20    0.20
  -8  -4   9    0.02    0.15
  -8  -4   9   -0.01    0.53
   7   4  -9    0.53    0.22
  -7  -4   9    0.30    0.18
  -7  -4   9    0.56    0.48
  -7  -4   9    0.18    0.14
  -7  -4   9   -0.07    0.47
   6   4  -9    4.99    0.43
   6   4  -9    5.46    0.43
  -6  -4   9    4.61    0.49
  -6  -4   9    4.94    0.42
  -6  -4   9    3.94    0.69
  -6  -4   9    3.05    0.62
   5   4  -9    1.44    0.24
   5   4  -9    1.16    0.23
  -5  -4   9    1.27    0.52
  -5  -4   9    1.12    0.22
  -5  -4   9    1.39    0.26
  -5  -4   9    0.80    0.48
   4   4  -9    4.93    0.37
   4   4  -9    4.67    0.36
  -4  -4   9    4.59    0.37
  -4  -4   9    5.55    0.83
  -4  -4   9    4.00    0.65
  -4  -4   9    4.22    0.34
   3   4  -9   19.22    0.72
   3   4  -9   18.82    0.57
   3   4  -9   17.96    0.75
   3   4  -9   19.94    0.80
  -3  -4   9   19.17    0.74
  -3  -4   9   19.04    0.74
  -3  -4   9   20.84    1.30
  -3  -4   9   19.24    0.51
   2   4  -9   21.03    0.59
   2   4  -9   22.99    0.88
   2   4  -9   19.45    0.78
  -2  -4   9   21.01    0.58
  -2  -4   9   21.67    0.77
  -2  -4   9   21.07    0.75
   1   4  -9   19.31    0.76
   1   4  -9   20.25    0.55
   1   4  -9   20.39    0.86
  -1  -4   9   19.86    0.58
  -1  -4   9   20.26    0.58
  -1  -4   9   20.50    0.73
  -1  -4   9   21.13    0.70
   0   4  -9    1.06    0.22
   0   4  -9    0.52    0.58
   0   4  -9    0.77    0.11
   0   4  -9    0.84    0.17
   0  -4   9    0.95    0.17
   0  -4   9    0.92    0.16
   0  -4   9    1.03    0.15
  -1   4  -9    3.16    0.72
  -1   4  -9    2.52    0.29
  -1   4  -9    2.61    0.13
  -1   4  -9    4.25    0.75
  -1   4  -9    3.24    0.34
   1  -4   9    3.03    0.26
   1  -4   9    2.83    0.24
  -2   4  -9    0.80    0.53
  -2   4  -9    0.71    0.18
  -2   4  -9    1.54    0.54
   2  -4   9    0.72    0.16
  -3   4  -9   17.87    1.16
  -3   4  -9   16.54    0.81
  -3   4  -9   17.87    1.21
   3  -4   9   16.94    0.69
  -4   4  -9    1.40    0.54
  -4   4  -9    1.31    0.27
  -4   4  -9    2.13    0.61
   4  -4   9    1.39    0.24
  -5   4  -9   -0.09    0.48
  -6   4  -9    3.90    0.85
   9   3  -9    0.55    0.25
  -9  -3   9    0.27    0.19
   8   3  -9    0.23    0.20
  -8  -3   9   -0.32    0.47
  -8  -3   9    0.65    0.24
   7   3  -9    0.37    0.20
  -7  -3   9    0.65    0.45
  -7  -3   9    0.33    0.18
   6   3  -9    5.81    0.45
   6   3  -9    5.62    0.44
  -6  -3   9    5.69    0.73
  -6  -3   9    5.20    0.44
  -6  -3   9    5.31    0.73
  -6  -3   9    5.16    0.40
   5   3  -9   11.08    0.58
   5   3  -9    9.99    0.56
  -5  -3   9   10.37    0.90
  -5  -3   9   10.35    0.92
  -5  -3   9   10.59    0.58
  -5  -3   9   10.69    0.55
   4   3  -9    2.24    0.29
   4   3  -9    2.39    0.29
  -4  -3   9    3.56    0.65
  -4  -3   9    1.68    0.47
  -4  -3   9    2.37    0.28
  -4  -3   9    2.08    0.28
   3   3  -9    1.00    0.14
   3   3  -9    0.71    0.16
   3   3  -9    1.10    0.19
   3   3  -9    0.96    0.18
  -3  -3   9    1.02    0.11
  -3  -3   9    0.76    0.40
  -3  -3   9    0.91    0.18
  -3  -3   9    1.09    0.46
  -3  -3   9    0.78    0.15
   2   3  -9   -0.05    0.06
   2   3  -9    0.06    0.08
   2   3  -9    0.16    0.06
  -2  -3   9    0.03    0.06
  -2  -3   9    0.14    0.34
  -2  -3   9    0.02    0.04
  -2  -3   9   -0.03    0.06
   1   3  -9    3.98    0.21
   1   3  -9    4.12    0.32
   1   3  -9    3.63    0.28
  -1  -3   9    3.48    0.26
  -1  -3   9    4.26    0.22
  -1  -3   9    3.57    0.26
   0   3  -9  122.15    2.23
   0   3  -9  124.24    4.30
   0   3  -9  119.38    3.12
   0   3  -9  118.47    2.84
   0  -3   9  120.28    2.66
   0  -3   9  119.32    2.28
   0  -3   9  122.72    2.54
  -1   3  -9    1.06    0.22
  -1   3  -9    0.83    0.17
  -1   3  -9    0.70    0.46
  -1   3  -9    1.40    0.47
  -1   3  -9    0.87    0.09
   1  -3   9    0.68    0.14
   1  -3   9    0.81    0.13
  -2   3  -9    0.10    0.39
  -2   3  -9   -0.05    0.33
  -2   3  -9    0.03    0.07
   2  -3   9   -0.11    0.06
  -3   3  -9    5.05    0.72
  -3   3  -9    6.12    0.79
  -3   3  -9    4.25    0.36
   3  -3   9    3.68    0.30
  -4   3  -9    0.30    0.15
  -4   3  -9    0.54    0.44
  -4   3  -9    0.32    0.39
   4  -3   9    0.16    0.10
  -5   3  -9    2.48    0.38
  -5   3  -9    4.18    0.64
   5  -3   9    3.37    0.35
  -6   3  -9    0.00    0.42
  -7   3  -9    0.07    0.46
   9   2  -9    2.63    0.42
  -9  -2   9    1.90    0.36
   8   2  -9    8.20    0.58
  -8  -2   9    7.41    0.55
  -8  -2   9    7.20    0.90
   7   2  -9    1.50    0.29
  -7  -2   9    1.99    0.33
  -7  -2   9    1.55    0.52
   6   2  -9    2.00    0.30
   6   2  -9    2.42    0.33
  -6  -2   9    1.62    0.29
  -6  -2   9    2.71    0.55
  -6  -2   9    2.54    0.60
   5   2  -9   -0.12    0.10
   5   2  -9    0.00    0.08
  -5  -2   9   -0.08    0.07
  -5  -2   9   -0.36    0.35
  -5  -2   9    0.07    0.07
  -5  -2   9    0.19    0.39
   4   2  -9    7.73    0.44
   4   2  -9    8.05    0.46
  -4  -2   9    7.91    0.76
  -4  -2   9    7.72    0.41
  -4  -2   9    7.87    0.45
  -4  -2   9    8.37    0.78
   3   2  -9   32.70    0.99
   3   2  -9   30.74    1.01
  -3  -2   9   32.34    1.57
  -3  -2   9   31.77    0.96
  -3  -2   9   32.09    1.53
  -3  -2   9   32.01    0.68
  -3  -2   9   33.55    0.94
   2   2  -9    0.32    0.08
   2   2  -9    0.17    0.09
   2   2  -9    0.29    0.10
  -2  -2   9    0.21    0.08
  -2  -2   9   -0.14    0.25
  -2  -2   9    0.41    0.11
  -2  -2   9    0.28    0.06
  -2  -2   9    0.10    0.30
  -2  -2   9    0.25    0.06
   1   2  -9    0.30    0.10
   1   2  -9    0.24    0.07
   1   2  -9    0.22    0.10
  -1  -2   9    0.30    0.07
  -1  -2   9    0.31    0.10
  -1  -2   9    0.38    0.31
  -1  -2   9    0.37    0.10
   0   2  -9   20.06    0.50
   0   2  -9   20.78    1.20
   0   2  -9   19.32    0.76
   0   2  -9   19.47    0.69
   0  -2   9   20.13    0.52
   0  -2   9   19.92    0.58
  -1   2  -9    1.85    0.10
  -1   2  -9    3.33    0.57
  -1   2  -9    2.00    0.45
  -1   2  -9    1.71    0.21
   1  -2   9    2.26    0.23
  -2   2  -9    1.87    0.23
  -2   2  -9    1.79    0.49
  -2   2  -9    1.82    0.43
   2  -2   9    1.96    0.23
  -3   2  -9   62.79    2.37
  -3   2  -9   58.97    1.69
  -3   2  -9   65.48    2.42
   3  -2   9   61.88    1.57
  -4   2  -9    1.01    0.39
  -4   2  -9    0.59    0.35
  -4   2  -9    0.65    0.18
   4  -2   9    0.87    0.18
  -5   2  -9    1.05    0.24
  -5   2  -9    1.33    0.44
   5  -2   9    1.48    0.24
  -6   2  -9    0.44    0.19
   6  -2   9    0.40    0.15
   9   1  -9    0.17    0.15
  -9  -1   9    0.00    0.14
   8   1  -9    0.58    0.21
  -8  -1   9    0.39    0.17
  -8  -1   9    0.21    0.46
   7   1  -9    8.13    0.53
  -7  -1   9    9.45    0.87
  -7  -1   9    6.83    0.51
   6   1  -9   23.92    1.01
   6   1  -9   27.64    1.01
  -6  -1   9   26.68    1.00
  -6  -1   9   31.75    1.44
  -6  -1   9   30.34    1.55
   5   1  -9    0.08    0.09
   5   1  -9    0.12    0.13
  -5  -1   9   -0.03    0.09
  -5  -1   9    0.23    0.36
  -5  -1   9    0.29    0.36
   4   1  -9    1.39    0.22
  -4  -1   9    1.62    0.20
  -4  -1   9    1.10    0.38
  -4  -1   9    1.71    0.44
  -4  -1   9    1.54    0.23
   3   1  -9   19.11    0.72
  -3  -1   9   19.09    0.67
  -3  -1   9   18.99    0.42
  -3  -1   9   19.24    0.62
  -3  -1   9   19.70    1.09
  -3  -1   9   19.17    1.09
   2   1  -9    1.50    0.20
   2   1  -9    1.75    0.16
   2   1  -9    1.53    0.15
  -2  -1   9    1.49    0.17
  -2  -1   9    1.61    0.42
  -2  -1   9    1.31    0.18
  -2  -1   9    1.17    0.11
   1   1  -9  154.97    3.36
   1   1  -9  151.63    3.60
   1   1  -9  152.17    2.72
  -1  -1   9  143.46    5.01
  -1  -1   9  151.21    3.03
  -1  -1   9  145.23    3.09
  -1  -1   9  150.67    2.70
   0   1  -9    4.69    0.29
   0   1  -9    4.86    0.20
   0   1  -9    5.39    0.65
   0  -1   9    4.92    0.23
   0  -1   9    5.05    0.21
   0  -1   9    4.87    0.27
  -1   1  -9    0.86    0.29
  -1   1  -9    0.87    0.15
  -1   1  -9    0.80    0.35
  -1   1  -9    0.73    0.07
   1  -1   9    0.67    0.13
   1  -1   9    0.76    0.10
  -2   1  -9    4.01    0.47
  -2   1  -9    5.16    0.59
  -2   1  -9    4.78    0.30
   2  -1   9    5.18    0.30
  -3   1  -9    3.26    0.45
  -3   1  -9    3.48    0.27
  -3   1  -9    3.32    0.52
   3  -1   9    3.23    0.26
  -4   1  -9    1.43    0.39
  -4   1  -9    0.76    0.17
  -4   1  -9    0.88    0.16
   4  -1   9    0.69    0.16
  -5   1  -9    4.79    0.33
  -5   1  -9    4.02    0.36
   5  -1   9    4.34    0.33
  -6   1  -9    1.24    0.21
  -6   1  -9    1.50    0.29
   6  -1   9    1.55    0.25
  -7   1  -9    4.31    0.36
   7  -1   9    4.45    0.39
   9   0  -9    2.00    0.36
  -9   0   9    1.71    0.33
   8   0  -9   -0.09    0.11
  -8   0   9   -0.08    0.10
  -8   0   9   -0.11    0.45
   7   0  -9    0.32    0.17
  -7   0   9    0.36    0.42
  -7   0   9    0.32    0.16
   6   0  -9    5.03    0.42
  -6   0   9    4.95    0.40
  -6   0   9    5.85    0.72
   5   0  -9    0.70    0.17
  -5   0   9    0.76    0.18
  -5   0   9    0.93    0.40
  -4   0   9   17.62    0.66
  -4   0   9   16.26    1.01
  -4   0   9   17.00    1.02
   3   0  -9   11.02    0.51
  -3   0   9   10.96    0.78
  -3   0   9   10.85    0.40
  -3   0   9   10.69    0.78
  -3   0   9   11.67    0.48
  -3   0   9   11.19    0.25
   2   0  -9    0.49    0.12
   2   0  -9    0.50    0.08
  -2   0   9    0.85    0.32
  -2   0   9    0.39    0.27
  -2   0   9    0.62    0.08
  -2   0   9    0.55    0.11
  -2   0   9    0.62    0.11
   1   0  -9   62.69    1.54
   1   0  -9   61.04    1.23
  -1   0   9   62.09    2.39
  -1   0   9   61.82    1.21
  -1   0   9   61.80    1.38
  -1   0   9   61.17    1.40
   0   0  -9    0.94    0.14
   0   0  -9    0.92    0.10
   0   0   9    0.80    0.10
   0   0   9    1.23    0.12
   0   0   9    1.02    0.14
  -1   0  -9    0.55    0.06
  -1   0  -9    0.51    0.29
  -1   0  -9    0.58    0.11
   1   0   9    0.59    0.11
  -2   0  -9   15.46    0.87
  -2   0  -9   16.31    0.96
  -2   0  -9   17.70    0.57
  -2   0  -9   17.15    0.58
   2   0   9   18.10    0.59
  -3   0  -9    8.73    0.40
  -3   0  -9    9.54    0.42
  -3   0  -9    8.59    0.64
  -3   0  -9    9.61    0.71
   3   0   9    8.97    0.42
  -4   0  -9   12.40    0.74
  -4   0  -9   13.13    0.52
  -4   0  -9   12.31    0.55
   4   0   9   13.61    0.55
  -5   0  -9    4.41    0.34
  -5   0  -9    4.86    0.33
   5   0   9    4.84    0.34
  -6   0  -9    0.33    0.13
   6   0   9    0.26    0.12
  -7   0  -9   13.37    0.63
   7   0   9   14.45    0.68
   8  -1  -9    1.27    0.28
  -8   1   9    1.68    0.31
   7  -1  -9    2.95    0.38
  -7   1   9    3.69    0.68
  -7   1   9    3.17    0.38
   6  -1  -9    1.31    0.26
   6  -1  -9    1.13    0.23
  -6   1   9    0.46    0.46
  -6   1   9    1.07    0.22
   5  -1  -9    2.57    0.31
   5  -1  -9    2.21    0.30
  -5   1   9    2.56    0.31
  -5   1   9    2.29    0.50
  -5   1   9    2.63    0.51
   4  -1  -9   25.18    0.83
   4  -1  -9   24.94    0.92
  -4   1   9   27.11    1.34
  -4   1   9   25.56    0.84
  -4   1   9   24.79    1.27
   3  -1  -9    9.76    0.47
  -3   1   9    8.85    0.42
  -3   1   9    9.27    0.71
  -3   1   9    9.15    0.72
   2  -1  -9   38.83    0.84
   2  -1  -9   39.12    1.10
  -2   1   9   37.73    0.89
  -2   1   9   38.05    0.77
  -2   1   9   37.37    1.67
  -2   1   9   37.46    0.97
   1  -1  -9    0.94    0.11
   1  -1  -9    0.92    0.14
  -1   1   9    0.39    0.27
  -1   1   9    0.96    0.12
  -1   1   9    1.10    0.13
  -1   1   9    0.91    0.12
  -1   1   9    0.80    0.09
   0  -1  -9    7.65    0.26
   0  -1  -9    7.43    0.33
   0   1   9    7.89    0.26
   0   1   9    7.29    0.30
  -1  -1  -9   21.28    1.08
  -1  -1  -9   22.80    0.66
  -1  -1  -9   22.05    0.63
  -1  -1  -9   22.25    0.49
   1   1   9   22.62    0.65
  -2  -1  -9   19.85    0.60
  -2  -1  -9   19.79    0.58
  -2  -1  -9   17.84    0.97
  -2  -1  -9   17.11    0.88
   2   1   9   20.44    0.62
  -3  -1  -9    3.01    0.14
  -3  -1  -9    3.05    0.21
  -3  -1  -9    2.92    0.38
  -3  -1  -9    3.98    0.43
  -3  -1  -9    3.27    0.24
   3   1   9    3.08    0.23
  -4  -1  -9   55.86    1.99
  -4  -1  -9   55.54    1.41
  -4  -1  -9   56.51    1.46
   4   1   9   58.07    1.45
  -5  -1  -9    6.49    0.37
   5   1   9    6.52    0.39
  -6  -1  -9    0.29    0.12
   6   1   9    0.13    0.11
  -7  -1  -9    0.12    0.10
   7   1   9    0.04    0.10
  -8  -1  -9    0.00    0.11
   8   1   9    0.03    0.12
   8  -2  -9    0.66    0.21
  -8   2   9    1.17    0.26
  -8   2   9    1.66    0.64
   7  -2  -9    2.47    0.35
  -7   2   9    2.66    0.63
  -7   2   9    1.92    0.30
   6  -2  -9    0.63    0.20
   6  -2  -9    0.57    0.18
  -6   2   9    0.55    0.17
  -6   2   9    0.23    0.46
   5  -2  -9    2.40    0.29
   5  -2  -9    2.44    0.33
  -5   2   9    2.89    0.55
  -5   2   9    2.71    0.51
  -5   2   9    2.88    0.32
   4  -2  -9    9.71    0.47
   4  -2  -9    8.74    0.51
  -4   2   9    8.50    0.73
  -4   2   9    9.37    0.79
  -4   2   9    8.84    0.45
   3  -2  -9    0.01    0.07
   3  -2  -9   -0.02    0.07
  -3   2   9   -0.04    0.06
  -3   2   9   -0.05    0.27
  -3   2   9    0.17    0.32
   2  -2  -9  145.99    2.95
   2  -2  -9  145.28    3.25
   2  -2  -9  143.68    2.63
  -2   2   9  143.47    2.94
  -2   2   9  144.06    2.55
  -2   2   9  142.74    4.83
  -2   2   9  143.08    4.81
   1  -2  -9    0.47    0.11
   1  -2  -9    0.37    0.08
   1  -2  -9    0.29    0.07
  -1   2   9    0.29    0.25
  -1   2   9    0.30    0.06
  -1   2   9    0.42    0.08
  -1   2   9    0.37    0.07
  -1   2   9    0.43    0.08
   0  -2  -9   37.23    0.82
   0  -2  -9   37.59    0.97
   0  -2  -9   37.25    0.80
   0  -2  -9   36.54    0.88
   0   2   9   36.94    0.82
   0   2   9   36.79    0.89
   0   2   9   38.27    0.79
  -1  -2  -9  137.13    2.81
  -1  -2  -9  132.77    4.51
  -1  -2  -9  139.33    2.44
  -1  -2  -9  139.95    2.94
   1   2   9  136.32    2.82
  -2  -2  -9   29.48    0.75
  -2  -2  -9   27.98    1.28
  -2  -2  -9   28.43    0.68
  -3  -2  -9   30.65    0.68
  -3  -2  -9   30.49    0.81
  -3  -2  -9   31.53    0.88
  -3  -2  -9   30.11    1.33
   3   2   9   32.09    0.89
  -4  -2  -9    1.03    0.17
   4   2   9    1.62    0.21
  -5  -2  -9    0.59    0.14
   5   2   9    0.33    0.12
  -6  -2  -9   15.13    0.64
   6   2   9   15.86    0.68
  -7  -2  -9    0.75    0.18
   7   2   9    1.28    0.24
  -8  -2  -9    0.29    0.15
   8   2   9    0.29    0.16
  -9  -2  -9    0.39    0.17
   9   2   9    0.30    0.17
   8  -3  -9    0.54    0.20
  -8   3   9    0.09    0.14
  -8   3   9    0.55    0.63
   7  -3  -9    0.07    0.13
  -7   3   9    0.22    0.15
  -7   3   9    0.27    0.54
   6  -3  -9    6.13    0.43
  -6   3   9    7.14    0.81
  -6   3   9    6.31    0.44
   5  -3  -9   13.22    0.72
   5  -3  -9   14.96    0.65
  -5   3   9   14.54    0.64
  -5   3   9   15.42    1.06
  -5   3   9   14.86    0.75
  -5   3   9   15.60    0.99
   4  -3  -9    2.51    0.32
   4  -3  -9    2.85    0.30
  -4   3   9    2.90    0.30
  -4   3   9    2.50    0.33
  -4   3   9    3.57    0.57
  -4   3   9    3.30    0.56
   3  -3  -9   12.48    0.51
   3  -3  -9   12.91    0.60
  -3   3   9   12.55    0.88
  -3   3   9   12.36    1.01
  -3   3   9   13.10    0.52
   2  -3  -9    4.57    0.31
   2  -3  -9    3.84    0.21
   2  -3  -9    4.52    0.26
  -2   3   9    4.31    0.17
  -2   3   9    3.73    0.53
  -2   3   9    3.93    0.54
  -2   3   9    4.65    0.26
   1  -3  -9    0.03    0.04
   1  -3  -9    0.12    0.06
   1  -3  -9   -0.01    0.03
  -1   3   9    0.05    0.05
  -1   3   9    0.03    0.03
  -1   3   9    0.06    0.27
   0  -3  -9   20.05    0.60
   0  -3  -9   20.25    0.51
   0  -3  -9   19.52    0.52
   0  -3  -9   18.50    0.48
   0   3   9   19.05    0.50
   0   3   9   19.00    0.53
   0   3   9   19.03    0.48
  -1  -3  -9   56.06    1.11
  -1  -3  -9   57.63    1.31
  -1  -3  -9   53.16    2.17
  -1  -3  -9   58.28    1.30
   1   3   9   57.71    1.31
   1   3   9   58.11    1.13
  -2  -3  -9    9.01    0.29
  -2  -3  -9    9.05    0.38
  -2  -3  -9    9.27    0.22
  -2  -3  -9    9.39    0.32
  -2  -3  -9    8.38    0.73
   2   3   9    8.95    0.38
  -3  -3  -9   45.51    1.18
  -3  -3  -9   44.97    0.95
  -3  -3  -9   42.35    1.77
   3   3   9   46.71    1.19
  -4  -3  -9   11.42    0.79
  -4  -3  -9   11.17    0.50
   4   3   9   11.41    0.51
  -5  -3  -9    0.72    0.16
   5   3   9    0.68    0.16
  -6  -3  -9    4.65    0.35
   6   3   9    4.93    0.37
  -7  -3  -9   -0.01    0.09
   7   3   9   -0.02    0.09
  -8  -3  -9    2.96    0.37
   8   3   9    4.28    0.46
  -9  -3  -9    0.25    0.16
   9   3   9    0.23    0.18
   7  -4  -9    0.13    0.12
  -7   4   9    0.20    0.13
  -7   4   9   -0.15    0.56
   6  -4  -9    0.93    0.20
  -6   4   9    1.31    0.59
  -6   4   9    1.09    0.22
   5  -4  -9   12.12    0.70
   5  -4  -9   10.06    0.53
  -5   4   9   11.89    1.00
  -5   4   9   10.60    0.54
  -5   4   9   11.76    0.93
  -5   4   9   10.47    0.65
   4  -4  -9    1.80    0.24
   4  -4  -9    1.60    0.27
  -4   4   9    1.65    0.53
  -4   4   9    2.34    0.51
  -4   4   9    1.68    0.28
  -4   4   9    1.10    0.20
   3  -4  -9    1.37    0.23
   3  -4  -9    1.58    0.20
  -3   4   9    2.67    0.54
  -3   4   9    1.71    0.25
  -3   4   9    1.45    0.20
  -3   4   9    1.35    0.50
   2  -4  -9   11.69    0.45
   2  -4  -9   10.97    0.52
  -2   4   9   10.53    0.91
  -2   4   9   11.21    0.45
  -2   4   9   11.01    0.53
  -2   4   9   10.67    0.86
  -2   4   9   11.59    0.31
   1  -4  -9    1.64    0.17
   1  -4  -9    1.34    0.14
   1  -4  -9    1.54    0.20
  -1   4   9    1.26    0.40
  -1   4   9    1.86    0.16
  -1   4   9    0.47    0.35
  -1   4   9    1.70    0.12
   0  -4  -9   34.71    0.79
   0  -4  -9   35.02    0.94
   0  -4  -9   35.70    0.84
   0   4   9   35.06    0.77
   0   4   9   35.02    0.84
  -1  -4  -9    0.45    0.07
  -1  -4  -9    0.52    0.08
  -1  -4  -9    0.33    0.09
  -1  -4  -9    0.46    0.35
  -1  -4  -9    0.37    0.07
  -1  -4  -9    0.46    0.10
   1   4   9    0.45    0.09
   1   4   9    0.43    0.08
  -2  -4  -9    0.05    0.03
  -2  -4  -9    0.08    0.06
  -2  -4  -9    0.40    0.32
  -2  -4  -9    0.06    0.05
   2   4   9    0.09    0.07
  -3  -4  -9   18.95    0.66
  -3  -4  -9   18.61    0.51
  -3  -4  -9   17.57    1.08
   3   4   9   18.73    0.66
  -4  -4  -9    1.77    0.23
  -4  -4  -9    1.93    0.12
  -4  -4  -9    2.84    0.52
   4   4   9    1.79    0.23
  -5  -4  -9    0.16    0.10
   5   4   9    0.54    0.15
  -6  -4  -9    1.12    0.21
   6   4   9    1.25    0.23
  -7  -4  -9   -0.19    0.08
   7   4   9    0.00    0.10
  -8  -4  -9   17.54    0.81
   8   4   9   16.80    0.82
  -9  -4  -9    0.70    0.21
   9   4   9    0.60    0.22
   7  -5  -9    0.15    0.14
  -7   5   9   -0.37    0.59
  -7   5   9    0.08    0.13
   6  -5  -9    2.90    0.35
  -6   5   9    2.92    0.35
  -6   5   9    3.77    0.81
   5  -5  -9    0.41    0.15
  -5   5   9    0.85    0.44
  -5   5   9    0.33    0.15
  -5   5   9    0.59    0.55
   4  -5  -9    0.41    0.14
   4  -5  -9    0.38    0.17
  -4   5   9    0.97    0.54
  -4   5   9    0.18    0.14
  -4   5   9    0.47    0.41
  -4   5   9    0.28    0.13
   3  -5  -9   14.95    0.72
   3  -5  -9   16.74    0.63
  -3   5   9   17.04    0.76
  -3   5   9   16.29    1.15
  -3   5   9   17.20    1.18
  -3   5   9   16.78    0.63
   2  -5  -9    5.14    0.31
   2  -5  -9    4.73    0.35
  -2   5   9    4.99    0.19
  -2   5   9    5.55    0.38
  -2   5   9    4.96    0.31
   1  -5  -9    0.59    0.11
   1  -5  -9    0.52    0.11
   1  -5  -9    0.54    0.14
  -1   5   9    0.58    0.14
  -1   5   9    0.43    0.42
  -1   5   9    0.64    0.10
   0  -5  -9   23.99    0.73
   0  -5  -9   23.54    0.62
   0  -5  -9   22.97    0.66
   0   5   9   23.30    0.58
  -1  -5  -9    0.50    0.09
  -1  -5  -9    0.67    0.12
  -1  -5  -9    0.77    0.14
  -1  -5  -9    0.66    0.11
  -1  -5  -9    0.69    0.43
   1   5   9    0.71    0.12
   1   5   9    0.63    0.09
  -2  -5  -9   10.05    0.44
  -2  -5  -9   11.96    0.96
  -2  -5  -9   10.59    0.31
  -2  -5  -9   10.67    0.41
   2   5   9   10.72    0.35
  -3  -5  -9    0.78    0.40
  -3  -5  -9    0.36    0.09
  -3  -5  -9    0.40    0.13
  -4  -5  -9    3.55    0.31
  -4  -5  -9    4.91    0.64
  -4  -5  -9    3.67    0.20
  -5  -5  -9   17.34    0.95
  -5  -5  -9   16.89    1.03
  -5  -5  -9   17.16    0.72
  -6  -5  -9    4.14    0.51
  -6  -5  -9    4.13    0.36
   6   5   9    4.49    0.38
  -7  -5  -9   -0.06    0.10
   7   5   9   -0.02    0.12
  -8  -5  -9    0.72    0.22
   8   5   9    0.36    0.18
  -9  -5  -9    0.06    0.13
   9   5   9   -0.02    0.13
   6  -6  -9    0.85    0.21
  -6   6   9    1.01    0.23
  -6   6   9    0.86    0.69
   5  -6  -9    0.19    0.12
  -5   6   9   -0.02    0.10
  -5   6   9    0.08    0.46
  -5   6   9    0.05    0.59
   4  -6  -9    5.14    0.46
   4  -6  -9    4.46    0.35
  -4   6   9    5.62    0.47
  -4   6   9    6.26    0.89
  -4   6   9    5.09    0.77
  -4   6   9    4.99    0.38
   3  -6  -9    0.79    0.16
   3  -6  -9    0.88    0.22
  -3   6   9    0.61    0.52
  -3   6   9    1.11    0.25
  -3   6   9    0.64    0.49
   2  -6  -9    0.31    0.13
   2  -6  -9    0.24    0.10
  -2   6   9    0.34    0.06
  -2   6   9    0.43    0.16
  -2   6   9    0.15    0.47
  -2   6   9   -0.25    0.47
   1  -6  -9    0.84    0.15
   1  -6  -9    0.58    0.11
  -1   6   9    0.59    0.09
  -1   6   9    0.33    0.44
   0  -6  -9    0.58    0.12
   0  -6  -9    0.56    0.12
   0   6   9    0.40    0.09
  -1  -6  -9    1.86    0.17
  -1  -6  -9    2.06    0.23
   1   6   9    2.03    0.15
  -2  -6  -9   84.45    3.21
  -2  -6  -9   86.52    1.97
  -2  -6  -9   81.66    1.61
  -2  -6  -9   85.36    1.82
   2   6   9   83.66    1.66
  -3  -6  -9    3.96    0.25
  -3  -6  -9    4.67    0.71
  -3  -6  -9    3.28    0.33
  -4  -6  -9   18.54    0.74
  -4  -6  -9   19.90    1.27
  -4  -6  -9   18.53    0.56
  -4  -6  -9   19.83    1.07
  -5  -6  -9    0.12    0.12
  -5  -6  -9    0.67    0.38
  -5  -6  -9    0.16    0.40
  -5  -6  -9    0.32    0.07
  -6  -6  -9    0.37    0.35
  -6  -6  -9    0.23    0.14
  -7  -6  -9    8.88    0.74
  -7  -6  -9    8.19    0.55
  -8  -6  -9    0.05    0.12
   8   6   9    0.01    0.14
  -9  -6  -9    0.23    0.17
   9   6   9    0.16    0.18
   6  -7  -9    0.51    0.19
   5  -7  -9    0.47    0.17
  -5   7   9    0.34    0.68
  -5   7   9    0.71    0.56
   4  -7  -9    2.87    0.34
  -4   7   9    3.16    0.73
  -4   7   9    3.20    0.78
   3  -7  -9    0.35    0.17
   3  -7  -9    0.44    0.15
  -3   7   9    0.29    0.53
  -3   7   9    0.24    0.60
  -3   7   9    0.44    0.20
   2  -7  -9    4.09    0.32
  -2   7   9    3.65    0.16
  -2   7   9    2.63    0.65
   1  -7  -9   18.93    0.61
   1  -7  -9   18.93    0.68
  -1   7   9   18.28    0.51
   0  -7  -9    4.74    0.31
   0  -7  -9    5.60    0.30
   0   7   9    5.54    0.26
  -1  -7  -9    2.68    0.20
  -1  -7  -9    2.84    0.29
  -1  -7  -9    2.72    0.27
   1   7   9    2.39    0.18
  -2  -7  -9    2.52    0.26
  -2  -7  -9    2.90    0.71
  -2  -7  -9    2.83    0.18
   2   7   9    2.34    0.18
  -3  -7  -9    0.76    0.17
  -3  -7  -9    0.88    0.51
  -3  -7  -9    0.51    0.07
  -3  -7  -9    0.82    0.16
  -4  -7  -9   11.85    1.12
  -4  -7  -9   11.11    0.58
  -4  -7  -9   10.90    0.44
  -4  -7  -9   10.79    0.81
  -5  -7  -9    0.42    0.10
  -5  -7  -9    0.56    0.39
  -5  -7  -9    0.12    0.12
  -5  -7  -9    0.02    0.42
  -6  -7  -9    0.11    0.13
  -6  -7  -9    0.18    0.36
  -6  -7  -9    0.17    0.41
  -7  -7  -9    5.85    0.70
  -7  -7  -9    5.14    0.46
  -8  -7  -9    3.32    0.62
  -8  -7  -9    2.86    0.41
  -9  -7  -9    0.05    0.15
   9   7   9   -0.08    0.14
   5  -8  -9    0.03    0.14
   4  -8  -9    4.16    0.44
  -4   8   9    4.57    0.85
  -4   8   9    3.34    0.85
   3  -8  -9    1.64    0.27
  -3   8   9    1.14    0.64
   2  -8  -9    0.20    0.13
  -2   8   9    0.14    0.52
   1  -8  -9    1.90    0.26
   1  -8  -9    2.00    0.23
  -1   8   9    1.67    0.16
   0  -8  -9    0.14    0.10
   0  -8  -9    0.09    0.08
   0   8   9    0.07    0.07
  -1  -8  -9    6.89    0.40
  -1  -8  -9    5.74    0.31
  -1  -8  -9    6.26    0.39
   1   8   9    6.31    0.30
  -2  -8  -9    0.00    0.09
  -2  -8  -9    0.03    0.06
  -2  -8  -9   -0.07    0.06
   2   8   9   -0.02    0.07
  -3  -8  -9    0.05    0.12
  -3  -8  -9    0.24    0.49
  -3  -8  -9    0.13    0.06
  -3  -8  -9    0.01    0.09
  -4  -8  -9   10.83    0.60
  -4  -8  -9   12.68    0.96
  -4  -8  -9   13.26    1.26
  -4  -8  -9   10.74    0.47
  -5  -8  -9    0.91    0.23
  -5  -8  -9    1.00    0.16
  -5  -8  -9    0.63    0.53
  -5  -8  -9    0.84    0.47
  -6  -8  -9    2.90    0.39
  -6  -8  -9    3.74    0.66
  -6  -8  -9    3.25    0.75
  -7  -8  -9    1.12    0.52
  -7  -8  -9    0.68    0.24
  -8  -8  -9    0.57    0.22
   4  -9  -9    0.94    0.24
   3  -9  -9    1.10    0.25
  -3   9   9    1.03    0.70
   2  -9  -9    3.20    0.38
  -2   9   9    1.88    0.75
   1  -9  -9    0.10    0.12
   1  -9  -9    0.06    0.11
  -1   9   9    0.04    0.07
   0  -9  -9    1.62    0.26
   0  -9  -9    1.02    0.18
   0   9   9    1.55    0.18
  -1  -9  -9    0.67    0.15
  -1  -9  -9    0.86    0.20
   1   9   9    1.17    0.16
  -2  -9  -9    2.45    0.30
  -2  -9  -9    2.01    0.28
  -2  -9  -9    1.76    0.19
   2   9   9    2.03    0.22
  -3  -9  -9    0.65    0.10
  -3  -9  -9    0.74    0.59
  -3  -9  -9    0.81    0.18
   3   9   9    0.88    0.16
  -4  -9  -9    1.77    0.29
  -4  -9  -9    1.74    0.24
  -4  -9  -9    2.16    0.76
  -5  -9  -9    0.83    0.53
  -5  -9  -9    0.46    0.19
  -5  -9  -9    0.10    0.56
  -5  -9  -9    0.45    0.13
  -6  -9  -9    2.00    0.19
  -6  -9  -9    2.50    0.62
  -6  -9  -9    1.84    0.35
  -6  -9  -9    3.37    0.81
  -7  -9  -9    1.62    0.35
  -7  -9  -9    1.90    0.69
  -7  -9  -9    1.36    0.58
  -8  -9  -9    0.34    0.20
   2 -10  -9    3.11    0.39
   1 -10  -9    1.37    0.22
   1 -10  -9    0.66    0.20
  -1  10   9    0.97    0.13
   0 -10  -9    0.66    0.20
   0 -10  -9    0.61    0.16
   0  10   9    0.51    0.12
  -1 -10  -9    0.05    0.11
  -1 -10  -9    0.18    0.11
   1  10   9    0.10    0.09
  -2 -10  -9    4.96    0.40
  -2 -10  -9    5.17    0.41
  -2 -10  -9    5.38    0.29
   2  10   9    4.78    0.30
  -3 -10  -9    2.11    0.30
  -3 -10  -9    2.29    0.17
   3  10   9    2.14    0.24
  -4 -10  -9    0.00    0.12
  -4 -10  -9   -0.20    0.57
  -5 -10  -9    0.02    0.15
  -5 -10  -9    0.23    0.60
  -5 -10  -9    0.06    0.10
  -6 -10  -9   -0.03    0.08
  -6 -10  -9    0.06    0.56
  -6 -10  -9   -0.17    0.52
  -6 -10  -9   -0.15    0.15
  -7 -10  -9    0.02    0.17
   1 -11  -9    0.68    0.19
   0 -11  -9    0.84    0.23
   0 -11  -9    0.69    0.18
   0  11   9    0.40    0.11
  -1 -11  -9    1.21    0.28
  -1 -11  -9    0.97    0.18
   1  11   9    0.76    0.15
  -2 -11  -9    0.35    0.19
  -2 -11  -9    0.39    0.12
   2  11   9    0.10    0.10
  -3 -11  -9    1.33    0.25
  -3 -11  -9    1.54    0.17
   3  11   9    1.12    0.20
  -4 -11  -9   -0.10    0.12
  -5 -11  -9    0.89    0.20
  -5 -11  -9    1.30    0.77
   3   9 -10    0.83    0.16
  -3  -9  10    1.06    0.19
  -3  -9  10    0.94    0.27
   2   9 -10    0.06    0.08
  -2  -9  10   -0.03    0.14
  -2  -9  10   -0.01    0.09
  -2  -9  10    0.07    0.18
   1   9 -10    0.27    0.10
  -1  -9  10    0.39    0.21
  -1  -9  10    0.27    0.14
  -5  -8  10    2.43    0.40
  -5  -8  10    2.28    0.39
   4   8 -10   -0.11    0.09
  -4  -8  10    0.16    0.17
  -4  -8  10   -0.05    0.13
   3   8 -10    1.35    0.19
  -3  -8  10    1.39    0.31
  -3  -8  10    1.21    0.28
  -3  -8  10    1.18    0.18
   2   8 -10    1.27    0.18
  -2  -8  10    1.23    0.28
  -2  -8  10    1.32    0.30
  -2  -8  10    1.39    0.20
   1   8 -10    0.62    0.13
  -1  -8  10    0.75    0.17
  -1  -8  10    0.72    0.23
  -1  -8  10    0.52    0.20
   0  -8  10   -0.10    0.12
   0  -8  10    0.01    0.11
   1  -8  10   -0.02    0.14
  -7  -7  10    1.06    0.31
   6   7 -10    1.72    0.32
  -6  -7  10    0.53    0.71
  -6  -7  10    1.89    0.36
  -6  -7  10    1.92    0.36
  -5  -7  10    2.93    0.42
  -5  -7  10    0.43    0.67
  -5  -7  10    2.79    0.42
   4   7 -10    6.40    0.37
  -4  -7  10    6.60    0.52
  -4  -7  10    6.84    0.54
   3   7 -10    0.36    0.12
  -3  -7  10    0.48    0.12
  -3  -7  10    0.63    0.21
  -3  -7  10    0.34    0.17
   2   7 -10    1.22    0.17
  -2  -7  10    1.89    0.31
  -2  -7  10    1.43    0.20
  -2  -7  10    1.64    0.30
   1   7 -10    1.18    0.16
  -1  -7  10    1.32    0.20
  -1  -7  10    1.67    0.29
  -1  -7  10    1.36    0.26
   0   7 -10    3.66    0.20
   0  -7  10    3.07    0.30
   0  -7  10    3.39    0.41
  -1   7 -10    6.01    1.17
   1  -7  10    5.90    0.46
  -2   7 -10    0.80    0.81
   2  -7  10    0.51    0.20
  -3   7 -10    0.19    0.68
   7   6 -10    0.69    0.25
  -7  -6  10    0.46    0.23
  -7  -6  10   -0.33    0.49
  -7  -6  10   -0.05    0.60
  -7  -6  10    0.60    0.25
   6   6 -10    0.11    0.17
  -6  -6  10    0.05    0.55
  -6  -6  10    0.60    0.22
  -6  -6  10    0.54    0.21
   5   6 -10    0.35    0.18
  -5  -6  10   -0.07    0.12
  -5  -6  10   -0.01    0.14
  -5  -6  10   -0.14    0.55
  -4  -6  10    3.67    0.19
  -4  -6  10    3.44    0.41
  -4  -6  10    3.19    0.41
  -4  -6  10    1.47    0.66
   3   6 -10    1.47    0.19
   3   6 -10    1.11    0.24
  -3  -6  10    1.52    0.28
  -3  -6  10    0.90    0.23
  -3  -6  10    1.22    0.16
   2   6 -10    1.66    0.19
   2   6 -10    1.41    0.26
  -2  -6  10    1.61    0.28
  -2  -6  10    1.80    0.28
  -2  -6  10    1.70    0.20
   1   6 -10    0.13    0.07
   1   6 -10   -0.03    0.09
  -1  -6  10    0.03    0.10
  -1  -6  10    0.00    0.08
  -1  -6  10   -0.04    0.09
   0   6 -10    0.05    0.06
   0  -6  10    0.06    0.11
   0  -6  10    0.07    0.08
   0  -6  10    0.16    0.13
  -1   6 -10    0.01    0.61
   1  -6  10    0.69    0.19
  -2   6 -10    1.89    0.79
   2  -6  10    1.70    0.28
  -3   6 -10    0.32    0.63
  -3   6 -10   -0.04    0.64
   3  -6  10    0.18    0.14
  -4   6 -10    0.89    0.70
  -4   6 -10    0.51    0.63
   8   5 -10    0.47    0.23
  -8  -5  10    0.44    0.23
   7   5 -10    1.12    0.27
  -7  -5  10    1.10    0.63
  -7  -5  10    1.44    0.31
  -7  -5  10    0.43    0.56
  -7  -5  10    1.00    0.27
   6   5 -10    0.35    0.18
  -6  -5  10    0.39    0.19
  -6  -5  10   -0.13    0.45
  -6  -5  10    0.08    0.47
  -6  -5  10    0.33    0.17
   5   5 -10    1.82    0.30
   5   5 -10    1.59    0.28
  -5  -5  10    1.37    0.28
  -5  -5  10    0.65    0.51
  -5  -5  10    1.53    0.29
  -5  -5  10    0.85    0.57
   4   5 -10    1.93    0.29
   4   5 -10    2.01    0.29
  -4  -5  10    1.91    0.12
  -4  -5  10    2.03    0.31
  -4  -5  10    0.81    0.54
  -4  -5  10    2.12    0.32
   3   5 -10    1.95    0.28
   3   5 -10    2.40    0.24
  -3  -5  10    2.55    0.34
  -3  -5  10    2.62    0.34
  -3  -5  10    1.72    0.18
   2   5 -10   17.04    0.76
   2   5 -10   18.57    0.57
  -2  -5  10   18.32    0.74
  -2  -5  10   18.81    0.57
  -2  -5  10   18.16    0.76
   1   5 -10    3.32    0.21
   1   5 -10    2.82    0.33
  -1  -5  10    2.47    0.29
  -1  -5  10    2.78    0.33
  -1  -5  10    3.32    0.23
   0   5 -10    0.02    0.05
   0   5 -10    0.01    0.08
   0  -5  10    0.02    0.07
   0  -5  10    0.06    0.09
   0  -5  10    0.04    0.07
   0  -5  10   -0.02    0.09
  -1   5 -10    0.23    0.13
  -1   5 -10    0.36    0.58
  -1   5 -10    0.30    0.06
   1  -5  10    0.14    0.11
  -2   5 -10    0.51    0.19
  -2   5 -10    0.59    0.58
  -2   5 -10    0.66    0.56
   2  -5  10    0.37    0.14
  -3   5 -10    2.85    0.76
  -3   5 -10    4.28    0.86
   3  -5  10    2.93    0.35
  -4   5 -10    0.48    0.57
  -4   5 -10    0.57    0.59
  -5   5 -10    0.18    0.59
   8   4 -10    0.20    0.21
  -8  -4  10   -0.03    0.51
  -8  -4  10    0.06    0.17
   7   4 -10    2.39    0.37
  -7  -4  10    0.48    0.55
  -7  -4  10    1.02    0.55
  -7  -4  10    2.03    0.36
   6   4 -10    1.15    0.26
  -6  -4  10    1.23    0.26
  -6  -4  10    0.80    0.50
  -6  -4  10    1.42    0.29
  -6  -4  10    1.21    0.51
   5   4 -10    8.93    0.55
   5   4 -10    9.77    0.55
  -5  -4  10    7.72    0.93
  -5  -4  10    9.05    0.56
  -5  -4  10   10.30    0.58
  -5  -4  10    8.91    0.95
   4   4 -10   12.55    0.63
   4   4 -10   12.27    0.60
  -4  -4  10   12.72    0.64
  -4  -4  10   13.23    1.10
  -4  -4  10   11.28    1.02
  -4  -4  10   13.10    0.63
   3   4 -10   53.60    1.63
   3   4 -10   53.54    1.20
   3   4 -10   51.58    1.54
  -3  -4  10   51.57    1.47
  -3  -4  10   54.22    2.41
  -3  -4  10   52.25    1.11
  -3  -4  10   52.53    1.46
   2   4 -10    7.27    0.45
   2   4 -10    7.49    0.33
   2   4 -10    7.75    0.49
  -2  -4  10    8.05    0.45
  -2  -4  10    7.74    0.32
  -2  -4  10    7.45    0.43
   1   4 -10    0.89    0.13
   1   4 -10    0.69    0.17
   1   4 -10    0.88    0.20
  -1  -4  10    0.68    0.15
  -1  -4  10    0.66    0.15
  -1  -4  10    0.84    0.13
  -1  -4  10    0.44    0.11
   0   4 -10    0.10    0.06
   0   4 -10    0.02    0.53
   0   4 -10    0.22    0.13
   0   4 -10    0.29    0.12
   0  -4  10    0.26    0.10
   0  -4  10    0.24    0.09
   0  -4  10    0.31    0.11
  -1   4 -10    2.63    0.32
  -1   4 -10    3.40    0.73
  -1   4 -10    2.70    0.14
  -1   4 -10    4.61    0.80
   1  -4  10    2.73    0.30
  -2   4 -10   -0.05    0.46
  -2   4 -10    0.41    0.14
  -2   4 -10    0.38    0.49
   2  -4  10    0.39    0.14
  -3   4 -10    3.03    0.69
  -3   4 -10    2.62    0.65
  -3   4 -10    1.85    0.30
   3  -4  10    1.91    0.28
  -4   4 -10    5.89    0.87
  -4   4 -10    4.34    0.77
   4  -4  10    3.90    0.34
  -5   4 -10    0.45    0.52
  -6   4 -10    0.64    0.63
   8   3 -10    3.88    0.48
  -8  -3  10    3.06    0.45
   7   3 -10    4.98    0.45
  -7  -3  10    5.22    0.54
   6   3 -10    0.17    0.13
   6   3 -10    0.30    0.17
  -6  -3  10    0.10    0.11
  -6  -3  10    0.27    0.42
  -6  -3  10    0.17    0.44
  -6  -3  10    0.18    0.14
   5   3 -10    1.00    0.22
   5   3 -10    0.90    0.22
  -5  -3  10    1.17    0.24
  -5  -3  10    0.41    0.43
  -5  -3  10    1.23    0.23
  -5  -3  10    0.89    0.50
   4   3 -10    0.36    0.14
  -4  -3  10   -0.09    0.38
  -4  -3  10    0.30    0.43
  -4  -3  10    0.20    0.12
  -4  -3  10    0.29    0.12
   3   3 -10   17.53    0.73
   3   3 -10   18.14    0.72
   3   3 -10   17.13    0.53
  -3  -3  10   17.60    1.20
  -3  -3  10   17.57    0.47
  -3  -3  10   16.80    1.15
  -3  -3  10   18.17    0.69
  -3  -3  10   17.66    0.70
   2   3 -10    5.10    0.26
   2   3 -10    5.62    0.38
   2   3 -10    4.78    0.35
  -2  -3  10    5.02    0.34
  -2  -3  10    4.83    0.24
  -2  -3  10    6.45    0.83
  -2  -3  10    5.32    0.34
   1   3 -10    2.57    0.18
   1   3 -10    2.39    0.30
   1   3 -10    2.31    0.27
  -1  -3  10    2.80    0.19
  -1  -3  10    3.07    0.25
  -1  -3  10    2.75    0.28
   0   3 -10   42.94    2.02
   0   3 -10   41.10    1.36
   0   3 -10   38.61    1.21
   0   3 -10   40.51    0.89
   0  -3  10   40.56    0.94
   0  -3  10   39.76    1.13
   0  -3  10   41.65    1.06
  -1   3 -10    1.52    0.22
  -1   3 -10    1.52    0.27
  -1   3 -10    1.74    0.58
  -1   3 -10    1.68    0.11
  -1   3 -10    2.11    0.56
   1  -3  10    1.51    0.21
  -2   3 -10    3.52    0.64
  -2   3 -10    4.13    0.76
  -2   3 -10    2.82    0.33
   2  -3  10    3.05    0.31
  -3   3 -10    7.23    0.83
  -3   3 -10    7.56    0.82
  -3   3 -10    7.53    0.50
   3  -3  10    7.52    0.43
  -4   3 -10    6.81    0.50
  -4   3 -10    6.95    0.82
  -4   3 -10    7.80    0.77
   4  -3  10    6.53    0.43
  -5   3 -10    7.07    0.86
   5  -3  10    6.91    0.46
  -6   3 -10    0.06    0.45
  -7   3 -10    0.00    0.49
  -8  -2  10    3.06    0.43
  -8  -2  10    1.54    0.61
   7   2 -10    1.53    0.29
  -7  -2  10    1.85    0.32
  -7  -2  10    1.88    0.60
   6   2 -10   10.22    0.58
   6   2 -10    7.99    0.54
  -6  -2  10    8.52    0.55
  -6  -2  10   10.15    0.86
  -6  -2  10    9.98    0.94
   5   2 -10    0.39    0.15
  -5  -2  10    0.29    0.44
  -5  -2  10   -0.13    0.40
  -5  -2  10    0.48    0.14
  -5  -2  10    0.35    0.16
   4   2 -10    0.15    0.11
  -4  -2  10   -0.35    0.33
  -4  -2  10    0.17    0.10
  -4  -2  10    0.36    0.13
  -4  -2  10    0.37    0.38
   3   2 -10   14.73    0.64
  -3  -2  10   13.96    0.97
  -3  -2  10   14.20    0.38
  -3  -2  10   14.66    1.04
  -3  -2  10   15.31    0.61
  -3  -2  10   14.08    0.57
   2   2 -10    0.18    0.07
   2   2 -10    0.02    0.06
   2   2 -10    0.06    0.07
  -2  -2  10    0.35    0.33
  -2  -2  10    0.08    0.05
  -2  -2  10    0.14    0.09
  -2  -2  10   -0.01    0.06
  -2  -2  10    0.03    0.05
   1   2 -10   55.39    1.16
   1   2 -10   56.12    1.61
   1   2 -10   55.88    1.51
  -1  -2  10   54.88    1.39
  -1  -2  10   55.13    1.16
  -1  -2  10   56.77    1.34
   0   2 -10   34.52    1.72
   0   2 -10   35.15    1.17
   0   2 -10   32.69    1.59
   0   2 -10   33.73    1.04
   0   2 -10   35.21    0.77
   0  -2  10   35.39    0.90
   0  -2  10   34.80    0.98
   0  -2  10   35.30    0.81
  -1   2 -10    8.38    0.43
  -1   2 -10    8.20    0.24
  -1   2 -10    7.64    0.84
  -1   2 -10    7.00    0.66
   1  -2  10    8.13    0.40
  -2   2 -10    5.06    0.70
  -2   2 -10    4.98    0.34
  -2   2 -10    5.10    0.69
   2  -2  10    5.65    0.34
  -3   2 -10    1.44    0.24
  -3   2 -10    2.07    0.55
  -3   2 -10    1.53    0.47
   3  -2  10    1.03    0.19
  -4   2 -10    8.34    0.78
  -4   2 -10    6.93    0.48
  -4   2 -10    8.49    0.82
   4  -2  10    7.83    0.45
  -5   2 -10    5.46    0.72
  -5   2 -10    5.10    0.44
   5  -2  10    5.03    0.38
   6  -2  10    4.32    0.39
   8   1 -10    0.20    0.16
  -8  -1  10    0.38    0.18
  -8  -1  10   -0.26    0.51
  -7  -1  10    0.64    0.47
  -7  -1  10    0.15    0.14
   6   1 -10    5.87    0.46
  -6  -1  10    6.78    0.80
  -6  -1  10    7.35    0.75
  -6  -1  10    6.10    0.45
   5   1 -10    7.01    0.46
  -5  -1  10    7.04    0.45
  -5  -1  10    7.78    0.79
  -5  -1  10    7.06    0.75
   4   1 -10    2.49    0.29
  -4  -1  10    2.50    0.26
  -4  -1  10    2.26    0.28
  -4  -1  10    3.01    0.56
  -4  -1  10    1.46    0.43
   3   1 -10   12.25    0.57
  -3  -1  10   13.54    0.51
  -3  -1  10   13.79    0.96
  -3  -1  10   10.86    0.88
  -3  -1  10   13.95    0.56
  -3  -1  10   13.61    0.34
   2   1 -10    0.65    0.13
   2   1 -10    0.60    0.14
   2   1 -10    0.89    0.12
  -2  -1  10    0.38    0.35
  -2  -1  10    0.51    0.11
  -2  -1  10    0.66    0.09
  -2  -1  10    0.31    0.30
  -2  -1  10    0.50    0.12
   1   1 -10   16.45    0.64
   1   1 -10   15.56    0.61
   1   1 -10   16.00    0.46
  -1  -1  10   15.38    0.53
  -1  -1  10   18.40    1.17
  -1  -1  10   16.07    0.45
  -1  -1  10   16.07    0.55
   0   1 -10   73.83    2.83
   0   1 -10   75.73    1.46
   0   1 -10   74.56    1.86
   0  -1  10   75.16    1.73
   0  -1  10   76.91    1.48
  -1   1 -10    0.01    0.32
  -1   1 -10    0.06    0.06
  -1   1 -10    0.02    0.03
  -1   1 -10    0.02    0.23
   1  -1  10   -0.01    0.04
   1  -1  10    0.13    0.05
  -2   1 -10   16.80    0.63
  -2   1 -10   15.98    0.95
  -2   1 -10   16.72    1.02
   2  -1  10   16.50    0.60
  -3   1 -10   10.67    0.91
  -3   1 -10   12.87    0.56
  -3   1 -10   11.07    0.87
   3  -1  10   12.70    0.53
  -4   1 -10    1.73    0.41
  -4   1 -10    1.38    0.23
  -4   1 -10    2.28    0.46
   4  -1  10    1.36    0.21
  -5   1 -10    2.76    0.49
  -5   1 -10    1.81    0.28
  -5   1 -10    2.48    0.30
   5  -1  10    2.93    0.33
  -6   1 -10    0.28    0.13
   6  -1  10    0.11    0.12
  -7   1 -10    1.03    0.23
   7  -1  10    0.97    0.24
   8   0 -10    0.13    0.14
  -8   0  10    0.07    0.15
  -8   0  10    0.24    0.53
   7   0 -10    3.02    0.39
  -7   0  10    2.46    0.62
  -7   0  10    2.85    0.38
   6   0 -10    1.78    0.29
  -6   0  10    1.99    0.30
  -6   0  10    1.85    0.56
  -6   0  10    3.22    0.56
   5   0 -10    5.57    0.42
  -5   0  10    7.06    0.73
  -5   0  10    6.01    0.67
  -5   0  10    5.32    0.39
   4   0 -10    5.81    0.40
  -4   0  10    6.11    0.39
  -4   0  10    6.28    0.69
  -4   0  10    5.92    0.67
   3   0 -10   11.47    0.53
  -3   0  10   11.04    0.84
  -3   0  10   10.50    0.47
  -3   0  10   10.62    0.41
  -3   0  10   10.74    0.27
  -3   0  10   10.24    0.82
   2   0 -10    0.67    0.10
   2   0 -10    0.29    0.10
  -2   0  10    0.39    0.09
  -2   0  10    0.51    0.32
  -2   0  10    0.40    0.29
  -2   0  10    0.54    0.12
  -2   0  10    0.52    0.08
   1   0 -10    5.12    0.23
   1   0 -10    5.06    0.31
  -1   0  10    5.28    0.27
  -1   0  10    4.89    0.26
  -1   0  10    5.02    0.22
  -1   0  10    5.45    0.76
   0   0 -10    2.93    0.47
   0   0 -10    3.12    0.23
   0   0 -10    3.24    0.17
   0   0  10    3.54    0.18
   0   0  10    3.17    0.21
  -1   0 -10    6.75    0.70
  -1   0 -10    6.07    0.32
  -1   0 -10    6.68    0.21
  -1   0 -10    6.24    0.58
   1   0  10    6.86    0.25
   1   0  10    7.03    0.34
  -2   0 -10    1.09    0.16
  -2   0 -10    2.02    0.41
  -2   0 -10    1.14    0.38
  -2   0 -10    1.36    0.18
   2   0  10    1.21    0.18
  -3   0 -10    0.30    0.32
  -3   0 -10    0.27    0.27
  -3   0 -10    0.39    0.11
  -3   0 -10    0.82    0.15
   3   0  10    0.52    0.13
  -4   0 -10   11.03    0.49
  -4   0 -10    9.86    0.74
  -4   0 -10   10.96    0.52
   4   0  10   11.29    0.51
  -5   0 -10    2.74    0.48
  -5   0 -10    1.41    0.21
  -5   0 -10    1.81    0.27
   5   0  10    1.62    0.24
  -6   0 -10    0.39    0.14
   6   0  10    0.34    0.15
  -7   0 -10    2.89    0.34
   7   0  10    2.80    0.36
  -8   0 -10    1.36    0.27
   8  -1 -10    1.23    0.27
  -8   1  10    0.63    0.20
  -8   1  10    0.61    0.57
   7  -1 -10    5.36    0.44
  -7   1  10    4.75    0.41
  -7   1  10    5.84    0.81
   6  -1 -10    3.13    0.37
   6  -1 -10    3.50    0.42
  -6   1  10    3.12    0.37
  -6   1  10    3.69    0.66
   5  -1 -10    0.02    0.10
   5  -1 -10    0.04    0.09
  -5   1  10    0.27    0.35
  -5   1  10    0.41    0.41
  -5   1  10    0.19    0.12
   4  -1 -10    2.90    0.32
   4  -1 -10    3.00    0.31
  -4   1  10    3.36    0.55
  -4   1  10    2.63    0.50
  -4   1  10    3.12    0.27
   3  -1 -10    0.13    0.08
  -3   1  10    0.32    0.04
  -3   1  10    0.06    0.32
  -3   1  10    0.22    0.31
  -3   1  10    0.15    0.09
   2  -1 -10    1.59    0.21
   2  -1 -10    1.83    0.14
  -2   1  10    1.82    0.12
  -2   1  10    2.22    0.22
  -2   1  10    2.37    0.44
  -2   1  10    2.03    0.16
   1  -1 -10    0.36    0.07
   1  -1 -10    0.47    0.12
  -1   1  10    0.43    0.09
  -1   1  10    0.58    0.08
  -1   1  10    0.53    0.10
  -1   1  10    0.46    0.31
   0  -1 -10    0.33    0.07
   0  -1 -10    0.45    0.32
   0  -1 -10    0.39    0.10
   0   1  10    0.41    0.08
   0   1  10    0.55    0.10
  -1  -1 -10   38.74    1.69
  -1  -1 -10   41.41    1.07
  -1  -1 -10   41.35    1.03
  -1  -1 -10   40.83    0.82
   1   1  10   41.89    0.87
   1   1  10   40.02    1.03
  -2  -1 -10    1.46    0.35
  -2  -1 -10    1.69    0.19
  -2  -1 -10    1.63    0.16
  -2  -1 -10    2.53    0.40
   2   1  10    1.86    0.20
  -3  -1 -10    4.21    0.57
  -3  -1 -10    4.52    0.51
  -3  -1 -10    4.87    0.28
  -3  -1 -10    4.56    0.19
  -3  -1 -10    4.44    0.29
   3   1  10    4.49    0.30
  -4  -1 -10   20.53    0.99
  -4  -1 -10   21.58    1.05
  -4  -1 -10   21.02    0.72
  -4  -1 -10   20.78    0.72
   4   1  10   22.00    0.75
  -5  -1 -10    0.67    0.16
  -5  -1 -10    0.93    0.31
   5   1  10    0.62    0.16
  -6  -1 -10    2.14    0.28
   6   1  10    1.51    0.24
  -7  -1 -10    2.90    0.34
   7   1  10    2.47    0.33
  -8  -1 -10    0.43    0.16
   8   1  10    0.73    0.22
   8  -2 -10    0.24    0.16
  -8   2  10    0.47    0.19
  -8   2  10    0.36    0.61
   7  -2 -10    2.23    0.33
  -7   2  10    2.47    0.34
  -7   2  10    2.08    0.65
   6  -2 -10    0.43    0.16
  -6   2  10    0.42    0.16
  -6   2  10    0.18    0.46
   5  -2 -10    1.14    0.22
   5  -2 -10    1.11    0.23
  -5   2  10    1.04    0.45
  -5   2  10    1.01    0.20
  -5   2  10    1.63    0.46
   4  -2 -10    1.08    0.21
   4  -2 -10    1.37    0.22
  -4   2  10    0.85    0.41
  -4   2  10    0.95    0.38
  -4   2  10    1.62    0.23
   3  -2 -10    1.08    0.17
   3  -2 -10    1.47    0.23
  -3   2  10    1.31    0.19
  -3   2  10    1.61    0.45
  -3   2  10    0.97    0.40
   2  -2 -10    1.99    0.17
   2  -2 -10    1.73    0.19
   2  -2 -10    1.53    0.21
  -2   2  10    1.68    0.11
  -2   2  10    2.27    0.45
  -2   2  10    1.73    0.19
  -2   2  10    1.09    0.36
   1  -2 -10    0.58    0.09
   1  -2 -10    0.65    0.13
   1  -2 -10    0.63    0.10
  -1   2  10    0.54    0.08
  -1   2  10   -0.03    0.27
  -1   2  10    0.69    0.10
  -1   2  10    0.52    0.10
   0  -2 -10    0.19    0.07
   0  -2 -10    0.32    0.33
   0  -2 -10    0.23    0.06
   0  -2 -10    0.17    0.07
   0  -2 -10    0.11    0.04
   0   2  10    0.21    0.06
   0   2  10    0.20    0.07
  -1  -2 -10   32.37    0.87
  -1  -2 -10   31.67    1.48
  -1  -2 -10   33.04    0.85
  -1  -2 -10   31.78    0.69
   1   2  10   33.09    0.72
   1   2  10   32.80    0.86
  -2  -2 -10   23.25    1.20
  -2  -2 -10   24.68    0.69
  -2  -2 -10   23.69    1.11
  -2  -2 -10   25.14    0.73
   2   2  10   24.89    0.73
  -3  -2 -10   34.05    0.96
  -3  -2 -10   34.46    0.90
  -3  -2 -10   34.42    1.48
  -3  -2 -10   33.81    0.76
   3   2  10   33.09    0.96
  -4  -2 -10    0.14    0.09
  -4  -2 -10    0.34    0.31
   4   2  10    0.01    0.07
  -5  -2 -10    5.27    0.35
   5   2  10    5.74    0.37
  -6  -2 -10   29.12    0.97
   6   2  10   28.18    0.99
  -7  -2 -10   10.18    0.56
   7   2  10   10.51    0.58
  -8  -2 -10    0.00    0.11
   8   2  10   -0.04    0.12
  -9  -2 -10    0.09    0.13
   9   2  10   -0.13    0.13
   8  -3 -10    0.54    0.19
  -8   3  10    0.21    0.15
   7  -3 -10    0.13    0.14
  -7   3  10    0.17    0.13
  -7   3  10    0.07    0.56
   6  -3 -10    0.15    0.12
  -6   3  10    0.02    0.47
  -6   3  10    0.06    0.10
   5  -3 -10    3.73    0.32
   5  -3 -10    3.72    0.42
  -5   3  10    4.00    0.61
  -5   3  10    4.04    0.66
  -5   3  10    3.80    0.33
   4  -3 -10    1.38    0.22
   4  -3 -10    0.92    0.20
  -4   3  10    1.08    0.20
  -4   3  10    0.93    0.45
  -4   3  10    1.50    0.45
   3  -3 -10    0.52    0.13
   3  -3 -10    0.47    0.15
  -3   3  10    0.98    0.44
  -3   3  10    0.74    0.15
  -3   3  10    1.06    0.41
   2  -3 -10   48.71    1.06
   2  -3 -10   48.51    1.19
   2  -3 -10   48.65    1.36
  -2   3  10   48.98    0.97
  -2   3  10   49.85    2.14
  -2   3  10   48.83    1.20
  -2   3  10   46.79    2.04
   1  -3 -10    0.41    0.09
   1  -3 -10    0.76    0.14
   1  -3 -10    0.79    0.11
  -1   3  10    0.83    0.12
  -1   3  10    0.27    0.32
  -1   3  10    1.00    0.11
   0  -3 -10   23.57    0.59
   0  -3 -10   23.81    0.64
   0  -3 -10   23.90    0.71
   0  -3 -10   24.24    1.28
   0  -3 -10   23.90    0.59
   0   3  10   24.87    0.59
   0   3  10   23.87    0.64
   0   3  10   23.30    0.59
  -1  -3 -10   11.17    0.33
  -1  -3 -10   11.60    0.40
  -1  -3 -10   12.05    0.42
  -1  -3 -10    9.91    0.87
   1   3  10   11.50    0.35
   1   3  10   11.93    0.42
  -2  -3 -10    3.46    0.20
  -2  -3 -10    4.77    0.59
  -2  -3 -10    3.64    0.13
  -2  -3 -10    3.46    0.23
   2   3  10    3.56    0.24
  -3  -3 -10   15.04    0.56
  -3  -3 -10   14.85    0.43
  -3  -3 -10   13.89    0.95
   3   3  10   14.91    0.56
  -4  -3 -10   57.55    1.46
  -4  -3 -10   56.99    1.06
  -4  -3 -10   53.94    2.11
   4   3  10   55.90    1.47
  -5  -3 -10    5.08    0.35
   5   3  10    4.89    0.36
  -6  -3 -10    0.05    0.09
   6   3  10    0.01    0.09
  -7  -3 -10    0.34    0.14
   7   3  10    0.61    0.18
  -8  -3 -10   -0.08    0.11
   8   3  10   -0.14    0.12
  -9  -3 -10    3.17    0.41
   9   3  10    2.70    0.39
   7  -4 -10   -0.07    0.09
  -7   4  10    0.15    0.60
  -7   4  10    0.01    0.12
   6  -4 -10    0.52    0.17
  -6   4  10    0.38    0.16
  -6   4  10    0.65    0.56
   5  -4 -10    8.79    0.60
   5  -4 -10    9.07    0.50
  -5   4  10    8.30    0.49
  -5   4  10   10.91    0.93
  -5   4  10    8.04    0.58
  -5   4  10   10.54    0.97
   4  -4 -10    0.93    0.18
   4  -4 -10    1.12    0.24
  -4   4  10    1.29    0.26
  -4   4  10    1.35    0.51
  -4   4  10    1.50    0.23
  -4   4  10    1.67    0.48
   3  -4 -10   44.39    1.17
   3  -4 -10   42.87    1.35
  -3   4  10   44.01    1.95
  -3   4  10   44.37    1.18
  -3   4  10   42.52    1.98
   2  -4 -10    3.57    0.22
   2  -4 -10    3.45    0.24
   2  -4 -10    3.20    0.28
  -2   4  10    3.45    0.25
  -2   4  10    3.01    0.16
  -2   4  10    2.48    0.55
  -2   4  10    1.84    0.50
   1  -4 -10    2.42    0.18
   1  -4 -10    2.38    0.18
   1  -4 -10    2.74    0.23
  -1   4  10    2.38    0.18
  -1   4  10    2.73    0.16
   0  -4 -10   54.82    1.17
   0  -4 -10   58.29    1.40
   0  -4 -10   56.98    1.25
   0   4  10   56.66    1.16
  -1  -4 -10    1.11    0.15
  -1  -4 -10    0.87    0.14
  -1  -4 -10    1.16    0.43
  -1  -4 -10    0.94    0.11
   1   4  10    1.01    0.12
   1   4  10    1.00    0.14
  -2  -4 -10   17.60    1.14
  -2  -4 -10   19.35    0.56
  -2  -4 -10   19.48    0.63
  -2  -4 -10   19.19    0.44
   2   4  10   19.57    0.64
  -3  -4 -10    1.02    0.17
  -3  -4 -10    0.87    0.12
  -3  -4 -10    1.27    0.37
   3   4  10    0.89    0.16
  -4  -4 -10   11.96    0.54
  -4  -4 -10   12.05    0.93
  -4  -4 -10   12.35    0.35
   4   4  10   13.08    0.57
  -5  -4 -10    6.77    0.42
  -5  -4 -10    6.78    0.67
   5   4  10    6.06    0.41
  -6  -4 -10    1.88    0.27
   6   4  10    1.69    0.27
  -7  -4 -10    0.27    0.14
   7   4  10    0.56    0.18
  -8  -4 -10    4.07    0.45
   8   4  10    4.69    0.50
  -9  -4 -10    1.90    0.33
   9   4  10    1.81    0.35
   7  -5 -10    1.59    0.29
  -7   5  10    1.45    0.28
   6  -5 -10    0.54    0.18
  -6   5  10    0.39    0.17
  -6   5  10    0.36    0.63
   5  -5 -10    1.06    0.21
  -5   5  10    1.72    0.55
  -5   5  10    1.75    0.65
  -5   5  10    1.29    0.23
   4  -5 -10    1.88    0.31
   4  -5 -10    2.34    0.29
  -4   5  10    1.22    0.55
  -4   5  10    2.61    0.59
  -4   5  10    1.79    0.25
  -4   5  10    1.77    0.30
   3  -5 -10    3.92    0.36
   3  -5 -10    4.05    0.30
  -3   5  10    4.59    0.32
  -3   5  10    3.06    0.62
  -3   5  10    4.32    0.38
  -3   5  10    4.59    0.70
   2  -5 -10    0.63    0.13
   2  -5 -10    0.68    0.17
  -2   5  10    0.62    0.16
  -2   5  10    0.34    0.43
  -2   5  10    0.69    0.14
  -2   5  10    0.45    0.47
  -2   5  10    0.78    0.09
   1  -5 -10    0.07    0.09
   1  -5 -10    0.09    0.07
   1  -5 -10    0.18    0.08
  -1   5  10   -0.53    0.39
  -1   5  10    0.07    0.05
   0  -5 -10   12.10    0.40
   0  -5 -10   12.74    0.48
   0   5  10   12.37    0.39
  -1  -5 -10    1.46    0.17
  -1  -5 -10    1.63    0.15
  -1  -5 -10    1.76    0.20
  -1  -5 -10    1.64    0.53
   1   5  10    1.29    0.13
   1   5  10    1.47    0.17
  -2  -5 -10   16.60    0.59
  -2  -5 -10   16.52    1.12
  -2  -5 -10   14.82    0.52
  -2  -5 -10   15.54    0.40
   2   5  10   15.23    0.57
   2   5  10   15.49    0.45
  -3  -5 -10   41.61    1.00
  -3  -5 -10   44.48    1.92
  -3  -5 -10   41.49    1.18
   3   5  10   43.30    1.20
  -4  -5 -10   24.78    0.65
  -4  -5 -10   28.19    1.43
  -4  -5 -10   26.08    0.89
   4   5  10   25.76    0.90
  -5  -5 -10   25.89    1.28
  -5  -5 -10   23.63    0.89
   5   5  10   24.44    0.92
  -6  -5 -10    0.13    0.12
   6   5  10    0.16    0.12
  -7  -5 -10    0.59    0.18
   7   5  10    0.53    0.19
  -8  -5 -10    1.70    0.30
   8   5  10    0.99    0.25
  -9  -5 -10    0.40    0.20
   9   5  10    0.54    0.22
   6  -6 -10    2.48    0.36
  -6   6  10    1.84    0.77
  -6   6  10    2.57    0.35
   5  -6 -10    0.16    0.14
  -5   6  10    0.04    0.12
  -5   6  10    0.57    0.49
  -5   6  10    0.28    0.62
   4  -6 -10    0.39    0.20
   4  -6 -10    0.30    0.14
  -4   6  10    0.22    0.15
  -4   6  10    0.70    0.52
  -4   6  10    1.19    0.62
   3  -6 -10    0.00    0.10
   3  -6 -10    0.08    0.08
  -3   6  10   -0.02    0.52
  -3   6  10    0.23    0.46
  -3   6  10    0.03    0.11
   2  -6 -10    0.07    0.10
   2  -6 -10    0.03    0.08
  -2   6  10    0.19    0.06
  -2   6  10   -0.23    0.46
  -2   6  10    0.37    0.14
   1  -6 -10    6.14    0.31
   1  -6 -10    6.29    0.34
  -1   6  10    5.77    0.26
   0  -6 -10    2.27    0.21
   0  -6 -10    2.62    0.21
   0   6  10    2.40    0.17
  -1  -6 -10    0.12    0.09
  -1  -6 -10    0.13    0.08
  -1  -6 -10    0.08    0.06
   1   6  10    0.13    0.07
  -2  -6 -10    7.05    0.89
  -2  -6 -10    4.76    0.21
  -2  -6 -10    5.05    0.32
  -2  -6 -10    4.62    0.30
   2   6  10    4.63    0.24
   2   6  10    4.71    0.31
  -3  -6 -10    7.29    0.97
  -3  -6 -10    6.46    0.33
  -3  -6 -10    6.52    0.40
  -4  -6 -10   12.58    0.45
  -4  -6 -10   14.66    1.12
  -4  -6 -10   14.45    0.63
  -5  -6 -10    0.02    0.05
  -5  -6 -10   -0.36    0.37
  -5  -6 -10    0.07    0.11
  -6  -6 -10    0.27    0.14
   6   6  10    0.11    0.14
  -7  -6 -10   11.74    0.67
   7   6  10   11.14    0.68
  -8  -6 -10    2.54    0.38
   8   6  10    2.88    0.42
  -9  -6 -10   -0.07    0.14
   9   6  10    0.20    0.18
   5  -7 -10    0.47    0.18
  -5   7  10    0.90    0.72
  -5   7  10    0.37    0.54
   4  -7 -10    2.04    0.30
  -4   7  10    2.67    0.70
  -4   7  10    2.37    0.73
   3  -7 -10   -0.01    0.09
  -3   7  10    0.39    0.52
   2  -7 -10    0.05    0.09
  -2   7  10    0.15    0.52
  -2   7  10    0.04    0.05
   1  -7 -10    9.59    0.46
   1  -7 -10    8.63    0.39
  -1   7  10    8.86    0.33
   0  -7 -10    6.60    0.36
   0  -7 -10    6.84    0.34
   0   7  10    7.07    0.30
  -1  -7 -10    6.21    0.37
  -1  -7 -10    5.90    0.28
  -1  -7 -10    6.18    0.34
   1   7  10    5.82    0.28
  -2  -7 -10    1.11    0.18
  -2  -7 -10    2.13    0.62
  -2  -7 -10    1.63    0.15
   2   7  10    1.63    0.18
  -3  -7 -10    0.11    0.45
  -3  -7 -10    0.15    0.05
  -3  -7 -10    0.10    0.10
  -3  -7 -10    0.16    0.10
  -4  -7 -10   12.54    0.61
  -4  -7 -10   12.21    1.14
  -4  -7 -10   11.85    0.46
  -5  -7 -10    4.62    0.39
  -5  -7 -10    4.79    0.25
  -5  -7 -10    6.02    0.86
  -6  -7 -10    0.24    0.44
  -6  -7 -10    0.23    0.14
  -7  -7 -10    1.56    0.30
  -8  -7 -10    1.75    0.34
   8   7  10    1.66    0.34
  -9  -7 -10    0.58    0.23
   9   7  10    0.93    0.29
   5  -8 -10    0.04    0.11
   4  -8 -10    0.19    0.15
  -4   8  10    0.44    0.61
   3  -8 -10    1.15    0.23
  -3   8  10    0.97    0.64
   2  -8 -10    0.24    0.12
  -2   8  10    0.07    0.59
   1  -8 -10    0.02    0.08
   1  -8 -10    0.00    0.08
  -1   8  10   -0.01    0.06
   0  -8 -10    0.61    0.13
   0  -8 -10    0.43    0.14
   0   8  10    0.79    0.13
  -1  -8 -10    9.46    0.47
  -1  -8 -10    9.27    0.48
  -1  -8 -10   10.22    0.41
   1   8  10    8.61    0.37
  -2  -8 -10    9.02    0.46
  -2  -8 -10    8.53    0.35
   2   8  10    8.88    0.37
  -3  -8 -10    4.54    0.89
  -3  -8 -10    2.48    0.14
  -3  -8 -10    2.31    0.27
  -4  -8 -10    2.68    0.76
  -4  -8 -10    1.61    0.27
  -4  -8 -10    1.52    0.21
  -5  -8 -10    2.43    0.71
  -5  -8 -10    1.82    0.30
  -5  -8 -10    1.77    0.20
  -6  -8 -10   -0.17    0.43
  -6  -8 -10    0.21    0.40
  -6  -8 -10    0.28    0.17
  -7  -8 -10    2.97    0.41
  -7  -8 -10    2.70    0.59
  -8  -8 -10    0.27    0.18
   8   8  10    0.11    0.16
   4  -9 -10    0.03    0.13
   3  -9 -10    0.46    0.18
  -3   9  10    0.53    0.67
   2  -9 -10    5.18    0.41
   1  -9 -10    1.12    0.22
   1  -9 -10    0.90    0.18
  -1   9  10    0.85    0.13
   0  -9 -10    0.21    0.12
   0  -9 -10    0.23    0.11
   0   9  10    0.20    0.09
  -1  -9 -10    0.32    0.14
  -1  -9 -10    0.37    0.12
   1   9  10    0.68    0.13
  -2  -9 -10    0.76    0.14
  -2  -9 -10    0.94    0.21
   2   9  10    0.64    0.13
  -3  -9 -10    0.13    0.57
  -3  -9 -10    0.22    0.13
  -3  -9 -10    0.23    0.07
   3   9  10    0.24    0.11
  -4  -9 -10    0.89    0.65
  -4  -9 -10    0.84    0.18
  -5  -9 -10    1.24    0.19
  -5  -9 -10    0.95    0.25
  -5  -9 -10    2.33    0.75
  -6  -9 -10    1.70    0.17
  -6  -9 -10    1.88    0.35
  -6  -9 -10    2.79    0.82
  -6  -9 -10    2.19    0.59
  -7  -9 -10    0.91    0.27
  -7  -9 -10    1.37    0.56
   2 -10 -10    0.10    0.15
   1 -10 -10    5.57    0.44
   1 -10 -10    4.88    0.35
  -1  10  10    4.47    0.23
   0 -10 -10    0.16    0.12
   0 -10 -10    0.22    0.14
   0  10  10    0.11    0.09
  -1 -10 -10    0.57    0.19
  -1 -10 -10    0.79    0.17
   1  10  10    0.54    0.13
  -2 -10 -10   -0.04    0.08
  -2 -10 -10   -0.02    0.12
   2  10  10   -0.02    0.09
  -3 -10 -10    4.32    0.41
  -3 -10 -10    4.26    0.22
   3  10  10    3.95    0.28
  -4 -10 -10    6.44    1.28
  -4 -10 -10    3.43    0.35
  -5 -10 -10    1.65    0.33
  -5 -10 -10    1.14    0.20
  -5 -10 -10    2.19    0.81
  -6 -10 -10    1.64    0.20
  -6 -10 -10    1.69    0.34
  -6 -10 -10    2.18    0.83
  -7 -10 -10   -0.08    0.15
   1 -11 -10    0.14    0.14
   0 -11 -10    1.27    0.22
   0 -11 -10    0.68    0.22
   0  11  10    0.63    0.13
  -1 -11 -10    0.07    0.11
   1  11  10    0.06    0.09
  -2 -11 -10   -0.12    0.13
  -2 -11 -10    0.00    0.09
   2  11  10   -0.06    0.08
  -3 -11 -10    0.32    0.16
   3  11  10    0.20    0.13
  -4 -11 -10    1.41    0.26
  -5 -11 -10    0.88    0.20
  -5  -8  11    0.04    0.14
   4   8 -11    0.14    0.11
  -4  -8  11    0.12    0.17
  -4  -8  11    0.06    0.16
   3   8 -11   -0.11    0.08
  -3  -8  11    0.19    0.17
  -3  -8  11   -0.05    0.08
  -3  -8  11    0.02    0.14
   2   8 -11    0.84    0.15
  -2  -8  11    1.04    0.18
  -2  -8  11    0.75    0.23
  -2  -8  11    1.25    0.29
   1   8 -11    4.27    0.25
  -1  -8  11    4.31    0.51
  -1  -8  11    3.88    0.31
   0  -8  11    0.13    0.18
   0  -8  11    0.17    0.13
   1  -8  11    0.03    0.15
  -6  -7  11    0.11    0.18
  -6  -7  11    0.23    0.20
  -5  -7  11    0.19    0.18
  -5  -7  11    0.47    0.67
  -5  -7  11    0.09    0.15
   4   7 -11    5.11    0.33
  -4  -7  11    5.12    0.55
  -4  -7  11    5.42    0.56
   3   7 -11    1.02    0.17
  -3  -7  11    0.96    0.16
  -3  -7  11    0.89    0.25
  -3  -7  11    0.44    0.19
   2   7 -11    1.41    0.19
  -2  -7  11    2.07    0.34
  -2  -7  11    1.51    0.21
  -2  -7  11    2.05    0.33
   1   7 -11    0.06    0.08
  -1  -7  11    0.04    0.10
  -1  -7  11   -0.08    0.12
  -1  -7  11    0.05    0.13
   0   7 -11    1.03    0.13
   0  -7  11    0.90    0.18
   0  -7  11    0.91    0.25
   1  -7  11    2.32    0.36
  -2   7 -11   -0.29    0.74
   2  -7  11   -0.03    0.13
   7   6 -11    1.57    0.33
  -7  -6  11    1.84    0.38
  -7  -6  11    1.94    0.37
   6   6 -11    1.34    0.30
  -6  -6  11    0.25    0.62
  -6  -6  11    0.93    0.27
  -6  -6  11    1.45    0.32
  -5  -6  11    4.25    0.50
  -5  -6  11    3.96    0.49
   4   6 -11    3.25    0.30
  -4  -6  11    3.77    0.20
  -4  -6  11    3.06    0.40
  -4  -6  11    3.65    0.44
  -4  -6  11    2.19    0.80
   3   6 -11    4.15    0.28
  -3  -6  11    3.82    0.24
  -3  -6  11    2.99    0.38
  -3  -6  11    3.67    0.43
   2   6 -11    6.46    0.33
  -2  -6  11    6.50    0.47
  -2  -6  11    6.29    0.34
  -2  -6  11    6.18    0.47
   1   6 -11    3.52    0.23
  -1  -6  11    4.17    0.44
  -1  -6  11    4.06    0.28
  -1  -6  11    4.35    0.43
   0   6 -11   -0.02    0.05
   0  -6  11    0.12    0.13
   0  -6  11   -0.05    0.08
  -1   6 -11    0.03    0.65
   1  -6  11    0.55    0.19
  -2   6 -11    7.67    1.15
   2  -6  11    6.55    0.47
  -3   6 -11    0.76    0.73
  -3   6 -11    0.67    0.68
   3  -6  11    0.25    0.16
  -4   6 -11    0.30    0.69
  -4   6 -11    0.73    0.67
   7   5 -11    0.31    0.22
  -7  -5  11    0.10    0.55
  -7  -5  11   -0.21    0.54
  -7  -5  11    0.39    0.22
  -7  -5  11    0.48    0.23
   6   5 -11    0.05    0.15
  -6  -5  11   -0.05    0.13
  -6  -5  11   -0.06    0.13
  -6  -5  11   -0.07    0.46
  -6  -5  11   -0.02    0.52
  -5  -5  11    7.23    0.53
  -5  -5  11    6.84    0.97
  -5  -5  11    6.99    0.52
   4   5 -11   -0.04    0.10
  -4  -5  11    0.25    0.14
  -4  -5  11    0.15    0.51
  -4  -5  11   -0.03    0.05
  -4  -5  11    0.02    0.12
   3   5 -11   10.17    0.58
   3   5 -11   10.87    0.44
  -3  -5  11    9.23    0.54
  -3  -5  11    9.22    0.56
  -3  -5  11   10.09    0.38
   2   5 -11    9.92    0.40
   2   5 -11    9.63    0.57
  -2  -5  11   10.37    0.55
  -2  -5  11   10.20    0.41
  -2  -5  11    9.20    0.55
   1   5 -11    9.58    0.37
   1   5 -11   10.01    0.57
  -1  -5  11   10.01    0.42
  -1  -5  11   11.09    0.54
  -1  -5  11   10.00    0.55
   0   5 -11    0.08    0.10
   0   5 -11    0.00    0.05
   0  -5  11    0.14    0.10
   0  -5  11    0.12    0.09
   0  -5  11    0.07    0.09
  -1   5 -11    0.09    0.12
  -1   5 -11   -0.55    0.53
   1  -5  11    0.10    0.12
  -2   5 -11    0.12    0.59
  -2   5 -11   -0.24    0.53
   2  -5  11    0.06    0.11
  -3   5 -11    2.86    0.81
  -3   5 -11    4.72    0.91
   3  -5  11    2.63    0.34
  -4   5 -11    0.60    0.66
  -4   5 -11    1.06    0.67
   4  -5  11    0.92    0.22
  -5   5 -11    0.44    0.64
  -8  -4  11    0.74    0.25
   7   4 -11    0.12    0.20
  -7  -4  11   -0.35    0.52
  -7  -4  11   -0.15    0.51
  -7  -4  11   -0.05    0.14
   6   4 -11   -0.02    0.14
  -6  -4  11    0.11    0.44
  -6  -4  11    0.11    0.14
  -6  -4  11   -0.14    0.44
  -6  -4  11    0.09    0.14
   5   4 -11   12.15    0.66
  -5  -4  11   11.88    0.64
  -5  -4  11   11.10    0.64
  -5  -4  11   10.79    1.08
  -5  -4  11    9.88    1.05
   4   4 -11    3.34    0.38
  -4  -4  11    2.70    0.35
  -4  -4  11    2.40    0.32
  -4  -4  11    3.22    0.73
   3   4 -11    0.56    0.16
   3   4 -11    0.56    0.13
  -3  -4  11    0.36    0.14
  -3  -4  11    0.53    0.16
  -3  -4  11    0.42    0.10
  -3  -4  11    0.49    0.48
   2   4 -11    4.42    0.36
   2   4 -11    3.98    0.25
   2   4 -11    4.74    0.39
  -2  -4  11    4.28    0.24
  -2  -4  11    3.74    0.33
  -2  -4  11    4.36    0.35
   1   4 -11    0.43    0.15
   1   4 -11    0.50    0.10
  -1  -4  11    0.44    0.11
  -1  -4  11    0.37    0.13
  -1  -4  11    0.58    0.12
  -1  -4  11    0.42    0.14
   0   4 -11    4.00    0.35
   0   4 -11    4.39    0.22
   0  -4  11    4.41    0.33
   0  -4  11    3.97    0.25
  -1   4 -11    1.75    0.69
  -1   4 -11    1.41    0.10
  -1   4 -11    1.44    0.25
   1  -4  11    1.32    0.22
  -2   4 -11   -0.31    0.45
  -2   4 -11    0.07    0.11
  -2   4 -11    0.78    0.52
   2  -4  11    0.09    0.10
  -3   4 -11    6.36    0.94
  -3   4 -11    4.31    0.48
  -3   4 -11    4.23    0.80
   3  -4  11    4.22    0.36
  -4   4 -11    5.74    0.90
  -4   4 -11    3.41    0.67
   4  -4  11    3.90    0.40
  -5   4 -11    0.97    0.58
  -6   4 -11    0.72    0.61
  -8  -3  11    0.31    0.21
  -8  -3  11    0.49    0.55
  -7  -3  11    5.62    0.49
  -7  -3  11    3.17    0.65
  -7  -3  11    1.44    0.56
  -6  -3  11    1.04    0.54
  -6  -3  11    0.39    0.46
  -6  -3  11    0.87    0.24
   5   3 -11    0.02    0.11
  -5  -3  11   -0.04    0.10
  -5  -3  11    0.45    0.45
  -5  -3  11    0.02    0.43
  -5  -3  11    0.06    0.09
   4   3 -11    0.03    0.09
  -4  -3  11    0.06    0.10
  -4  -3  11    0.18    0.13
  -4  -3  11   -0.13    0.39
  -4  -3  11   -0.47    0.42
   3   3 -11    3.67    0.32
   3   3 -11    3.97    0.25
  -3  -3  11    3.66    0.20
  -3  -3  11    3.85    0.32
  -3  -3  11    3.36    0.35
  -3  -3  11    4.43    0.78
   2   3 -11    7.23    0.45
   2   3 -11    6.79    0.31
   2   3 -11    6.85    0.43
  -2  -3  11    7.01    0.40
  -2  -3  11    6.26    0.28
  -2  -3  11    6.75    0.40
   1   3 -11    8.24    0.47
   1   3 -11    8.55    0.34
   1   3 -11    8.96    0.52
  -1  -3  11    8.75    0.35
  -1  -3  11    9.17    0.43
  -1  -3  11    8.29    0.44
   0   3 -11    2.67    0.34
   0   3 -11    3.20    0.71
   0   3 -11    2.42    0.17
   0   3 -11    2.72    0.31
   0  -3  11    2.83    0.20
   0  -3  11    3.08    0.26
  -1   3 -11    3.52    0.70
  -1   3 -11    3.48    0.15
  -1   3 -11    4.21    0.73
  -1   3 -11    3.41    0.30
   1  -3  11    3.62    0.30
  -2   3 -11    5.02    0.65
  -2   3 -11    6.63    0.83
  -2   3 -11    5.87    0.42
   2  -3  11    6.89    0.41
  -3   3 -11    2.29    0.59
  -3   3 -11    2.96    0.68
  -3   3 -11    1.69    0.29
   3  -3  11    1.89    0.26
  -4   3 -11    8.71    0.87
  -4   3 -11    8.46    0.84
  -4   3 -11    6.79    0.52
   4  -3  11    9.08    0.52
  -5   3 -11    1.50    0.57
   5  -3  11    1.24    0.24
  -6   3 -11    0.94    0.55
  -8  -2  11    0.21    0.55
  -8  -2  11    0.44    0.20
  -7  -2  11   -0.06    0.11
  -7  -2  11    0.04    0.48
  -6  -2  11   10.92    1.03
  -6  -2  11   13.07    1.02
  -6  -2  11   11.81    0.66
   5   2 -11    6.26    0.46
  -5  -2  11    5.75    0.78
  -5  -2  11    6.29    0.80
  -5  -2  11    6.89    0.47
   4   2 -11    0.05    0.09
  -4  -2  11   -0.03    0.08
  -4  -2  11    0.00    0.06
  -4  -2  11   -0.45    0.37
  -4  -2  11   -0.22    0.36
   3   2 -11    3.53    0.23
   3   2 -11    4.42    0.34
  -3  -2  11    3.88    0.29
  -3  -2  11    4.31    0.73
  -3  -2  11    3.91    0.19
  -3  -2  11    4.17    0.33
   2   2 -11   14.29    0.63
   2   2 -11   15.03    0.63
   2   2 -11   15.32    0.47
  -2  -2  11   13.92    0.56
  -2  -2  11   14.73    1.07
  -2  -2  11   14.85    0.58
  -2  -2  11   14.32    0.44
  -2  -2  11   14.85    0.44
   1   2 -11   34.55    0.81
   1   2 -11   33.08    1.12
   1   2 -11   32.85    1.06
  -1  -2  11   34.48    0.94
  -1  -2  11   34.24    0.99
  -1  -2  11   32.49    0.79
   0   2 -11    2.38    0.27
   0   2 -11    1.72    0.16
   0   2 -11    2.07    0.62
   0  -2  11    1.84    0.18
   0  -2  11    2.16    0.24
  -1   2 -11    1.39    0.21
  -1   2 -11    1.66    0.54
  -1   2 -11    1.43    0.10
  -1   2 -11    1.97    0.53
   1  -2  11    1.25    0.19
  -2   2 -11    5.42    0.37
  -2   2 -11    5.86    0.81
  -2   2 -11    5.36    0.75
   2  -2  11    5.49    0.35
  -3   2 -11    3.89    0.59
  -3   2 -11    4.19    0.35
  -3   2 -11    5.84    0.82
   3  -2  11    4.50    0.34
  -4   2 -11    0.23    0.41
  -4   2 -11    0.09    0.37
  -4   2 -11    0.09    0.12
   4  -2  11    0.06    0.11
  -5   2 -11    0.93    0.24
  -5   2 -11    1.49    0.50
   5  -2  11    1.00    0.22
  -6   2 -11    5.69    0.75
   6  -2  11    4.90    0.42
   8   1 -11    0.77    0.23
  -8  -1  11    0.51    0.21
  -8  -1  11    0.25    0.54
  -7  -1  11    0.82    0.54
  -7  -1  11    1.09    0.26
   6   1 -11    2.06    0.31
  -6  -1  11    2.06    0.32
  -6  -1  11    1.50    0.56
  -6  -1  11    1.93    0.56
   5   1 -11    0.21    0.13
  -5  -1  11    0.25    0.40
  -5  -1  11    0.16    0.12
  -5  -1  11    0.08    0.41
   4   1 -11    0.07    0.09
  -4  -1  11    0.25    0.38
  -4  -1  11    0.46    0.42
  -4  -1  11    0.13    0.08
  -4  -1  11    0.04    0.09
   3   1 -11    0.23    0.11
  -3  -1  11    0.27    0.06
  -3  -1  11    0.32    0.12
  -3  -1  11    0.77    0.42
  -3  -1  11    0.11    0.36
  -3  -1  11    0.49    0.11
   2   1 -11   -0.02    0.06
   2   1 -11    0.10    0.06
  -2  -1  11    0.07    0.34
  -2  -1  11    0.02    0.04
  -2  -1  11    0.02    0.07
  -2  -1  11   -0.03    0.04
   1   1 -11    6.88    0.28
   1   1 -11    6.47    0.38
  -1  -1  11    7.43    0.35
  -1  -1  11    7.47    0.37
  -1  -1  11    6.87    0.28
   0   1 -11   80.40    2.00
   0   1 -11   78.44    1.56
   0   1 -11   80.46    3.10
   0  -1  11   82.05    1.59
   0  -1  11   82.24    1.87
  -1   1 -11    2.43    0.23
  -1   1 -11    2.63    0.53
  -1   1 -11    2.79    0.47
  -1   1 -11    2.25    0.13
   1  -1  11    2.32    0.16
   1  -1  11    2.47    0.22
  -2   1 -11    2.06    0.40
  -2   1 -11    2.37    0.26
  -2   1 -11    2.36    0.51
   2  -1  11    2.44    0.26
  -3   1 -11    7.52    0.44
  -3   1 -11    7.05    0.83
  -3   1 -11    8.21    0.79
   3  -1  11    8.26    0.44
  -4   1 -11    5.71    0.70
  -4   1 -11    4.72    0.38
  -4   1 -11    6.07    0.73
   4  -1  11    5.18    0.37
  -5   1 -11   11.06    0.62
  -5   1 -11   11.47    0.84
   5  -1  11   10.78    0.56
  -6   1 -11    0.16    0.32
   6  -1  11    0.09    0.12
   7  -1  11   -0.04    0.12
   8   0 -11    5.03    0.54
  -8   0  11    4.41    0.83
  -8   0  11    5.60    0.49
   7   0 -11    2.42    0.35
  -7   0  11    2.32    0.35
  -7   0  11    2.66    0.66
   6   0 -11    0.95    0.24
  -6   0  11    0.79    0.52
  -6   0  11    1.07    0.45
  -6   0  11    0.63    0.20
   5   0 -11    0.17    0.11
  -5   0  11   -0.07    0.35
  -5   0  11    0.08    0.42
  -5   0  11    0.45    0.14
   4   0 -11   19.85    0.81
  -4   0  11   20.64    1.24
  -4   0  11   19.39    1.22
  -4   0  11   21.74    0.78
   3   0 -11    9.74    0.50
  -3   0  11    9.70    0.84
  -3   0  11   10.58    0.48
  -3   0  11   10.12    0.28
  -3   0  11    7.11    0.76
  -3   0  11   10.48    0.42
   2   0 -11    7.41    0.30
   2   0 -11    7.20    0.40
  -2   0  11    7.47    0.36
  -2   0  11    6.03    0.70
  -2   0  11    7.16    0.26
  -2   0  11    6.33    0.32
   1   0 -11   27.77    0.89
   1   0 -11   27.93    0.68
  -1   0  11   27.56    0.79
  -1   0  11   27.63    0.77
  -1   0  11   29.14    1.50
  -1   0  11   27.90    0.67
   0   0 -11    7.27    0.38
   0   0 -11    7.21    0.27
   0   0 -11    7.90    0.79
   0   0  11    7.97    0.36
   0   0  11    7.68    0.29
  -1   0 -11    7.54    0.76
  -1   0 -11    7.66    0.67
  -1   0 -11    8.02    0.25
  -1   0 -11    7.90    0.39
   1   0  11    7.63    0.37
   1   0  11    7.63    0.29
  -2   0 -11    4.77    0.29
  -2   0 -11    4.08    0.58
  -2   0 -11    3.91    0.53
   2   0  11    4.12    0.29
  -3   0 -11    7.24    0.38
  -3   0 -11    5.79    0.66
  -3   0 -11    5.81    0.72
  -3   0 -11    6.51    0.37
   3   0  11    6.98    0.38
  -4   0 -11   14.11    0.64
  -4   0 -11   16.03    0.98
  -4   0 -11   15.57    0.92
  -4   0 -11   15.13    0.62
   4   0  11   15.54    0.64
  -5   0 -11    7.49    0.68
  -5   0 -11    7.75    0.44
   5   0  11    7.51    0.45
  -6   0 -11    1.26    0.23
   6   0  11    1.08    0.23
  -7   0 -11    0.42    0.17
   7   0  11    0.30    0.16
  -8   0 -11    0.34    0.17
   8   0  11    0.16    0.17
   8  -1 -11    0.11    0.14
  -8   1  11   -0.03    0.12
  -8   1  11    0.23    0.55
   7  -1 -11    4.01    0.44
  -7   1  11    3.41    0.69
  -7   1  11    3.10    0.39
   6  -1 -11    8.28    0.52
  -6   1  11    9.43    0.82
  -6   1  11    9.06    0.92
  -6   1  11    8.81    0.54
   5  -1 -11    1.33    0.24
   5  -1 -11    1.28    0.24
  -5   1  11    0.85    0.44
  -5   1  11    1.86    0.28
  -5   1  11    1.95    0.51
   4  -1 -11    6.88    0.45
   4  -1 -11    7.07    0.42
  -4   1  11    6.92    0.41
  -4   1  11    7.46    0.76
  -4   1  11    7.57    0.77
   3  -1 -11    5.61    0.38
  -3   1  11    5.59    0.18
  -3   1  11    6.27    0.67
  -3   1  11    5.69    0.67
  -3   1  11    6.01    0.36
  -3   1  11    5.81    0.18
   2  -1 -11    7.82    0.42
   2  -1 -11    8.39    0.32
  -2   1  11    8.44    0.38
  -2   1  11    8.45    0.34
  -2   1  11    9.61    0.87
  -2   1  11    8.07    0.27
   1  -1 -11   53.70    1.12
   1  -1 -11   52.91    1.40
  -1   1  11   52.27    1.22
  -1   1  11   52.56    1.25
  -1   1  11   52.49    2.20
  -1   1  11   54.47    1.10
   0  -1 -11    0.07    0.06
   0  -1 -11    0.03    0.04
   0  -1 -11   -0.35    0.31
   0   1  11    0.05    0.04
   0   1  11    0.03    0.05
  -1  -1 -11   14.67    0.97
  -1  -1 -11   15.14    0.87
  -1  -1 -11   14.79    0.38
  -1  -1 -11   15.08    0.54
   1   1  11   14.71    0.42
   1   1  11   14.56    0.53
  -2  -1 -11   41.29    1.78
  -2  -1 -11   43.21    1.14
  -2  -1 -11   44.14    1.13
  -2  -1 -11   41.53    1.69
   2   1  11   42.29    1.13
  -3  -1 -11    9.21    0.43
  -3  -1 -11    9.47    0.72
  -3  -1 -11    9.64    0.43
  -3  -1 -11    9.60    0.32
  -3  -1 -11    9.46    0.76
   3   1  11   10.53    0.47
  -4  -1 -11   -0.04    0.29
  -4  -1 -11    0.23    0.27
  -4  -1 -11    0.27    0.11
   4   1  11    0.21    0.10
  -5  -1 -11    5.59    0.37
  -5  -1 -11    5.68    0.59
   5   1  11    5.85    0.39
  -6  -1 -11   14.73    0.65
   6   1  11   15.01    0.68
  -7  -1 -11    4.69    0.39
   7   1  11    4.76    0.41
  -8  -1 -11    0.37    0.17
   8   1  11    0.79    0.23
   8  -2 -11    1.30    0.28
  -8   2  11    1.20    0.27
  -8   2  11    1.70    0.71
   7  -2 -11    0.10    0.14
  -7   2  11    0.03    0.12
  -7   2  11    0.14    0.53
   6  -2 -11    2.46    0.34
  -6   2  11    2.88    0.36
  -6   2  11    2.18    0.64
   5  -2 -11    4.25    0.39
   5  -2 -11    4.78    0.37
  -5   2  11    4.00    0.34
  -5   2  11    4.34    0.66
  -5   2  11    3.36    0.62
   4  -2 -11    0.59    0.17
   4  -2 -11    0.45    0.14
  -4   2  11    0.79    0.17
  -4   2  11    0.36    0.44
  -4   2  11    0.61    0.39
   3  -2 -11   25.45    0.80
   3  -2 -11   25.54    0.91
  -3   2  11   25.27    1.35
  -3   2  11   26.32    0.81
  -3   2  11   25.87    0.51
  -3   2  11   25.37    1.39
   2  -2 -11   44.36    1.11
   2  -2 -11   43.28    1.26
   2  -2 -11   43.62    0.98
  -2   2  11   45.21    1.12
  -2   2  11   45.17    0.92
  -2   2  11   44.20    1.92
  -2   2  11   44.57    1.94
   1  -2 -11    0.48    0.09
   1  -2 -11    0.42    0.09
   1  -2 -11    0.42    0.11
  -1   2  11    0.48    0.09
  -1   2  11    0.23    0.34
  -1   2  11    0.37    0.09
  -1   2  11    0.50    0.08
   0  -2 -11   11.20    0.93
   0  -2 -11    9.72    0.33
   0  -2 -11   10.40    0.43
   0   2  11   10.34    0.34
   0   2  11   10.71    0.40
  -1  -2 -11    9.97    0.30
  -1  -2 -11   10.03    0.40
  -1  -2 -11   10.35    0.72
  -1  -2 -11    9.81    0.39
  -1  -2 -11   10.87    0.86
   1   2  11    9.30    0.39
   1   2  11    9.91    0.33
  -2  -2 -11   14.86    0.88
  -2  -2 -11   16.05    0.53
  -2  -2 -11   16.34    0.56
  -2  -2 -11   15.97    1.02
  -2  -2 -11   15.32    0.32
   2   2  11   17.09    0.58
  -3  -2 -11   30.93    1.34
  -3  -2 -11   31.16    1.42
  -3  -2 -11   30.79    0.91
  -3  -2 -11   30.18    0.72
   3   2  11   30.76    0.92
  -4  -2 -11    2.60    0.43
  -4  -2 -11    2.69    0.28
   4   2  11    2.32    0.27
  -5  -2 -11    0.32    0.12
   5   2  11    0.36    0.13
  -6  -2 -11    0.00    0.09
   6   2  11    0.03    0.09
  -7  -2 -11   11.18    0.59
   7   2  11   11.28    0.62
  -8  -2 -11    0.08    0.12
   8   2  11   -0.02    0.12
  -9  -2 -11    0.20    0.15
   9   2  11    0.63    0.22
   8  -3 -11    0.13    0.14
  -8   3  11   -0.07    0.11
   7  -3 -11    3.99    0.45
  -7   3  11    4.86    0.88
  -7   3  11    3.70    0.43
   6  -3 -11    1.13    0.24
  -6   3  11    0.73    0.55
  -6   3  11    0.96    0.22
  -6   3  11    1.63    0.50
   5  -3 -11    1.97    0.28
   5  -3 -11    1.82    0.30
  -5   3  11    2.31    0.30
  -5   3  11    2.19    0.52
  -5   3  11    1.87    0.57
   4  -3 -11    0.47    0.14
   4  -3 -11    0.59    0.17
  -4   3  11    1.52    0.49
  -4   3  11    0.41    0.13
  -4   3  11    1.72    0.48
   3  -3 -11   31.60    0.93
   3  -3 -11   31.86    1.08
  -3   3  11   30.75    0.93
  -3   3  11   32.69    1.63
  -3   3  11   31.66    1.58
   2  -3 -11   48.88    1.40
   2  -3 -11   49.78    1.11
   2  -3 -11   50.87    1.24
  -2   3  11   50.93    1.24
  -2   3  11   54.90    2.25
  -2   3  11   47.15    2.13
  -2   3  11   50.17    1.02
   1  -3 -11    0.57    0.13
   1  -3 -11    0.47    0.09
   1  -3 -11    0.54    0.10
  -1   3  11   -0.30    0.33
  -1   3  11    0.51    0.09
  -1   3  11    0.52    0.10
   0  -3 -11    5.94    0.82
   0  -3 -11    6.24    0.28
   0  -3 -11    6.09    0.26
   0  -3 -11    6.31    0.32
   0   3  11    6.45    0.26
   0   3  11    6.63    0.29
  -1  -3 -11   22.21    1.25
  -1  -3 -11   22.24    0.54
  -1  -3 -11   22.56    0.66
  -1  -3 -11   22.55    0.66
  -1  -3 -11   20.72    1.11
   1   3  11   23.62    0.57
   1   3  11   23.20    0.68
  -2  -3 -11    0.06    0.07
  -2  -3 -11    0.08    0.06
  -2  -3 -11    0.04    0.03
  -2  -3 -11   -0.20    0.31
   2   3  11    0.02    0.06
  -3  -3 -11   20.38    0.55
  -3  -3 -11   20.29    1.16
  -3  -3 -11   20.56    0.69
   3   3  11   20.05    0.70
  -4  -3 -11   33.67    1.48
  -4  -3 -11   32.18    0.68
  -4  -3 -11   32.34    0.99
   4   3  11   32.46    1.01
  -5  -3 -11   13.27    0.59
   5   3  11   11.85    0.58
  -6  -3 -11    0.52    0.15
   6   3  11    0.41    0.15
  -7  -3 -11    0.89    0.21
   7   3  11    1.40    0.26
  -8  -3 -11    0.01    0.11
   8   3  11   -0.03    0.11
  -9  -3 -11    4.90    0.44
   9   3  11    5.01    0.54
   7  -4 -11    0.04    0.12
  -7   4  11   -0.08    0.63
  -7   4  11    0.23    0.16
   6  -4 -11    0.29    0.15
  -6   4  11    0.25    0.43
  -6   4  11    0.65    0.60
  -6   4  11   -0.03    0.11
   5  -4 -11    0.28    0.13
  -5   4  11    0.44    0.53
  -5   4  11    1.02    0.48
  -5   4  11    0.33    0.14
   4  -4 -11    1.13    0.24
   4  -4 -11    1.86    0.25
  -4   4  11    1.08    0.52
  -4   4  11    1.70    0.25
  -4   4  11    2.19    0.57
   3  -4 -11    2.03    0.29
   3  -4 -11    2.28    0.25
  -3   4  11    1.61    0.22
  -3   4  11    1.33    0.52
  -3   4  11    1.85    0.52
   2  -4 -11   51.13    1.15
   2  -4 -11   52.77    1.27
   2  -4 -11   52.44    1.46
  -2   4  11   51.31    1.03
  -2   4  11   52.13    1.27
  -2   4  11   49.44    2.21
  -2   4  11   49.72    2.24
   1  -4 -11    0.02    0.04
   1  -4 -11    0.05    0.07
   1  -4 -11    0.00    0.06
  -1   4  11   -0.03    0.04
  -1   4  11    0.10    0.07
  -1   4  11   -0.56    0.36
   0  -4 -11    7.19    0.35
   0  -4 -11    6.76    0.33
   0  -4 -11    6.93    0.29
   0   4  11    7.45    0.28
  -1  -4 -11   26.47    0.74
  -1  -4 -11   27.54    1.46
  -1  -4 -11   26.56    0.64
  -1  -4 -11   27.36    0.76
   1   4  11   26.64    0.65
   1   4  11   26.56    0.76
  -2  -4 -11    5.59    0.28
  -2  -4 -11    6.21    0.78
  -2  -4 -11    5.68    0.20
  -2  -4 -11    5.85    0.32
   2   4  11    6.41    0.34
  -3  -4 -11   16.60    0.50
  -3  -4 -11   16.95    1.10
  -3  -4 -11   15.98    0.61
   3   4  11   15.93    0.62
  -4  -4 -11    0.72    0.10
  -4  -4 -11    1.06    0.45
  -4  -4 -11    0.93    0.18
   4   4  11    0.86    0.18
  -5  -4 -11    0.73    0.17
   5   4  11    0.59    0.16
  -6  -4 -11    9.14    0.52
   6   4  11    9.14    0.54
  -7  -4 -11    0.76    0.20
   7   4  11    0.80    0.21
  -8  -4 -11    2.11    0.32
   8   4  11    2.45    0.36
  -9  -4 -11   -0.12    0.11
   9   4  11   -0.17    0.13
   7  -5 -11    0.06    0.14
  -7   5  11   -0.03    0.13
   6  -5 -11    6.57    0.48
  -6   5  11    8.55    1.05
  -6   5  11    8.25    0.89
  -6   5  11    5.40    0.45
   5  -5 -11    1.13    0.22
  -5   5  11    1.60    0.55
  -5   5  11    1.63    0.26
  -5   5  11    1.79    0.64
   4  -5 -11    0.85    0.18
   4  -5 -11    1.18    0.26
  -4   5  11    1.41    0.51
  -4   5  11    0.59    0.55
  -4   5  11    0.78    0.18
   3  -5 -11    3.56    0.29
   3  -5 -11    2.99    0.36
  -3   5  11    3.33    0.28
  -3   5  11    2.35    0.59
  -3   5  11    3.55    0.68
   2  -5 -11    7.13    0.44
   2  -5 -11    6.79    0.36
  -2   5  11    7.74    0.91
  -2   5  11    7.13    0.25
  -2   5  11    7.72    0.39
   1  -5 -11    5.34    0.34
   1  -5 -11    5.30    0.29
   1  -5 -11    4.66    0.26
  -1   5  11    4.85    0.23
   0  -5 -11    0.21    0.10
   0  -5 -11    0.31    0.09
   0  -5 -11    0.68    0.12
   0   5  11    0.29    0.08
  -1  -5 -11    3.52    0.25
  -1  -5 -11    3.41    0.19
  -1  -5 -11    5.04    0.76
   1   5  11    3.57    0.24
   1   5  11    4.01    0.21
  -2  -5 -11    8.59    0.41
  -2  -5 -11    8.82    0.28
  -2  -5 -11    8.83    0.39
  -2  -5 -11    9.71    0.98
   2   5  11    8.52    0.41
  -3  -5 -11   37.32    1.09
  -3  -5 -11   37.48    0.94
  -3  -5 -11   38.95    1.82
   3   5  11   37.50    1.10
  -4  -5 -11   37.28    1.70
  -4  -5 -11   35.39    0.84
  -4  -5 -11   34.74    1.09
   4   5  11   33.77    1.09
  -5  -5 -11   10.50    0.55
  -5  -5 -11   11.57    0.91
   5   5  11   10.17    0.56
  -6  -5 -11    0.56    0.18
   6   5  11    1.12    0.23
  -7  -5 -11    5.58    0.44
   7   5  11    5.99    0.48
  -8  -5 -11    0.68    0.20
   8   5  11    0.65    0.21
  -9  -5 -11    0.15    0.16
   9   5  11    0.00    0.15
  -6   6  11    3.87    0.89
  -6   6  11    2.60    0.36
   5  -6 -11    5.23    0.42
  -5   6  11    4.30    0.86
  -5   6  11    4.19    0.42
  -5   6  11    4.94    0.81
   4  -6 -11    0.72    0.18
  -4   6  11    0.80    0.54
  -4   6  11    0.63    0.18
  -4   6  11    0.86    0.63
   3  -6 -11    4.56    0.41
   3  -6 -11    5.21    0.36
  -3   6  11    4.63    0.41
  -3   6  11    5.31    0.81
  -3   6  11    2.88    0.67
   2  -6 -11    0.16    0.10
   2  -6 -11    0.14    0.12
  -2   6  11   -0.20    0.47
  -2   6  11    0.19    0.06
   1  -6 -11   12.85    0.51
   1  -6 -11   12.69    0.47
  -1   6  11   12.22    0.40
   0  -6 -11   27.49    0.73
   0   6  11   26.91    0.69
  -1  -6 -11   13.32    0.53
  -1  -6 -11   13.21    0.43
   1   6  11   13.33    0.44
  -2  -6 -11    0.85    0.11
  -2  -6 -11    0.77    0.16
  -2  -6 -11    1.55    0.54
  -2  -6 -11    1.00    0.17
   2   6  11    1.26    0.15
   2   6  11    1.03    0.17
  -3  -6 -11    0.02    0.08
  -3  -6 -11   -0.03    0.09
  -3  -6 -11   -0.32    0.39
   3   6  11    0.09    0.09
  -4  -6 -11    0.16    0.12
  -4  -6 -11    0.31    0.10
  -4  -6 -11    0.46    0.43
   4   6  11    0.10    0.12
  -5  -6 -11    0.03    0.39
  -5  -6 -11    0.02    0.10
  -5  -6 -11    0.08    0.06
   5   6  11    0.07    0.11
  -6  -6 -11    1.43    0.27
   6   6  11    1.13    0.26
  -7  -6 -11    1.53    0.29
   7   6  11    1.70    0.32
  -8  -6 -11    9.04    0.61
   8   6  11    8.12    0.61
  -9  -6 -11   -0.09    0.13
   9   6  11   -0.03    0.14
   5  -7 -11   -0.07    0.10
  -5   7  11   -0.01    0.50
  -5   7  11    0.12    0.68
   4  -7 -11    0.98    0.23
  -4   7  11    0.62    0.58
  -4   7  11    1.61    0.75
   3  -7 -11    4.93    0.37
  -3   7  11    4.59    0.84
   2  -7 -11    0.04    0.08
  -2   7  11    0.03    0.04
  -2   7  11    0.04    0.52
   1  -7 -11    0.16    0.09
   1  -7 -11    0.26    0.11
  -1   7  11    0.08    0.06
   0  -7 -11    3.53    0.26
   0  -7 -11    3.44    0.24
   0   7  11    3.42    0.21
  -1  -7 -11    4.40    0.32
  -1  -7 -11    3.83    0.24
   1   7  11    4.28    0.24
  -2  -7 -11    0.55    0.15
  -2  -7 -11    0.38    0.09
  -2  -7 -11    0.84    0.51
   2   7  11    0.27    0.09
  -3  -7 -11   -0.06    0.08
  -3  -7 -11   -0.01    0.09
  -3  -7 -11   -0.04    0.46
   3   7  11    0.01    0.09
  -4  -7 -11    7.44    0.36
  -4  -7 -11    6.70    0.44
  -4  -7 -11    6.97    0.97
  -5  -7 -11    7.81    0.95
  -5  -7 -11    8.03    0.51
  -5  -7 -11    7.35    0.32
   5   7  11    7.18    0.50
  -6  -7 -11    0.20    0.45
  -6  -7 -11    0.56    0.19
   6   7  11    0.49    0.19
  -7  -7 -11    0.20    0.15
   7   7  11    0.29    0.18
  -8  -7 -11    4.03    0.48
   8   7  11    4.24    0.50
   4  -8 -11    0.49    0.18
  -4   8  11    0.65    0.62
   3  -8 -11   -0.05    0.10
  -3   8  11   -0.16    0.55
   2  -8 -11    1.64    0.26
  -2   8  11    0.67    0.67
   1  -8 -11    0.07    0.09
   1  -8 -11   -0.10    0.07
  -1   8  11   -0.07    0.05
   0  -8 -11    0.08    0.08
   0  -8 -11    0.10    0.09
   0   8  11    0.01    0.07
  -1  -8 -11    0.94    0.19
  -1  -8 -11    1.29    0.17
   1   8  11    1.13    0.16
  -2  -8 -11   10.10    0.37
  -2  -8 -11    9.97    0.49
   2   8  11   10.63    0.41
  -3  -8 -11    0.47    0.15
  -3  -8 -11    0.66    0.09
  -3  -8 -11    1.26    0.65
  -4  -8 -11    0.35    0.12
  -4  -8 -11    0.21    0.51
  -4  -8 -11    0.24    0.15
  -5  -8 -11    0.28    0.15
  -5  -8 -11   -0.04    0.49
  -5  -8 -11    0.01    0.08
  -6  -8 -11    0.74    0.22
  -6  -8 -11    1.73    0.62
  -7  -8 -11    3.72    0.47
   7   8  11    3.12    0.44
  -8  -8 -11    0.20    0.18
   8   8  11    0.02    0.17
   3  -9 -11   -0.12    0.10
  -3   9  11    0.02    0.63
   2  -9 -11    0.34    0.15
   1  -9 -11    2.62    0.28
   1  -9 -11    1.66    0.27
  -1   9  11    1.88    0.18
   0  -9 -11    0.17    0.11
   0  -9 -11    0.15    0.10
   0   9  11    0.13    0.08
  -1  -9 -11    0.05    0.09
   1   9  11    0.32    0.10
  -2  -9 -11    3.40    0.23
  -2  -9 -11    3.19    0.34
   2   9  11    3.20    0.24
  -3  -9 -11   13.59    1.45
  -3  -9 -11   11.02    0.54
  -3  -9 -11   10.45    0.34
   3   9  11   10.85    0.45
  -4  -9 -11    1.31    0.22
  -4  -9 -11    1.38    0.67
  -5  -9 -11    0.03    0.09
  -5  -9 -11    0.04    0.13
  -5  -9 -11   -0.36    0.52
  -6  -9 -11    2.01    0.77
  -6  -9 -11    1.56    0.16
  -6  -9 -11    1.76    0.33
  -7  -9 -11    0.40    0.21
   2 -10 -11    0.28    0.17
   1 -10 -11    1.77    0.30
   1 -10 -11    2.10    0.28
  -1  10  11    2.01    0.18
   0 -10 -11    0.16    0.14
   0 -10 -11   -0.07    0.09
   0  10  11   -0.09    0.07
  -1 -10 -11    3.85    0.28
   1  10  11    3.52    0.26
  -2 -10 -11    2.48    0.34
  -2 -10 -11    2.61    0.24
   2  10  11    2.08    0.23
  -3 -10 -11    0.33    0.16
   3  10  11    0.50    0.14
  -4 -10 -11    1.83    0.27
  -4 -10 -11    2.49    0.87
  -5 -10 -11    1.13    0.70
  -5 -10 -11    0.62    0.16
  -6 -10 -11    0.58    0.13
  -6 -10 -11    0.44    0.21
  -6 -10 -11    1.33    0.66
   0 -11 -11    0.44    0.16
   0  11  11    0.82    0.15
  -1 -11 -11    0.88    0.18
   1  11  11    0.66    0.15
  -2 -11 -11    0.22    0.11
  -2 -11 -11    0.15    0.16
   2  11  11    0.26    0.12
  -3 -11 -11   -0.17    0.11
   3  11  11    0.10    0.11
  -4 -11 -11    0.41    0.18
   3   8 -12    0.57    0.14
  -3  -8  12    0.64    0.24
  -3  -8  12    0.35    0.12
  -3  -8  12    0.83    0.26
   2   8 -12    0.26    0.11
  -2  -8  12    0.30    0.13
  -2  -8  12    0.13    0.15
   1   8 -12    0.03    0.08
  -1  -8  12    0.06    0.15
  -1  -8  12    0.12    0.11
   0  -8  12    0.92    0.26
   0  -8  12    1.03    0.20
  -5  -7  12    1.68    0.35
  -5  -7  12    1.21    0.31
   4   7 -12    0.53    0.15
  -4  -7  12    0.51    0.22
  -4  -7  12    0.41    0.21
   3   7 -12    1.43    0.20
  -3  -7  12    1.54    0.32
  -3  -7  12    1.62    0.20
  -3  -7  12    1.52    0.30
   2   7 -12    0.97    0.16
  -2  -7  12    1.03    0.18
  -2  -7  12    0.62    0.22
   1   7 -12    0.60    0.12
  -1  -7  12    0.67    0.16
  -1  -7  12    0.73    0.22
   0   7 -12    0.06    0.06
   0  -7  12    0.01    0.13
   0  -7  12   -0.09    0.10
   1  -7  12    0.74    0.23
   2  -7  12    0.05    0.16
  -6  -6  12    0.15    0.18
  -6  -6  12    0.08    0.15
  -6  -6  12   -0.26    0.61
  -5  -6  12    0.86    0.65
  -5  -6  12    1.52    0.32
  -5  -6  12    1.34    0.31
   4   6 -12    0.03    0.10
  -4  -6  12   -0.12    0.11
  -4  -6  12    0.09    0.15
   3   6 -12    2.56    0.26
  -3  -6  12    2.26    0.36
  -3  -6  12    2.35    0.37
  -3  -6  12    2.67    0.25
   2   6 -12    0.56    0.13
  -2  -6  12    0.82    0.16
  -2  -6  12    0.59    0.20
  -2  -6  12    0.61    0.20
   1   6 -12    9.94    0.39
  -1  -6  12    9.26    0.44
  -1  -6  12    9.06    0.58
   0   6 -12    0.47    0.10
   0  -6  12    0.52    0.14
   0  -6  12    0.69    0.20
  -1   6 -12    2.89    0.93
   1  -6  12    2.50    0.35
  -2   6 -12    0.31    0.69
   2  -6  12    0.08    0.13
  -3   6 -12    0.50    0.71
   3  -6  12    0.08    0.15
  -7  -5  12   -0.10    0.13
  -6  -5  12    0.05    0.14
  -6  -5  12    0.11    0.56
  -6  -5  12    0.31    0.17
  -5  -5  12    6.62    0.52
  -5  -5  12    5.75    0.49
  -4  -5  12   10.03    0.61
  -4  -5  12    9.21    0.58
  -4  -5  12    8.79    1.12
   3   5 -12    3.01    0.24
  -3  -5  12    2.97    0.21
  -3  -5  12    2.89    0.36
  -3  -5  12    3.64    0.43
   2   5 -12   18.54    0.84
   2   5 -12   19.87    0.61
  -2  -5  12   19.25    0.83
  -2  -5  12   18.71    0.78
  -2  -5  12   17.61    0.59
   1   5 -12    1.12    0.15
   1   5 -12    1.48    0.26
  -1  -5  12    1.20    0.24
  -1  -5  12    0.82    0.15
   0   5 -12    0.39    0.08
   0  -5  12    0.32    0.11
   0  -5  12    0.27    0.13
   0  -5  12    0.30    0.12
  -1   5 -12    3.12    0.88
   1  -5  12    2.59    0.33
  -2   5 -12    0.02    0.57
   2  -5  12    0.57    0.18
  -3   5 -12    1.11    0.68
  -3   5 -12    1.12    0.66
   3  -5  12    0.81    0.21
  -4   5 -12    0.14    0.62
  -4   5 -12    0.00    0.56
   4  -5  12    0.03    0.12
  -7  -4  12    2.20    0.69
  -7  -4  12    2.49    0.39
  -7  -4  12    1.19    0.62
  -6  -4  12    2.20    0.37
  -6  -4  12    0.99    0.53
  -6  -4  12    3.48    0.44
  -6  -4  12    0.78    0.53
  -5  -4  12    0.21    0.56
  -5  -4  12    0.05    0.14
  -5  -4  12    0.06    0.12
   4   4 -12    4.17    0.38
  -4  -4  12    4.54    0.39
  -4  -4  12    4.28    0.45
  -4  -4  12    4.81    0.80
   3   4 -12    0.86    0.15
   3   4 -12    0.90    0.20
  -3  -4  12    1.18    0.23
  -3  -4  12    0.88    0.13
  -3  -4  12    1.11    0.23
   2   4 -12    7.84    0.50
   2   4 -12    7.40    0.35
  -2  -4  12    7.51    0.46
  -2  -4  12    7.49    0.34
  -2  -4  12    6.94    0.45
   1   4 -12    0.70    0.12
   1   4 -12    0.63    0.18
  -1  -4  12    0.47    0.12
  -1  -4  12    0.51    0.12
  -1  -4  12    0.63    0.17
   0   4 -12    2.22    0.16
   0   4 -12    1.88    0.28
   0  -4  12    2.23    0.23
   0  -4  12    2.64    0.32
  -1   4 -12    2.67    0.79
  -1   4 -12    1.83    0.28
  -1   4 -12    1.63    0.11
   1  -4  12    1.37    0.24
  -2   4 -12    0.31    0.15
  -2   4 -12    0.84    0.56
  -2   4 -12   -0.23    0.47
   2  -4  12    0.28    0.14
  -3   4 -12    0.08    0.49
  -3   4 -12    0.26    0.53
   3  -4  12   -0.14    0.10
  -4   4 -12    0.59    0.58
  -4   4 -12    0.42    0.57
   4  -4  12    0.30    0.16
  -5   4 -12    0.28    0.53
   5  -4  12    0.17    0.16
  -8  -3  12    0.46    0.23
  -7  -3  12    0.71    0.57
  -7  -3  12    2.05    0.36
  -7  -3  12    1.10    0.56
  -6  -3  12    0.92    0.24
  -6  -3  12    0.59    0.49
  -6  -3  12    1.36    0.57
   5   3 -12    3.53    0.41
  -5  -3  12    4.46    0.81
  -5  -3  12    3.39    0.41
  -5  -3  12    3.65    0.40
  -5  -3  12    1.70    0.59
   4   3 -12    2.23    0.32
  -4  -3  12    2.79    0.34
  -4  -3  12    2.61    0.34
  -4  -3  12    2.59    0.68
   3   3 -12    8.68    0.38
   3   3 -12    8.18    0.51
  -3  -3  12    8.79    0.32
  -3  -3  12    8.31    0.49
  -3  -3  12    8.39    0.98
  -3  -3  12    8.39    0.48
   2   3 -12    8.38    0.52
   2   3 -12    8.62    0.50
   2   3 -12    9.25    0.38
  -2  -3  12    9.01    0.47
  -2  -3  12    8.60    0.35
  -2  -3  12    9.07    0.36
  -2  -3  12    8.55    0.47
   1   3 -12    1.44    0.16
   1   3 -12    1.18    0.21
   1   3 -12    1.63    0.27
  -1  -3  12    1.46    0.23
  -1  -3  12    1.39    0.16
   0   3 -12    2.94    0.77
   0   3 -12    3.94    0.33
   0   3 -12    3.71    0.20
   0   3 -12    3.74    0.36
   0  -3  12    3.95    0.32
   0  -3  12    3.94    0.24
  -1   3 -12    3.75    0.16
  -1   3 -12    3.80    0.33
  -1   3 -12    3.34    0.75
   1  -3  12    3.57    0.30
  -2   3 -12    5.01    0.68
  -2   3 -12    8.04    1.08
  -2   3 -12    4.54    0.38
   2  -3  12    5.04    0.38
  -3   3 -12    8.26    0.55
  -3   3 -12    8.14    0.91
  -3   3 -12   10.08    0.96
   3  -3  12    8.56    0.50
  -4   3 -12    5.64    0.81
  -4   3 -12    5.49    0.79
   4  -3  12    3.84    0.41
  -5   3 -12    1.30    0.57
   5  -3  12    0.46    0.18
  -6   3 -12    1.36    0.59
  -8  -2  12    0.19    0.53
  -8  -2  12    0.01    0.15
  -7  -2  12    1.17    0.59
  -7  -2  12    0.96    0.50
  -7  -2  12    1.95    0.34
  -6  -2  12    0.49    0.47
  -6  -2  12    0.10    0.14
  -6  -2  12    0.40    0.47
   5   2 -12    4.10    0.38
  -5  -2  12    4.16    0.43
  -5  -2  12    2.35    0.63
  -5  -2  12    4.82    0.78
   4   2 -12    0.13    0.11
  -4  -2  12    0.34    0.13
  -4  -2  12    0.11    0.43
  -4  -2  12    0.09    0.12
  -4  -2  12    0.12    0.40
   3   2 -12    0.93    0.19
   3   2 -12    0.88    0.15
  -3  -2  12    0.47    0.50
  -3  -2  12    1.01    0.20
  -3  -2  12    1.25    0.21
  -3  -2  12    0.74    0.10
   2   2 -12    1.05    0.21
   2   2 -12    1.30    0.16
  -2  -2  12    1.12    0.14
  -2  -2  12    1.13    0.14
  -2  -2  12    0.96    0.18
  -2  -2  12    1.08    0.19
   1   2 -12   13.22    0.43
   1   2 -12   11.93    0.58
   1   2 -12   12.37    0.62
  -1  -2  12   12.78    0.55
  -1  -2  12   13.16    0.43
   0   2 -12    1.01    0.12
   0   2 -12    1.00    0.19
   0   2 -12    0.67    0.53
   0  -2  12    1.02    0.14
   0  -2  12    1.03    0.18
  -1   2 -12    3.86    0.70
  -1   2 -12    3.55    0.16
  -1   2 -12    4.86    0.74
  -1   2 -12    3.15    0.28
   1  -2  12    3.44    0.28
  -2   2 -12    2.04    0.28
  -2   2 -12    1.32    0.40
   2  -2  12    1.79    0.25
  -3   2 -12   38.05    1.78
  -3   2 -12   39.64    1.84
  -3   2 -12   33.86    1.21
   3  -2  12   36.77    1.15
  -4   2 -12   10.85    0.93
  -4   2 -12   10.53    0.95
  -4   2 -12    9.06    0.59
   4  -2  12    9.19    0.53
  -5   2 -12    1.26    0.50
   5  -2  12    0.89    0.22
  -6   2 -12    0.87    0.49
   6  -2  12    0.82    0.22
  -7   2 -12    0.21    0.45
  -8  -1  12    2.23    0.38
  -8  -1  12    1.39    0.63
  -7  -1  12    0.23    0.17
  -7  -1  12    0.25    0.52
  -6  -1  12   -0.02    0.12
  -6  -1  12    0.26    0.49
  -6  -1  12   -0.20    0.39
   5   1 -12    1.63    0.27
  -5  -1  12    0.54    0.48
  -5  -1  12    0.63    0.45
  -5  -1  12    1.21    0.24
   4   1 -12   13.44    0.66
  -4  -1  12   13.17    1.04
  -4  -1  12   13.65    0.62
  -4  -1  12   11.95    1.01
   3   1 -12    7.55    0.34
   3   1 -12    6.92    0.44
  -3  -1  12    7.55    0.39
  -3  -1  12    7.82    0.27
  -3  -1  12    6.70    0.77
  -3  -1  12    7.24    0.84
  -3  -1  12    6.94    0.42
   2   1 -12    2.63    0.30
   2   1 -12    2.23    0.17
  -2  -1  12    2.62    0.27
  -2  -1  12    2.20    0.16
  -2  -1  12    2.80    0.28
  -2  -1  12    3.29    0.64
   1   1 -12   34.94    1.09
   1   1 -12   34.45    0.82
  -1  -1  12   34.53    0.82
  -1  -1  12   35.41    1.00
   0   1 -12    5.00    0.34
   0   1 -12    4.94    0.23
   0   1 -12    4.13    0.65
   0  -1  12    5.70    0.33
   0  -1  12    5.24    0.26
  -1   1 -12    1.33    0.41
  -1   1 -12    1.83    0.23
  -1   1 -12    1.41    0.11
  -1   1 -12    2.16    0.53
   1  -1  12    1.85    0.23
  -2   1 -12   11.23    0.53
  -2   1 -12   11.76    0.87
  -2   1 -12   11.03    0.96
   2  -1  12   11.40    0.52
  -3   1 -12    0.68    0.17
  -3   1 -12    0.58    0.47
  -3   1 -12    0.45    0.37
   3  -1  12    0.49    0.14
  -4   1 -12    1.10    0.47
  -4   1 -12    1.16    0.43
  -4   1 -12    0.86    0.20
   4  -1  12    0.91    0.19
  -5   1 -12   10.19    0.61
  -5   1 -12   10.73    0.86
   5  -1  12    9.99    0.56
  -6   1 -12    0.20    0.39
   6  -1  12    0.53    0.19
  -7   1 -12    0.29    0.43
   7  -1  12    0.19    0.17
   8   0 -12    0.06    0.13
  -8   0  12    0.88    0.61
  -8   0  12    0.17    0.17
   7   0 -12    1.02    0.24
  -7   0  12    1.01    0.58
  -7   0  12    0.98    0.24
   6   0 -12    3.32    0.40
  -6   0  12    3.60    0.65
  -6   0  12    3.56    0.41
  -6   0  12    2.86    0.69
   5   0 -12    0.23    0.14
  -5   0  12    0.53    0.43
  -5   0  12    0.20    0.13
  -5   0  12   -0.24    0.42
   4   0 -12    3.83    0.34
  -4   0  12    4.51    0.35
  -4   0  12    2.47    0.55
  -4   0  12    4.97    0.75
   3   0 -12    3.24    0.29
  -3   0  12    3.77    0.67
  -3   0  12    3.12    0.15
  -3   0  12    3.29    0.28
  -3   0  12    3.00    0.15
   2   0 -12    7.43    0.43
   2   0 -12    7.50    0.32
  -2   0  12    7.95    0.80
  -2   0  12    6.90    0.27
  -2   0  12    8.10    0.39
  -2   0  12    7.15    0.35
   1   0 -12   30.87    0.75
   1   0 -12   29.50    0.97
  -1   0  12   30.80    0.73
  -1   0  12   30.79    0.87
   0   0 -12   33.57    1.02
   0   0 -12   33.37    0.76
   0   0 -12   30.86    1.68
   0   0  12   33.97    0.79
   0   0  12   34.59    0.95
  -1   0 -12    0.06    0.35
  -1   0 -12    0.25    0.30
  -1   0 -12    0.16    0.09
  -1   0 -12    0.15    0.05
   1   0  12    0.24    0.07
   1   0  12    0.11    0.08
  -2   0 -12   12.36    0.98
  -2   0 -12   12.10    0.52
  -2   0 -12   12.68    0.86
   2   0  12   12.98    0.54
  -3   0 -12    0.70    0.15
  -3   0 -12    1.01    0.38
  -3   0 -12    1.13    0.44
   3   0  12    0.60    0.15
  -4   0 -12    1.88    0.25
  -4   0 -12    2.88    0.53
  -4   0 -12    1.88    0.27
  -4   0 -12    2.03    0.46
   4   0  12    1.78    0.26
  -5   0 -12    5.45    0.38
  -5   0 -12    6.95    0.73
   5   0  12    6.29    0.42
  -6   0 -12    0.28    0.14
   6   0  12    0.60    0.18
  -7   0 -12    3.35    0.39
   7   0  12    3.31    0.40
  -8   0 -12    0.05    0.14
   8   0  12    0.41    0.20
   8  -1 -12    0.10    0.15
  -8   1  12   -0.02    0.13
   7  -1 -12    0.08    0.12
  -7   1  12    0.00    0.10
  -7   1  12   -0.04    0.49
   6  -1 -12    1.67    0.28
  -6   1  12    1.69    0.58
  -6   1  12    1.63    0.28
  -6   1  12    1.81    0.52
   5  -1 -12    0.05    0.10
   5  -1 -12    0.13    0.12
  -5   1  12    0.05    0.38
  -5   1  12   -0.01    0.44
  -5   1  12    0.05    0.11
   4  -1 -12    0.86    0.19
   4  -1 -12    0.93    0.19
  -4   1  12    0.75    0.18
  -4   1  12    1.02    0.47
  -4   1  12    0.26    0.39
   3  -1 -12    4.91    0.36
  -3   1  12    4.22    0.31
  -3   1  12    5.24    0.73
  -3   1  12    5.15    0.18
   2  -1 -12   10.05    0.36
   2  -1 -12    9.79    0.49
  -2   1  12    7.49    0.77
  -2   1  12    9.64    0.84
  -2   1  12    9.51    0.39
  -2   1  12   10.03    0.44
  -2   1  12    9.60    0.32
   1  -1 -12   12.96    0.42
   1  -1 -12   13.34    0.56
  -1   1  12   12.92    0.47
  -1   1  12   13.10    0.40
   0  -1 -12    3.94    0.28
   0  -1 -12    4.18    0.21
   0  -1 -12    5.36    0.75
   0   1  12    4.07    0.21
   0   1  12    4.37    0.27
  -1  -1 -12    0.50    0.08
  -1  -1 -12    0.61    0.39
  -1  -1 -12    0.90    0.34
  -1  -1 -12    0.67    0.13
   1   1  12    0.61    0.10
   1   1  12    0.55    0.12
  -2  -1 -12    9.52    0.44
  -2  -1 -12   10.87    0.81
  -2  -1 -12    9.02    0.42
  -2  -1 -12   10.81    0.89
   2   1  12   11.09    0.47
  -3  -1 -12    0.24    0.29
  -3  -1 -12    0.35    0.11
  -3  -1 -12   -0.10    0.31
  -3  -1 -12    0.05    0.08
   3   1  12    0.05    0.08
  -4  -1 -12    5.20    0.35
  -4  -1 -12    5.12    0.66
  -4  -1 -12    5.79    0.69
   4   1  12    4.50    0.34
  -5  -1 -12    0.45    0.34
  -5  -1 -12    0.37    0.13
   5   1  12    0.39    0.15
  -6  -1 -12    1.02    0.38
  -6  -1 -12    0.30    0.14
   6   1  12    0.63    0.18
  -7  -1 -12    6.78    0.47
   7   1  12    7.11    0.50
  -8  -1 -12    1.55    0.29
   8   1  12    1.51    0.31
   8  -2 -12    1.31    0.28
  -8   2  12    2.45    0.37
   7  -2 -12    0.85    0.23
  -7   2  12    1.51    0.66
  -7   2  12    1.08    0.25
   6  -2 -12    0.80    0.21
  -6   2  12    0.86    0.21
  -6   2  12    0.77    0.56
  -6   2  12    0.98    0.49
   5  -2 -12    1.71    0.27
   5  -2 -12    0.96    0.23
  -5   2  12    0.92    0.46
  -5   2  12    1.08    0.22
  -5   2  12    0.96    0.51
   4  -2 -12    3.14    0.36
   4  -2 -12    3.16    0.33
  -4   2  12    3.61    0.62
  -4   2  12    2.24    0.53
  -4   2  12    3.82    0.31
   3  -2 -12    0.07    0.09
   3  -2 -12    0.02    0.08
  -3   2  12    0.03    0.03
  -3   2  12    0.00    0.08
  -3   2  12   -0.14    0.35
  -3   2  12    0.09    0.40
   2  -2 -12    0.36    0.12
   2  -2 -12    0.32    0.09
   2  -2 -12    0.31    0.10
  -2   2  12    0.75    0.43
  -2   2  12    0.53    0.09
  -2   2  12    0.31    0.11
  -2   2  12    1.09    0.44
   1  -2 -12   63.65    1.68
   1  -2 -12   65.87    1.37
  -1   2  12   65.43    1.50
  -1   2  12   69.42    2.74
  -1   2  12   67.31    1.33
   0  -2 -12    0.27    0.09
   0  -2 -12    0.29    0.08
   0  -2 -12    0.17    0.42
   0   2  12    0.47    0.11
   0   2  12    0.39    0.08
  -1  -2 -12    4.75    0.20
  -1  -2 -12    4.77    0.61
  -1  -2 -12    4.39    0.26
  -1  -2 -12    5.59    0.70
  -1  -2 -12    4.38    0.27
   1   2  12    5.01    0.28
   1   2  12    4.30    0.22
  -2  -2 -12   22.65    0.70
  -2  -2 -12   22.27    1.13
  -2  -2 -12   23.28    0.73
  -2  -2 -12   23.02    0.45
  -2  -2 -12   22.76    1.28
   2   2  12   22.81    0.74
  -3  -2 -12    0.88    0.16
  -3  -2 -12    1.21    0.14
  -3  -2 -12    1.26    0.43
  -3  -2 -12    1.90    0.42
   3   2  12    0.91    0.17
  -4  -2 -12    9.66    0.27
  -4  -2 -12    8.93    0.74
  -4  -2 -12   10.46    0.82
  -4  -2 -12    9.13    0.47
   4   2  12    9.42    0.48
  -5  -2 -12    5.11    0.61
  -5  -2 -12    3.31    0.30
   5   2  12    3.85    0.32
  -6  -2 -12    0.71    0.18
   6   2  12    1.06    0.22
  -7  -2 -12    2.43    0.32
   7   2  12    2.30    0.33
  -8  -2 -12    0.24    0.14
   8   2  12    0.11    0.13
   7  -3 -12    0.62    0.20
  -7   3  12    1.54    0.73
  -7   3  12    0.75    0.22
   6  -3 -12    0.41    0.17
  -6   3  12    0.58    0.59
  -6   3  12    1.04    0.48
  -6   3  12    0.88    0.22
   5  -3 -12    1.37    0.28
   5  -3 -12    1.11    0.22
  -5   3  12    0.90    0.52
  -5   3  12    1.31    0.24
  -5   3  12    1.34    0.50
   4  -3 -12    4.53    0.39
   4  -3 -12    4.94    0.35
  -4   3  12    5.05    0.36
  -4   3  12    5.77    0.79
  -4   3  12    5.42    0.77
   3  -3 -12    2.36    0.30
   3  -3 -12    2.92    0.25
  -3   3  12    2.04    0.52
  -3   3  12    3.68    0.65
  -3   3  12    2.78    0.29
   2  -3 -12   48.63    1.20
   2  -3 -12   46.82    1.08
   2  -3 -12   47.65    1.38
  -2   3  12   49.32    2.13
  -2   3  12   46.18    2.15
  -2   3  12   49.63    1.22
  -2   3  12   48.22    1.00
   1  -3 -12   16.76    0.51
   1  -3 -12   16.90    0.64
  -1   3  12   15.44    1.10
  -1   3  12   17.50    0.48
   0  -3 -12    2.12    0.19
   0  -3 -12    2.48    0.16
   0  -3 -12    1.85    0.17
   0   3  12    2.20    0.16
   0   3  12    2.29    0.19
  -1  -3 -12   21.65    0.67
  -1  -3 -12   21.46    0.54
  -1  -3 -12   22.18    1.13
  -1  -3 -12   21.73    0.67
  -1  -3 -12   21.79    1.30
   1   3  12   22.07    0.68
   1   3  12   22.12    0.57
  -2  -3 -12    1.00    0.45
  -2  -3 -12    0.51    0.11
  -2  -3 -12    0.66    0.13
  -2  -3 -12    0.67    0.07
  -2  -3 -12    0.86    0.34
   2   3  12    0.56    0.12
  -3  -3 -12    0.03    0.05
  -3  -3 -12   -0.07    0.06
  -3  -3 -12    0.44    0.37
   3   3  12    0.07    0.08
  -4  -3 -12   11.27    0.33
  -4  -3 -12   10.72    0.51
  -4  -3 -12   10.91    0.88
   4   3  12   10.46    0.52
  -5  -3 -12    0.10    0.11
   5   3  12    0.28    0.14
  -6  -3 -12    8.18    0.49
   6   3  12    8.14    0.50
  -7  -3 -12    0.01    0.10
   7   3  12    0.22    0.15
  -8  -3 -12    0.04    0.12
   8   3  12    0.15    0.15
  -9  -3 -12    1.25    0.28
   9   3  12    1.36    0.31
   7  -4 -12    0.34    0.17
  -7   4  12    0.31    0.68
  -7   4  12    0.53    0.20
   6  -4 -12    1.79    0.29
  -6   4  12    3.11    0.79
  -6   4  12    2.55    0.61
  -6   4  12    2.19    0.32
   5  -4 -12    0.08    0.11
  -5   4  12    0.03    0.11
  -5   4  12    0.30    0.44
  -5   4  12   -0.08    0.52
   4  -4 -12   -0.03    0.08
   4  -4 -12    0.06    0.11
  -4   4  12   -0.21    0.39
  -4   4  12   -0.02    0.09
  -4   4  12    0.23    0.51
   3  -4 -12    3.99    0.35
   3  -4 -12    4.62    0.31
  -3   4  12    2.86    0.60
  -3   4  12    4.82    0.72
  -3   4  12    4.28    0.31
   2  -4 -12   10.29    0.44
   2  -4 -12   10.16    0.52
   2  -4 -12   10.36    0.40
  -2   4  12   10.16    0.44
  -2   4  12   10.27    0.33
  -2   4  12    9.77    0.94
   1  -4 -12    3.60    0.22
   1  -4 -12    4.35    0.25
   1  -4 -12    4.34    0.30
  -1   4  12    3.95    0.21
  -1   4  12    1.99    0.56
   0  -4 -12    0.31    0.09
   0  -4 -12    0.13    0.08
   0   4  12    0.06    0.06
  -1  -4 -12    8.25    0.30
  -1  -4 -12    8.74    0.38
  -1  -4 -12    8.42    0.37
  -1  -4 -12    8.95    0.94
   1   4  12    8.39    0.32
   1   4  12    8.85    0.38
  -2  -4 -12    0.01    0.07
  -2  -4 -12    0.21    0.36
  -2  -4 -12    0.00    0.06
  -2  -4 -12    0.05    0.04
   2   4  12   -0.01    0.07
  -3  -4 -12   25.45    0.71
  -3  -4 -12   26.41    1.43
  -3  -4 -12   26.18    0.85
   3   4  12   27.71    0.87
  -4  -4 -12   -0.10    0.07
  -4  -4 -12    0.02    0.36
  -4  -4 -12   -0.03    0.05
   4   4  12    0.05    0.09
  -5  -4 -12    5.64    0.68
  -5  -4 -12    4.30    0.35
   5   4  12    3.98    0.34
  -6  -4 -12   16.65    0.74
   6   4  12   17.21    0.76
  -7  -4 -12    1.37    0.26
   7   4  12    1.21    0.26
  -8  -4 -12    0.35    0.17
   8   4  12    0.24    0.16
  -9  -4 -12    0.77    0.23
   9   4  12    0.77    0.24
   6  -5 -12    0.73    0.21
  -6   5  12    0.75    0.21
  -6   5  12    1.10    0.53
  -6   5  12    1.38    0.76
   5  -5 -12    1.54    0.26
  -5   5  12    1.22    0.66
  -5   5  12    1.00    0.22
  -5   5  12    2.08    0.63
   4  -5 -12    0.21    0.12
   4  -5 -12    0.25    0.15
  -4   5  12    0.27    0.14
  -4   5  12    0.19    0.56
  -4   5  12    0.33    0.45
   3  -5 -12    1.41    0.22
   3  -5 -12    1.31    0.24
  -3   5  12    0.60    0.54
  -3   5  12    0.87    0.50
  -3   5  12    1.07    0.19
   2  -5 -12    7.45    0.38
   2  -5 -12    6.74    0.43
   2  -5 -12    7.17    0.34
  -2   5  12    6.66    0.37
  -2   5  12    6.94    0.26
  -2   5  12    5.21    0.79
   1  -5 -12    1.66    0.19
  -1   5  12    1.66    0.16
   0  -5 -12    3.25    0.26
   0  -5 -12    3.60    0.22
   0   5  12    3.16    0.20
  -1  -5 -12    3.09    0.19
  -1  -5 -12    2.98    0.24
   1   5  12    2.85    0.19
  -2  -5 -12    0.68    0.09
  -2  -5 -12    0.85    0.15
  -2  -5 -12    0.86    0.16
  -2  -5 -12    0.98    0.48
   2   5  12    0.78    0.15
  -3  -5 -12    7.64    0.93
  -3  -5 -12    8.37    0.37
  -3  -5 -12    7.21    0.42
   3   5  12    8.99    0.46
  -4  -5 -12    3.48    0.31
  -4  -5 -12    3.22    0.20
  -4  -5 -12    4.92    0.72
   4   5  12    2.81    0.32
  -5  -5 -12    3.16    0.59
  -5  -5 -12    1.96    0.28
   5   5  12    2.02    0.28
  -6  -5 -12    1.43    0.26
   6   5  12    1.24    0.24
  -7  -5 -12    3.25    0.40
   7   5  12    2.72    0.37
  -8  -5 -12    2.21    0.34
   8   5  12    1.59    0.31
  -9  -5 -12    0.79    0.23
   9   5  12    0.31    0.19
   6  -6 -12   -0.04    0.11
   5  -6 -12    5.21    0.42
  -5   6  12    4.89    0.41
  -5   6  12    3.93    0.85
  -5   6  12    6.35    0.93
   4  -6 -12    0.33    0.15
  -4   6  12    0.47    0.17
  -4   6  12    0.52    0.53
  -4   6  12    0.14    0.58
   3  -6 -12    4.26    0.34
   3  -6 -12    4.90    0.42
  -3   6  12    4.06    0.78
   2  -6 -12   -0.03    0.08
   2  -6 -12    0.01    0.07
  -2   6  12   -0.46    0.47
  -2   6  12    0.07    0.05
   1  -6 -12    1.02    0.17
   1  -6 -12    1.22    0.17
  -1   6  12    1.17    0.14
   0  -6 -12   17.90    0.56
   0   6  12   17.75    0.53
  -1  -6 -12    1.81    0.18
  -1  -6 -12    2.06    0.25
   1   6  12    1.78    0.18
  -2  -6 -12    4.75    0.32
  -2  -6 -12    4.73    0.21
  -2  -6 -12    4.18    0.29
  -2  -6 -12    7.02    0.98
   2   6  12    4.35    0.24
   2   6  12    4.25    0.30
  -3  -6 -12    1.37    0.19
  -3  -6 -12    1.64    0.61
  -3  -6 -12    1.41    0.22
   3   6  12    1.48    0.23
  -4  -6 -12    7.18    0.96
  -4  -6 -12    5.45    0.29
  -4  -6 -12    5.29    0.39
   4   6  12    5.88    0.41
  -5  -6 -12    2.34    0.15
  -5  -6 -12    3.64    0.70
  -5  -6 -12    2.62    0.33
   5   6  12    2.50    0.33
  -6  -6 -12    0.02    0.11
   6   6  12    0.13    0.14
  -7  -6 -12    0.30    0.15
   7   6  12    0.04    0.12
  -8  -6 -12    4.01    0.46
   8   6  12    4.27    0.50
   5  -7 -12    0.18    0.15
  -5   7  12   -0.22    0.70
  -5   7  12    0.48    0.53
   4  -7 -12   -0.02    0.11
  -4   7  12    0.29    0.54
   3  -7 -12   -0.04    0.10
  -3   7  12   -0.10    0.54
   2  -7 -12    0.67    0.16
  -2   7  12    0.81    0.10
  -2   7  12    0.81    0.60
   1  -7 -12    0.03    0.08
   1  -7 -12    0.01    0.07
  -1   7  12   -0.08    0.04
   0  -7 -12    0.86    0.15
   0   7  12    0.83    0.13
  -1  -7 -12    0.08    0.07
  -1  -7 -12   -0.07    0.09
   1   7  12    0.10    0.07
  -2  -7 -12    9.67    1.23
  -2  -7 -12    8.42    0.43
  -2  -7 -12    8.22    0.32
   2   7  12    7.77    0.35
  -3  -7 -12    8.78    1.17
  -3  -7 -12    5.41    0.34
  -3  -7 -12    5.95    0.40
   3   7  12    5.80    0.40
  -4  -7 -12    0.93    0.16
  -4  -7 -12    0.97    0.55
  -4  -7 -12    0.69    0.19
   4   7  12    0.82    0.20
  -5  -7 -12    5.14    0.42
  -5  -7 -12    7.55    1.01
  -5  -7 -12    4.65    0.25
   5   7  12    4.95    0.43
  -6  -7 -12   -0.41    0.43
  -6  -7 -12    0.04    0.13
   6   7  12    0.25    0.16
  -7  -7 -12    0.48    0.19
   7   7  12    0.49    0.21
  -8  -7 -12   -0.04    0.13
   8   7  12   -0.02    0.15
   4  -8 -12   -0.07    0.12
  -4   8  12   -0.35    0.59
   3  -8 -12    0.61    0.19
  -3   8  12    0.63    0.65
   2  -8 -12    0.12    0.11
   1  -8 -12    4.19    0.30
   1  -8 -12    5.09    0.36
  -1   8  12    4.86    0.25
   0  -8 -12    1.73    0.21
   0   8  12    1.69    0.18
  -1  -8 -12    0.98    0.20
  -1  -8 -12    0.84    0.15
   1   8  12    0.89    0.15
  -2  -8 -12    3.07    0.21
  -2  -8 -12    3.18    0.32
   2   8  12    3.05    0.23
  -3  -8 -12    2.00    0.26
  -3  -8 -12    3.04    0.83
  -4  -8 -12    0.72    0.58
  -4  -8 -12    0.72    0.16
  -4  -8 -12    0.84    0.21
   4   8  12    0.70    0.20
  -5  -8 -12    0.94    0.16
  -5  -8 -12    0.77    0.21
  -5  -8 -12    0.93    0.58
   5   8  12    0.60    0.20
  -6  -8 -12    0.01    0.14
  -6  -8 -12    0.05    0.48
   6   8  12    0.09    0.15
  -7  -8 -12    6.91    0.56
   7   8  12    8.16    0.62
  -8  -8 -12    0.11    0.17
   8   8  12    0.11    0.19
   3  -9 -12    0.48    0.19
   2  -9 -12    0.13    0.12
   2  -9 -12    0.07    0.11
   1  -9 -12    0.22    0.13
   1  -9 -12    0.09    0.12
  -1   9  12    0.17    0.08
   0  -9 -12    0.14    0.10
   0   9  12   -0.01    0.07
  -1  -9 -12    2.41    0.25
   1   9  12    2.03    0.22
  -2  -9 -12    6.52    0.42
  -2  -9 -12    5.13    0.28
   2   9  12    5.89    0.32
  -3  -9 -12    0.19    0.14
  -3  -9 -12    0.34    0.62
   3   9  12    0.13    0.10
  -4  -9 -12    6.43    0.40
  -4  -9 -12   11.30    1.45
  -5  -9 -12    0.99    0.18
  -5  -9 -12    0.79    0.23
  -5  -9 -12    0.58    0.61
  -6  -9 -12    1.53    0.15
  -6  -9 -12    1.68    0.32
  -6  -9 -12    1.94    0.76
   6   9  12    1.99    0.36
  -7  -9 -12    6.07    0.53
   7   9  12    6.65    0.58
   2 -10 -12    0.53    0.17
   2 -10 -12    0.58    0.21
   1 -10 -12    1.99    0.27
   1 -10 -12    1.76    0.30
  -1  10  12    1.73    0.17
   0 -10 -12    0.68    0.17
   0  10  12    0.66    0.14
  -1 -10 -12    5.45    0.33
   1  10  12    5.17    0.31
  -2 -10 -12    0.69    0.14
  -2 -10 -12    0.68    0.20
   2  10  12    0.65    0.14
  -3 -10 -12    0.83    0.21
   3  10  12    0.61    0.15
  -4 -10 -12    2.35    0.87
  -4 -10 -12    1.56    0.25
  -5 -10 -12   -0.30    0.59
  -5 -10 -12    0.00    0.09
  -6 -10 -12    2.49    0.88
  -6 -10 -12    1.90    0.20
  -6 -10 -12    1.51    0.32
   0 -11 -12    0.32    0.14
   0  11  12    0.18    0.10
  -1 -11 -12    0.07    0.11
   1  11  12    0.07    0.10
  -2 -11 -12    0.38    0.20
  -2 -11 -12    0.25    0.10
   2  11  12    0.04    0.10
  -3 -11 -12    0.83    0.22
  -4 -11 -12    0.14    0.14
  -5  -7  13    1.39    0.34
   4   7 -13    0.70    0.17
  -4  -7  13    0.74    0.24
  -4  -7  13    0.51    0.22
   3   7 -13    0.50    0.13
  -3  -7  13    0.23    0.16
  -3  -7  13    0.61    0.14
   2   7 -13    0.12    0.09
  -2  -7  13    0.01    0.08
  -2  -7  13    0.00    0.12
   1   7 -13    0.91    0.14
  -1  -7  13    1.21    0.20
  -1  -7  13    1.03    0.26
   0  -7  13   -0.02    0.10
   0  -7  13   -0.04    0.14
   1  -7  13    0.07    0.16
  -6  -6  13   -0.16    0.14
  -6  -6  13    0.00    0.16
  -5  -6  13    0.08    0.15
  -5  -6  13    0.48    0.66
  -5  -6  13    0.25    0.18
   4   6 -13    1.16    0.20
  -4  -6  13    1.14    0.27
  -4  -6  13    0.85    0.24
   3   6 -13    0.42    0.13
  -3  -6  13    0.35    0.12
  -3  -6  13    0.44    0.19
  -3  -6  13    0.33    0.18
   2   6 -13    1.07    0.16
  -2  -6  13    0.99    0.17
  -2  -6  13    1.29    0.28
   1   6 -13    5.91    0.29
  -1  -6  13    5.14    0.45
  -1  -6  13    5.50    0.34
   0   6 -13    0.09    0.07
   0  -6  13   -0.02    0.12
   0  -6  13    0.10    0.10
  -1   6 -13    0.07    0.71
   1  -6  13    0.21    0.15
  -2   6 -13    0.36    0.73
   2  -6  13    0.72    0.22
   3  -6  13   -0.08    0.13
  -6  -5  13    3.75    0.49
  -6  -5  13    3.50    0.48
  -5  -5  13    0.79    0.61
  -5  -5  13    2.39    0.37
  -5  -5  13    1.91    0.34
   4   5 -13    9.01    0.43
  -4  -5  13    7.58    0.54
  -4  -5  13    7.67    0.55
   3   5 -13    0.04    0.08
  -3  -5  13   -0.12    0.12
  -3  -5  13    0.03    0.11
  -3  -5  13    0.11    0.07
   2   5 -13    0.22    0.11
  -2  -5  13    0.15    0.10
  -2  -5  13    0.18    0.14
   1   5 -13    0.10    0.08
  -1  -5  13    0.16    0.13
  -1  -5  13    0.05    0.09
   0   5 -13   -0.03    0.05
   0  -5  13   -0.02    0.10
   0  -5  13   -0.02    0.09
   0  -5  13   -0.12    0.07
  -1   5 -13   12.13    1.30
   1  -5  13   11.86    0.63
  -2   5 -13    2.21    0.79
   2  -5  13    1.89    0.31
  -3   5 -13   -0.17    0.61
  -3   5 -13    0.24    0.59
   3  -5  13   -0.05    0.13
  -4   5 -13    0.55    0.69
  -4   5 -13    1.34    0.74
   4  -5  13    1.20    0.27
  -7  -4  13    0.00    0.52
  -7  -4  13    1.19    0.30
  -7  -4  13    0.33    0.61
  -6  -4  13    0.29    0.55
  -6  -4  13    0.14    0.51
  -6  -4  13    0.50    0.21
  -6  -4  13    1.02    0.27
  -5  -4  13    2.54    0.37
  -5  -4  13    2.43    0.72
  -5  -4  13    2.50    0.37
  -4  -4  13    3.47    0.41
  -4  -4  13    3.36    0.41
  -4  -4  13    2.74    0.74
   3   4 -13    2.25    0.24
  -3  -4  13    2.19    0.32
  -3  -4  13    2.11    0.30
  -3  -4  13    1.88    0.19
   2   4 -13    0.05    0.10
   2   4 -13   -0.03    0.07
  -2  -4  13    0.12    0.09
  -2  -4  13    0.03    0.09
   1   4 -13    3.51    0.23
   1   4 -13    3.28    0.38
  -1  -4  13    3.64    0.25
  -1  -4  13    3.74    0.26
  -1  -4  13    3.73    0.39
   0   4 -13    0.28    0.14
   0   4 -13    0.60    0.10
   0  -4  13    0.46    0.15
   0  -4  13    0.22    0.09
  -1   4 -13    4.17    0.93
   1  -4  13    2.81    0.34
  -2   4 -13    0.57    0.58
  -2   4 -13    1.08    0.65
   2  -4  13    0.40    0.16
  -3   4 -13    2.09    0.69
  -3   4 -13    3.05    0.78
   3  -4  13    2.24    0.32
  -4   4 -13    1.61    0.69
  -4   4 -13    2.75    0.76
   4  -4  13    1.39    0.27
  -5   4 -13    1.11    0.48
   5  -4  13    2.26    0.35
  -7  -3  13    0.17    0.18
  -7  -3  13   -0.02    0.51
  -7  -3  13    0.37    0.56
  -6  -3  13   -0.05    0.46
  -6  -3  13    0.04    0.13
  -6  -3  13    0.07    0.52
  -5  -3  13   10.01    1.08
  -5  -3  13    8.69    0.58
  -5  -3  13    9.46    0.57
   4   3 -13   -0.11    0.09
  -4  -3  13   -0.01    0.09
  -4  -3  13    0.29    0.52
  -4  -3  13   -0.03    0.10
   3   3 -13    0.33    0.11
   3   3 -13    0.39    0.15
  -3  -3  13    0.34    0.09
  -3  -3  13    0.36    0.14
  -3  -3  13    0.35    0.15
  -3  -3  13   -0.09    0.50
   2   3 -13    5.67    0.30
   2   3 -13    5.61    0.42
  -2  -3  13    6.20    0.30
  -2  -3  13    5.69    0.40
  -2  -3  13    5.82    0.29
   1   3 -13    6.12    0.29
   1   3 -13    5.04    0.39
  -1  -3  13    5.43    0.29
  -1  -3  13    6.34    0.40
   0   3 -13    1.66    0.16
   0   3 -13    1.32    0.24
   0  -3  13    1.29    0.17
   0  -3  13    1.06    0.20
  -1   3 -13    0.12    0.51
  -1   3 -13    0.10    0.10
  -1   3 -13    0.20    0.05
   1  -3  13    0.29    0.12
  -2   3 -13    0.54    0.47
  -2   3 -13    0.80    0.56
  -2   3 -13    0.47    0.17
   2  -3  13    0.62    0.18
  -3   3 -13   12.31    1.05
  -3   3 -13   10.13    0.63
  -3   3 -13   12.25    1.08
   3  -3  13   10.76    0.58
  -4   3 -13   -0.09    0.44
  -4   3 -13   -0.28    0.48
   4  -3  13    0.06    0.12
  -5   3 -13    0.08    0.50
   5  -3  13   -0.04    0.12
  -6   3 -13    0.34    0.53
   6  -3  13    0.24    0.17
  -8  -2  13    2.36    0.40
  -7  -2  13    0.33    0.60
  -7  -2  13    0.47    0.54
  -7  -2  13    0.34    0.20
  -6  -2  13    0.12    0.13
  -6  -2  13    0.56    0.51
  -6  -2  13   -0.05    0.45
  -5  -2  13    7.13    0.50
  -5  -2  13    7.30    0.94
   4   2 -13    0.89    0.21
  -4  -2  13    0.81    0.51
  -4  -2  13    0.50    0.17
  -4  -2  13    0.77    0.18
  -4  -2  13    0.40    0.46
   3   2 -13    0.26    0.10
   3   2 -13    0.26    0.14
  -3  -2  13    0.43    0.09
  -3  -2  13    0.47    0.15
  -3  -2  13    0.49    0.51
  -3  -2  13    0.33    0.15
   2   2 -13    0.95    0.20
   2   2 -13    0.77    0.14
  -2  -2  13    0.87    0.13
  -2  -2  13    1.05    0.19
  -2  -2  13    0.58    0.11
   1   2 -13    0.12    0.09
   1   2 -13    0.00    0.06
  -1  -2  13    0.11    0.09
  -1  -2  13    0.06    0.06
   0   2 -13    2.73    0.71
   0   2 -13    3.16    0.29
   0   2 -13    3.52    0.20
   0  -2  13    3.48    0.22
   0  -2  13    3.01    0.31
  -1   2 -13    0.58    0.08
  -1   2 -13    0.62    0.16
  -1   2 -13    0.83    0.55
  -1   2 -13    0.46    0.45
   1  -2  13    0.45    0.14
  -2   2 -13    0.08    0.09
  -2   2 -13   -0.01    0.43
  -2   2 -13    0.25    0.41
   2  -2  13   -0.02    0.09
  -3   2 -13    6.37    0.88
  -3   2 -13    5.16    0.42
  -3   2 -13    6.77    0.88
   3  -2  13    6.03    0.41
  -4   2 -13   16.07    1.11
  -4   2 -13   14.12    0.76
  -4   2 -13   14.42    1.12
   4  -2  13   12.80    0.65
  -5   2 -13    6.48    0.84
   5  -2  13    4.73    0.42
  -6   2 -13    2.48    0.62
   6  -2  13    2.39    0.35
   8   1 -13    0.35    0.20
  -8  -1  13    0.06    0.17
  -7  -1  13    1.73    0.33
  -7  -1  13    0.98    0.60
  -6  -1  13    0.35    0.49
  -6  -1  13    0.16    0.45
  -6  -1  13    0.21    0.14
   5   1 -13    1.51    0.27
  -5  -1  13    1.17    0.56
  -5  -1  13    1.75    0.29
  -5  -1  13    1.19    0.55
   4   1 -13   -0.05    0.09
  -4  -1  13    0.02    0.10
  -4  -1  13   -0.12    0.40
  -4  -1  13   -0.12    0.41
   3   1 -13   24.84    0.69
   3   1 -13   23.08    0.90
  -3  -1  13   22.91    0.58
  -3  -1  13   24.13    0.84
  -3  -1  13   22.62    0.79
  -3  -1  13   23.77    1.48
   2   1 -13    0.00    0.08
   2   1 -13   -0.04    0.06
  -2  -1  13   -0.02    0.06
  -2  -1  13   -0.03    0.05
   1   1 -13    5.48    0.38
   1   1 -13    6.01    0.28
  -1  -1  13    5.98    0.28
  -1  -1  13    6.32    0.37
   0   1 -13   30.41    0.74
   0   1 -13   32.05    1.03
   0   1 -13   31.63    1.74
   0  -1  13   31.18    0.77
   0  -1  13   30.82    0.95
  -1   1 -13    0.05    0.04
  -1   1 -13   -0.01    0.32
  -1   1 -13    0.03    0.40
  -1   1 -13   -0.01    0.07
   1  -1  13   -0.06    0.07
  -2   1 -13   28.54    1.43
  -2   1 -13   30.51    1.60
  -2   1 -13   28.61    0.99
   2  -1  13   29.08    0.96
  -3   1 -13    0.07    0.10
  -3   1 -13   -0.20    0.44
  -3   1 -13    0.04    0.36
   3  -1  13    0.04    0.09
  -4   1 -13    0.02    0.35
  -4   1 -13    0.24    0.13
  -4   1 -13   -0.10    0.40
   4  -1  13    0.09    0.11
  -5   1 -13    6.71    0.78
   5  -1  13    6.37    0.46
  -6   1 -13    0.51    0.42
   6  -1  13    0.23    0.16
  -7   1 -13   -0.24    0.42
   7  -1  13    0.15    0.16
   8   0 -13    0.37    0.20
  -8   0  13    0.99    0.27
   7   0 -13    3.14    0.41
  -7   0  13    2.11    0.69
  -7   0  13    2.99    0.41
   6   0 -13    7.40    0.51
  -6   0  13    7.55    0.91
  -6   0  13    5.34    0.44
  -6   0  13    6.69    0.82
   5   0 -13    2.27    0.33
  -5   0  13    3.39    0.66
  -5   0  13    3.27    0.37
  -5   0  13    2.11    0.60
   4   0 -13    1.13    0.22
  -4   0  13    0.81    0.45
  -4   0  13    1.69    0.54
  -4   0  13    1.80    0.27
   3   0 -13   15.17    0.70
  -3   0  13   17.98    0.67
  -3   0  13   12.17    1.05
  -3   0  13   16.41    0.43
  -3   0  13   17.48    1.21
  -3   0  13   16.62    0.43
   2   0 -13    0.25    0.11
   2   0 -13    0.08    0.07
  -2   0  13    0.23    0.41
  -2   0  13    0.11    0.06
  -2   0  13    0.08    0.08
   1   0 -13   38.12    1.17
   1   0 -13   37.86    0.90
  -1   0  13   38.52    1.05
  -1   0  13   38.01    0.88
   0   0 -13    0.64    0.51
   0   0 -13    0.55    0.15
   0   0 -13    0.44    0.09
   0   0  13    0.43    0.10
   0   0  13    0.98    0.16
  -1   0 -13    0.05    0.04
  -1   0 -13   -0.03    0.05
  -1   0 -13   -0.15    0.37
  -1   0 -13   -0.04    0.32
   1   0  13    0.04    0.07
   1   0  13    0.07    0.06
  -2   0 -13    7.96    0.80
  -2   0 -13    8.26    0.92
  -2   0 -13    7.02    0.40
   2   0  13    7.49    0.41
  -3   0 -13   25.21    0.90
  -3   0 -13   25.88    1.35
  -3   0 -13   27.03    1.45
   3   0  13   26.81    0.91
  -4   0 -13    5.40    0.38
  -4   0 -13    5.03    0.72
  -4   0 -13    5.48    0.73
  -4   0 -13    5.42    0.18
   4   0  13    5.30    0.39
  -5   0 -13    1.21    0.24
  -5   0 -13    2.15    0.54
   5   0  13    1.53    0.27
  -6   0 -13    3.74    0.41
  -6   0 -13    6.29    0.83
   6   0  13    3.47    0.40
  -7   0 -13    6.50    0.49
   7   0  13    7.17    0.53
  -8   0 -13    0.61    0.20
   8   0  13    0.74    0.25
   8  -1 -13    1.21    0.29
  -8   1  13    1.29    0.29
   7  -1 -13    1.06    0.26
  -7   1  13    1.05    0.63
  -7   1  13    1.56    0.29
   6  -1 -13    1.46    0.27
  -6   1  13    1.60    0.53
  -6   1  13    1.34    0.27
  -6   1  13    1.63    0.60
   5  -1 -13   -0.01    0.09
   5  -1 -13    0.03    0.09
  -5   1  13   -0.07    0.41
  -5   1  13   -0.13    0.45
  -5   1  13    0.03    0.12
   4  -1 -13    3.94    0.35
   4  -1 -13    4.03    0.33
  -4   1  13    3.06    0.58
  -4   1  13    3.67    0.68
  -4   1  13    3.82    0.32
   3  -1 -13    4.57    0.32
   3  -1 -13    3.87    0.33
  -3   1  13    4.69    0.73
  -3   1  13    4.19    0.18
  -3   1  13    4.52    0.32
   2  -1 -13    4.78    0.35
   2  -1 -13    5.33    0.27
  -2   1  13    5.63    0.24
  -2   1  13    5.49    0.75
   1  -1 -13   58.08    1.26
   1  -1 -13   56.97    1.57
  -1   1  13   59.40    1.42
  -1   1  13   60.45    1.23
   0  -1 -13   11.84    0.52
   0  -1 -13   11.86    1.07
   0  -1 -13   11.87    0.39
   0   1  13   12.31    0.49
   0   1  13   11.79    0.40
  -1  -1 -13    6.93    0.85
  -1  -1 -13    6.97    0.25
  -1  -1 -13    6.84    0.37
  -1  -1 -13    5.71    0.71
   1   1  13    6.90    0.37
   1   1  13    6.31    0.28
  -2  -1 -13    0.30    0.41
  -2  -1 -13    0.74    0.15
  -2  -1 -13    0.95    0.38
   2   1  13    0.58    0.14
  -3  -1 -13    0.37    0.12
  -3  -1 -13    0.76    0.42
  -3  -1 -13    0.48    0.13
  -3  -1 -13    0.50    0.36
   3   1  13    0.47    0.14
  -4  -1 -13    6.42    0.41
  -4  -1 -13    8.21    0.79
  -4  -1 -13    8.11    0.78
  -4  -1 -13    7.86    0.24
   4   1  13    7.22    0.44
  -5  -1 -13    2.73    0.32
  -5  -1 -13    5.23    0.70
   5   1  13    2.77    0.33
  -6  -1 -13    0.15    0.34
  -6  -1 -13    0.19    0.13
   6   1  13    0.05    0.12
  -7  -1 -13    0.18    0.15
   7   1  13    0.06    0.14
  -8  -1 -13    0.43    0.18
   8   1  13    0.68    0.23
   7  -2 -13    0.75    0.23
  -7   2  13    0.74    0.63
  -7   2  13    0.85    0.23
   6  -2 -13    1.51    0.28
  -6   2  13    1.80    0.62
  -6   2  13    0.91    0.49
  -6   2  13    1.26    0.25
   5  -2 -13    3.36    0.37
  -5   2  13    3.51    0.67
  -5   2  13    2.80    0.34
  -5   2  13    3.43    0.70
   4  -2 -13   13.95    0.61
   4  -2 -13   13.25    0.69
  -4   2  13   13.86    0.61
  -4   2  13   14.55    1.09
  -4   2  13   13.99    1.10
   3  -2 -13    0.15    0.09
   3  -2 -13    0.10    0.10
  -3   2  13   -0.05    0.40
  -3   2  13    0.10    0.10
  -3   2  13    0.17    0.39
  -3   2  13    0.12    0.04
   2  -2 -13   33.12    0.83
   2  -2 -13   32.71    1.07
  -2   2  13   33.64    0.75
  -2   2  13   32.18    1.66
   1  -2 -13   24.02    0.64
   1  -2 -13   23.00    0.82
  -1   2  13   24.09    0.62
  -1   2  13   22.82    0.69
   0  -2 -13    4.90    0.24
   0  -2 -13    5.17    0.32
   0   2  13    5.17    0.25
   0   2  13    5.06    0.29
  -1  -2 -13    4.69    0.71
  -1  -2 -13    4.92    0.69
  -1  -2 -13    4.04    0.27
  -1  -2 -13    3.83    0.19
   1   2  13    4.23    0.28
   1   2  13    4.08    0.22
  -2  -2 -13    0.38    0.30
  -2  -2 -13   -0.02    0.37
  -2  -2 -13    0.28    0.11
  -2  -2 -13    0.20    0.03
   2   2  13    0.28    0.11
  -3  -2 -13    9.01    0.34
  -3  -2 -13    8.04    0.77
  -3  -2 -13    8.75    0.45
  -3  -2 -13    7.97    0.85
   3   2  13    9.42    0.47
  -4  -2 -13   21.59    0.80
  -4  -2 -13   22.81    0.53
  -4  -2 -13   23.64    1.20
  -4  -2 -13   23.28    1.23
   4   2  13   21.50    0.81
  -5  -2 -13    3.40    0.35
  -5  -2 -13    4.23    0.62
   5   2  13    2.99    0.34
  -6  -2 -13    0.98    0.21
  -6  -2 -13    1.40    0.41
   6   2  13    0.40    0.15
  -7  -2 -13   -0.02    0.09
   7   2  13    0.01    0.11
  -8  -2 -13   -0.01    0.11
   8   2  13    0.12    0.15
   7  -3 -13    2.25    0.35
  -7   3  13    1.84    0.32
  -7   3  13    1.19    0.74
   6  -3 -13    0.12    0.14
  -6   3  13    0.29    0.16
  -6   3  13    0.76    0.62
  -6   3  13    0.45    0.47
   5  -3 -13    0.06    0.09
  -5   3  13    0.55    0.46
  -5   3  13    0.29    0.53
  -5   3  13    0.01    0.10
   4  -3 -13    2.35    0.29
   4  -3 -13    2.55    0.34
  -4   3  13    2.30    0.29
  -4   3  13    2.35    0.58
  -4   3  13    1.43    0.57
   3  -3 -13    1.94    0.28
   3  -3 -13    2.09    0.25
  -3   3  13    2.50    0.28
  -3   3  13    1.30    0.52
  -3   3  13    2.58    0.63
  -3   3  13    2.19    0.11
   2  -3 -13    0.57    0.16
   2  -3 -13    0.45    0.11
  -2   3  13    0.91    0.46
  -2   3  13    0.43    0.09
  -2   3  13    0.39    0.11
   1  -3 -13   51.42    1.16
   1  -3 -13   53.31    1.44
  -1   3  13   53.22    1.12
   0  -3 -13    0.61    0.10
   0  -3 -13    0.66    0.13
   0   3  13    0.62    0.11
   0   3  13    0.66    0.13
  -1  -3 -13    8.53    0.79
  -1  -3 -13    9.27    0.97
  -1  -3 -13    8.53    0.39
  -1  -3 -13    8.01    0.29
   1   3  13    8.93    0.34
   1   3  13    8.34    0.39
  -2  -3 -13    1.66    0.19
  -2  -3 -13    2.07    0.53
  -2  -3 -13    1.47    0.20
  -2  -3 -13    1.69    0.10
  -2  -3 -13    2.13    0.47
   2   3  13    1.65    0.22
  -3  -3 -13    0.75    0.13
  -3  -3 -13    0.96    0.46
  -3  -3 -13    0.74    0.16
  -3  -3 -13    0.80    0.36
   3   3  13    0.68    0.15
  -4  -3 -13    0.34    0.39
  -4  -3 -13   -0.01    0.08
  -4  -3 -13    0.03    0.06
   4   3  13   -0.08    0.07
  -5  -3 -13    0.19    0.12
   5   3  13    0.24    0.13
  -6  -3 -13    8.37    0.50
   6   3  13    8.90    0.53
  -7  -3 -13    2.05    0.31
   7   3  13    1.82    0.31
  -8  -3 -13    0.04    0.13
   8   3  13    0.10    0.15
   7  -4 -13    0.49    0.20
  -7   4  13    0.30    0.18
   6  -4 -13    0.59    0.18
  -6   4  13    0.74    0.21
  -6   4  13    0.81    0.67
  -6   4  13    0.92    0.54
   5  -4 -13    7.41    0.48
  -5   4  13    8.09    0.90
  -5   4  13    7.55    0.48
  -5   4  13    9.24    1.04
   4  -4 -13   -0.01    0.08
   4  -4 -13    0.03    0.11
  -4   4  13    0.02    0.10
  -4   4  13   -0.32    0.41
  -4   4  13    0.23    0.53
   3  -4 -13    8.97    0.44
   3  -4 -13    7.49    0.50
  -3   4  13    8.45    0.44
  -3   4  13    8.58    0.93
  -3   4  13    8.71    0.94
   2  -4 -13    4.36    0.26
   2  -4 -13    3.84    0.32
   2  -4 -13    3.98    0.27
  -2   4  13    4.23    0.21
  -2   4  13    3.90    0.27
  -2   4  13    3.69    0.65
   1  -4 -13   10.52    0.40
   1  -4 -13   10.26    0.49
  -1   4  13   10.90    0.37
   0  -4 -13   11.38    0.40
   0   4  13   11.18    0.39
  -1  -4 -13    0.44    0.42
  -1  -4 -13    0.03    0.07
  -1  -4 -13    0.07    0.05
  -1  -4 -13    0.03    0.07
   1   4  13   -0.04    0.05
   1   4  13   -0.01    0.06
  -2  -4 -13    0.99    0.48
  -2  -4 -13    0.56    0.13
  -2  -4 -13    0.88    0.09
  -2  -4 -13    0.61    0.13
   2   4  13    0.87    0.16
  -3  -4 -13   22.30    0.78
  -3  -4 -13   21.95    0.65
  -3  -4 -13   23.37    1.37
   3   4  13   21.45    0.78
  -4  -4 -13    0.35    0.09
  -4  -4 -13    0.39    0.14
  -4  -4 -13    0.51    0.44
   4   4  13    0.26    0.13
  -5  -4 -13   12.82    0.61
  -5  -4 -13   14.68    0.96
   5   4  13   12.15    0.62
  -6  -4 -13    0.38    0.15
   6   4  13    0.29    0.16
  -7  -4 -13    5.54    0.44
   7   4  13    6.18    0.48
  -8  -4 -13    3.97    0.44
   8   4  13    3.20    0.42
   6  -5 -13   -0.06    0.10
  -6   5  13   -0.14    0.46
  -6   5  13   -0.53    0.64
  -6   5  13   -0.03    0.12
   5  -5 -13    4.14    0.37
  -5   5  13    5.88    0.89
  -5   5  13    5.00    0.40
  -5   5  13    5.16    0.91
   4  -5 -13    0.27    0.13
   4  -5 -13    0.34    0.17
  -4   5  13    0.02    0.58
  -4   5  13    0.40    0.49
  -4   5  13    0.14    0.11
   3  -5 -13    4.31    0.32
   3  -5 -13    4.37    0.39
  -3   5  13    4.59    0.34
  -3   5  13    4.78    0.78
   2  -5 -13    2.64    0.24
   2  -5 -13    2.37    0.25
   2  -5 -13    2.58    0.31
  -2   5  13    2.58    0.64
  -2   5  13    3.01    0.25
  -2   5  13    3.03    0.17
   1  -5 -13    0.52    0.12
  -1   5  13    0.34    0.08
   0  -5 -13   15.27    0.49
   0   5  13   14.55    0.47
  -1  -5 -13   18.59    0.65
  -1  -5 -13   19.95    0.55
   1   5  13   19.87    0.57
  -2  -5 -13    7.88    0.98
  -2  -5 -13    7.29    0.38
  -2  -5 -13    7.12    0.36
  -2  -5 -13    7.17    0.26
   2   5  13    6.93    0.39
  -3  -5 -13   16.15    1.23
  -3  -5 -13   14.74    0.61
  -3  -5 -13   14.34    0.53
   3   5  13   15.64    0.63
  -4  -5 -13    0.15    0.43
  -4  -5 -13    0.04    0.07
  -4  -5 -13    0.07    0.10
   4   5  13   -0.03    0.09
  -5  -5 -13   14.12    1.03
  -5  -5 -13   13.00    0.64
   5   5  13   13.33    0.65
  -6  -5 -13    0.41    0.16
   6   5  13    0.23    0.15
  -7  -5 -13    0.68    0.21
   7   5  13    0.77    0.21
  -8  -5 -13    0.14    0.14
   8   5  13    0.07    0.15
   6  -6 -13    0.05    0.13
  -6   6  13   -0.03    0.13
   5  -6 -13    0.08    0.12
  -5   6  13    0.08    0.12
  -5   6  13    0.50    0.55
  -5   6  13   -0.25    0.66
   4  -6 -13    0.53    0.17
  -4   6  13    0.29    0.60
  -4   6  13    0.74    0.20
  -4   6  13    0.57    0.53
   3  -6 -13    0.73    0.18
  -3   6  13    1.28    0.59
  -3   6  13    0.70    0.18
   2  -6 -13    2.62    0.26
   2  -6 -13    3.27    0.28
  -2   6  13    1.98    0.65
  -2   6  13    2.81    0.17
   1  -6 -13    0.01    0.08
  -1   6  13   -0.05    0.05
   0  -6 -13    1.97    0.20
   0   6  13    1.79    0.19
  -1  -6 -13    1.47    0.22
  -1  -6 -13    1.28    0.16
   1   6  13    1.20    0.15
  -2  -6 -13    8.17    0.30
  -2  -6 -13    9.59    1.16
  -2  -6 -13    8.07    0.41
   2   6  13    7.80    0.34
  -3  -6 -13   -0.03    0.07
  -3  -6 -13   -0.15    0.45
  -3  -6 -13    0.08    0.10
   3   6  13    0.10    0.11
  -4  -6 -13    7.49    0.99
  -4  -6 -13    3.90    0.34
  -4  -6 -13    4.35    0.26
   4   6  13    4.56    0.37
  -5  -6 -13   15.40    1.13
  -5  -6 -13   14.46    0.42
  -5  -6 -13   14.48    0.69
   5   6  13   13.95    0.70
  -6  -6 -13    2.98    0.37
   6   6  13    3.17    0.38
  -7  -6 -13   -0.14    0.10
   7   6  13   -0.02    0.13
  -8  -6 -13    0.18    0.15
   8   6  13    0.40    0.20
   5  -7 -13    0.10    0.13
   4  -7 -13    0.29    0.15
  -4   7  13    0.75    0.61
   3  -7 -13    3.10    0.35
  -3   7  13    4.39    0.86
   2  -7 -13    0.27    0.13
   2  -7 -13    0.00    0.09
  -2   7  13    0.18    0.07
  -2   7  13    0.02    0.60
   1  -7 -13    2.45    0.25
  -1   7  13    2.48    0.19
   0  -7 -13    2.97    0.23
   0   7  13    2.70    0.20
  -1  -7 -13    0.38    0.14
  -1  -7 -13    0.38    0.10
   1   7  13    0.34    0.10
  -2  -7 -13    6.41    0.39
  -2  -7 -13    6.70    0.28
  -2  -7 -13    9.81    1.28
   2   7  13    7.35    0.34
  -3  -7 -13   10.35    1.21
  -3  -7 -13   10.40    0.48
   3   7  13    9.77    0.52
  -4  -7 -13    0.13    0.12
  -4  -7 -13   -0.04    0.07
  -4  -7 -13    0.11    0.50
   4   7  13    0.09    0.12
  -5  -7 -13    0.45    0.16
  -5  -7 -13    0.24    0.50
  -5  -7 -13    0.96    0.15
   5   7  13    0.44    0.18
  -6  -7 -13    0.20    0.15
  -6  -7 -13   -0.30    0.48
   6   7  13    0.04    0.14
  -7  -7 -13    5.74    0.49
   7   7  13    5.76    0.51
  -8  -7 -13    0.11    0.15
   8   7  13    0.02    0.14
   4  -8 -13    0.45    0.18
   3  -8 -13   -0.05    0.10
  -3   8  13   -0.50    0.59
   2  -8 -13    1.60    0.23
   2  -8 -13    1.48    0.26
   1  -8 -13    3.48    0.28
  -1   8  13    3.48    0.22
   0  -8 -13    1.50    0.20
   0   8  13    1.66    0.19
  -1  -8 -13    1.33    0.24
  -1  -8 -13    1.49    0.18
   1   8  13    1.16    0.16
  -2  -8 -13    0.09    0.11
  -2  -8 -13    0.13    0.08
   2   8  13    0.15    0.09
  -3  -8 -13    2.33    0.79
  -3  -8 -13    2.03    0.26
  -4  -8 -13    9.80    0.47
  -4  -8 -13   10.60    0.59
  -4  -8 -13   12.51    1.22
   4   8  13    9.98    0.59
  -5  -8 -13    0.30    0.11
  -5  -8 -13    0.23    0.15
  -5  -8 -13    0.52    0.59
   5   8  13    0.17    0.14
  -6  -8 -13    0.15    0.15
  -6  -8 -13   -0.20    0.50
   6   8  13    0.01    0.12
  -7  -8 -13    6.16    0.53
   7   8  13    6.36    0.56
   3  -9 -13    0.01    0.13
   2  -9 -13    0.88    0.19
   2  -9 -13    0.75    0.21
   1  -9 -13    2.96    0.31
  -1   9  13    2.92    0.20
   0  -9 -13    2.63    0.27
   0   9  13    2.18    0.22
  -1  -9 -13    3.32    0.25
   1   9  13    3.20    0.24
  -2  -9 -13    2.18    0.21
  -2  -9 -13    2.07    0.30
   2   9  13    1.77    0.22
  -3  -9 -13    1.41    0.24
  -4  -9 -13    1.30    0.22
  -4  -9 -13    3.22    0.95
  -5  -9 -13    0.42    0.19
  -5  -9 -13    0.22    0.12
  -5  -9 -13    0.21    0.57
   5   9  13    0.19    0.17
  -6  -9 -13    2.09    0.15
  -6  -9 -13    2.64    0.78
  -6  -9 -13    2.38    0.38
   6   9  13    2.13    0.38
  -7  -9 -13    0.06    0.16
   7   9  13    0.03    0.17
   2 -10 -13    1.66    0.26
   1 -10 -13    1.56    0.25
  -1  10  13    1.18    0.15
   0 -10 -13   -0.07    0.10
   0  10  13    0.10    0.10
  -1 -10 -13    0.02    0.10
   1  10  13    0.06    0.10
  -2 -10 -13    2.79    0.36
  -2 -10 -13    2.35    0.23
   2  10  13    2.47    0.26
  -3 -10 -13    0.19    0.14
   3  10  13    0.23    0.12
  -4 -10 -13    0.20    0.67
  -4 -10 -13    0.67    0.18
  -5 -10 -13   -0.18    0.62
  -5 -10 -13    0.12    0.12
  -6 -10 -13    0.39    0.21
  -6 -10 -13    0.63    0.13
   6  10  13    0.47    0.22
  -1 -11 -13    0.16    0.11
   1  11  13   -0.05    0.08
  -2 -11 -13    0.60    0.14
  -2 -11 -13    0.41    0.20
   2  11  13    0.79    0.17
  -3 -11 -13    1.43    0.28
   3  11  13    1.55    0.23
   4   7 -14    0.06    0.10
   3   7 -14    0.18    0.11
  -3  -7  14    0.34    0.20
  -3  -7  14    0.29    0.12
   2   7 -14   -0.08    0.07
  -2  -7  14    0.12    0.16
  -2  -7  14    0.15    0.11
   1   7 -14    0.73    0.13
  -1  -7  14    1.02    0.20
  -1  -7  14    1.28    0.29
   0  -7  14    0.15    0.13
   0  -7  14    0.09    0.16
  -5  -6  14    0.41    0.22
  -5  -6  14    0.41    0.21
   4   6 -14    0.89    0.18
  -4  -6  14    0.42    0.21
  -4  -6  14    0.66    0.23
   3   6 -14    0.65    0.15
  -3  -6  14    0.56    0.13
  -3  -6  14    0.49    0.20
   2   6 -14    2.32    0.23
  -2  -6  14    2.13    0.24
  -2  -6  14    2.52    0.38
   1   6 -14    0.29    0.10
  -1  -6  14    0.18    0.15
  -1  -6  14    0.08    0.11
   0   6 -14   -0.06    0.05
   0  -6  14   -0.11    0.09
   0  -6  14   -0.05    0.12
   1  -6  14   -0.01    0.13
  -2   6 -14    1.23    0.80
   2  -6  14    0.35    0.19
  -6  -5  14    0.70    0.25
  -6  -5  14    0.52    0.23
  -5  -5  14    0.10    0.63
  -5  -5  14    0.04    0.16
  -5  -5  14   -0.10    0.14
   4   5 -14   -0.05    0.10
  -4  -5  14    0.49    0.19
  -4  -5  14    0.11    0.17
   3   5 -14    0.26    0.11
  -3  -5  14    0.16    0.15
  -3  -5  14    0.28    0.10
   2   5 -14    4.65    0.29
  -2  -5  14    4.63    0.49
  -2  -5  14    4.47    0.29
   1   5 -14    0.25    0.10
  -1  -5  14    0.10    0.11
  -1  -5  14    0.25    0.15
   0   5 -14   -0.01    0.05
   0  -5  14    0.06    0.10
   0  -5  14   -0.07    0.11
   0  -5  14    0.07    0.09
  -1   5 -14    4.11    1.03
   1  -5  14    3.42    0.40
  -2   5 -14    0.75    0.70
   2  -5  14    0.78    0.21
  -3   5 -14    0.25    0.65
   3  -5  14    0.43    0.20
   4  -5  14    0.13    0.17
  -7  -4  14    0.41    0.23
  -6  -4  14    0.01    0.51
  -6  -4  14    0.12    0.16
  -5  -4  14    1.35    0.68
  -5  -4  14    1.75    0.32
  -5  -4  14    1.66    0.32
   4   4 -14   -0.12    0.08
  -4  -4  14    0.15    0.61
  -4  -4  14    0.02    0.13
  -4  -4  14   -0.11    0.13
   3   4 -14    5.93    0.33
  -3  -4  14    5.46    0.44
  -3  -4  14    5.00    0.27
   2   4 -14   18.04    0.59
  -2  -4  14   17.18    0.78
  -2  -4  14   17.32    0.58
   1   4 -14    4.17    0.25
  -1  -4  14    3.82    0.27
  -1  -4  14    3.87    0.27
  -1  -4  14    4.02    0.42
   0   4 -14    2.02    0.16
   0  -4  14    2.07    0.23
   0  -4  14    2.10    0.30
  -1   4 -14    3.28    0.91
   1  -4  14    1.73    0.29
  -2   4 -14    1.72    0.76
   2  -4  14    0.93    0.22
  -3   4 -14    1.20    0.65
  -3   4 -14    2.03    0.76
   3  -4  14    1.91    0.30
  -4   4 -14   10.84    1.09
  -4   4 -14    8.37    1.00
   4  -4  14    9.30    0.59
   5  -4  14    1.52    0.30
  -7  -3  14    0.74    0.25
  -7  -3  14   -0.19    0.48
  -7  -3  14    0.50    0.62
  -6  -3  14    0.59    0.58
  -6  -3  14    1.47    0.64
  -6  -3  14    1.90    0.34
  -5  -3  14    6.81    0.50
  -5  -3  14    6.88    0.97
  -5  -3  14    6.00    0.50
  -4  -3  14    2.42    0.33
  -4  -3  14    1.74    0.68
  -4  -3  14    2.41    0.34
   3   3 -14    0.30    0.11
   3   3 -14    0.25    0.14
  -3  -3  14    0.12    0.12
  -3  -3  14    0.15    0.08
   2   3 -14    0.06    0.11
   2   3 -14    0.11    0.08
  -2  -3  14   -0.03    0.06
  -2  -3  14    0.05    0.10
  -2  -3  14   -0.07    0.05
   1   3 -14   -0.05    0.08
   1   3 -14   -0.04    0.06
  -1  -3  14   -0.03    0.08
  -1  -3  14   -0.01    0.07
   0   3 -14    3.88    0.21
   0   3 -14    4.02    0.36
   0  -3  14    3.36    0.25
   0  -3  14    3.65    0.33
  -1   3 -14    0.24    0.14
  -1   3 -14    0.31    0.55
  -1   3 -14    0.34    0.06
   1  -3  14    0.07    0.10
  -2   3 -14    0.44    0.17
  -2   3 -14    1.03    0.61
  -2   3 -14    0.27    0.48
   2  -3  14    0.36    0.15
  -3   3 -14    3.10    0.71
  -3   3 -14    3.24    0.81
   3  -3  14    2.78    0.35
  -4   3 -14    7.13    0.94
  -4   3 -14    5.99    0.84
   4  -3  14    6.31    0.48
  -5   3 -14    0.76    0.57
   5  -3  14    0.15    0.17
   6  -3  14    0.18    0.18
  -7  -2  14    1.11    0.28
  -7  -2  14    0.23    0.54
  -7  -2  14    0.43    0.56
  -6  -2  14    0.59    0.54
  -6  -2  14    0.03    0.50
  -6  -2  14    0.33    0.17
  -5  -2  14    1.29    0.63
  -5  -2  14    0.88    0.56
  -5  -2  14    1.33    0.28
  -4  -2  14    2.72    0.34
  -4  -2  14    1.51    0.60
  -4  -2  14    2.33    0.33
   3   2 -14   18.43    0.60
   3   2 -14   18.78    0.82
  -3  -2  14   16.68    0.50
  -3  -2  14   18.44    1.38
  -3  -2  14   16.39    0.70
   2   2 -14    5.36    0.41
   2   2 -14    5.59    0.30
  -2  -2  14    4.81    0.26
  -2  -2  14    5.35    0.37
  -2  -2  14    5.03    0.27
   1   2 -14    0.83    0.19
   1   2 -14    0.73    0.13
  -1  -2  14    1.02    0.20
  -1  -2  14    0.80    0.14
   0   2 -14   19.10    0.54
   0   2 -14   19.40    0.80
   0  -2  14   19.98    0.60
   0  -2  14   19.60    0.75
  -1   2 -14    0.31    0.53
  -1   2 -14    0.08    0.11
  -1   2 -14    0.40    0.07
   1  -2  14    0.23    0.12
  -2   2 -14    1.50    0.54
  -2   2 -14    1.27    0.62
  -2   2 -14    1.04    0.22
   2  -2  14    1.10    0.22
  -3   2 -14    0.88    0.59
  -3   2 -14    0.91    0.53
  -3   2 -14    0.91    0.22
   3  -2  14    0.58    0.18
  -4   2 -14    0.51    0.49
  -4   2 -14    0.42    0.51
   4  -2  14    0.48    0.18
  -5   2 -14    0.03    0.46
   5  -2  14    0.08    0.14
  -6   2 -14    0.78    0.53
   6  -2  14    0.53    0.21
  -7  -1  14    0.49    0.54
  -7  -1  14    0.24    0.19
  -7  -1  14    0.15    0.58
  -6  -1  14    1.86    0.62
  -6  -1  14    3.48    0.74
  -6  -1  14    3.72    0.44
  -5  -1  14    0.13    0.14
  -5  -1  14   -0.16    0.48
  -5  -1  14    0.18    0.49
   4   1 -14    0.97    0.22
  -4  -1  14    0.60    0.49
  -4  -1  14    0.86    0.20
   3   1 -14    5.59    0.42
   3   1 -14    6.20    0.32
  -3  -1  14    6.80    0.88
  -3  -1  14    5.28    0.36
  -3  -1  14    6.18    0.26
   2   1 -14    2.69    0.21
   2   1 -14    1.97    0.28
  -2  -1  14    2.69    0.29
  -2  -1  14    2.25    0.18
   1   1 -14    0.13    0.07
   1   1 -14    0.03    0.08
  -1  -1  14    0.19    0.10
  -1  -1  14    0.03    0.06
   0   1 -14    5.66    0.39
   0   1 -14    6.11    0.27
   0  -1  14    5.77    0.37
   0  -1  14    5.58    0.28
  -1   1 -14    6.75    0.24
  -1   1 -14    7.71    1.01
  -1   1 -14    6.39    0.42
   1  -1  14    6.72    0.41
  -2   1 -14   12.20    0.61
  -2   1 -14   13.50    1.12
  -2   1 -14   12.30    0.98
   2  -1  14   12.73    0.59
  -3   1 -14    2.51    0.58
  -3   1 -14    3.00    0.36
  -3   1 -14    2.67    0.68
   3  -1  14    2.80    0.33
  -4   1 -14   -0.03    0.04
  -4   1 -14   -0.26    0.36
  -4   1 -14    0.04    0.10
  -4   1 -14   -0.24    0.44
   4  -1  14   -0.12    0.08
  -5   1 -14    0.72    0.44
   5  -1  14    0.71    0.20
  -6   1 -14    0.79    0.49
   6  -1  14    0.24    0.17
   7  -1  14    0.11    0.16
   7   0 -14    2.17    0.36
  -7   0  14    2.24    0.64
  -7   0  14    2.98    0.41
  -7   0  14    1.36    0.66
   6   0 -14    2.20    0.33
  -6   0  14    2.78    0.37
  -6   0  14    1.93    0.64
  -6   0  14    2.73    0.65
  -5   0  14    0.43    0.49
  -5   0  14   -0.01    0.46
  -5   0  14    0.28    0.16
   4   0 -14    0.80    0.20
  -4   0  14    0.63    0.46
  -4   0  14    0.84    0.51
  -4   0  14    0.94    0.21
   3   0 -14    0.17    0.12
   3   0 -14    0.25    0.10
  -3   0  14    0.17    0.06
  -3   0  14    0.16    0.06
  -3   0  14    0.41    0.48
  -3   0  14   -0.01    0.10
   2   0 -14    0.10    0.07
   2   0 -14    0.06    0.09
  -2   0  14    0.04    0.07
  -2   0  14    0.03    0.05
   1   0 -14   13.62    0.62
   1   0 -14   13.27    0.45
  -1   0  14   13.56    0.44
  -1   0  14   14.25    0.56
   0   0 -14    0.18    0.07
   0   0 -14    0.35    0.13
   0   0  14    0.12    0.07
   0   0  14    0.20    0.10
  -1   0 -14    0.06    0.08
  -1   0 -14    0.17    0.06
  -1   0 -14   -0.11    0.34
  -1   0 -14   -0.10    0.40
   1   0  14    0.16    0.08
   1   0  14    0.23    0.10
  -2   0 -14    7.68    0.97
  -2   0 -14    6.72    0.88
  -2   0 -14    5.29    0.36
   2   0  14    5.13    0.37
  -3   0 -14   11.77    1.04
  -3   0 -14   12.91    1.03
  -3   0 -14   10.92    0.56
   3   0  14   11.23    0.56
  -4   0 -14    3.43    0.16
  -4   0 -14    3.27    0.63
  -4   0 -14    4.86    0.75
   4   0  14    3.17    0.35
  -5   0 -14    0.41    0.44
   5   0  14    0.48    0.17
  -6   0 -14   -0.09    0.41
   6   0  14   -0.06    0.11
  -7   0 -14    0.20    0.39
   7   0  14    0.04    0.13
   7  -1 -14    4.55    0.51
  -7   1  14    4.31    0.88
  -7   1  14    4.43    0.48
   6  -1 -14    0.28    0.14
  -6   1  14   -0.15    0.43
  -6   1  14    0.22    0.53
  -6   1  14   -0.06    0.11
   5  -1 -14    0.34    0.14
  -5   1  14    0.13    0.50
  -5   1  14    0.17    0.14
  -5   1  14    0.26    0.47
   4  -1 -14    4.88    0.41
   4  -1 -14    4.35    0.35
  -4   1  14    4.21    0.35
  -4   1  14    4.79    0.76
   3  -1 -14    5.42    0.35
   3  -1 -14    5.42    0.41
  -3   1  14    5.82    0.37
  -3   1  14    4.93    0.78
  -3   1  14    5.53    0.22
   2  -1 -14    4.73    0.27
   2  -1 -14    4.73    0.36
  -2   1  14    4.88    0.76
  -2   1  14    4.44    0.22
   1  -1 -14   14.85    0.65
   1  -1 -14   15.45    0.50
  -1   1  14   15.35    0.48
  -1   1  14   15.81    0.58
   0  -1 -14   18.27    0.53
   0  -1 -14   18.72    0.71
   0   1  14   18.41    0.65
   0   1  14   18.87    0.55
  -1  -1 -14    4.63    0.73
  -1  -1 -14    3.92    0.19
  -1  -1 -14    2.83    0.25
  -1  -1 -14    5.00    0.64
   1   1  14    3.24    0.21
   1   1  14    3.91    0.29
  -2  -1 -14    2.98    0.26
  -2  -1 -14    3.54    0.69
  -2  -1 -14    4.16    0.60
   2   1  14    3.41    0.28
  -3  -1 -14    2.55    0.30
  -3  -1 -14    3.15    0.65
  -3  -1 -14    4.76    0.73
   3   1  14    2.77    0.31
  -4  -1 -14    0.92    0.43
  -4  -1 -14    0.55    0.09
  -4  -1 -14    0.42    0.43
  -4  -1 -14    0.79    0.18
   4   1  14    0.31    0.13
  -5  -1 -14    6.66    0.80
  -5  -1 -14    6.05    0.43
   5   1  14    6.99    0.47
  -6  -1 -14    0.04    0.11
  -6  -1 -14   -0.16    0.36
   6   1  14    0.03    0.11
  -7  -1 -14    0.50    0.41
  -7  -1 -14    0.32    0.16
   7   1  14    0.14    0.14
  -8  -1 -14    0.04    0.14
   8   1  14    0.55    0.22
   7  -2 -14    4.66    0.50
  -7   2  14    4.18    0.46
  -7   2  14    5.09    0.92
   6  -2 -14    0.21    0.14
  -6   2  14    0.12    0.12
  -6   2  14    0.07    0.53
  -6   2  14    0.05    0.45
   5  -2 -14    1.15    0.24
  -5   2  14    0.79    0.52
  -5   2  14    0.77    0.52
  -5   2  14    1.21    0.24
   4  -2 -14    6.57    0.42
   4  -2 -14    6.01    0.46
  -4   2  14    6.92    0.86
  -4   2  14    6.22    0.42
  -4   2  14    8.37    0.90
   3  -2 -14    5.24    0.34
   3  -2 -14    4.75    0.38
  -3   2  14    5.29    0.20
  -3   2  14    5.44    0.35
  -3   2  14    5.83    0.79
   2  -2 -14    6.68    0.43
   2  -2 -14    6.99    0.33
  -2   2  14    7.09    0.83
  -2   2  14    6.85    0.28
   1  -2 -14   62.72    1.71
   1  -2 -14   66.36    1.39
  -1   2  14   65.16    1.35
   0  -2 -14   18.77    0.71
   0  -2 -14   20.40    0.57
   0   2  14   20.52    0.57
   0   2  14   20.99    0.68
  -1  -2 -14    7.93    0.94
  -1  -2 -14    7.90    0.28
  -1  -2 -14    7.93    0.40
   1   2  14    7.98    0.40
   1   2  14    8.10    0.33
  -2  -2 -14    0.98    0.18
  -2  -2 -14    1.65    0.46
   2   2  14    0.57    0.14
  -3  -2 -14   -0.39    0.38
  -3  -2 -14    0.09    0.07
  -3  -2 -14   -0.05    0.30
  -3  -2 -14   -0.03    0.07
   3   2  14    0.02    0.07
  -4  -2 -14    0.82    0.43
  -4  -2 -14    0.90    0.41
  -4  -2 -14    0.76    0.10
  -4  -2 -14    0.46    0.15
   4   2  14    0.64    0.17
  -5  -2 -14    4.66    0.36
  -5  -2 -14    6.14    0.74
   5   2  14    4.47    0.37
  -6  -2 -14    1.12    0.44
  -6  -2 -14    0.57    0.18
   6   2  14    0.71    0.20
  -7  -2 -14    2.53    0.59
  -7  -2 -14    1.32    0.25
   7   2  14    1.38    0.28
  -8  -2 -14   -0.02    0.12
   8   2  14   -0.10    0.13
   7  -3 -14    0.88    0.24
  -7   3  14    0.95    0.25
   6  -3 -14    0.09    0.12
  -6   3  14    0.17    0.14
  -6   3  14   -0.31    0.58
  -6   3  14    0.09    0.47
   5  -3 -14    5.72    0.42
  -5   3  14    6.33    0.87
  -5   3  14    6.81    0.94
  -5   3  14    5.33    0.42
   4  -3 -14    0.07    0.09
   4  -3 -14   -0.08    0.10
  -4   3  14    0.23    0.13
  -4   3  14    0.01    0.40
  -4   3  14    0.07    0.48
   3  -3 -14    2.52    0.33
   3  -3 -14    1.51    0.21
  -3   3  14    2.43    0.63
  -3   3  14    1.80    0.11
  -3   3  14    2.27    0.27
   2  -3 -14    9.87    0.40
   2  -3 -14    9.91    0.52
  -2   3  14   10.54    1.01
  -2   3  14    9.71    0.34
   1  -3 -14    5.08    0.27
   1  -3 -14    4.95    0.35
  -1   3  14    5.27    0.26
   0  -3 -14    0.41    0.12
   0  -3 -14    0.77    0.12
   0   3  14    0.53    0.11
   0   3  14    0.62    0.13
  -1  -3 -14    1.25    0.14
  -1  -3 -14    1.44    0.19
  -1  -3 -14    1.66    0.55
   1   3  14    1.35    0.16
   1   3  14    1.31    0.19
  -2  -3 -14    2.33    0.49
  -2  -3 -14    2.24    0.11
  -2  -3 -14    2.88    0.64
  -2  -3 -14    2.46    0.27
  -2  -3 -14    2.52    0.25
   2   3  14    2.08    0.25
  -3  -3 -14    6.34    0.82
  -3  -3 -14    4.27    0.25
  -3  -3 -14    4.58    0.33
   3   3  14    4.22    0.32
  -4  -3 -14    2.88    0.31
  -4  -3 -14    3.42    0.62
  -4  -3 -14    3.26    0.19
  -4  -3 -14    4.35    0.66
   4   3  14    2.77    0.32
  -5  -3 -14    0.85    0.43
  -5  -3 -14    0.73    0.19
   5   3  14    0.93    0.21
  -6  -3 -14    0.35    0.15
  -6  -3 -14    0.90    0.38
   6   3  14    0.35    0.16
  -7  -3 -14    5.18    0.43
  -7  -3 -14    7.14    0.75
   7   3  14    5.48    0.45
  -8  -3 -14    0.01    0.13
   8   3  14   -0.03    0.14
   6  -4 -14    0.08    0.13
  -6   4  14   -0.13    0.10
  -6   4  14   -0.48    0.48
  -6   4  14    0.13    0.68
   5  -4 -14    1.06    0.23
  -5   4  14    1.34    0.55
  -5   4  14    0.85    0.20
  -5   4  14    0.53    0.64
   4  -4 -14    0.37    0.15
   4  -4 -14    0.58    0.20
  -4   4  14    0.44    0.50
  -4   4  14    0.40    0.15
  -4   4  14    0.27    0.58
   3  -4 -14    0.10    0.09
   3  -4 -14    0.07    0.11
  -3   4  14    0.03    0.09
  -3   4  14   -0.17    0.44
   2  -4 -14    0.20    0.12
   2  -4 -14    0.27    0.10
  -2   4  14    0.19    0.07
  -2   4  14    0.52    0.49
   1  -4 -14    3.64    0.23
   1  -4 -14    3.11    0.28
  -1   4  14    3.80    0.21
   0  -4 -14    3.36    0.21
   0   4  14    3.56    0.22
  -1  -4 -14    0.02    0.07
  -1  -4 -14    0.12    0.45
  -1  -4 -14   -0.02    0.05
  -1  -4 -14   -0.09    0.07
   1   4  14   -0.05    0.05
   1   4  14   -0.10    0.05
  -2  -4 -14    0.80    0.09
  -2  -4 -14    1.04    0.41
  -2  -4 -14    0.64    0.14
  -2  -4 -14    0.76    0.52
  -2  -4 -14    0.85    0.16
   2   4  14    0.73    0.15
  -3  -4 -14   13.37    0.49
  -3  -4 -14   14.07    1.12
  -3  -4 -14   14.10    0.59
   3   4  14   12.40    0.58
  -4  -4 -14    2.14    0.28
  -4  -4 -14    2.15    0.17
  -4  -4 -14    3.27    0.64
   4   4  14    2.36    0.29
  -5  -4 -14    4.30    0.36
  -5  -4 -14    5.58    0.72
   5   4  14    4.76    0.39
  -6  -4 -14    2.67    0.34
   6   4  14    2.54    0.36
  -7  -4 -14    2.23    0.33
   7   4  14    2.60    0.36
  -8  -4 -14    1.18    0.26
   8   4  14    0.93    0.25
   6  -5 -14    0.04    0.12
  -6   5  14   -0.39    0.68
  -6   5  14   -0.10    0.12
   5  -5 -14   -0.04    0.09
  -5   5  14    0.06    0.50
  -5   5  14    0.18    0.66
  -5   5  14   -0.04    0.10
   4  -5 -14    0.27    0.14
  -4   5  14    0.14    0.60
  -4   5  14    0.09    0.52
  -4   5  14    0.28    0.13
   3  -5 -14    0.48    0.14
   3  -5 -14    0.49    0.18
  -3   5  14    0.51    0.15
  -3   5  14    0.51    0.48
   2  -5 -14    0.68    0.14
  -2   5  14    0.69    0.11
  -2   5  14    0.82    0.54
   1  -5 -14    0.29    0.10
  -1   5  14    0.12    0.07
   0  -5 -14    2.68    0.20
   0   5  14    2.62    0.19
  -1  -5 -14    4.79    0.24
  -1  -5 -14    5.30    0.33
   1   5  14    5.44    0.28
  -2  -5 -14    0.35    0.46
  -2  -5 -14    0.07    0.05
  -2  -5 -14   -0.06    0.07
  -2  -5 -14    0.00    0.08
   2   5  14    0.21    0.10
  -3  -5 -14    6.98    1.00
  -3  -5 -14    4.44    0.29
  -3  -5 -14    4.03    0.32
   3   5  14    4.22    0.34
  -4  -5 -14    9.64    0.38
  -4  -5 -14    8.97    0.50
  -4  -5 -14    9.49    0.99
   4   5  14    9.71    0.52
  -5  -5 -14   21.21    0.85
  -5  -5 -14   23.01    1.31
   5   5  14   20.55    0.86
  -6  -5 -14    5.40    0.42
   6   5  14    4.98    0.42
  -7  -5 -14    0.07    0.13
   7   5  14    0.08    0.12
  -8  -5 -14    0.03    0.14
   8   5  14    0.16    0.16
   5  -6 -14   -0.04    0.11
  -5   6  14   -0.14    0.71
  -5   6  14    0.12    0.53
  -5   6  14    0.07    0.14
   4  -6 -14    0.27    0.14
  -4   6  14    0.38    0.15
  -4   6  14    0.27    0.55
   3  -6 -14   10.44    0.53
  -3   6  14   10.56    0.55
  -3   6  14   10.88    1.17
   2  -6 -14    0.02    0.08
  -2   6  14    0.10    0.06
   1  -6 -14    0.40    0.12
  -1   6  14    0.25    0.09
   0  -6 -14    0.09    0.08
   0   6  14    0.12    0.08
  -1  -6 -14   -0.01    0.06
  -1  -6 -14   -0.02    0.08
   1   6  14    0.03    0.07
  -2  -6 -14    7.04    1.08
  -2  -6 -14    4.56    0.21
  -2  -6 -14    4.67    0.32
   2   6  14    3.88    0.25
  -3  -6 -14    9.73    1.12
  -3  -6 -14    9.28    0.44
  -3  -6 -14    9.63    0.50
   3   6  14    9.23    0.50
  -4  -6 -14    2.44    0.24
  -4  -6 -14    4.63    0.88
  -4  -6 -14    2.90    0.33
   4   6  14    2.99    0.35
  -5  -6 -14    0.36    0.09
  -5  -6 -14    0.64    0.19
  -5  -6 -14    0.95    0.54
   5   6  14    0.16    0.14
  -6  -6 -14    4.00    0.43
   6   6  14    5.48    0.45
  -7  -6 -14    0.49    0.20
   7   6  14    0.54    0.20
  -8  -6 -14   -0.05    0.14
   8   6  14    0.33    0.19
   5  -7 -14    0.13    0.15
   4  -7 -14    1.22    0.25
  -4   7  14    1.03    0.65
   3  -7 -14    0.23    0.14
  -3   7  14    0.41    0.61
   2  -7 -14    0.43    0.14
  -2   7  14    0.59    0.10
   1  -7 -14    2.30    0.25
  -1   7  14    1.74    0.18
   0  -7 -14    2.19    0.22
   0   7  14    1.75    0.20
  -1  -7 -14    5.45    0.38
  -1  -7 -14    5.56    0.29
   1   7  14    5.47    0.30
  -2  -7 -14    3.05    0.19
  -2  -7 -14    2.57    0.30
   2   7  14    2.91    0.23
  -3  -7 -14    7.86    0.43
  -3  -7 -14   12.87    1.50
  -4  -7 -14    0.72    0.19
  -4  -7 -14    0.47    0.54
  -4  -7 -14    0.74    0.15
   4   7  14    0.63    0.19
  -5  -7 -14   -0.06    0.50
  -5  -7 -14    0.06    0.08
  -5  -7 -14   -0.07    0.11
   5   7  14    0.08    0.14
  -6  -7 -14    1.20    0.60
  -6  -7 -14    0.39    0.18
   6   7  14    0.68    0.21
  -7  -7 -14    1.78    0.33
   7   7  14    1.62    0.32
  -8  -7 -14    1.00    0.27
   8   7  14    0.80    0.25
   4  -8 -14    0.35    0.17
   3  -8 -14    0.87    0.22
  -3   8  14    1.11    0.71
   2  -8 -14   -0.14    0.09
   1  -8 -14    1.02    0.18
  -1   8  14    1.10    0.15
   0  -8 -14    2.16    0.24
   0   8  14    2.09    0.21
  -1  -8 -14    1.24    0.24
  -1  -8 -14    1.01    0.16
   1   8  14    1.06    0.16
  -2  -8 -14    1.47    0.24
  -2  -8 -14    2.36    0.18
   2   8  14    1.85    0.21
  -3  -8 -14    2.03    0.27
  -3  -8 -14    3.66    0.98
  -4  -8 -14    0.80    0.62
  -5  -8 -14    5.59    0.97
  -5  -8 -14    4.01    0.44
  -5  -8 -14    3.78    0.26
   5   8  14    3.71    0.43
  -6  -8 -14    0.02    0.13
  -6  -8 -14   -0.19    0.50
   6   8  14   -0.17    0.11
  -7  -8 -14    0.02    0.14
   7   8  14    0.02    0.16
   2  -9 -14    0.70    0.19
   1  -9 -14    1.39    0.22
  -1   9  14    1.33    0.16
   0  -9 -14    5.78    0.36
   0   9  14    5.94    0.32
  -1  -9 -14    1.98    0.22
   1   9  14    1.29    0.18
  -2  -9 -14    3.77    0.39
  -2  -9 -14    3.10    0.22
   2   9  14    3.09    0.28
  -3  -9 -14    4.75    0.37
  -4  -9 -14    1.05    0.67
  -5  -9 -14    1.56    0.22
  -5  -9 -14    1.67    0.77
   5   9  14    2.05    0.34
  -6  -9 -14    1.74    0.32
  -6  -9 -14    2.49    0.78
   6   9  14    1.42    0.31
   1 -10 -14    4.26    0.34
  -1  10  14    4.55    0.25
   0 -10 -14    5.83    0.37
   0  10  14    4.78    0.30
  -1 -10 -14    1.11    0.18
   1  10  14    1.39    0.20
  -2 -10 -14   -0.10    0.07
  -2 -10 -14   -0.07    0.12
   2  10  14    0.03    0.10
  -3 -10 -14    0.26    0.16
   3  10  14    0.44    0.14
  -4 -10 -14    0.45    0.68
  -4 -10 -14    0.21    0.15
  -5 -10 -14    0.96    0.79
  -5 -10 -14    0.90    0.19
  -2 -11 -14    0.20    0.11
   2  11  14    0.11    0.11
   3  11  14    0.12    0.12
   4   6 -15    0.29    0.13
  -4  -6  15    0.10    0.16
  -3  -6  15    0.61    0.23
  -3  -6  15    0.68    0.15
   2   6 -15    0.70    0.14
  -2  -6  15    0.43    0.19
  -2  -6  15    0.68    0.16
   1   6 -15    3.45    0.23
  -1  -6  15    3.16    0.32
  -1  -6  15    3.19    0.42
   0  -6  15    0.20    0.12
   0  -6  15    0.41    0.20
   1  -6  15    0.30    0.18
  -5  -5  15    0.26    0.67
  -5  -5  15    1.31    0.31
  -5  -5  15    1.23    0.32
   4   5 -15   -0.07    0.10
  -4  -5  15    0.04    0.13
   3   5 -15    0.05    0.09
  -3  -5  15    0.01    0.12
  -3  -5  15    0.04    0.08
  -2  -5  15    9.19    0.43
  -2  -5  15    8.42    0.58
   1   5 -15    0.31    0.11
  -1  -5  15    0.24    0.13
  -1  -5  15    0.11    0.14
   0   5 -15    0.02    0.06
   0  -5  15    0.06    0.10
   0  -5  15    0.01    0.10
   0  -5  15    0.06    0.13
   1  -5  15    0.04    0.12
  -2   5 -15    0.46    0.77
   2  -5  15    1.19    0.27
   3  -5  15    0.02    0.14
  -6  -4  15    0.72    0.25
  -5  -4  15    0.05    0.17
  -5  -4  15    0.14    0.15
  -5  -4  15   -0.12    0.59
   4   4 -15    0.35    0.13
  -4  -4  15    0.73    0.22
   3   4 -15    2.00    0.23
  -3  -4  15    2.11    0.21
  -3  -4  15    1.93    0.32
   2   4 -15    0.38    0.12
  -2  -4  15    0.21    0.16
  -2  -4  15    0.15    0.10
   1   4 -15    6.59    0.32
  -1  -4  15    6.21    0.47
  -1  -4  15    7.38    0.38
  -1  -4  15    6.16    0.35
   0  -4  15    0.22    0.11
   0  -4  15    0.28    0.16
  -1   4 -15    1.00    0.75
   1  -4  15    0.79    0.20
  -2   4 -15   -0.46    0.56
   2  -4  15    0.06    0.13
  -3   4 -15    0.10    0.61
  -3   4 -15   -0.34    0.55
   3  -4  15    0.05    0.12
  -4   4 -15    6.84    0.94
  -4   4 -15    6.96    0.97
   4  -4  15    4.70    0.50
  -6  -3  15    1.11    0.28
  -6  -3  15    1.48    0.66
  -5  -3  15    4.71    0.51
  -5  -3  15    5.88    0.97
  -4  -3  15    5.02    0.42
  -4  -3  15    3.78    0.87
   3   3 -15    0.60    0.14
  -3  -3  15    1.08    0.24
   2   3 -15    2.50    0.25
  -2  -3  15    2.68    0.34
  -2  -3  15    2.33    0.23
  -2  -3  15    2.32    0.23
   1   3 -15    0.87    0.14
  -1  -3  15    1.32    0.18
  -1  -3  15    0.71    0.19
   0   3 -15    0.94    0.13
   0  -3  15    0.51    0.13
   0  -3  15    0.76    0.19
  -1   3 -15    9.59    1.16
   1  -3  15    8.02    0.50
  -2   3 -15    2.05    0.78
   2  -3  15    1.24    0.24
  -3   3 -15    0.10    0.49
  -3   3 -15    0.29    0.56
   3  -3  15   -0.11    0.10
  -4   3 -15    0.44    0.60
  -4   3 -15    0.28    0.54
   4  -3  15    0.19    0.15
  -5   3 -15    9.50    0.98
   5  -3  15    8.51    0.58
  -7  -2  15    0.08    0.16
  -6  -2  15    0.40    0.22
  -6  -2  15    0.87    0.62
  -6  -2  15    0.15    0.52
  -5  -2  15    0.23    0.56
  -5  -2  15    0.13    0.16
  -4  -2  15    4.50    0.86
   3   2 -15    0.03    0.07
  -3  -2  15    0.07    0.10
  -3  -2  15    0.13    0.07
   2   2 -15    8.74    0.55
   2   2 -15    9.39    0.40
  -2  -2  15    9.31    0.38
  -2  -2  15    8.98    0.50
  -2  -2  15    8.40    0.37
   1   2 -15   -0.05    0.05
   1   2 -15   -0.01    0.09
  -1  -2  15    0.00    0.06
  -1  -2  15    0.01    0.08
   0   2 -15    0.27    0.08
   0   2 -15    0.40    0.16
   0  -2  15    0.38    0.14
   0  -2  15    0.39    0.11
  -1   2 -15   20.61    0.49
  -1   2 -15   19.86    0.85
  -1   2 -15   23.18    1.55
   1  -2  15   19.58    0.80
  -2   2 -15    0.41    0.16
  -2   2 -15    0.39    0.54
  -2   2 -15    0.84    0.50
   2  -2  15    0.61    0.18
  -3   2 -15    4.05    0.83
  -3   2 -15    3.11    0.69
   3  -2  15    2.66    0.34
  -4   2 -15    1.05    0.60
  -4   2 -15    1.17    0.56
   4  -2  15    1.02    0.22
  -5   2 -15    0.50    0.51
   5  -2  15    0.78    0.22
   6  -2  15   -0.03    0.13
   7   1 -15    2.23    0.37
  -7  -1  15    2.28    0.69
  -7  -1  15    0.67    0.65
  -7  -1  15    1.96    0.34
  -6  -1  15    2.08    0.67
  -6  -1  15    4.10    0.81
  -6  -1  15    3.89    0.46
  -5  -1  15    3.16    0.74
  -5  -1  15    4.70    0.83
  -4  -1  15   -0.29    0.44
  -4  -1  15    0.15    0.14
   3   1 -15    1.24    0.25
   3   1 -15    1.29    0.19
  -3  -1  15    1.49    0.16
  -3  -1  15    1.58    0.62
   2   1 -15   10.93    0.60
   2   1 -15   11.49    0.44
  -2  -1  15   11.99    0.54
  -2  -1  15   11.23    0.41
   1   1 -15    0.19    0.08
   1   1 -15    0.30    0.14
  -1  -1  15    0.22    0.09
  -1  -1  15    0.20    0.10
   0   1 -15    6.99    0.30
   0   1 -15    6.61    0.44
   0  -1  15    7.63    0.34
   0  -1  15    7.72    0.44
  -1   1 -15   -0.08    0.08
  -1   1 -15    0.31    0.53
  -1   1 -15    0.06    0.05
   1  -1  15    0.08    0.10
  -2   1 -15    2.82    0.59
  -2   1 -15    2.77    0.72
  -2   1 -15    2.23    0.30
   2  -1  15    2.00    0.28
  -3   1 -15    4.59    0.83
  -3   1 -15    4.20    0.38
  -3   1 -15    4.74    0.76
   3  -1  15    4.57    0.37
  -4   1 -15   -0.14    0.49
  -4   1 -15    0.03    0.41
  -4   1 -15    0.35    0.07
   4  -1  15    0.24    0.14
  -5   1 -15    0.90    0.49
   5  -1  15   -0.15    0.10
  -6   1 -15    0.92    0.52
   6  -1  15    0.38    0.18
   7   0 -15    1.30    0.29
  -7   0  15    1.46    0.64
  -7   0  15    0.70    0.62
  -7   0  15    1.27    0.30
   6   0 -15    2.03    0.33
  -6   0  15    1.61    0.61
  -6   0  15    1.24    0.63
  -6   0  15    1.56    0.30
  -5   0  15    3.18    0.68
  -5   0  15    2.00    0.60
  -4   0  15    1.30    0.62
  -4   0  15    1.60    0.26
   3   0 -15    1.29    0.24
   3   0 -15    1.66    0.21
  -3   0  15    1.38    0.59
  -3   0  15    1.84    0.14
  -3   0  15    1.84    0.16
   2   0 -15    0.04    0.07
   2   0 -15   -0.01    0.09
  -2   0  15   -0.02    0.05
  -2   0  15    0.14    0.09
   1   0 -15    1.24    0.22
   1   0 -15    1.48    0.17
  -1   0  15    1.21    0.15
  -1   0  15    1.33    0.21
   0   0 -15    7.56    0.31
   0   0 -15    7.20    0.44
   0   0  15    6.89    0.40
   0   0  15    6.84    0.32
  -1   0 -15    0.41    0.14
  -1   0 -15    0.20    0.06
  -1   0 -15    0.21    0.52
   1   0  15    0.06    0.10
   1   0  15    0.20    0.09
  -2   0 -15    2.42    0.61
  -2   0 -15    2.56    0.71
  -2   0 -15    1.85    0.26
   2   0  15    1.96    0.27
  -3   0 -15    3.24    0.74
  -3   0 -15    3.85    0.72
  -3   0 -15    2.45    0.31
   3   0  15    3.14    0.35
  -4   0 -15   -0.12    0.45
  -4   0 -15    0.07    0.06
  -4   0 -15   -0.06    0.41
   4   0  15    0.09    0.10
  -5   0 -15    3.13    0.67
   5   0  15    2.15    0.32
  -6   0 -15    0.65    0.45
   6   0  15    0.61    0.21
   7   0  15    1.65    0.31
   7  -1 -15    0.06    0.15
  -7   1  15    0.15    0.16
  -7   1  15    0.37    0.62
   6  -1 -15    0.07    0.14
  -6   1  15   -0.05    0.13
  -6   1  15    0.24    0.51
  -6   1  15    0.23    0.55
  -5   1  15    0.04    0.53
  -5   1  15    0.77    0.21
  -5   1  15    0.57    0.53
   4  -1 -15    4.02    0.34
   4  -1 -15    4.23    0.39
  -4   1  15    4.24    0.36
  -4   1  15    3.68    0.73
   3  -1 -15   10.19    0.43
   3  -1 -15   10.00    0.58
  -3   1  15    9.63    0.32
  -3   1  15   10.23    1.03
   2  -1 -15    0.88    0.20
   2  -1 -15    0.81    0.14
  -2   1  15    0.54    0.10
   1  -1 -15    0.85    0.14
   1  -1 -15    0.90    0.19
  -1   1  15    0.99    0.14
  -1   1  15    0.95    0.17
   0  -1 -15    7.36    0.31
   0  -1 -15    7.21    0.42
   0   1  15    6.93    0.39
   0   1  15    7.12    0.32
  -1  -1 -15    0.79    0.11
  -1  -1 -15    0.86    0.17
  -1  -1 -15    0.78    0.52
   1   1  15    0.81    0.17
   1   1  15    1.12    0.15
  -2  -1 -15   22.19    1.28
  -2  -1 -15   19.77    0.76
  -2  -1 -15   23.48    1.43
   2   1  15   21.28    0.79
  -3  -1 -15   11.82    1.07
  -3  -1 -15   10.27    0.95
   3   1  15   10.22    0.55
  -4  -1 -15    5.70    0.24
  -4  -1 -15    6.00    0.43
  -4  -1 -15    6.59    0.81
  -4  -1 -15    7.03    0.80
   4   1  15    4.74    0.39
  -5  -1 -15    8.41    0.52
  -5  -1 -15    9.24    0.85
   5   1  15    8.45    0.53
  -6  -1 -15    0.23    0.14
  -6  -1 -15    0.08    0.39
   6   1  15    0.15    0.15
  -7  -1 -15    0.31    0.42
  -7  -1 -15    0.06    0.12
   7   1  15    0.07    0.14
   7  -2 -15    0.28    0.17
  -7   2  15    0.43    0.20
   6  -2 -15    2.69    0.37
  -6   2  15    2.18    0.67
  -6   2  15    2.86    0.38
  -6   2  15    1.87    0.70
   5  -2 -15    0.07    0.12
  -5   2  15    0.07    0.50
  -5   2  15    0.09    0.12
  -5   2  15    0.53    0.57
   4  -2 -15    0.14    0.11
   4  -2 -15    0.04    0.13
  -4   2  15    0.19    0.49
  -4   2  15    0.11    0.12
  -4   2  15    0.10    0.48
   3  -2 -15    3.21    0.37
  -3   2  15    4.21    0.75
  -3   2  15    3.13    0.17
   2  -2 -15    0.48    0.15
   2  -2 -15    0.58    0.13
  -2   2  15    0.53    0.10
   1  -2 -15    0.39    0.14
   1  -2 -15    0.53    0.12
  -1   2  15    0.35    0.10
   0  -2 -15    7.32    0.41
   0  -2 -15    7.15    0.31
   0   2  15    6.90    0.31
   0   2  15    7.10    0.38
  -1  -2 -15    6.35    0.91
  -1  -2 -15    4.20    0.20
  -1  -2 -15    3.71    0.29
   1   2  15    3.71    0.23
   1   2  15    3.78    0.30
  -2  -2 -15   14.60    1.11
  -2  -2 -15   15.24    1.21
   2   2  15   16.08    0.65
  -3  -2 -15    0.80    0.18
  -3  -2 -15    0.96    0.15
  -3  -2 -15    0.77    0.53
  -3  -2 -15    1.28    0.49
   3   2  15    0.59    0.16
  -4  -2 -15    1.73    0.26
  -4  -2 -15    2.37    0.53
  -4  -2 -15    1.73    0.16
  -4  -2 -15    1.75    0.52
   4   2  15    1.99    0.29
  -5  -2 -15    3.47    0.64
  -5  -2 -15    2.24    0.52
  -5  -2 -15    1.77    0.27
   5   2  15    2.54    0.34
  -6  -2 -15    1.42    0.51
  -6  -2 -15    0.51    0.17
   6   2  15    0.49    0.19
  -7  -2 -15    6.06    0.77
  -7  -2 -15    5.21    0.45
   7   2  15    4.90    0.52
  -8  -2 -15    0.63    0.23
   6  -3 -15    1.70    0.30
  -6   3  15    1.81    0.31
  -6   3  15    0.86    0.59
  -6   3  15    1.35    0.70
   5  -3 -15    0.15    0.13
  -5   3  15   -0.01    0.49
  -5   3  15   -0.09    0.52
  -5   3  15    0.28    0.16
   4  -3 -15    5.79    0.40
  -4   3  15    6.42    0.43
  -4   3  15    5.03    0.81
   3  -3 -15    1.55    0.27
  -3   3  15    1.35    0.54
  -3   3  15    1.33    0.12
   2  -3 -15   16.95    0.73
   2  -3 -15   16.27    0.55
  -2   3  15   15.53    0.47
   1  -3 -15    7.37    0.44
   1  -3 -15    7.82    0.34
  -1   3  15    6.97    0.31
   0  -3 -15    5.69    0.28
   0   3  15    5.74    0.28
  -1  -3 -15    5.73    0.25
  -1  -3 -15    8.45    1.07
   1   3  15    5.50    0.34
   1   3  15    5.73    0.29
  -2  -3 -15    0.40    0.13
  -2  -3 -15    0.31    0.06
  -2  -3 -15    0.47    0.52
  -2  -3 -15    0.33    0.11
  -2  -3 -15    0.35    0.37
   2   3  15    0.60    0.16
  -3  -3 -15    5.11    0.84
  -3  -3 -15    3.97    0.25
  -3  -3 -15    4.64    0.72
  -3  -3 -15    3.79    0.32
   3   3  15    3.57    0.32
  -4  -3 -15    7.89    0.31
  -4  -3 -15    7.63    0.85
  -4  -3 -15    8.41    0.48
  -4  -3 -15    8.37    0.85
   4   3  15    6.48    0.45
  -5  -3 -15    0.45    0.16
  -5  -3 -15    0.82    0.43
  -5  -3 -15    0.03    0.42
   5   3  15    0.38    0.16
  -6  -3 -15    5.03    0.70
  -6  -3 -15    2.46    0.33
   6   3  15    2.57    0.35
  -7  -3 -15    0.68    0.42
  -7  -3 -15    0.36    0.17
   7   3  15    0.15    0.15
  -8  -3 -15    0.38    0.17
   8   3  15    0.32    0.19
   6  -4 -15    0.56    0.18
  -6   4  15    0.76    0.73
  -6   4  15    0.98    0.23
  -6   4  15    0.45    0.56
   5  -4 -15    0.44    0.16
  -5   4  15   -0.15    0.48
  -5   4  15    0.44    0.17
  -5   4  15    0.24    0.62
   4  -4 -15    7.96    0.47
  -4   4  15    7.95    0.48
  -4   4  15    9.18    1.03
   3  -4 -15    0.79    0.20
  -3   4  15    1.45    0.58
   2  -4 -15    6.46    0.35
   2  -4 -15    7.84    0.48
  -2   4  15    7.20    0.29
   1  -4 -15    6.25    0.32
  -1   4  15    6.37    0.29
   0  -4 -15   -0.03    0.05
   0   4  15   -0.04    0.05
  -1  -4 -15    6.69    0.29
  -1  -4 -15    8.64    1.15
  -1  -4 -15    7.49    0.40
   1   4  15    7.60    0.38
   1   4  15    7.68    0.34
  -2  -4 -15    3.75    0.68
  -2  -4 -15    2.53    0.26
  -2  -4 -15    3.12    0.76
  -2  -4 -15    2.38    0.27
  -2  -4 -15    2.26    0.13
   2   4  15    2.30    0.27
  -3  -4 -15    0.94    0.45
  -3  -4 -15    0.65    0.17
  -3  -4 -15    0.81    0.15
  -3  -4 -15    0.73    0.53
   3   4  15    0.71    0.17
  -4  -4 -15   17.95    0.56
  -4  -4 -15   17.51    0.74
  -4  -4 -15   20.94    1.25
  -4  -4 -15   19.72    1.27
   4   4  15   18.24    0.76
  -5  -4 -15    0.41    0.46
  -5  -4 -15   -0.03    0.35
  -5  -4 -15   -0.02    0.11
   5   4  15    0.13    0.13
  -6  -4 -15    5.40    0.43
  -6  -4 -15    6.96    0.82
   6   4  15    5.38    0.44
  -7  -4 -15    0.14    0.41
  -7  -4 -15   -0.02    0.11
   7   4  15    0.08    0.13
  -8  -4 -15   -0.07    0.11
   8   4  15   -0.04    0.13
  -6   5  15   -0.23    0.11
   5  -5 -15    0.49    0.18
  -5   5  15   -0.29    0.69
  -5   5  15    0.33    0.16
  -5   5  15    0.15    0.53
   4  -5 -15    0.16    0.12
  -4   5  15    0.04    0.11
  -4   5  15    0.35    0.52
   3  -5 -15    2.18    0.33
  -3   5  15    2.91    0.73
   2  -5 -15    1.97    0.22
  -2   5  15    2.06    0.16
   1  -5 -15    0.94    0.16
  -1   5  15    0.82    0.13
   0  -5 -15    1.60    0.19
   0   5  15    1.84    0.19
  -1  -5 -15    1.28    0.15
  -1  -5 -15    1.17    0.20
   1   5  15    1.05    0.15
  -2  -5 -15    1.51    0.22
  -2  -5 -15    1.37    0.21
  -2  -5 -15    1.65    0.65
  -2  -5 -15    1.23    0.12
   2   5  15    1.51    0.22
  -3  -5 -15    1.08    0.20
  -3  -5 -15    1.37    0.20
  -3  -5 -15    1.91    0.65
   3   5  15    1.00    0.20
  -4  -5 -15    4.01    0.81
  -4  -5 -15    3.04    0.23
  -4  -5 -15    2.81    0.33
   4   5  15    3.00    0.35
  -5  -5 -15    2.54    0.13
  -5  -5 -15    3.99    0.73
  -5  -5 -15    2.19    0.31
   5   5  15    3.43    0.39
  -6  -5 -15   20.32    0.87
   6   5  15   19.79    0.89
  -7  -5 -15    0.79    0.22
   7   5  15    0.58    0.20
  -8  -5 -15    0.08    0.14
   8   5  15    0.12    0.15
   5  -6 -15    0.22    0.14
  -5   6  15    0.00    0.12
   4  -6 -15    0.28    0.15
  -4   6  15    0.17    0.14
  -4   6  15    0.72    0.63
  -3   6  15    2.05    0.69
   2  -6 -15    9.86    0.46
  -2   6  15    9.29    0.33
   1  -6 -15    0.20    0.10
  -1   6  15    0.20    0.08
   0  -6 -15    2.84    0.22
   0   6  15    3.18    0.22
  -1  -6 -15    7.48    0.43
  -1  -6 -15    7.55    0.32
   1   6  15    7.19    0.34
  -2  -6 -15   11.64    0.53
  -2  -6 -15   12.46    1.34
  -2  -6 -15   11.87    0.37
   2   6  15   11.79    0.45
  -3  -6 -15   15.07    1.29
  -3  -6 -15   13.30    0.56
  -3  -6 -15   14.13    0.63
   3   6  15   14.93    0.65
  -4  -6 -15   -0.05    0.09
  -4  -6 -15   -0.11    0.51
  -4  -6 -15    0.00    0.08
   4   6  15    0.07    0.10
  -5  -6 -15    0.07    0.11
  -5  -6 -15   -0.04    0.06
  -5  -6 -15    0.42    0.50
   5   6  15    0.16    0.13
  -6  -6 -15    1.15    0.54
  -6  -6 -15    0.67    0.21
   6   6  15    0.59    0.21
  -7  -6 -15    0.34    0.18
   7   6  15    0.36    0.19
  -8  -6 -15    3.16    0.42
   4  -7 -15    0.18    0.14
  -4   7  15    0.28    0.61
  -3   7  15    1.68    0.72
   2  -7 -15    3.15    0.31
  -2   7  15    3.00    0.18
   1  -7 -15    2.84    0.29
  -1   7  15    3.10    0.21
   0  -7 -15    4.45    0.29
   0   7  15    4.20    0.26
  -1  -7 -15    1.58    0.18
   1   7  15    1.48    0.19
  -2  -7 -15    1.14    0.22
  -2  -7 -15    1.14    0.14
   2   7  15    1.23    0.18
  -3  -7 -15    9.09    1.29
  -3  -7 -15    6.02    0.38
  -4  -7 -15    0.06    0.52
  -4  -7 -15   -0.03    0.12
  -4  -7 -15    0.15    0.10
   4   7  15    0.09    0.13
  -5  -7 -15    9.07    0.57
  -5  -7 -15   11.71    1.06
  -5  -7 -15   10.32    0.40
   5   7  15   10.04    0.60
  -6  -7 -15    0.01    0.51
  -6  -7 -15   -0.09    0.12
   6   7  15   -0.12    0.13
  -7  -7 -15    0.00    0.15
   7   7  15   -0.18    0.12
  -3   8  15    1.21    0.76
   2  -8 -15    0.14    0.12
   1  -8 -15    0.73    0.17
  -1   8  15    1.06    0.15
   0  -8 -15    2.69    0.27
   0   8  15    2.74    0.22
  -1  -8 -15    1.01    0.22
  -1  -8 -15    1.21    0.17
   1   8  15    1.13    0.17
  -2  -8 -15    5.56    0.39
  -2  -8 -15    6.37    0.28
   2   8  15    5.76    0.33
  -3  -8 -15    0.72    0.68
  -3  -8 -15    0.48    0.16
  -4  -8 -15    0.65    0.16
  -4  -8 -15    0.67    0.64
  -5  -8 -15    2.21    0.23
  -5  -8 -15    2.00    0.32
  -5  -8 -15    2.99    0.84
   5   8  15    2.51    0.35
  -6  -8 -15    0.28    0.56
  -6  -8 -15    0.14    0.17
   6   8  15   -0.01    0.16
  -7  -8 -15   -0.06    0.13
   7   8  15   -0.04    0.14
   2  -9 -15    0.56    0.17
   1  -9 -15    2.80    0.30
  -1   9  15    3.11    0.22
   0  -9 -15    1.09    0.19
   0   9  15    1.12    0.17
  -1  -9 -15    0.44    0.13
   1   9  15    0.30    0.11
  -2  -9 -15    0.37    0.17
  -2  -9 -15    0.46    0.11
   2   9  15    0.19    0.11
  -3  -9 -15    1.18    0.23
  -4  -9 -15    0.39    0.68
  -4  -9 -15    0.77    0.19
  -5  -9 -15    0.46    0.65
  -5  -9 -15    0.44    0.14
  -6  -9 -15    0.86    0.25
  -6  -9 -15    1.06    0.69
   6   9  15    0.93    0.26
   1 -10 -15    0.40    0.16
   0 -10 -15    2.18    0.26
   0  10  15    1.89    0.22
  -1 -10 -15    1.42    0.20
   1  10  15    1.28    0.19
  -2 -10 -15    0.07    0.09
  -2 -10 -15   -0.06    0.14
   2  10  15    0.01    0.09
  -3 -10 -15   -0.11    0.12
   3  10  15   -0.04    0.09
  -4 -10 -15    1.32    0.24
  -4 -10 -15    1.12    0.82
   3   6 -16    0.42    0.13
  -3  -6  16    0.48    0.13
  -3  -6  16    0.57    0.23
   2   6 -16    0.10    0.09
  -2  -6  16    0.11    0.16
  -2  -6  16   -0.03    0.09
   1   6 -16    0.50    0.12
  -1  -6  16    0.60    0.17
  -1  -6  16    0.36    0.19
   0  -6  16    0.52    0.16
   0  -6  16    0.33    0.19
  -5  -5  16    0.14    0.19
   4   5 -16    0.12    0.11
  -4  -5  16    0.19    0.17
   3   5 -16   -0.11    0.08
  -3  -5  16   -0.05    0.08
  -3  -5  16    0.21    0.16
   2   5 -16    0.44    0.13
  -2  -5  16    0.41    0.19
  -2  -5  16    0.54    0.14
   1   5 -16   13.05    0.46
  -1  -5  16   12.66    0.71
  -1  -5  16   12.69    0.54
   0   5 -16   -0.02    0.06
   0  -5  16   -0.01    0.11
   0  -5  16   -0.06    0.10
   1  -5  16    0.89    0.23
  -2   5 -16    0.04    0.73
   2  -5  16    0.39    0.18
  -5  -4  16    1.25    0.29
  -5  -4  16    0.48    0.69
   4   4 -16    2.59    0.29
  -4  -4  16    2.21    0.37
   3   4 -16    0.27    0.12
  -3  -4  16    0.12    0.09
  -3  -4  16    0.11    0.13
   2   4 -16    0.63    0.15
  -2  -4  16    0.68    0.15
  -2  -4  16    0.57    0.20
   1   4 -16    2.08    0.21
  -1  -4  16    2.06    0.24
  -1  -4  16    2.25    0.34
  -1  -4  16    2.18    0.25
   0   4 -16    0.42    0.09
   0  -4  16    0.55    0.15
   0  -4  16    0.25    0.14
   0  -4  16    0.28    0.12
  -1   4 -16    1.35    0.80
   1  -4  16    1.29    0.26
  -2   4 -16    0.05    0.65
   2  -4  16    0.18    0.15
  -3   4 -16   -0.32    0.60
   3  -4  16   -0.12    0.11
   4  -4  16    1.06    0.27
  -6  -3  16    0.12    0.16
  -5  -3  16    0.97    0.70
   4   3 -16    1.95    0.25
  -4  -3  16    2.12    0.34
   3   3 -16   -0.14    0.07
  -3  -3  16   -0.09    0.06
  -3  -3  16   -0.12    0.10
   2   3 -16   12.39    0.49
  -2  -3  16   12.41    0.65
  -2  -3  16   12.21    0.48
   1   3 -16    0.59    0.13
  -1  -3  16    0.59    0.14
  -1  -3  16    0.63    0.19
   0   3 -16    0.37    0.09
   0  -3  16    0.54    0.14
   0  -3  16    0.50    0.17
  -1   3 -16   11.09    1.27
   1  -3  16    8.68    0.54
  -2   3 -16    0.01    0.59
   2  -3  16    0.31    0.16
  -3   3 -16    1.76    0.67
  -3   3 -16    1.21    0.61
   3  -3  16    0.84    0.22
  -4   3 -16    0.47    0.63
  -4   3 -16    0.67    0.65
   4  -3  16    0.05    0.15
   5  -3  16   -0.13    0.13
  -6  -2  16    2.08    0.74
  -6  -2  16    2.82    0.41
  -5  -2  16    3.24    0.80
  -4  -2  16   -0.60    0.55
   3   2 -16    1.14    0.18
  -3  -2  16    1.47    0.17
  -3  -2  16    1.47    0.26
   2   2 -16    7.71    0.37
  -2  -2  16    8.26    0.49
  -2  -2  16    6.82    0.34
  -2  -2  16    7.17    0.34
   1   2 -16    1.53    0.18
  -1  -2  16    0.95    0.16
  -1  -2  16    1.28    0.24
   0   2 -16    1.11    0.23
   0   2 -16    0.56    0.11
   0  -2  16    0.82    0.15
   0  -2  16    0.84    0.20
  -1   2 -16    0.99    0.68
  -1   2 -16    0.11    0.05
   1  -2  16    0.22    0.13
  -2   2 -16    0.13    0.57
   2  -2  16    0.93    0.22
  -3   2 -16    1.76    0.61
  -3   2 -16    2.23    0.76
   3  -2  16    1.67    0.29
  -4   2 -16    3.32    0.79
  -4   2 -16    3.88    0.77
   4  -2  16    3.20    0.40
  -5   2 -16    0.55    0.54
   5  -2  16    0.33    0.18
  -6  -1  16    0.95    0.63
  -6  -1  16    1.26    0.65
  -6  -1  16    1.20    0.28
  -5  -1  16    8.62    1.07
  -4  -1  16   -0.32    0.51
   3   1 -16    0.04    0.09
  -3  -1  16    0.07    0.07
   2   1 -16    0.04    0.08
   2   1 -16    0.07    0.11
  -2  -1  16    0.19    0.11
  -2  -1  16    0.01    0.06
   1   1 -16    0.34    0.14
   1   1 -16    0.32    0.10
  -1  -1  16    0.44    0.15
  -1  -1  16    0.23    0.09
   0   1 -16    5.03    0.25
   0   1 -16    4.74    0.38
   0  -1  16    4.61    0.28
   0  -1  16    4.56    0.36
  -1   1 -16    0.85    0.20
  -1   1 -16    0.53    0.62
  -1   1 -16    1.06    0.11
   1  -1  16    1.05    0.21
  -2   1 -16    0.05    0.51
  -2   1 -16    0.13    0.42
  -2   1 -16    0.15    0.12
   2  -1  16    0.04    0.10
  -3   1 -16    5.44    0.88
  -3   1 -16    7.29    0.89
  -3   1 -16    5.98    0.46
   3  -1  16    6.60    0.46
  -4   1 -16    0.02    0.06
  -4   1 -16    0.26    0.44
  -4   1 -16    0.17    0.52
   4  -1  16   -0.03    0.11
  -5   1 -16    0.07    0.45
   5  -1  16   -0.01    0.11
  -6   1 -16   -0.02    0.49
   6  -1  16   -0.04    0.13
   7   0 -16    1.71    0.33
  -7   0  16    1.26    0.30
   6   0 -16    3.84    0.45
  -6   0  16    3.91    0.47
  -6   0  16    3.42    0.78
  -6   0  16    1.80    0.71
   5   0 -16    0.97    0.22
  -5   0  16    1.24    0.62
  -5   0  16    0.85    0.22
  -4   0  16   -0.06    0.52
   3   0 -16    4.79    0.30
   3   0 -16    4.55    0.40
  -3   0  16    4.91    0.86
  -3   0  16    5.07    0.24
  -3   0  16    4.73    0.23
   2   0 -16    7.78    0.51
   2   0 -16    9.18    0.40
  -2   0  16    8.04    0.44
  -2   0  16    8.64    0.35
   1   0 -16    0.44    0.16
   1   0 -16    0.54    0.11
  -1   0  16    0.68    0.12
  -1   0  16    0.65    0.16
   0   0 -16    9.60    0.53
   0   0 -16    9.32    0.36
   0   0  16    9.14    0.39
   0   0  16    9.33    0.49
  -1   0 -16    0.28    0.54
  -1   0 -16    0.11    0.11
  -1   0 -16    0.16    0.06
   1   0  16    0.32    0.11
   1   0  16    0.03    0.10
  -2   0 -16    1.21    0.48
  -2   0 -16    0.57    0.17
  -2   0 -16    1.74    0.69
   2   0  16    0.88    0.20
  -3   0 -16    0.45    0.51
  -3   0 -16    0.22    0.42
   3   0  16    0.30    0.14
  -4   0 -16    0.92    0.12
  -4   0 -16    0.53    0.53
  -4   0 -16    1.05    0.52
   4   0  16    0.96    0.22
  -5   0 -16    2.04    0.59
   5   0  16    0.82    0.23
  -6   0 -16    0.09    0.41
   6   0  16    0.20    0.16
   7  -1 -16   -0.04    0.14
  -7   1  16    0.33    0.20
   6  -1 -16    5.83    0.46
  -6   1  16    3.67    0.84
  -6   1  16    6.11    0.48
  -6   1  16    4.67    0.84
   5  -1 -16    0.47    0.17
  -5   1  16    0.43    0.17
  -5   1  16    0.68    0.58
  -5   1  16    0.01    0.57
  -4   1  16    0.33    0.53
   3  -1 -16    2.53    0.34
   3  -1 -16    2.84    0.27
  -3   1  16    2.39    0.68
  -3   1  16    2.36    0.16
   2  -1 -16    3.11    0.24
   2  -1 -16    3.00    0.36
  -2   1  16    2.84    0.20
   1  -1 -16    0.69    0.18
   1  -1 -16    0.81    0.14
  -1   1  16    1.17    0.16
  -1   1  16    1.38    0.22
   0  -1 -16   12.05    0.42
   0  -1 -16   13.29    0.61
   0   1  16   13.16    0.56
   0   1  16   12.36    0.45
  -1  -1 -16   -0.03    0.04
  -1  -1 -16   -0.05    0.07
  -1  -1 -16   -0.05    0.51
   1   1  16    0.11    0.10
   1   1  16    0.02    0.07
  -2  -1 -16   28.20    1.50
  -2  -1 -16   29.52    1.63
   2   1  16   24.89    0.92
  -3  -1 -16    0.24    0.48
  -3  -1 -16    0.26    0.37
   3   1  16    0.21    0.13
  -4  -1 -16    0.26    0.40
  -4  -1 -16   -0.12    0.46
  -4  -1 -16    0.21    0.08
   4   1  16    0.24    0.15
  -5  -1 -16    1.21    0.49
   5   1  16    0.73    0.21
  -6  -1 -16    0.17    0.13
  -6  -1 -16    0.46    0.43
   6   1  16    0.08    0.13
  -7  -1 -16    1.03    0.27
   7   1  16    1.28    0.29
   6  -2 -16    2.87    0.38
  -6   2  16    2.33    0.72
  -6   2  16    2.07    0.76
  -6   2  16    3.50    0.41
   5  -2 -16    0.00    0.10
  -5   2  16   -0.22    0.49
  -5   2  16    0.03    0.12
  -5   2  16   -0.07    0.56
  -4   2  16    7.23    0.97
   3  -2 -16    0.10    0.11
   3  -2 -16    0.08    0.09
  -3   2  16   -0.16    0.45
  -3   2  16   -0.04    0.04
   2  -2 -16    2.95    0.27
   2  -2 -16    3.14    0.36
  -2   2  16    3.12    0.20
   1  -2 -16    9.42    0.40
   1  -2 -16    9.41    0.52
  -1   2  16    9.52    0.38
   0  -2 -16    5.76    0.38
   0  -2 -16    6.01    0.29
   0   2  16    6.05    0.30
   0   2  16    6.29    0.37
  -1  -2 -16    1.89    0.15
  -1  -2 -16    2.55    0.72
   1   2  16    2.16    0.21
   1   2  16    2.54    0.29
  -2  -2 -16   15.97    1.20
  -2  -2 -16   15.76    1.27
   2   2  16   13.63    0.62
  -3  -2 -16    8.60    0.94
  -3  -2 -16    8.13    0.94
  -3  -2 -16    6.90    0.35
  -3  -2 -16    6.40    0.43
   3   2  16    6.86    0.45
  -4  -2 -16    8.26    0.32
  -4  -2 -16    8.23    0.50
  -4  -2 -16    8.83    0.91
  -4  -2 -16    9.34    0.93
   4   2  16    8.02    0.49
  -5  -2 -16    0.16    0.43
  -5  -2 -16    0.15    0.13
  -5  -2 -16    0.22    0.39
   5   2  16    0.19    0.13
  -6  -2 -16   -0.09    0.36
  -6  -2 -16    0.10    0.13
   6   2  16   -0.13    0.10
  -7  -2 -16    1.02    0.24
  -7  -2 -16    2.38    0.63
   7   2  16    1.17    0.27
   6  -3 -16    0.12    0.14
  -6   3  16    0.01    0.15
  -6   3  16    0.23    0.63
  -6   3  16   -0.25    0.52
   5  -3 -16   -0.07    0.11
  -5   3  16    0.19    0.59
  -5   3  16    0.06    0.52
  -5   3  16    0.12    0.14
  -4   3  16    1.61    0.62
   3  -3 -16    0.08    0.12
  -3   3  16    0.01    0.04
  -3   3  16   -0.09    0.45
   2  -3 -16    0.21    0.11
   2  -3 -16    0.07    0.11
  -2   3  16    0.09    0.07
   1  -3 -16   31.64    1.05
   1  -3 -16   31.59    0.84
  -1   3  16   30.50    0.79
   0  -3 -16    1.12    0.16
   0   3  16    1.22    0.16
  -1  -3 -16    8.60    1.14
  -1  -3 -16    5.64    0.26
   1   3  16    5.83    0.37
   1   3  16    5.95    0.30
  -2  -3 -16    0.35    0.58
  -2  -3 -16    0.92    0.19
  -2  -3 -16    1.07    0.18
   2   3  16    0.81    0.18
  -3  -3 -16    0.10    0.38
  -3  -3 -16   -0.47    0.46
  -3  -3 -16    0.17    0.10
  -3  -3 -16    0.18    0.12
   3   3  16    0.07    0.10
  -4  -3 -16   11.28    0.41
  -4  -3 -16   10.04    0.57
  -4  -3 -16   11.74    0.98
  -4  -3 -16   11.75    1.01
   4   3  16   10.87    0.59
  -5  -3 -16    2.17    0.31
  -5  -3 -16    2.53    0.60
  -5  -3 -16    1.82    0.54
   5   3  16    2.11    0.31
  -6  -3 -16    5.36    0.73
  -6  -3 -16    5.44    0.44
   6   3  16    4.82    0.43
  -7  -3 -16    1.73    0.30
  -7  -3 -16    3.20    0.67
   7   3  16    1.33    0.27
   6  -4 -16   -0.04    0.11
  -6   4  16    0.02    0.13
   5  -4 -16    1.17    0.24
  -5   4  16    1.74    0.28
  -5   4  16    1.56    0.65
  -4   4  16    0.07    0.48
   3  -4 -16    0.05    0.14
  -3   4  16    0.50    0.53
   2  -4 -16    6.47    0.35
   2  -4 -16    6.76    0.46
  -2   4  16    6.71    0.29
   1  -4 -16    0.78    0.15
  -1   4  16    0.92    0.14
   0  -4 -16    0.39    0.11
   0   4  16    0.39    0.10
  -1  -4 -16    5.36    0.25
  -1  -4 -16    4.94    0.33
   1   4  16    4.66    0.27
  -2  -4 -16   -0.72    0.49
  -2  -4 -16    0.08    0.10
  -2  -4 -16    0.01    0.09
  -2  -4 -16   -0.03    0.04
   2   4  16   -0.05    0.08
  -3  -4 -16    0.27    0.13
  -3  -4 -16   -0.08    0.38
  -3  -4 -16    0.26    0.53
  -3  -4 -16    0.13    0.10
   3   4  16    0.06    0.10
  -4  -4 -16    2.78    0.69
  -4  -4 -16    2.08    0.30
  -4  -4 -16    3.56    0.67
  -4  -4 -16    2.02    0.21
   4   4  16    2.70    0.34
  -5  -4 -16    7.48    0.82
  -5  -4 -16    7.17    0.81
  -5  -4 -16    6.67    0.47
   5   4  16    6.57    0.47
  -6  -4 -16   11.72    0.93
  -6  -4 -16    9.45    0.58
   6   4  16    8.52    0.57
  -7  -4 -16    0.85    0.48
  -7  -4 -16    0.51    0.20
   7   4  16    0.87    0.24
   5  -5 -16    0.56    0.19
  -5   5  16    0.63    0.21
  -5   5  16    0.26    0.53
  -4   5  16    0.24    0.59
  -3   5  16    0.33    0.56
   2  -5 -16   19.89    0.67
  -2   5  16   19.66    0.55
   1  -5 -16    0.34    0.12
  -1   5  16    0.84    0.13
   0  -5 -16    0.07    0.07
   0   5  16    0.03    0.07
  -1  -5 -16    0.78    0.12
  -1  -5 -16    0.78    0.18
   1   5  16    0.63    0.13
  -2  -5 -16    2.82    0.29
  -2  -5 -16    2.46    0.78
  -2  -5 -16    2.46    0.15
   2   5  16    1.93    0.26
  -3  -5 -16    4.86    0.32
  -3  -5 -16    7.22    1.09
  -3  -5 -16    5.10    0.38
  -3  -5 -16    7.53    0.95
   3   5  16    4.85    0.38
  -4  -5 -16    4.58    0.84
  -4  -5 -16    3.81    0.25
  -4  -5 -16    2.66    0.33
   4   5  16    3.16    0.37
  -5  -5 -16    0.49    0.18
  -5  -5 -16    0.39    0.53
  -5  -5 -16    0.45    0.08
   5   5  16    0.35    0.16
  -6  -5 -16   -0.09    0.10
   6   5  16   -0.02    0.12
  -7  -5 -16    0.36    0.17
   7   5  16    0.61    0.20
   5  -6 -16    0.26    0.16
  -4   6  16    0.19    0.62
  -3   6  16    1.96    0.71
   2  -6 -16    0.13    0.11
  -2   6  16    0.15    0.07
   1  -6 -16    0.94    0.18
  -1   6  16    0.81    0.13
   0  -6 -16    4.57    0.28
   0   6  16    3.99    0.26
  -1  -6 -16    0.08    0.11
  -1  -6 -16   -0.03    0.06
   1   6  16    0.02    0.08
  -2  -6 -16    0.46    0.16
  -2  -6 -16    0.96    0.64
  -2  -6 -16    0.36    0.08
   2   6  16    0.45    0.13
  -3  -6 -16   10.64    1.36
  -3  -6 -16    7.83    0.43
  -3  -6 -16    7.50    0.46
   3   6  16    7.84    0.48
  -4  -6 -16    0.75    0.15
  -4  -6 -16    0.85    0.63
  -4  -6 -16    0.91    0.20
   4   6  16    1.03    0.23
  -5  -6 -16    0.59    0.11
  -5  -6 -16    1.33    0.61
  -5  -6 -16    0.50    0.19
   5   6  16    0.72    0.21
  -6  -6 -16    0.05    0.13
  -6  -6 -16    0.83    0.51
   6   6  16    0.15    0.15
  -7  -6 -16    0.60    0.21
   7   6  16    0.78    0.23
  -3   7  16    0.93    0.68
   2  -7 -16    0.82    0.18
  -2   7  16    0.73    0.11
   1  -7 -16    0.72    0.16
  -1   7  16    0.64    0.13
   0  -7 -16    1.73    0.21
   0   7  16    1.94    0.20
  -1  -7 -16    0.70    0.13
  -1  -7 -16    0.60    0.18
   1   7  16    0.73    0.15
  -2  -7 -16    1.56    0.16
  -2  -7 -16    1.32    0.23
   2   7  16    1.11    0.18
  -3  -7 -16    4.96    1.07
  -4  -7 -16    0.38    0.13
  -4  -7 -16    0.52    0.18
  -4  -7 -16    0.62    0.62
   4   7  16    0.56    0.19
  -5  -7 -16    1.53    0.18
  -5  -7 -16    2.15    0.69
  -5  -7 -16    2.47    0.35
   5   7  16    2.09    0.33
  -6  -7 -16    3.13    0.66
  -6  -7 -16    4.82    0.43
   6   7  16    4.26    0.48
  -7  -7 -16    0.08    0.14
   7   7  16    0.13    0.17
   2  -8 -16   -0.03    0.11
   1  -8 -16    2.18    0.26
  -1   8  16    1.98    0.20
   0  -8 -16    0.40    0.13
   0   8  16    0.20    0.10
  -1  -8 -16    1.85    0.21
  -1  -8 -16    1.66    0.28
   1   8  16    1.74    0.21
  -2  -8 -16    5.37    0.26
  -2  -8 -16    4.57    0.38
   2   8  16    4.34    0.30
  -3  -8 -16    0.19    0.13
  -3  -8 -16    0.06    0.62
  -4  -8 -16    0.64    0.16
  -4  -8 -16    0.40    0.62
  -5  -8 -16   -0.04    0.12
  -5  -8 -16   -0.06    0.09
  -5  -8 -16    1.04    0.60
   5   8  16    0.24    0.16
  -6  -8 -16    1.29    0.63
  -6  -8 -16    0.94    0.25
   6   8  16    0.81    0.25
   2  -9 -16    0.11    0.13
   1  -9 -16    1.70    0.25
  -1   9  16    1.45    0.17
   0  -9 -16    4.79    0.33
   0   9  16    4.75    0.29
  -1  -9 -16    3.29    0.26
   1   9  16    3.03    0.28
  -2  -9 -16    3.20    0.22
  -2  -9 -16    3.41    0.38
   2   9  16    3.53    0.27
  -3  -9 -16    0.27    0.15
  -4  -9 -16    1.48    0.78
  -4  -9 -16    1.39    0.24
  -5  -9 -16    0.33    0.67
  -5  -9 -16    0.03    0.10
   0 -10 -16   -0.11    0.09
   0  10  16    0.09    0.09
  -1 -10 -16    0.18    0.12
   1  10  16    0.19    0.11
  -2 -10 -16   -0.02    0.08
  -2 -10 -16   -0.21    0.11
   2  10  16   -0.08    0.09
  -3 -10 -16   -0.06    0.12
   3  10  16    0.04    0.11
  -4 -10 -16    0.31    0.15
   4   5 -17    0.50    0.15
   3   5 -17    0.06    0.10
  -3  -5  17    0.16    0.10
  -3  -5  17    0.04    0.16
   2   5 -17    0.01    0.08
  -2  -5  17    0.06    0.10
  -2  -5  17   -0.01    0.14
   1   5 -17   -0.05    0.08
  -1  -5  17    0.19    0.15
  -1  -5  17    0.20    0.13
   0  -5  17    1.11    0.26
   0  -5  17    1.42    0.23
   1  -5  17    0.19    0.16
   4   4 -17    1.43    0.22
  -4  -4  17    1.22    0.29
   3   4 -17    0.18    0.11
  -3  -4  17    0.41    0.20
  -3  -4  17    0.33    0.11
   2   4 -17    0.00    0.09
  -2  -4  17   -0.05    0.11
  -2  -4  17    0.11    0.10
   1   4 -17   -0.06    0.08
  -1  -4  17   -0.02    0.10
  -1  -4  17    0.00    0.09
  -1  -4  17   -0.15    0.10
   0   4 -17    1.15    0.13
   0  -4  17    1.04    0.19
   0  -4  17    1.26    0.26
   0  -4  17    1.05    0.19
   1  -4  17    0.41    0.18
  -2   4 -17    2.64    0.94
   2  -4  17    1.83    0.32
   3  -4  17    0.06    0.16
  -5  -3  17    0.37    0.68
   4   3 -17    0.71    0.17
  -4  -3  17    0.38    0.17
   3   3 -17    0.10    0.10
  -3  -3  17    0.11    0.08
  -3  -3  17    0.25    0.17
   2   3 -17    2.84    0.27
  -2  -3  17    2.50    0.25
  -2  -3  17    3.00    0.38
   1   3 -17    0.03    0.08
  -1  -3  17    0.10    0.12
  -1  -3  17    0.11    0.10
  -1  -3  17   -0.03    0.08
   0   3 -17    0.03    0.06
   0  -3  17    0.15    0.13
   0  -3  17    0.09    0.10
  -1   3 -17    0.08    0.66
   1  -3  17   -0.09    0.09
  -2   3 -17    3.00    0.75
   2  -3  17    3.95    0.42
  -3   3 -17    2.28    0.80
   3  -3  17    1.30    0.27
   4  -3  17    0.78    0.25
  -5  -2  17    1.40    0.72
   4   2 -17    0.93    0.18
   3   2 -17    0.37    0.12
  -3  -2  17    0.40    0.11
  -3  -2  17    0.47    0.18
   2   2 -17    1.33    0.19
  -2  -2  17    1.34    0.25
  -2  -2  17    1.20    0.18
  -2  -2  17    1.51    0.19
   1   2 -17    3.09    0.23
  -1  -2  17    3.21    0.38
  -1  -2  17    2.87    0.27
   0   2 -17    1.29    0.15
   0  -2  17    1.16    0.18
   0  -2  17    1.36    0.25
  -1   2 -17   -0.36    0.60
   1  -2  17    0.00    0.10
  -2   2 -17    0.04    0.55
   2  -2  17   -0.03    0.10
  -3   2 -17    1.60    0.72
  -3   2 -17    0.68    0.55
   3  -2  17    1.16    0.26
  -4   2 -17    4.99    0.90
  -4   2 -17    4.81    0.83
   4  -2  17    3.69    0.44
   5  -2  17    1.78    0.33
  -6  -1  17    1.81    0.70
  -5  -1  17    3.26    0.81
  -4  -1  17    1.08    0.65
   3   1 -17    3.22    0.30
  -3  -1  17    3.22    0.21
   2   1 -17    0.16    0.10
  -2  -1  17    0.33    0.15
  -2  -1  17    0.31    0.10
   1   1 -17    0.23    0.10
  -1  -1  17    0.32    0.14
  -1  -1  17    0.13    0.09
   0   1 -17    4.70    0.39
   0   1 -17    4.49    0.24
   0  -1  17    3.99    0.27
   0  -1  17    4.77    0.38
  -1   1 -17    0.36    0.15
  -1   1 -17    0.54    0.08
  -1   1 -17    0.26    0.61
   1  -1  17    0.66    0.19
  -2   1 -17    0.61    0.62
   2  -1  17    0.70    0.20
  -3   1 -17    0.92    0.61
  -3   1 -17    1.17    0.55
   3  -1  17    0.80    0.21
  -4   1 -17    1.26    0.68
  -4   1 -17    0.69    0.10
  -4   1 -17    0.38    0.52
   4  -1  17    0.52    0.18
  -5   1 -17    0.24    0.54
   5  -1  17    0.50    0.19
   6   0 -17    0.26    0.17
  -6   0  17    0.39    0.61
  -5   0  17    0.40    0.58
  -4   0  17    1.68    0.70
   3   0 -17    4.72    0.31
  -3   0  17    4.77    0.24
  -3   0  17    4.40    0.23
   2   0 -17    1.83    0.29
   2   0 -17    1.82    0.21
  -2   0  17    1.68    0.19
   1   0 -17    0.26    0.10
   1   0 -17    0.05    0.11
  -1   0  17    0.16    0.09
  -1   0  17    0.37    0.15
   0   0 -17    3.29    0.37
   0   0 -17    3.59    0.22
   0   0  17    3.45    0.25
   0   0  17    4.24    0.35
  -1   0 -17    3.69    0.18
  -1   0 -17    4.06    0.35
  -1   0 -17    4.16    0.96
   1   0  17    3.84    0.33
   1   0  17    3.46    0.25
  -2   0 -17    3.04    0.81
  -2   0 -17    2.54    0.33
   2   0  17    2.28    0.30
  -3   0 -17    4.64    0.82
  -3   0 -17    6.08    0.92
   3   0  17    4.39    0.38
  -4   0 -17    1.46    0.56
  -4   0 -17    1.20    0.63
  -4   0 -17    1.40    0.15
   4   0  17    1.31    0.26
  -5   0 -17    3.05    0.62
   5   0  17    3.00    0.40
  -6   0 -17    1.17    0.52
   6   0  17    1.00    0.25
   6  -1 -17    0.35    0.18
  -6   1  17    0.51    0.58
  -6   1  17    0.55    0.67
  -5   1  17    1.09    0.66
  -4   1  17   -0.04    0.55
   3  -1 -17    0.12    0.10
  -3   1  17    0.16    0.07
  -3   1  17    0.06    0.06
   2  -1 -17    0.64    0.18
   2  -1 -17    0.80    0.15
  -2   1  17    0.63    0.12
   1  -1 -17    0.89    0.21
   1  -1 -17    0.79    0.14
  -1   1  17    0.70    0.13
  -1   1  17    0.89    0.19
   0  -1 -17    6.39    0.43
   0  -1 -17    5.81    0.28
   0   1  17    5.96    0.31
   0   1  17    6.90    0.41
  -1  -1 -17    2.90    0.33
  -1  -1 -17    4.98    0.96
  -1  -1 -17    2.67    0.17
   1   1  17    3.08    0.34
   1   1  17    2.61    0.24
  -2  -1 -17    9.76    1.03
   2   1  17    6.75    0.46
  -3  -1 -17    8.71    0.95
  -3  -1 -17    8.45    1.00
   3   1  17    7.30    0.49
  -4  -1 -17    0.40    0.44
  -4  -1 -17    0.29    0.09
  -4  -1 -17    0.09    0.47
   4   1  17    0.06    0.13
  -5  -1 -17    0.00    0.43
   5   1  17    0.19    0.16
  -6  -1 -17    0.79    0.54
   6   1  17    0.76    0.23
   6  -2 -17    0.11    0.15
  -6   2  17    0.21    0.58
  -6   2  17    1.07    0.73
  -5   2  17    0.56    0.60
  -4   2  17   -0.47    0.49
   3  -2 -17    1.16    0.19
  -3   2  17    1.77    0.63
  -3   2  17    1.47    0.14
   2  -2 -17    1.53    0.26
   2  -2 -17    1.32    0.19
  -2   2  17    1.21    0.15
   1  -2 -17   15.04    0.70
   1  -2 -17   15.36    0.52
  -1   2  17   13.98    0.49
   0  -2 -17    0.10    0.11
   0  -2 -17    0.01    0.06
   0   2  17    0.22    0.09
   0   2  17    0.08    0.10
  -1  -2 -17    1.78    0.16
  -1  -2 -17    2.94    0.82
   1   2  17    1.48    0.24
   1   2  17    1.87    0.20
  -2  -2 -17    2.73    0.74
   2   2  17    1.09    0.23
  -3  -2 -17    1.78    0.22
  -3  -2 -17    1.89    0.65
  -3  -2 -17    3.12    0.68
   3   2  17    1.14    0.23
  -4  -2 -17    1.66    0.28
  -4  -2 -17    2.00    0.19
  -4  -2 -17    2.14    0.58
  -4  -2 -17    1.68    0.61
  -5  -2 -17    1.65    0.29
  -5  -2 -17    2.40    0.64
  -5  -2 -17    1.32    0.51
   5   2  17    1.06    0.24
  -6  -2 -17    0.03    0.12
  -6  -2 -17   -0.21    0.40
   6   2  17    0.10    0.13
  -7  -2 -17    1.95    0.33
   7   2  17    2.22    0.37
   6  -3 -17    0.09    0.14
  -5   3  17   -0.04    0.56
  -4   3  17    0.90    0.61
   3  -3 -17    2.51    0.27
  -3   3  17    2.46    0.15
  -3   3  17    1.99    0.67
   2  -3 -17    1.23    0.18
   2  -3 -17    0.94    0.22
  -2   3  17    0.97    0.13
   1  -3 -17    0.15    0.10
  -1   3  17    0.35    0.10
   0  -3 -17    5.47    0.29
   0   3  17    6.22    0.31
  -1  -3 -17    4.28    0.22
   1   3  17    4.31    0.32
   1   3  17    4.12    0.26
  -2  -3 -17   14.57    0.58
  -2  -3 -17   15.60    1.31
   2   3  17   14.21    0.65
  -3  -3 -17    2.63    0.32
  -3  -3 -17    4.68    0.82
  -3  -3 -17    3.13    0.25
  -3  -3 -17    3.58    0.79
   3   3  17    2.62    0.32
  -4  -3 -17    2.11    0.21
  -4  -3 -17    3.43    0.69
  -4  -3 -17    2.07    0.64
  -4  -3 -17    2.14    0.31
   4   3  17    1.92    0.30
  -5  -3 -17    4.84    0.41
  -5  -3 -17    6.40    0.89
  -5  -3 -17    5.51    0.77
   5   3  17    4.24    0.45
  -6  -3 -17    0.03    0.13
  -6  -3 -17    0.19    0.43
   6   3  17    0.16    0.15
  -7  -3 -17    0.57    0.21
  -7  -3 -17    1.53    0.57
   7   3  17    0.69    0.23
  -5   4  17    0.26    0.60
  -4   4  17    1.52    0.64
  -3   4  17   -0.22    0.53
   2  -4 -17    7.37    0.39
  -2   4  17    7.05    0.30
   1  -4 -17    0.31    0.11
  -1   4  17    0.27    0.09
   0  -4 -17    1.18    0.17
   0   4  17    1.07    0.16
  -1  -4 -17    5.66    0.37
  -1  -4 -17    5.06    0.25
   1   4  17    5.08    0.29
  -2  -4 -17    5.25    0.34
  -2  -4 -17    5.42    0.38
  -2  -4 -17    7.14    1.14
   2   4  17    5.24    0.38
  -3  -4 -17    0.65    0.44
  -3  -4 -17    0.41    0.16
  -3  -4 -17    0.36    0.53
  -3  -4 -17    0.51    0.14
   3   4  17    0.42    0.16
  -4  -4 -17    0.97    0.16
  -4  -4 -17    1.65    0.64
  -4  -4 -17    1.27    0.24
  -4  -4 -17    1.70    0.55
   4   4  17    1.28    0.24
  -5  -4 -17    0.41    0.17
  -5  -4 -17    0.53    0.52
  -5  -4 -17    0.94    0.47
   5   4  17    0.39    0.17
  -6  -4 -17    1.62    0.54
  -6  -4 -17    0.52    0.19
   6   4  17    0.67    0.22
  -7  -4 -17    5.11    0.45
  -7  -4 -17    6.68    0.79
   7   4  17    5.93    0.50
  -4   5  17    0.63    0.62
  -3   5  17    2.49    0.77
   2  -5 -17    4.21    0.30
  -2   5  17    4.96    0.25
   1  -5 -17   11.02    0.47
  -1   5  17   11.40    0.42
   0  -5 -17    0.39    0.11
   0   5  17    0.41    0.11
  -1  -5 -17    1.05    0.15
  -1  -5 -17    1.26    0.22
   1   5  17    0.70    0.14
  -2  -5 -17    4.44    0.33
  -2  -5 -17    7.01    1.18
  -2  -5 -17    4.76    0.20
  -3  -5 -17   11.85    1.15
  -3  -5 -17   10.46    0.49
  -3  -5 -17   10.30    0.54
   3   5  17    9.80    0.54
  -4  -5 -17    4.91    0.39
  -4  -5 -17    6.42    0.93
  -4  -5 -17    8.93    1.08
  -4  -5 -17    5.57    0.32
   4   5  17    5.45    0.43
  -5  -5 -17    0.25    0.45
  -5  -5 -17    0.02    0.12
  -5  -5 -17    0.35    0.50
   5   5  17   -0.05    0.10
  -6  -5 -17    1.19    0.26
  -6  -5 -17    1.65    0.57
   6   5  17    0.63    0.21
  -7  -5 -17    0.50    0.49
  -7  -5 -17    0.11    0.15
   7   5  17    0.16    0.17
  -4   6  17    1.86    0.74
  -3   6  17    0.71    0.69
   2  -6 -17    4.21    0.31
  -2   6  17    3.42    0.21
   1  -6 -17    2.77    0.28
  -1   6  17    2.06    0.21
   0  -6 -17    1.80    0.21
   0   6  17    1.22    0.17
  -1  -6 -17    2.09    0.29
  -1  -6 -17    1.99    0.20
   1   6  17    2.43    0.24
  -2  -6 -17    0.71    0.70
  -2  -6 -17    1.08    0.22
  -2  -6 -17    0.91    0.11
   2   6  17    1.32    0.19
  -3  -6 -17    0.86    0.66
  -3  -6 -17    0.41    0.15
  -4  -6 -17    1.98    0.71
  -4  -6 -17    2.38    0.26
  -4  -6 -17    2.41    0.32
   4   6  17    2.75    0.35
  -5  -6 -17    0.94    0.13
  -5  -6 -17    1.32    0.62
  -5  -6 -17    0.71    0.21
   5   6  17    0.86    0.22
  -6  -6 -17    0.85    0.23
   6   6  17    1.45    0.30
  -7  -6 -17    0.10    0.15
   7   6  17    0.01    0.14
  -2   7  17    1.28    0.14
   1  -7 -17   -0.04    0.09
  -1   7  17   -0.02    0.06
   0  -7 -17    2.63    0.26
   0   7  17    2.07    0.22
  -1  -7 -17   -0.15    0.11
  -1  -7 -17   -0.04    0.07
   1   7  17   -0.04    0.08
  -2  -7 -17    1.03    0.22
  -2  -7 -17    1.30    0.14
   2   7  17    1.30    0.19
  -3  -7 -17    0.83    0.65
  -4  -7 -17    0.72    0.66
  -4  -7 -17    0.29    0.12
   4   7  17    0.25    0.16
  -5  -7 -17    0.49    0.58
  -5  -7 -17    0.50    0.12
  -5  -7 -17    0.53    0.21
   5   7  17    0.65    0.22
  -6  -7 -17    3.01    0.67
  -6  -7 -17    2.95    0.40
   6   7  17    3.45    0.44
   2  -8 -17    0.90    0.19
   1  -8 -17    0.41    0.14
  -1   8  17    0.26    0.09
   0  -8 -17    1.59    0.22
   0   8  17    1.68    0.20
  -1  -8 -17    0.27    0.18
  -1  -8 -17    0.37    0.11
   1   8  17    0.28    0.12
  -2  -8 -17    2.96    0.19
  -2  -8 -17    2.57    0.33
   2   8  17    2.42    0.26
  -3  -8 -17    0.78    0.74
  -3  -8 -17    0.38    0.16
  -4  -8 -17    2.91    0.89
  -4  -8 -17    1.71    0.25
  -5  -8 -17    0.95    0.17
  -5  -8 -17    1.13    0.69
   5   8  17    1.24    0.29
  -6  -8 -17    0.55    0.21
   6   8  17    0.74    0.25
   1  -9 -17    0.10    0.12
  -1   9  17    0.03    0.08
   0  -9 -17    0.02    0.10
   0   9  17    0.13    0.09
  -1  -9 -17    3.45    0.26
   1   9  17    3.70    0.28
  -2  -9 -17    0.05    0.08
  -2  -9 -17    0.03    0.15
   2   9  17   -0.06    0.09
  -3  -9 -17    3.11    0.37
  -4  -9 -17    1.69    0.82
  -4  -9 -17    1.29    0.24
  -5  -9 -17    2.33    0.27
  -1 -10 -17    0.41    0.14
   1  10  17    0.06    0.11
   2  10  17    1.76    0.23
   3  10  17    0.39    0.15
   2   5 -18    0.05    0.08
  -2  -5  18    0.08    0.10
   1   5 -18   -0.01    0.08
  -1  -5  18   -0.10    0.09
   4   4 -18    0.02    0.11
  -4  -4  18    0.00    0.15
   3   4 -18    0.77    0.16
  -3  -4  18    0.68    0.14
  -3  -4  18    0.90    0.25
   2   4 -18    0.39    0.13
  -2  -4  18    0.48    0.20
  -2  -4  18    0.47    0.13
   1   4 -18    0.12    0.09
  -1  -4  18    0.19    0.12
  -1  -4  18    0.21    0.17
   0  -4  18    0.14    0.12
   0  -4  18    0.24    0.12
   0  -4  18    0.23    0.16
   1  -4  18    0.06    0.15
   2  -4  18    1.32    0.29
   4   3 -18    0.49    0.16
   3   3 -18    0.96    0.18
  -3  -3  18    1.40    0.18
  -3  -3  18    1.55    0.30
   2   3 -18    0.39    0.12
  -2  -3  18    0.36    0.12
  -2  -3  18    0.41    0.18
   1   3 -18    2.67    0.21
  -1  -3  18    2.70    0.36
  -1  -3  18    2.08    0.25
  -1  -3  18    2.70    0.27
   0   3 -18   -0.08    0.06
   0  -3  18    0.02    0.13
   0  -3  18   -0.14    0.07
   1  -3  18    0.09    0.15
  -2   3 -18   -0.03    0.68
   2  -3  18    0.03    0.13
  -3   3 -18    0.80    0.71
   3  -3  18    0.09    0.15
  -5  -2  18    0.30    0.69
   4   2 -18    1.27    0.21
   3   2 -18    1.91    0.24
  -3  -2  18    2.07    0.33
  -3  -2  18    1.64    0.18
   2   2 -18    6.72    0.37
  -2  -2  18    7.00    0.35
  -2  -2  18    7.13    0.36
  -2  -2  18    7.02    0.49
   1   2 -18    0.19    0.10
  -1  -2  18    0.36    0.12
  -1  -2  18    0.08    0.14
   0   2 -18    1.63    0.17
   0  -2  18    1.22    0.19
   0  -2  18    1.38    0.27
   1  -2  18    0.32    0.16
  -2   2 -18    0.39    0.63
   2  -2  18    0.53    0.20
  -3   2 -18    2.01    0.79
   3  -2  18    0.72    0.22
  -4   2 -18    5.35    0.94
  -4   2 -18    5.70    0.90
   4  -2  18    5.28    0.46
  -5  -1  18    0.43    0.65
   3   1 -18    2.63    0.28
  -3  -1  18    2.90    0.20
   2   1 -18    3.65    0.27
  -2  -1  18    3.72    0.40
  -2  -1  18    3.33    0.24
   1   1 -18    0.00    0.07
  -1  -1  18   -0.07    0.06
  -1  -1  18    0.04    0.09
   0   1 -18    1.91    0.18
   0  -1  18    1.98    0.29
   0  -1  18    1.68    0.21
  -1   1 -18    5.19    1.04
   1  -1  18    4.79    0.40
  -2   1 -18    1.21    0.68
   2  -1  18    1.06    0.23
  -3   1 -18    1.66    0.65
  -3   1 -18    1.48    0.64
   3  -1  18    1.75    0.29
  -4   1 -18    2.09    0.75
  -4   1 -18    2.30    0.71
  -4   1 -18    2.10    0.16
   4  -1  18    1.70    0.30
  -5   1 -18   -0.28    0.54
   5  -1  18   -0.06    0.14
  -5   0  18    3.51    0.84
  -4   0  18    0.20    0.59
   3   0 -18    0.24    0.12
  -3   0  18    0.18    0.08
  -3   0  18    0.27    0.09
   2   0 -18    3.27    0.25
  -2   0  18    3.74    0.24
   1   0 -18    0.01    0.07
  -1   0  18    0.00    0.10
  -1   0  18   -0.01    0.07
   0   0 -18    0.40    0.15
   0   0 -18    0.43    0.10
   0   0  18    0.61    0.18
   0   0  18    0.34    0.11
  -1   0 -18    0.28    0.62
  -1   0 -18   -0.02    0.05
  -1   0 -18    0.08    0.12
   1   0  18    0.11    0.09
   1   0  18    0.14    0.12
  -2   0 -18    1.24    0.67
   2   0  18    0.84    0.21
  -3   0 -18    6.58    0.87
  -3   0 -18    6.46    0.91
   3   0  18    5.58    0.44
  -4   0 -18    1.74    0.17
  -4   0 -18    1.54    0.58
  -4   0 -18    1.00    0.63
   4   0  18    1.45    0.28
  -5   0 -18   -0.12    0.54
  -5   0 -18   -0.22    0.44
   5   0  18    0.15    0.15
  -5   1  18    3.29    0.82
  -4   1  18   -0.14    0.58
   3  -1 -18    1.84    0.23
  -3   1  18    1.91    0.18
  -3   1  18    2.18    0.16
   2  -1 -18    0.07    0.09
  -2   1  18    0.12    0.08
   1  -1 -18    6.40    0.33
   1  -1 -18    6.37    0.45
  -1   1  18    5.91    0.31
   0  -1 -18    9.96    0.57
   0  -1 -18    9.72    0.38
   0   1  18   10.25    0.43
   0   1  18   10.34    0.54
  -1  -1 -18    5.69    0.96
  -1  -1 -18    4.77    0.22
   1   1  18    4.26    0.28
   1   1  18    5.25    0.40
  -2  -1 -18    0.52    0.60
   2   1  18    0.44    0.16
  -3  -1 -18    6.67    1.00
  -3  -1 -18    4.77    0.88
   3   1  18    4.62    0.40
  -4  -1 -18    1.16    0.58
  -4  -1 -18    1.12    0.15
  -4  -1 -18    1.22    0.61
   4   1  18    1.50    0.27
  -5  -1 -18    0.75    0.55
   5   1  18    0.36    0.18
  -6  -1 -18   -0.16    0.47
   6   1  18    0.09    0.15
  -5   2  18    0.24    0.59
  -4   2  18    0.37    0.58
   3  -2 -18    1.23    0.20
  -3   2  18    0.83    0.12
   2  -2 -18    0.22    0.14
   2  -2 -18    0.15    0.10
  -2   2  18    0.09    0.07
   1  -2 -18    0.20    0.10
   1  -2 -18    0.16    0.13
  -1   2  18    0.23    0.09
   0  -2 -18   30.38    0.78
   0   2  18   30.10    0.97
   0   2  18   29.76    0.82
  -1  -2 -18    9.70    0.34
   1   2  18    9.55    0.51
   1   2  18    9.18    0.41
  -2  -2 -18    0.60    0.59
   2   2  18    0.34    0.16
  -3  -2 -18    0.40    0.12
  -3  -2 -18    0.00    0.42
  -3  -2 -18    0.23    0.54
   3   2  18   -0.11    0.09
  -4  -2 -18    0.16    0.09
  -4  -2 -18    0.25    0.53
  -4  -2 -18    0.17    0.42
   4   2  18    0.08    0.13
  -5  -2 -18    3.25    0.64
  -5  -2 -18    4.00    0.73
   5   2  18    3.45    0.42
  -6  -2 -18    0.28    0.45
  -6  -2 -18    0.22    0.16
   6   2  18    0.14    0.16
  -5   3  18    0.58    0.61
  -4   3  18    2.85    0.78
   3  -3 -18    0.04    0.09
  -3   3  18    0.00    0.05
   2  -3 -18    0.15    0.10
   2  -3 -18   -0.14    0.10
  -2   3  18   -0.05    0.06
   1  -3 -18    0.21    0.10
  -1   3  18    0.16    0.08
   0  -3 -18    0.01    0.08
   0   3  18    0.02    0.08
  -1  -3 -18    4.60    0.23
   1   3  18    3.81    0.27
   1   3  18    3.78    0.34
  -2  -3 -18   11.55    0.53
  -2  -3 -18   12.91    1.21
   2   3  18   11.76    0.60
  -3  -3 -18    3.05    0.72
  -3  -3 -18    2.46    0.27
  -3  -3 -18    2.58    0.74
   3   3  18    2.21    0.32
  -4  -3 -18    0.28    0.11
  -4  -3 -18    0.02    0.42
  -4  -3 -18    0.41    0.51
  -4  -3 -18    0.03    0.11
   4   3  18    0.34    0.16
  -5  -3 -18    0.16    0.14
  -5  -3 -18    0.71    0.54
  -5  -3 -18    0.22    0.42
   5   3  18    0.13    0.14
  -6  -3 -18    0.54    0.45
  -6  -3 -18    0.30    0.16
   6   3  18    0.14    0.16
  -4   4  18    1.60    0.73
   3  -4 -18    0.06    0.11
   2  -4 -18    1.38    0.20
   1  -4 -18    6.34    0.34
  -1   4  18    6.82    0.32
   0  -4 -18    1.66    0.20
   0   4  18    1.51    0.19
  -1  -4 -18    0.69    0.17
  -1  -4 -18    0.34    0.10
   1   4  18    0.50    0.12
  -2  -4 -18   10.78    1.21
  -2  -4 -18    9.71    0.48
   2   4  18    9.54    0.52
  -3  -4 -18    0.32    0.14
  -3  -4 -18    0.37    0.15
  -3  -4 -18    0.34    0.57
   3   4  18    0.44    0.17
  -4  -4 -18    2.01    0.64
  -4  -4 -18    2.79    0.26
  -4  -4 -18    2.04    0.31
  -4  -4 -18    4.58    0.84
   4   4  18    2.31    0.33
  -5  -4 -18    0.87    0.51
  -5  -4 -18    1.41    0.54
  -5  -4 -18    0.62    0.20
   5   4  18    0.95    0.23
  -6  -4 -18    1.30    0.27
  -6  -4 -18    1.88    0.55
   6   4  18    1.24    0.28
  -4   5  18    1.32    0.67
   3  -5 -18    0.61    0.16
   2  -5 -18    0.05    0.10
  -2   5  18   -0.01    0.06
   1  -5 -18    1.67    0.21
  -1   5  18    1.77    0.20
   0  -5 -18    0.49    0.12
   0   5  18    0.47    0.12
  -1  -5 -18    5.24    0.27
  -1  -5 -18    4.92    0.36
   1   5  18    5.05    0.31
  -2  -5 -18    0.48    0.69
  -2  -5 -18    0.52    0.16
  -3  -5 -18    2.45    0.76
  -3  -5 -18    0.82    0.18
  -3  -5 -18    1.12    0.24
   3   5  18    1.42    0.26
  -4  -5 -18    3.83    0.78
  -4  -5 -18    7.94    1.10
  -4  -5 -18    3.82    0.42
  -4  -5 -18    4.41    0.30
   4   5  18    3.83    0.42
  -5  -5 -18    0.32    0.44
  -5  -5 -18   -0.03    0.12
  -5  -5 -18   -0.08    0.52
  -5  -5 -18    0.24    0.07
   5   5  18   -0.06    0.13
  -6  -5 -18    0.22    0.16
  -6  -5 -18    0.35    0.44
   6   5  18    0.29    0.17
   2  -6 -18    0.52    0.15
  -2   6  18    0.35    0.10
   1  -6 -18    0.69    0.16
  -1   6  18    0.66    0.13
   0  -6 -18    0.58    0.14
   0   6  18    0.92    0.16
  -1  -6 -18    1.95    0.20
  -1  -6 -18    1.86    0.28
   1   6  18    2.13    0.23
  -2  -6 -18    0.29    0.14
   2   6  18    0.07    0.10
  -3  -6 -18    0.40    0.63
  -3  -6 -18   -0.01    0.10
  -4  -6 -18    1.77    0.68
  -4  -6 -18    2.22    0.26
  -4  -6 -18    2.38    0.33
   4   6  18    2.46    0.34
  -5  -6 -18    0.23    0.09
  -5  -6 -18    0.23    0.17
  -5  -6 -18    0.21    0.56
  -5  -6 -18    0.36    0.48
   5   6  18    0.26    0.16
  -6  -6 -18    1.86    0.32
  -6  -6 -18    2.92    0.68
   6   6  18    1.94    0.33
   2  -7 -18    2.64    0.30
  -2   7  18    2.64    0.18
   1  -7 -18    0.32    0.14
  -1   7  18    0.50    0.12
   0  -7 -18    0.24    0.11
   0   7  18    0.28    0.11
  -1  -7 -18    0.12    0.14
  -1  -7 -18    0.03    0.08
   1   7  18   -0.03    0.08
  -2  -7 -18    1.00    0.12
  -2  -7 -18    0.58    0.18
   2   7  18    0.92    0.18
  -3  -7 -18    1.86    0.81
  -3  -7 -18    2.04    0.28
  -4  -7 -18    0.29    0.65
  -4  -7 -18    0.43    0.14
  -5  -7 -18    0.53    0.12
  -5  -7 -18    0.50    0.20
  -5  -7 -18    0.84    0.61
   5   7  18    0.80    0.25
  -6  -7 -18    0.56    0.21
   6   7  18    0.16    0.18
   2  -8 -18    0.19    0.14
   1  -8 -18    0.19    0.13
  -1   8  18    0.27    0.10
   0  -8 -18    0.37    0.13
   0   8  18    0.37    0.12
  -1  -8 -18    0.82    0.23
  -1  -8 -18    0.62    0.14
   1   8  18    0.44    0.13
  -2  -8 -18    0.51    0.19
  -2  -8 -18    0.29    0.09
   2   8  18    0.08    0.11
  -3  -8 -18    4.80    0.39
  -3  -8 -18    7.72    1.27
  -4  -8 -18    1.51    0.78
  -4  -8 -18    0.90    0.20
  -5  -8 -18    2.56    0.25
  -5  -8 -18    1.96    0.72
   0  -9 -18   -0.10    0.09
   0   9  18   -0.06    0.08
  -1  -9 -18    3.42    0.26
   1   9  18    3.05    0.29
  -2  -9 -18    0.11    0.16
   2   9  18   -0.02    0.10
  -3  -9 -18    2.56    0.34
   3   9  18    2.26    0.27
  -4  -9 -18    0.38    0.17
   2   4 -19    0.25    0.12
  -2  -4  19    0.35    0.13
  -2  -4  19    0.17    0.17
   1   4 -19    1.33    0.17
  -1  -4  19    1.35    0.22
   0  -4  19    0.03    0.14
   0  -4  19    0.11    0.11
   0  -4  19    0.00    0.11
   4   3 -19    0.62    0.16
   3   3 -19    0.07    0.10
  -3  -3  19    0.15    0.10
  -3  -3  19    0.16    0.16
   2   3 -19    0.10    0.09
  -2  -3  19   -0.05    0.13
  -2  -3  19    0.13    0.10
   1   3 -19    0.76    0.14
  -1  -3  19    1.08    0.18
  -1  -3  19    1.32    0.21
  -1  -3  19    1.07    0.25
   0   3 -19    0.14    0.07
   0  -3  19    0.09    0.10
   0  -3  19    0.05    0.13
   1  -3  19    0.41    0.18
  -2   3 -19    0.20    0.75
   2  -3  19    0.13    0.14
   4   2 -19    0.21    0.12
   3   2 -19    0.16    0.11
  -3  -2  19    0.12    0.09
   2   2 -19    0.34    0.12
  -2  -2  19    0.42    0.12
  -2  -2  19    0.43    0.19
  -2  -2  19    0.52    0.13
   1   2 -19    0.95    0.16
  -1  -2  19    0.66    0.15
  -1  -2  19    0.62    0.20
   0   2 -19    0.12    0.08
   0  -2  19    0.07    0.13
   0  -2  19    0.13    0.10
   1  -2  19    3.18    0.40
   1  -2  19    3.76    0.29
  -2   2 -19    1.42    0.72
  -3   2 -19    1.13    0.72
   3  -2  19    0.22    0.17
   4   1 -19    0.75    0.18
   3   1 -19    1.02    0.18
  -3  -1  19    1.04    0.15
   2   1 -19    6.66    0.37
  -2  -1  19    6.51    0.46
  -2  -1  19    6.45    0.34
   1   1 -19    0.71    0.14
  -1  -1  19    1.28    0.25
  -1  -1  19    0.68    0.14
   0   1 -19    0.05    0.07
   0  -1  19    0.02    0.08
   0  -1  19    0.16    0.13
   1  -1  19    1.68    0.22
   1  -1  19    1.30    0.26
  -2   1 -19    0.96    0.70
   2  -1  19    0.66    0.20
  -3   1 -19    1.78    0.68
   3  -1  19    2.16    0.34
  -4   1 -19   -0.07    0.58
  -4   1 -19    0.48    0.68
   4  -1  19    0.16    0.16
  -5   0  19   -0.16    0.57
   3   0 -19    0.58    0.15
  -3   0  19    0.37    0.10
   2   0 -19    5.41    0.33
  -2   0  19    5.50    0.30
   1   0 -19    0.41    0.12
  -1   0  19    0.24    0.15
  -1   0  19    0.12    0.09
   0   0 -19    3.47    0.22
   0   0  19    2.57    0.33
   0   0  19    2.64    0.26
   1   0  19    4.47    0.39
   1   0  19    4.55    0.31
  -2   0 -19    0.74    0.64
   2   0  19    0.41    0.17
  -3   0 -19    2.77    0.76
   3   0  19    2.43    0.35
  -4   0 -19    4.17    0.78
  -4   0 -19    2.88    0.79
  -4   0 -19    4.10    0.22
   4   0  19    3.52    0.42
  -5   0 -19    1.51    0.62
   5   0  19    1.36    0.29
  -5   1  19    0.65    0.62
  -4   1  19    0.19    0.60
   3  -1 -19    0.70    0.16
  -3   1  19    0.69    0.12
  -3   1  19    0.59    0.11
   2  -1 -19    0.01    0.09
  -2   1  19    0.02    0.08
   1  -1 -19    0.77    0.14
  -1   1  19    0.43    0.11
   0  -1 -19   13.71    0.69
   0  -1 -19   12.78    0.45
   0   1  19   11.88    0.49
   0   1  19   14.37    0.66
  -1  -1 -19    0.05    0.06
   1   1  19    0.10    0.10
   1   1  19   -0.08    0.10
  -2  -1 -19    1.24    0.74
   2   1  19    1.43    0.26
  -3  -1 -19    0.75    0.63
   3   1  19    0.42    0.17
  -4  -1 -19    0.10    0.09
  -4  -1 -19   -0.54    0.46
  -4  -1 -19   -0.18    0.56
   4   1  19   -0.10    0.11
  -5  -1 -19   -0.35    0.48
  -5  -1 -19   -0.32    0.51
   5   1  19   -0.02    0.12
  -4   2  19    0.35    0.62
   3  -2 -19    2.96    0.30
  -3   2  19    2.85    0.18
   2  -2 -19    0.26    0.12
  -2   2  19    0.25    0.09
   1  -2 -19    0.85    0.15
  -1   2  19    1.18    0.17
   0  -2 -19    0.00    0.07
   0   2  19   -0.01    0.08
  -1  -2 -19    5.41    0.24
   1   2  19    4.94    0.31
   1   2  19    5.35    0.40
  -2  -2 -19    2.41    0.79
   2   2  19    2.14    0.32
  -3  -2 -19    1.37    0.67
  -3  -2 -19    2.63    0.27
   3   2  19    2.43    0.34
  -4  -2 -19   -0.20    0.43
  -4  -2 -19   -0.55    0.53
  -4  -2 -19   -0.04    0.08
   4   2  19   -0.02    0.11
  -5  -2 -19    1.14    0.58
  -5  -2 -19    2.38    0.68
   5   2  19    1.01    0.26
   6   2  19    0.13    0.16
  -4   3  19    1.37    0.68
   3  -3 -19    1.17    0.21
   2  -3 -19    0.15    0.11
  -2   3  19    0.00    0.07
   1  -3 -19    1.93    0.22
  -1   3  19    1.60    0.19
   0  -3 -19    0.14    0.08
   0   3  19    0.27    0.11
  -1  -3 -19   -0.03    0.06
   1   3  19   -0.08    0.08
  -2  -3 -19    9.02    1.12
  -2  -3 -19    6.63    0.41
   2   3  19    6.31    0.44
  -3  -3 -19    0.87    0.66
  -3  -3 -19    1.78    0.24
   3   3  19    1.40    0.26
  -4  -3 -19    0.10    0.48
  -4  -3 -19    0.14    0.52
  -4  -3 -19    0.14    0.10
   4   3  19    0.12    0.13
  -5  -3 -19    0.10    0.54
  -5  -3 -19    0.16    0.47
  -5  -3 -19    0.13    0.15
   5   3  19    0.06    0.13
  -6  -3 -19    0.47    0.52
  -6  -3 -19    0.20    0.17
   6   3  19    0.58    0.21
  -4   4  19    0.72    0.67
   3  -4 -19   -0.03    0.10
   2  -4 -19    0.10    0.10
  -2   4  19    0.01    0.06
   1  -4 -19    2.35    0.25
  -1   4  19    2.20    0.22
   0  -4 -19    0.24    0.09
   0   4  19    0.31    0.11
  -1  -4 -19    3.22    0.20
  -1  -4 -19    3.39    0.35
   1   4  19    3.26    0.25
  -2  -4 -19    2.06    0.28
  -2  -4 -19    2.96    0.92
   2   4  19    2.26    0.31
  -3  -4 -19    1.53    0.70
  -3  -4 -19    1.95    0.31
  -3  -4 -19    1.73    0.25
   3   4  19    1.75    0.29
  -4  -4 -19    4.18    0.45
  -4  -4 -19    2.97    0.70
  -4  -4 -19    4.20    0.28
   4   4  19    3.44    0.40
  -5  -4 -19    0.14    0.46
  -5  -4 -19    0.16    0.50
  -5  -4 -19    0.20    0.17
   5   4  19    0.25    0.16
  -6  -4 -19    0.27    0.47
  -6  -4 -19    0.01    0.13
   6   4  19    0.24    0.16
   3  -5 -19    0.72    0.18
   2  -5 -19    0.18    0.11
  -2   5  19    0.20    0.09
   1  -5 -19   -0.03    0.08
  -1   5  19    0.05    0.08
   0  -5 -19   -0.05    0.07
   0   5  19   -0.04    0.07
  -1  -5 -19    5.70    0.28
  -1  -5 -19    5.37    0.39
   1   5  19    5.24    0.32
  -2  -5 -19    3.46    0.95
  -2  -5 -19    3.08    0.34
  -3  -5 -19    0.19    0.60
  -3  -5 -19    0.12    0.14
  -3  -5 -19    0.01    0.11
   3   5  19    0.00    0.12
  -4  -5 -19    1.69    0.65
  -4  -5 -19    1.77    0.30
  -4  -5 -19    3.82    0.83
  -4  -5 -19    1.77    0.23
   4   5  19    1.79    0.30
  -5  -5 -19   -0.01    0.53
  -5  -5 -19    0.12    0.43
  -5  -5 -19   -0.08    0.12
   5   5  19   -0.24    0.11
  -6  -5 -19    1.34    0.29
  -6  -5 -19    0.55    0.47
  -6  -5 -19    2.02    0.64
   6   5  19    1.22    0.26
   3  -6 -19    0.31    0.15
   2  -6 -19    2.52    0.29
  -2   6  19    2.36    0.18
   1  -6 -19    0.68    0.16
  -1   6  19    0.45    0.12
   0  -6 -19    0.05    0.08
   0   6  19    0.12    0.09
  -1  -6 -19    3.45    0.22
  -1  -6 -19    3.15    0.35
   1   6  19    3.27    0.26
  -2  -6 -19   -0.06    0.11
   2   6  19   -0.08    0.09
  -3  -6 -19    0.19    0.14
  -3  -6 -19    0.29    0.64
  -4  -6 -19    0.22    0.60
  -4  -6 -19    0.25    0.16
  -4  -6 -19    0.08    0.11
   4   6  19    0.07    0.13
  -5  -6 -19    0.28    0.58
  -5  -6 -19    0.34    0.48
  -5  -6 -19    0.14    0.15
  -5  -6 -19    0.08    0.08
   5   6  19    0.14    0.17
  -6  -6 -19    1.47    0.30
   6   6  19    0.69    0.23
   2  -7 -19    1.76    0.25
   1  -7 -19    0.11    0.10
  -1   7  19    0.23    0.10
   0  -7 -19    0.11    0.10
   0   7  19   -0.02    0.08
  -1  -7 -19    0.42    0.11
  -1  -7 -19    0.34    0.18
   1   7  19    0.49    0.14
  -2  -7 -19   -0.01    0.12
   2   7  19    0.03    0.10
  -3  -7 -19    4.05    0.40
  -3  -7 -19    3.30    0.85
  -4  -7 -19    0.78    0.70
  -4  -7 -19    0.58    0.16
  -5  -7 -19    0.56    0.61
  -5  -7 -19    1.69    0.31
  -5  -7 -19    1.53    0.18
   5   7  19    1.74    0.32
   1  -8 -19    0.03    0.11
  -1   8  19   -0.02    0.07
   0  -8 -19   -0.03    0.09
   0   8  19    0.08    0.09
  -1  -8 -19    1.13    0.17
  -1  -8 -19    0.69    0.22
   1   8  19    1.46    0.21
  -2  -8 -19    3.48    0.39
   2   8  19    3.07    0.30
  -3  -8 -19    1.00    0.23
  -4  -8 -19    1.71    0.25
  -4  -8 -19    0.45    0.62
  -1  -9 -19    1.03    0.17
   1   9  19    1.38    0.21
   2   9  19    1.43    0.23
   3   9  19    0.63    0.18
   2   3 -20    1.07    0.18
  -2  -3  20    1.26    0.30
  -2  -3  20    1.19    0.19
   1   3 -20    2.11    0.22
  -1  -3  20    2.10    0.26
  -1  -3  20    2.08    0.26
  -1  -3  20    2.59    0.38
   0  -3  20    0.29    0.13
   0  -3  20    0.35    0.18
   1  -3  20    0.64    0.17
   3   2 -20    0.31    0.13
  -3  -2  20    0.24    0.10
   2   2 -20    2.02    0.23
  -2  -2  20    1.92    0.32
  -2  -2  20    2.06    0.23
  -2  -2  20    2.30    0.25
   1   2 -20    0.16    0.10
  -1  -2  20    0.15    0.11
  -1  -2  20    0.13    0.14
   0   2 -20    0.00    0.06
   0  -2  20    0.01    0.12
   0  -2  20    0.02    0.10
   1  -2  20    1.18    0.21
   1  -2  20    1.41    0.28
  -2   2 -20    0.83    0.68
   2  -2  20    1.46    0.30
   4   1 -20   -0.06    0.10
   3   1 -20    1.25    0.20
  -3  -1  20    1.64    0.19
   2   1 -20    0.74    0.16
  -2  -1  20    0.66    0.15
  -2  -1  20    0.69    0.15
   1   1 -20    1.65    0.20
  -1  -1  20    1.62    0.22
  -1  -1  20    1.80    0.31
   0   1 -20    0.51    0.11
   0  -1  20    0.78    0.16
   0  -1  20    0.81    0.22
   1  -1  20    0.10    0.14
   1  -1  20    0.13    0.11
  -2   1 -20    0.07    0.67
   2  -1  20   -0.17    0.12
  -3   1 -20    0.90    0.66
   3  -1  20    1.44    0.29
   4   0 -20    0.00    0.12
   3   0 -20    0.86    0.18
  -3   0  20    0.87    0.14
   2   0 -20    1.61    0.21
  -2   0  20    1.81    0.21
   1   0 -20    0.67    0.14
  -1   0  20    0.87    0.21
  -1   0  20    0.82    0.16
   0   0 -20    3.35    0.22
   0   0  20    3.56    0.27
   0   0  20    3.72    0.41
   1   0  20    5.12    0.43
   1   0  20    4.48    0.31
  -2   0 -20    0.94    0.68
   2   0  20    1.17    0.25
  -3   0 -20    1.04    0.66
   3   0  20    1.30    0.27
  -4   0 -20    0.83    0.57
  -4   0 -20    0.51    0.65
  -4   0 -20    0.77    0.13
   4   0  20    0.68    0.22
   4  -1 -20    0.23    0.13
   3  -1 -20    5.18    0.35
  -3   1  20    4.28    0.24
  -3   1  20    3.94    0.23
   2  -1 -20    0.40    0.14
  -2   1  20    0.37    0.11
   1  -1 -20    0.42    0.12
  -1   1  20    0.72    0.15
   0  -1 -20    0.16    0.09
   0   1  20    0.01    0.08
   0   1  20    0.16    0.13
   1   1  20   14.41    0.56
   1   1  20   13.60    0.68
  -2  -1 -20    3.14    0.83
   2   1  20    3.04    0.38
  -3  -1 -20    0.20    0.63
  -3  -1 -20    0.14    0.12
   3   1  20    0.15    0.16
  -4  -1 -20    0.19    0.64
  -4  -1 -20    0.29    0.11
  -4  -1 -20   -0.43    0.50
   4   1  20    0.51    0.20
   3  -2 -20    5.23    0.35
  -3   2  20    4.54    0.24
  -3   2  20    5.20    0.24
   2  -2 -20    0.40    0.13
  -2   2  20    0.51    0.12
   1  -2 -20    0.53    0.13
  -1   2  20    0.41    0.12
   0  -2 -20    0.09    0.08
   0   2  20    0.14    0.10
  -1  -2 -20   -0.06    0.06
   1   2  20    0.02    0.13
   1   2  20   -0.02    0.09
  -2  -2 -20    2.95    0.77
   2   2  20    4.64    0.41
  -3  -2 -20    1.83    0.24
  -3  -2 -20    1.49    0.67
   3   2  20    2.16    0.33
  -4  -2 -20   -0.66    0.57
  -4  -2 -20   -0.54    0.44
  -4  -2 -20   -0.02    0.08
   4   2  20   -0.02    0.12
  -5  -2 -20    0.49    0.53
  -5  -2 -20   -0.19    0.54
   5   2  20    0.10    0.14
  -4   3  20    0.12    0.63
   3  -3 -20    1.31    0.22
   2  -3 -20   -0.03    0.09
  -2   3  20    0.05    0.07
   1  -3 -20    2.51    0.26
  -1   3  20    2.89    0.26
   0  -3 -20    0.91    0.15
   0   3  20    0.94    0.17
  -1  -3 -20    0.14    0.08
   1   3  20    0.29    0.11
  -2  -3 -20    0.07    0.62
  -2  -3 -20    0.00    0.11
   2   3  20    0.07    0.14
  -3  -3 -20    1.98    0.25
  -3  -3 -20    1.67    0.69
   3   3  20    2.27    0.33
  -4  -3 -20    0.34    0.12
  -4  -3 -20   -0.15    0.60
  -4  -3 -20    0.45    0.53
   4   3  20    0.20    0.16
  -5  -3 -20   -0.05    0.55
  -5  -3 -20   -0.13    0.46
   5   3  20    0.04    0.13
   3  -4 -20    1.46    0.24
   2  -4 -20   -0.09    0.08
  -2   4  20    0.05    0.07
   1  -4 -20    0.29    0.13
  -1   4  20    0.27    0.10
   0  -4 -20    0.38    0.11
   0   4  20    0.89    0.16
  -1  -4 -20    3.08    0.20
  -1  -4 -20    2.65    0.32
   1   4  20    3.27    0.25
  -2  -4 -20    0.01    0.11
  -2  -4 -20    0.30    0.67
  -3  -4 -20    1.61    0.69
  -3  -4 -20    1.62    0.25
   3   4  20    1.58    0.30
  -4  -4 -20    0.44    0.51
  -4  -4 -20   -0.07    0.09
  -4  -4 -20    0.24    0.58
  -4  -4 -20    0.01    0.13
   4   4  20   -0.09    0.11
  -5  -4 -20    0.91    0.24
  -5  -4 -20    2.32    0.70
  -5  -4 -20    0.76    0.56
   5   4  20    0.48    0.21
   3  -5 -20    0.07    0.12
   2  -5 -20    0.36    0.14
  -2   5  20    0.06    0.08
   1  -5 -20    1.12    0.19
  -1   5  20    1.66    0.20
   0  -5 -20    0.16    0.10
   0   5  20    0.24    0.10
  -1  -5 -20    2.90    0.35
  -1  -5 -20    2.89    0.20
   1   5  20    3.37    0.30
  -2  -5 -20    1.74    0.27
  -3  -5 -20    0.76    0.69
  -3  -5 -20    0.53    0.17
  -4  -5 -20    0.42    0.20
  -4  -5 -20    0.30    0.59
  -4  -5 -20    0.32    0.13
   4   5  20    0.68    0.22
  -5  -5 -20    1.02    0.60
  -5  -5 -20    1.03    0.64
  -5  -5 -20    1.03    0.26
   5   5  20    1.05    0.26
   3  -6 -20    0.09    0.13
   2  -6 -20    1.73    0.25
  -2   6  20    2.06    0.19
   1  -6 -20    0.36    0.14
  -1   6  20    0.45    0.12
   0  -6 -20    0.81    0.16
   0   6  20    0.83    0.16
  -1  -6 -20   -0.05    0.07
  -1  -6 -20   -0.05    0.12
   1   6  20    0.16    0.11
  -2  -6 -20    2.78    0.35
   2   6  20    3.01    0.30
  -3  -6 -20    2.89    0.33
  -3  -6 -20    2.33    0.75
  -4  -6 -20    0.54    0.16
  -4  -6 -20    0.96    0.72
   4   6  20    0.14    0.17
  -5  -6 -20    0.10    0.08
  -5  -6 -20    0.37    0.51
  -5  -6 -20    0.26    0.19
  -5  -6 -20   -0.20    0.59
   5   6  20    0.02    0.16
   2  -7 -20    0.52    0.18
   1  -7 -20    0.17    0.12
  -1   7  20    0.30    0.11
   0  -7 -20    0.75    0.15
   0   7  20    1.01    0.17
  -1  -7 -20    0.64    0.21
  -1  -7 -20    0.92    0.15
   1   7  20    0.51    0.15
  -2  -7 -20    0.06    0.15
   2   7  20    0.12    0.11
  -3  -7 -20    1.13    0.76
  -4  -7 -20    2.33    0.28
  -4  -7 -20    1.60    0.66
   0  -8 -20    0.64    0.15
   0   8  20    0.82    0.15
  -1  -8 -20    0.21    0.11
  -1  -8 -20    0.24    0.19
   1   8  20    0.26    0.13
  -2  -8 -20    4.73    0.47
   2   8  20    3.16    0.31
  -3  -8 -20    0.16    0.15
   2   2 -21    0.59    0.15
  -2  -2  21    0.56    0.14
   1   2 -21    3.17    0.24
  -1  -2  21    3.91    0.46
  -1  -2  21    2.54    0.28
  -1  -2  21    2.74    0.29
   0  -2  21    0.28    0.18
   0  -2  21    0.27    0.12
   1  -2  21    0.13    0.12
   3   1 -21   -0.10    0.09
  -3  -1  21   -0.04    0.08
   2   1 -21   -0.10    0.08
  -2  -1  21   -0.02    0.08
  -2  -1  21    0.05    0.09
   1   1 -21    2.39    0.23
  -1  -1  21    2.55    0.27
  -1  -1  21    2.60    0.37
   0   1 -21    0.39    0.10
   0  -1  21    0.37    0.13
   0  -1  21    0.51    0.19
   1  -1  21    0.74    0.17
   1  -1  21    1.26    0.27
  -2   1 -21    0.68    0.75
   2  -1  21    0.01    0.14
   3   0 -21    0.43    0.14
  -3   0  21    0.43    0.11
   2   0 -21    0.04    0.10
  -2   0  21    0.32    0.12
   1   0 -21    0.42    0.12
  -1   0  21    0.36    0.13
   0   0 -21    0.03    0.07
   0   0  21    0.00    0.12
   0   0  21    0.07    0.09
   1   0  21    3.78    0.29
   1   0  21    3.37    0.42
  -2   0 -21    0.68    0.72
   2   0  21   -0.03    0.13
  -3   0 -21    1.43    0.71
   3   0  21    1.38    0.28
   4  -1 -21    0.40    0.16
   3  -1 -21    3.62    0.34
  -3   1  21    3.63    0.22
   2  -1 -21    1.81    0.23
  -2   1  21    1.98    0.22
   1  -1 -21    0.08    0.09
  -1   1  21    0.07    0.08
   0  -1 -21    0.10    0.08
   0   1  21    0.04    0.09
   0   1  21    0.17    0.13
   1   1  21    0.94    0.23
   1   1  21    1.10    0.20
  -2  -1 -21    1.50    0.78
   2   1  21    0.90    0.24
  -3  -1 -21    0.85    0.19
  -3  -1 -21    0.71    0.64
   3   1  21    1.03    0.26
  -4  -1 -21    1.53    0.17
   4   1  21    0.99    0.25
   4  -2 -21    0.26    0.15
   3  -2 -21    0.89    0.19
   2  -2 -21    4.30    0.31
  -2   2  21    4.88    0.29
   1  -2 -21    0.57    0.13
  -1   2  21    0.40    0.12
   0  -2 -21    0.07    0.08
   0   2  21   -0.01    0.08
   1   2  21    0.02    0.10
   1   2  21    0.08    0.14
  -2  -2 -21   -0.06    0.66
   2   2  21    0.38    0.17
  -3  -2 -21    3.29    0.82
  -3  -2 -21    4.26    0.32
   3   2  21    3.38    0.42
  -4  -2 -21    0.17    0.10
  -4  -2 -21   -0.39    0.62
   4   2  21    0.19    0.17
   3  -3 -21    0.75    0.18
   2  -3 -21    0.16    0.12
  -2   3  21    0.21    0.10
   1  -3 -21    1.04    0.17
  -1   3  21    1.20    0.18
   0  -3 -21    2.59    0.23
   0   3  21    2.35    0.25
  -1  -3 -21    0.27    0.08
   1   3  21    0.36    0.12
  -2  -3 -21    1.01    0.21
  -2  -3 -21    1.29    0.76
   2   3  21    1.19    0.26
  -3  -3 -21    0.71    0.66
  -3  -3 -21    0.45    0.16
   3   3  21    0.69    0.22
  -4  -3 -21    0.26    0.65
  -4  -3 -21   -0.03    0.10
   4   3  21    0.10    0.15
   3  -4 -21    0.52    0.16
   2  -4 -21    0.01    0.10
  -2   4  21    0.03    0.08
   1  -4 -21    0.29    0.12
  -1   4  21    0.42    0.12
   0  -4 -21    0.32    0.11
   0   4  21    0.33    0.12
  -1  -4 -21    0.27    0.15
  -1  -4 -21    0.22    0.08
   1   4  21    0.20    0.11
  -2  -4 -21    1.47    0.25
  -3  -4 -21    0.34    0.15
  -3  -4 -21    0.21    0.66
   3   4  21    0.53    0.21
  -4  -4 -21    0.56    0.58
  -4  -4 -21    0.80    0.17
   4   4  21    0.73    0.24
   3  -5 -21   -0.07    0.11
   2  -5 -21    1.11    0.20
  -2   5  21    0.76    0.13
   1  -5 -21    1.21    0.20
  -1   5  21    1.37    0.19
   0  -5 -21    3.01    0.24
   0   5  21    3.00    0.28
  -1  -5 -21    1.10    0.24
  -1  -5 -21    1.11    0.14
   1   5  21    0.66    0.15
  -2  -5 -21    2.27    0.30
   2   5  21    2.40    0.27
  -3  -5 -21    0.59    0.18
  -3  -5 -21    0.20    0.68
  -4  -5 -21    0.07    0.16
  -4  -5 -21    0.19    0.13
  -4  -5 -21    0.31    0.64
   4   5  21    0.07    0.17
   2  -6 -21    0.24    0.14
   1  -6 -21    1.70    0.23
  -1   6  21    1.54    0.19
   0  -6 -21    1.23    0.19
   0   6  21    1.25    0.19
  -1  -6 -21    0.28    0.17
  -1  -6 -21    0.18    0.09
   1   6  21    0.10    0.11
  -2  -6 -21    1.27    0.25
   2   6  21    1.32    0.21
  -3  -6 -21   -0.18    0.10
  -3  -6 -21    0.34    0.74
  -4  -6 -21    1.28    0.21
  -4  -6 -21    1.45    0.66
   0  -7 -21    1.10    0.19
   0   7  21    1.07    0.17
  -1  -7 -21    1.70    0.30
  -1  -7 -21    1.67    0.19
   1   7  21    1.34    0.21
  -2  -7 -21    0.76    0.22
   2   7  21    0.41    0.15
  -3  -7 -21    0.52    0.18
  -3  -7 -21    0.50    0.76
   1   1 -22    0.46    0.12
  -1  -1  22    0.64    0.15
   0  -1  22    0.35    0.14
   2   0 -22    1.89    0.23
  -2   0  22    2.34    0.24
   1   0 -22    0.04    0.09
  -1   0  22    0.02    0.10
   0   0 -22   -0.01    0.07
   0   0  22   -0.11    0.12
   0   0  22    0.09    0.10
   1   0  22   -0.06    0.10
   1   0  22    0.07    0.14
   2  -1 -22    2.53    0.27
  -2   1  22    2.96    0.23
   1  -1 -22    0.02    0.09
  -1   1  22   -0.05    0.08
   0  -1 -22    0.54    0.12
   0   1  22    0.25    0.11
   1   1  22    0.84    0.24
   1   1  22    0.61    0.16
  -2  -1 -22    1.27    0.72
   2   1  22    2.67    0.39
   3  -2 -22    0.19    0.13
   2  -2 -22    0.12    0.12
  -2   2  22   -0.04    0.08
   1  -2 -22    0.05    0.09
  -1   2  22    0.17    0.11
   0  -2 -22    2.26    0.22
   0   2  22    2.20    0.25
   1   2  22    0.09    0.11
  -2  -2 -22    0.24    0.75
   2   2  22    0.13    0.17
  -3  -2 -22    1.97    0.76
  -3  -2 -22    1.63    0.24
   3   2  22    1.42    0.30
   2  -3 -22    0.21    0.12
  -2   3  22    0.12    0.09
   1  -3 -22    0.06    0.10
  -1   3  22   -0.07    0.08
   0  -3 -22    1.07    0.16
   0   3  22    0.61    0.15
   1   3  22   -0.13    0.09
  -2  -3 -22    0.96    0.21
   2   3  22    1.24    0.27
  -3  -3 -22   -0.05    0.64
  -3  -3 -22   -0.02    0.11
   3   3  22    0.19    0.17
   2  -4 -22    0.14    0.11
  -2   4  22    0.19    0.10
   1  -4 -22    1.03    0.18
  -1   4  22    0.94    0.16
   0  -4 -22    1.73    0.20
   0   4  22    1.36    0.20
  -1  -4 -22    0.04    0.14
   1   4  22    0.12    0.11
  -2  -4 -22    2.62    0.33
  -3  -4 -22    0.06    0.69
  -3  -4 -22    0.25    0.15
   3   4  22    0.13    0.16
   1  -5 -22    2.65    0.28
  -1   5  22    2.62    0.26
   0  -5 -22    0.12    0.09
   0   5  22    0.07    0.10
  -1  -5 -22    0.37    0.19
  -1  -5 -22    0.13    0.09
   1   5  22    0.14    0.11
  -2  -5 -22   -0.04    0.12
   2   5  22   -0.09    0.10
  -3  -5 -22    0.92    0.74
  -3  -5 -22    0.64    0.19
   0  -6 -22    0.01    0.09
   0   6  22   -0.02    0.10
  -1  -6 -22    3.05    0.21
  -1  -6 -22    2.27    0.34
   1   6  22    2.10    0.24
  -2  -6 -22   -0.05    0.13
   2   6  22    0.03    0.11
   0  -1 -23    0.70    0.13
   0   1  23    0.41    0.14
   1  -2 -23    0.18    0.10
  -1   2  23    0.39    0.13
   0  -2 -23    1.56    0.18
   0   2  23    1.52    0.22
   1   2  23    1.25    0.21
   1  -3 -23    0.25    0.11
  -1   3  23    0.24    0.11
   0  -3 -23    0.07    0.09
   0   3  23    0.15    0.11
   1   3  23    0.05    0.11
   0   4  23    0.65    0.16
  -1  -4 -23    1.48    0.27
   1   4  23    1.33    0.21
   1   5  23    1.07    0.20
   0   0   0    0.00    0.00
;
_shelx_hkl_checksum              29940
_shelx_res_file
;
    shelx.res created by SHELXL-2014/7
TITL CHEM_MaheshK_J27_NEW_0m in P-1
CELL  0.71073   6.9573   7.9838  15.6037   75.485   87.122   75.763
ZERR     2.00   0.0002   0.0002   0.0004    0.002    0.001    0.001
LATT   1
SFAC  C    H    N    O    S
UNIT  34 38 2 6 4
MERG   2
OMIT     0.00  50.00
FMAP   2
PLAN    4
ACTA
BOND   $H
CONF
L.S.  10
TEMP    23.00
WGHT    0.046000    0.165800
EXTI    0.041320
FVAR       0.27952
S1    5    0.699509    0.573127    0.128982    11.00000    0.04147    0.04208 =
         0.03142   -0.00998    0.00148   -0.01950
S2    5    1.067313    0.708916    0.068812    11.00000    0.02933    0.05418 =
         0.04400   -0.01193   -0.00102   -0.01293
O5    4    0.544056    0.927646   -0.193566    11.00000    0.04265    0.06048 =
         0.04016    0.00326   -0.00630   -0.01885
O3    4    0.651755    0.931711    0.375625    11.00000    0.04128    0.03779 =
         0.03826   -0.01604    0.00403   -0.01484
O4    4    0.881896    1.059559    0.306627    11.00000    0.05591    0.04752 =
         0.06387   -0.02514    0.01327   -0.02852
N6    3    0.749095    0.758093   -0.030188    11.00000    0.02772    0.03474 =
         0.03552   -0.00546    0.00024   -0.01021
C7    1    0.804073    0.936246    0.317248    11.00000    0.03681    0.03918 =
         0.03690   -0.01101   -0.00119   -0.01244
C8    1    0.859178    0.789953    0.276204    11.00000    0.03443    0.03946 =
         0.03424   -0.01230    0.00204   -0.01047
AFIX  43
H8    2    0.973618    0.780451    0.242474    11.00000   -1.20000
AFIX   0
C9    1    0.755307    0.665294    0.283491    11.00000    0.03352    0.02896 =
         0.02670   -0.00497   -0.00514   -0.00313
C10   1    0.578774    0.673457    0.338851    11.00000    0.03266    0.02925 =
         0.02705   -0.00342   -0.00458   -0.00642
C11   1    0.537516    0.808989    0.384564    11.00000    0.03412    0.03054 =
         0.03153   -0.00604   -0.00404   -0.00893
C12   1    0.382711    0.832632    0.442711    11.00000    0.04077    0.03846 =
         0.03486   -0.01205    0.00103   -0.00740
AFIX  43
H12   2    0.363679    0.924106    0.471567    11.00000   -1.20000
AFIX   0
C13   1    0.257025    0.720151    0.457646    11.00000    0.03480    0.04211 =
         0.03399   -0.00366   -0.00011   -0.00622
C17   1    0.086906    0.738981    0.520797    11.00000    0.04425    0.06010 =
         0.04563   -0.01085    0.00881   -0.01452
AFIX 137
H17A  2    0.104141    0.814906    0.557286    11.00000   -1.50000
H17B  2    0.083339    0.623685    0.557512    11.00000   -1.50000
H17C  2   -0.035301    0.790365    0.487885    11.00000   -1.50000
AFIX   0
C14   1    0.291787    0.586663    0.411830    11.00000    0.03767    0.03971 =
         0.04103   -0.00409   -0.00090   -0.01571
AFIX  43
H14   2    0.205972    0.511210    0.421034    11.00000   -1.20000
AFIX   0
C15   1    0.445776    0.559583    0.353631    11.00000    0.03954    0.03166 =
         0.03421   -0.00524   -0.00391   -0.00925
C16   1    0.456498    0.409039    0.309533    11.00000    0.05905    0.04659 =
         0.06440   -0.02428    0.01273   -0.02862
AFIX 137
H16A  2    0.346921    0.355811    0.328192    11.00000   -1.50000
H16B  2    0.578715    0.320848    0.326008    11.00000   -1.50000
H16C  2    0.450661    0.454934    0.246418    11.00000   -1.50000
AFIX   0
C18   1    0.832922    0.525718    0.232346    11.00000    0.03794    0.03151 =
         0.03357   -0.00866   -0.00172   -0.00531
AFIX  23
H18A  2    0.821891    0.410387    0.268392    11.00000   -1.20000
H18B  2    0.972255    0.519351    0.220086    11.00000   -1.20000
AFIX   0
C19   1    0.842127    0.690386    0.048312    11.00000    0.03047    0.02657 =
         0.03565   -0.01164    0.00188   -0.00456
C20   1    0.564329    0.717850   -0.051539    11.00000    0.03546    0.04080 =
         0.04184   -0.00416   -0.00347   -0.01636
AFIX  23
H20A  2    0.490472    0.688925    0.002300    11.00000   -1.20000
H20B  2    0.596099    0.614778   -0.076534    11.00000   -1.20000
AFIX   0
C21   1    0.438954    0.872919   -0.116076    11.00000    0.03188    0.04742 =
         0.04679   -0.00348   -0.00326   -0.01072
AFIX  23
H21A  2    0.322589    0.840037   -0.131762    11.00000   -1.20000
H21B  2    0.394522    0.971672   -0.088408    11.00000   -1.20000
AFIX   0
C22   1    0.708634    0.984576   -0.171240    11.00000    0.04171    0.04627 =
         0.04641    0.00098   -0.00051   -0.01704
AFIX  23
H22A  2    0.661283    1.083516   -0.143921    11.00000   -1.20000
H22B  2    0.777496    1.026672   -0.224877    11.00000   -1.20000
AFIX   0
C23   1    0.850931    0.838056   -0.109098    11.00000    0.03267    0.04679 =
         0.03840   -0.00387    0.00418   -0.01142
AFIX  23
H23A  2    0.913777    0.746804   -0.139408    11.00000   -1.20000
H23B  2    0.953715    0.885489   -0.091055    11.00000   -1.20000
AFIX   0
HKLF 4
REM  CHEM_MaheshK_J27_NEW_0m in P-1
REM R1 =  0.0298 for    2551 Fo > 4sig(Fo)  and  0.0348 for all    2857 data
REM    211 parameters refined using      0 restraints
END
WGHT      0.0454      0.1714
REM Highest difference peak  0.195,  deepest hole -0.196,  1-sigma level  0.052
Q1    1  -0.0025  0.8688  0.5050  11.00000  0.05    0.20
Q2    1   0.6736  0.7366 -0.0373  11.00000  0.05    0.19
Q3    1   0.8078  0.7059  0.0010  11.00000  0.05    0.19
Q4    1   0.7932  0.7316  0.0147  11.00000  0.05    0.19
;
_shelx_res_checksum              91130
loop_
_space_group_symop_operation_xyz
'x, y, z'
'-x, -y, -z'
loop_
_atom_site_type_symbol
_atom_site_label
_atom_site_fract_x
_atom_site_fract_y
_atom_site_fract_z
_atom_site_U_iso_or_equiv
_atom_site_adp_type
_atom_site_calc_flag
_atom_site_occupancy
S S1 0.69951(6) 0.57313(5) 0.12898(2) 0.03649(15) Uani d 1
S S2 1.06731(6) 0.70892(6) 0.06881(3) 0.04197(15) Uani d 1
O O5 0.54406(19) 0.92765(17) -0.19357(8) 0.0492(3) Uani d 1
O O3 0.65176(17) 0.93171(14) 0.37562(7) 0.0371(3) Uani d 1
O O4 0.8819(2) 1.05956(16) 0.30663(9) 0.0512(3) Uani d 1
N N6 0.74909(19) 0.75809(17) -0.03019(8) 0.0328(3) Uani d 1
C C7 0.8041(3) 0.9362(2) 0.31725(10) 0.0367(4) Uani d 1
C C8 0.8592(2) 0.7900(2) 0.27620(10) 0.0352(4) Uani d 1
H H8 0.9736 0.7805 0.2425 0.042 Uiso calc 1
C C9 0.7553(2) 0.66529(19) 0.28349(9) 0.0307(3) Uani d 1
C C10 0.5788(2) 0.67346(19) 0.33885(9) 0.0303(3) Uani d 1
C C11 0.5375(2) 0.80899(19) 0.38456(9) 0.0320(3) Uani d 1
C C12 0.3827(3) 0.8326(2) 0.44271(10) 0.0379(4) Uani d 1
H H12 0.3637 0.9241 0.4716 0.045 Uiso calc 1
C C13 0.2570(3) 0.7202(2) 0.45765(10) 0.0385(4) Uani d 1
C C17 0.0869(3) 0.7390(3) 0.52080(12) 0.0503(5) Uani d 1
H H17A 0.1041 0.8149 0.5573 0.076 Uiso calc 1
H H17B 0.0833 0.6237 0.5575 0.076 Uiso calc 1
H H17C -0.0353 0.7904 0.4879 0.076 Uiso calc 1
C C14 0.2918(3) 0.5867(2) 0.41183(11) 0.0393(4) Uani d 1
H H14 0.2060 0.5112 0.4210 0.047 Uiso calc 1
C C15 0.4458(2) 0.5596(2) 0.35363(10) 0.0354(4) Uani d 1
C C16 0.4565(3) 0.4090(2) 0.30953(13) 0.0523(5) Uani d 1
H H16A 0.3469 0.3558 0.3282 0.078 Uiso calc 1
H H16B 0.5787 0.3208 0.3260 0.078 Uiso calc 1
H H16C 0.4507 0.4549 0.2464 0.078 Uiso calc 1
C C18 0.8329(2) 0.5257(2) 0.23235(10) 0.0347(4) Uani d 1
H H18A 0.8219 0.4104 0.2684 0.042 Uiso calc 1
H H18B 0.9723 0.5194 0.2201 0.042 Uiso calc 1
C C19 0.8421(2) 0.69039(19) 0.04831(10) 0.0306(3) Uani d 1
C C20 0.5643(2) 0.7179(2) -0.05154(11) 0.0390(4) Uani d 1
H H20A 0.4905 0.6889 0.0023 0.047 Uiso calc 1
H H20B 0.5961 0.6148 -0.0765 0.047 Uiso calc 1
C C21 0.4390(3) 0.8729(2) -0.11608(11) 0.0432(4) Uani d 1
H H21A 0.3226 0.8400 -0.1318 0.052 Uiso calc 1
H H21B 0.3945 0.9717 -0.0884 0.052 Uiso calc 1
C C22 0.7086(3) 0.9846(2) -0.17124(12) 0.0459(4) Uani d 1
H H22A 0.6613 1.0835 -0.1439 0.055 Uiso calc 1
H H22B 0.7775 1.0267 -0.2249 0.055 Uiso calc 1
C C23 0.8509(3) 0.8381(2) -0.10910(11) 0.0403(4) Uani d 1
H H23A 0.9138 0.7468 -0.1394 0.048 Uiso calc 1
H H23B 0.9537 0.8855 -0.0911 0.048 Uiso calc 1
loop_
_atom_site_aniso_label
_atom_site_aniso_U_11
_atom_site_aniso_U_22
_atom_site_aniso_U_33
_atom_site_aniso_U_12
_atom_site_aniso_U_13
_atom_site_aniso_U_23
S1 0.0415(3) 0.0421(2) 0.0314(2) -0.0195(2) 0.00148(17) -0.00998(16)
S2 0.0293(2) 0.0542(3) 0.0440(3) -0.0129(2) -0.00102(18) -0.01193(19)
O5 0.0426(7) 0.0605(8) 0.0402(6) -0.0188(6) -0.0063(5) 0.0033(5)
O3 0.0413(7) 0.0378(6) 0.0383(6) -0.0148(5) 0.0040(5) -0.0160(5)
O4 0.0559(8) 0.0475(7) 0.0639(8) -0.0285(7) 0.0133(6) -0.0251(6)
N6 0.0277(7) 0.0347(7) 0.0355(7) -0.0102(6) 0.0002(5) -0.0055(5)
C7 0.0368(9) 0.0392(9) 0.0369(8) -0.0124(8) -0.0012(7) -0.0110(7)
C8 0.0344(9) 0.0395(9) 0.0342(8) -0.0105(7) 0.0020(7) -0.0123(6)
C9 0.0335(8) 0.0290(7) 0.0267(7) -0.0031(7) -0.0051(6) -0.0050(6)
C10 0.0327(8) 0.0293(7) 0.0271(7) -0.0064(7) -0.0046(6) -0.0034(6)
C11 0.0341(9) 0.0305(8) 0.0315(8) -0.0089(7) -0.0040(6) -0.0060(6)
C12 0.0408(10) 0.0385(9) 0.0349(8) -0.0074(8) 0.0010(7) -0.0120(7)
C13 0.0348(9) 0.0421(9) 0.0340(8) -0.0062(8) -0.0001(7) -0.0037(7)
C17 0.0442(11) 0.0601(11) 0.0456(10) -0.0145(9) 0.0088(8) -0.0109(8)
C14 0.0377(9) 0.0397(9) 0.0410(9) -0.0157(8) -0.0009(7) -0.0041(7)
C15 0.0395(9) 0.0317(8) 0.0342(8) -0.0092(7) -0.0039(7) -0.0052(6)
C16 0.0590(13) 0.0466(10) 0.0644(12) -0.0286(10) 0.0127(10) -0.0243(9)
C18 0.0379(9) 0.0315(8) 0.0336(8) -0.0053(7) -0.0017(7) -0.0087(6)
C19 0.0305(8) 0.0266(7) 0.0356(8) -0.0046(6) 0.0019(6) -0.0116(6)
C20 0.0355(9) 0.0408(9) 0.0418(9) -0.0164(8) -0.0035(7) -0.0042(7)
C21 0.0319(9) 0.0474(10) 0.0468(9) -0.0107(8) -0.0033(7) -0.0035(8)
C22 0.0417(10) 0.0463(10) 0.0464(10) -0.0170(8) -0.0005(8) 0.0010(8)
C23 0.0327(9) 0.0468(9) 0.0384(9) -0.0114(8) 0.0042(7) -0.0039(7)
loop_
_atom_type_symbol
_atom_type_description
_atom_type_scat_dispersion_real
_atom_type_scat_dispersion_imag
_atom_type_scat_source
C C 0.0033 0.0016 'International Tables Vol C Tables 4.2.6.8 and 6.1.1.4'
H H 0.0000 0.0000 'International Tables Vol C Tables 4.2.6.8 and 6.1.1.4'
N N 0.0061 0.0033 'International Tables Vol C Tables 4.2.6.8 and 6.1.1.4'
O O 0.0106 0.0060 'International Tables Vol C Tables 4.2.6.8 and 6.1.1.4'
S S 0.1246 0.1234 'International Tables Vol C Tables 4.2.6.8 and 6.1.1.4'
loop_
_geom_angle_atom_site_label_1
_geom_angle_atom_site_label_2
_geom_angle_atom_site_label_3
_geom_angle
C19 S1 C18 104.75(7)
C21 O5 C22 109.33(13)
C7 O3 C11 121.95(12)
C19 N6 C23 121.25(13)
C19 N6 C20 123.64(13)
C23 N6 C20 113.10(13)
O4 C7 O3 117.53(14)
O4 C7 C8 126.46(16)
O3 C7 C8 115.98(14)
C9 C8 C7 123.98(15)
C9 C8 H8 118.0
C7 C8 H8 118.0
C8 C9 C10 119.08(14)
C8 C9 C18 116.07(14)
C10 C9 C18 124.85(13)
C11 C10 C15 115.86(14)
C11 C10 C9 115.87(13)
C15 C10 C9 128.26(14)
C12 C11 O3 113.45(13)
C12 C11 C10 124.13(14)
O3 C11 C10 122.42(14)
C13 C12 C11 119.55(15)
C13 C12 H12 120.2
C11 C12 H12 120.2
C12 C13 C14 117.62(15)
C12 C13 C17 121.79(16)
C14 C13 C17 120.59(16)
C13 C17 H17A 109.5
C13 C17 H17B 109.5
H17A C17 H17B 109.5
C13 C17 H17C 109.5
H17A C17 H17C 109.5
H17B C17 H17C 109.5
C15 C14 C13 124.03(15)
C15 C14 H14 118.0
C13 C14 H14 118.0
C14 C15 C10 118.78(15)
C14 C15 C16 115.96(15)
C10 C15 C16 125.25(15)
C15 C16 H16A 109.5
C15 C16 H16B 109.5
H16A C16 H16B 109.5
C15 C16 H16C 109.5
H16A C16 H16C 109.5
H16B C16 H16C 109.5
C9 C18 S1 112.31(10)
C9 C18 H18A 109.1
S1 C18 H18A 109.1
C9 C18 H18B 109.1
S1 C18 H18B 109.1
H18A C18 H18B 107.9
N6 C19 S2 124.20(12)
N6 C19 S1 112.43(11)
S2 C19 S1 123.36(9)
N6 C20 C21 111.12(13)
N6 C20 H20A 109.4
C21 C20 H20A 109.4
N6 C20 H20B 109.4
C21 C20 H20B 109.4
H20A C20 H20B 108.0
O5 C21 C20 111.68(14)
O5 C21 H21A 109.3
C20 C21 H21A 109.3
O5 C21 H21B 109.3
C20 C21 H21B 109.3
H21A C21 H21B 107.9
O5 C22 C23 112.16(14)
O5 C22 H22A 109.2
C23 C22 H22A 109.2
O5 C22 H22B 109.2
C23 C22 H22B 109.2
H22A C22 H22B 107.9
N6 C23 C22 111.21(14)
N6 C23 H23A 109.4
C22 C23 H23A 109.4
N6 C23 H23B 109.4
C22 C23 H23B 109.4
H23A C23 H23B 108.0
loop_
_geom_bond_atom_site_label_1
_geom_bond_atom_site_label_2
_geom_bond_distance
S1 C19 1.7850(15)
S1 C18 1.8104(16)
S2 C19 1.6634(16)
O5 C21 1.411(2)
O5 C22 1.419(2)
O3 C7 1.3636(19)
O3 C11 1.3837(18)
O4 C7 1.2088(19)
N6 C19 1.337(2)
N6 C23 1.472(2)
N6 C20 1.472(2)
C7 C8 1.432(2)
C8 C9 1.347(2)
C8 H8 0.9300
C9 C10 1.463(2)
C9 C18 1.509(2)
C10 C11 1.406(2)
C10 C15 1.422(2)
C11 C12 1.381(2)
C12 C13 1.373(2)
C12 H12 0.9300
C13 C14 1.394(2)
C13 C17 1.505(2)
C17 H17A 0.9600
C17 H17B 0.9600
C17 H17C 0.9600
C14 C15 1.381(2)
C14 H14 0.9300
C15 C16 1.513(2)
C16 H16A 0.9600
C16 H16B 0.9600
C16 H16C 0.9600
C18 H18A 0.9700
C18 H18B 0.9700
C20 C21 1.497(2)
C20 H20A 0.9700
C20 H20B 0.9700
C21 H21A 0.9700
C21 H21B 0.9700
C22 C23 1.499(2)
C22 H22A 0.9700
C22 H22B 0.9700
C23 H23A 0.9700
C23 H23B 0.9700
loop_
_geom_hbond_atom_site_label_D
_geom_hbond_atom_site_label_H
_geom_hbond_atom_site_label_A
_geom_hbond_site_symmetry_A
_geom_hbond_distance_DH
_geom_hbond_distance_HA
_geom_hbond_distance_DA
_geom_hbond_angle_DHA
_geom_hbond_publ_flag
C16 H16C S1 . 0.96 2.62 3.358(2) 134 yes
C17 H17A O4 2_676 0.96 2.58 3.505(2) 162 yes
loop_
_geom_torsion_atom_site_label_1
_geom_torsion_atom_site_label_2
_geom_torsion_atom_site_label_3
_geom_torsion_atom_site_label_4
_geom_torsion
C11 O3 C7 O4 172.02(14)
C11 O3 C7 C8 -9.6(2)
O4 C7 C8 C9 -173.11(16)
O3 C7 C8 C9 8.7(2)
C7 C8 C9 C10 -2.2(2)
C7 C8 C9 C18 177.64(14)
C8 C9 C10 C11 -3.3(2)
C18 C9 C10 C11 176.86(13)
C8 C9 C10 C15 178.07(14)
C18 C9 C10 C15 -1.8(2)
C7 O3 C11 C12 -176.06(13)
C7 O3 C11 C10 4.5(2)
C15 C10 C11 C12 1.7(2)
C9 C10 C11 C12 -177.11(14)
C15 C10 C11 O3 -178.87(13)
C9 C10 C11 O3 2.3(2)
O3 C11 C12 C13 179.83(14)
C10 C11 C12 C13 -0.7(2)
C11 C12 C13 C14 -0.6(2)
C11 C12 C13 C17 179.55(15)
C12 C13 C14 C15 0.9(3)
C17 C13 C14 C15 -179.25(15)
C13 C14 C15 C10 0.1(2)
C13 C14 C15 C16 -179.20(16)
C11 C10 C15 C14 -1.4(2)
C9 C10 C15 C14 177.29(14)
C11 C10 C15 C16 177.88(15)
C9 C10 C15 C16 -3.5(3)
C8 C9 C18 S1 -99.37(15)
C10 C9 C18 S1 80.51(16)
C19 S1 C18 C9 94.28(12)
C23 N6 C19 S2 7.4(2)
C20 N6 C19 S2 170.20(12)
C23 N6 C19 S1 -171.43(11)
C20 N6 C19 S1 -8.65(19)
C18 S1 C19 N6 -171.04(11)
C18 S1 C19 S2 10.10(12)
C19 N6 C20 C21 148.50(15)
C23 N6 C20 C21 -47.48(19)
C22 O5 C21 C20 -61.97(19)
N6 C20 C21 O5 55.36(19)
C21 O5 C22 C23 61.16(19)
C19 N6 C23 C22 -148.99(15)
C20 N6 C23 C22 46.56(19)
O5 C22 C23 N6 -53.5(2)
