#------------------------------------------------------------------------------
#$Date: 2016-03-04 10:53:42 +0200 (Fri, 04 Mar 2016) $
#$Revision: 177371 $
#$URL: svn://www.crystallography.net/cod/cif/1/54/27/1542721.cif $
#------------------------------------------------------------------------------
#
# This file is available in the Crystallography Open Database (COD),
# http://www.crystallography.net/
#
# All data on this site have been placed in the public domain by the
# contributors.
#
data_1542721
loop_
_publ_author_name
'Pan, Hongjie'
'Huang, Hu'
'Liu, Weigang'
'Tian, Hua'
'Shi, Yian'
_publ_section_title
;
 Phosphine Oxide-Sc(OTf)3 Catalyzed Highly Regio- and Enantioselective
 Bromoaminocyclization of (E)-Cinnamyl Tosylcarbamates. An Approach to a
 Class of Synthetically Versatile Functionalized Molecules.
;
_journal_issue                   5
_journal_name_full               'Organic letters'
_journal_page_first              896
_journal_paper_doi               10.1021/acs.orglett.5b03459
_journal_volume                  18
_journal_year                    2016
_chemical_absolute_configuration ad
_chemical_formula_moiety         'C16 H19 N O4 S'
_chemical_formula_sum            'C16 H19 N O4 S'
_chemical_formula_weight         321.38
_space_group_crystal_system      orthorhombic
_space_group_IT_number           19
_space_group_name_Hall           'P 2ac 2ab'
_space_group_name_H-M_alt        'P 21 21 21'
_symmetry_space_group_name_Hall  'P 2ac 2ab'
_symmetry_space_group_name_H-M   'P 21 21 21'
_atom_sites_solution_hydrogens   mixed
_atom_sites_solution_primary     direct
_audit_creation_date             2015-06-17
_audit_creation_method
;
Olex2 1.2
(compiled 2015.01.26 svn.r3150 for OlexSys, GUI svn.r4998)
;
_cell_angle_alpha                90
_cell_angle_beta                 90
_cell_angle_gamma                90
_cell_formula_units_Z            4
_cell_length_a                   7.758(5)
_cell_length_b                   10.373(7)
_cell_length_c                   19.137(17)
_cell_measurement_reflns_used    5588
_cell_measurement_temperature    173.1500
_cell_measurement_theta_max      27.4803
_cell_measurement_theta_min      1.0641
_cell_volume                     1540(2)
_computing_cell_refinement       'CrystalClear (Rigaku Inc., 2007)'
_computing_data_collection       'CrystalClear (Rigaku Inc., 2007)'
_computing_data_reduction        'CrystalClear (Rigaku Inc., 2007)'
_computing_molecular_graphics    'Olex2 (Dolomanov et al., 2009)'
_computing_publication_material  'CIFTAB (Sheldrick, 2013)'
_computing_structure_refinement  'SHELXL (Sheldrick, 2014)'
_computing_structure_solution
;
'SHELXT (Sheldrick, 2014)'
;
_diffrn_ambient_temperature      173.1500
_diffrn_detector_area_resol_mean 28.5714
_diffrn_measured_fraction_theta_full 0.999
_diffrn_measured_fraction_theta_max 0.996
_diffrn_measurement_details
;
scan:
    Number of images: 358
               Slice: -110.0000 - 69.0000
         Image width: 0.5000
            Exp time: 10.0000
       Rotation axis: Omega
               Omega: 0.0000
                 Chi: 45.0000
                 Phi: 180.0000
                 XTD: 45.0556
              2theta: -20.9538
scan:
    Number of images: 240
               Slice: -110.0000 - 10.0000
         Image width: 0.5000
            Exp time: 10.0000
       Rotation axis: Omega
               Omega: 0.0000
                 Chi: 45.0000
                 Phi: 0.0000
                 XTD: 45.0556
              2theta: -20.9538
;
_diffrn_measurement_device
;
Saturn724+ (2x2 bin mode)
;
_diffrn_measurement_device_details
;
AFC10: Fixed Chi 2 circle
;
_diffrn_measurement_device_type  'MM007-HF CCD(Saturn 724+)'
_diffrn_measurement_method       '\w scans at fixed \c = 45\%'
_diffrn_orient_matrix_type       d*Trek
_diffrn_orient_matrix_UB_11      0.0323
_diffrn_orient_matrix_UB_12      -0.0023
_diffrn_orient_matrix_UB_13      -0.1248
_diffrn_orient_matrix_UB_21      -0.0461
_diffrn_orient_matrix_UB_22      0.0836
_diffrn_orient_matrix_UB_23      -0.0135
_diffrn_orient_matrix_UB_31      0.0440
_diffrn_orient_matrix_UB_32      0.0260
_diffrn_orient_matrix_UB_33      0.0109
_diffrn_radiation_detector       CCD
_diffrn_radiation_monochromator  Confocal
_diffrn_radiation_type           MoK\a
_diffrn_radiation_wavelength     0.71073
_diffrn_reflns_av_R_equivalents  0.0568
_diffrn_reflns_av_unetI/netI     0.0512
_diffrn_reflns_laue_measured_fraction_full 0.999
_diffrn_reflns_laue_measured_fraction_max 0.996
_diffrn_reflns_limit_h_max       10
_diffrn_reflns_limit_h_min       -9
_diffrn_reflns_limit_k_max       13
_diffrn_reflns_limit_k_min       -13
_diffrn_reflns_limit_l_max       24
_diffrn_reflns_limit_l_min       -24
_diffrn_reflns_number            10534
_diffrn_reflns_point_group_measured_fraction_full 0.999
_diffrn_reflns_point_group_measured_fraction_max 0.995
_diffrn_reflns_theta_full        26.000
_diffrn_reflns_theta_max         27.489
_diffrn_reflns_theta_min         2.128
_diffrn_source                   'Rotating Anode'
_diffrn_source_current           24.0000
_diffrn_source_power             1.2000
_diffrn_source_voltage           50.0000
_exptl_absorpt_coefficient_mu    0.228
_exptl_absorpt_correction_T_max  1.0000
_exptl_absorpt_correction_T_min  0.7025
_exptl_absorpt_correction_type   multi-scan
_exptl_absorpt_process_details   'CrystalClear (Rigaku Inc., 2007)'
_exptl_crystal_colour            Colorless
_exptl_crystal_density_diffrn    1.386
_exptl_crystal_description       plate
_exptl_crystal_F_000             680
_exptl_crystal_size_max          0.36
_exptl_crystal_size_mid          0.13
_exptl_crystal_size_min          0.05
_refine_diff_density_max         0.272
_refine_diff_density_min         -0.307
_refine_diff_density_rms         0.052
_refine_ls_abs_structure_details
;
 Flack x determined using 1156 quotients [(I+)-(I-)]/[(I+)+(I-)]
 (Parsons, Flack and Wagner, Acta Cryst. B69 (2013) 249-259).
;
_refine_ls_abs_structure_Flack   0.12(6)
_refine_ls_extinction_method     none
_refine_ls_goodness_of_fit_ref   1.093
_refine_ls_hydrogen_treatment    mixed
_refine_ls_matrix_type           full
_refine_ls_number_parameters     212
_refine_ls_number_reflns         3519
_refine_ls_number_restraints     0
_refine_ls_restrained_S_all      1.093
_refine_ls_R_factor_all          0.0542
_refine_ls_R_factor_gt           0.0513
_refine_ls_shift/su_max          0.000
_refine_ls_shift/su_mean         0.000
_refine_ls_structure_factor_coef Fsqd
_refine_ls_weighting_details
'w=1/[\s^2^(Fo^2^)+(0.0359P)^2^+0.9121P] where P=(Fo^2^+2Fc^2^)/3'
_refine_ls_weighting_scheme      calc
_refine_ls_wR_factor_gt          0.1095
_refine_ls_wR_factor_ref         0.1113
_reflns_Friedel_coverage         0.733
_reflns_friedel_fraction_full    0.998
_reflns_friedel_fraction_max     0.995
_reflns_number_gt                3353
_reflns_number_total             3519
_reflns_threshold_expression     'I > 2\s(I)'
_cod_data_source_file            ol5b03459_si_007.cif
_cod_data_source_block           mx3866
_cod_database_code               1542721
_shelx_space_group_comment
;
The symmetry employed for this shelxl refinement is uniquely defined
by the following loop, which should always be used as a source of
symmetry information in preference to the above space-group names.
They are only intended as comments.
;
_diffrn_number_total             2054
_olex2_refinement_description
;
1. Fixed Uiso
 At 1.2 times of:
  All C(H) groups, All C(H,H) groups
 At 1.5 times of:
  All C(H,H,H) groups
2.a Ternary CH refined with riding coordinates:
 C1(H1B), C2(H2A)
2.b Secondary CH2 refined with riding coordinates:
 C3(H3A,H3B)
2.c Aromatic/amide H refined with riding coordinates:
 C5(H5), C6(H6), C7(H7), C8(H8), C9(H9), C11(H11), C12(H12), C14(H14), C15(H15)
2.d Idealised Me refined as rotating group:
 C16(H16A,H16B,H16C)
;
_shelx_res_file
;
    mx3866.res created by SHELXL-2014/7

TITL mx3866_a.res in P2(1)2(1)2(1)
CELL 0.71073 7.7581 10.3728 19.1365 90 90 90
ZERR 4 0.0052 0.007 0.017 0 0 0
LATT -1
SYMM 0.5-X,-Y,0.5+Z
SYMM -X,0.5+Y,0.5-Z
SYMM 0.5+X,0.5-Y,-Z
SFAC C H N O S
UNIT 64 76 4 16 4
EQIV $1 -0.5+X,0.5-Y,1-Z
EQIV $2 -0.5+X,1.5-Y,1-Z

L.S. 4 0 0
PLAN  20
HTAB O1 O2_$1
HTAB O2 O1
HTAB N1 O4_$2
BOND $H
LIST 6
fmap 2 53
MORE -1
ACTA 52
CONF
HTAB
REM <olex2.extras>
REM <HklSrc "%.\\mx3866.hkl">
REM </olex2.extras>

WGHT    0.035900    0.912100
FVAR       0.79715
S1    5    0.602267    0.608015    0.550007    11.00000    0.02336    0.02432 =
         0.02631    0.00334    0.00093   -0.00362
O1    4    0.092424    0.328334    0.548091    11.00000    0.03316    0.02360 =
         0.04746   -0.00906    0.00681   -0.00815
O2    4    0.282544    0.282664    0.435297    11.00000    0.03519    0.02690 =
         0.04045   -0.01238   -0.00106    0.00028
O3    4    0.705420    0.505916    0.522371    11.00000    0.02492    0.04316 =
         0.03142   -0.00430    0.00444    0.00576
O4    4    0.642652    0.739938    0.533125    11.00000    0.04011    0.03158 =
         0.03820    0.01388    0.00002   -0.01426
N1    3    0.407352    0.587474    0.524384    11.00000    0.02574    0.01877 =
         0.03033    0.00556   -0.00255   -0.00050
C1    1    0.328274    0.459033    0.520957    11.00000    0.02535    0.01777 =
         0.02932    0.00073   -0.00151    0.00003
AFIX  13
H1B   2    0.396396    0.399675    0.549673    11.00000   -1.20000
AFIX   0
C2    1    0.143226    0.461917    0.549153    11.00000    0.02416    0.02053 =
         0.02892   -0.00082   -0.00324   -0.00275
AFIX  13
H2A   2    0.070017    0.510919    0.516963    11.00000   -1.20000
AFIX   0
C3    1    0.336146    0.413981    0.444997    11.00000    0.02765    0.02580 =
         0.02736   -0.00428   -0.00238    0.00032
AFIX  23
H3A   2    0.263277    0.469512    0.416880    11.00000   -1.20000
H3B   2    0.453443    0.423249    0.428181    11.00000   -1.20000
AFIX   0
C4    1    0.129111    0.518925    0.621526    11.00000    0.02129    0.02361 =
         0.02839    0.00109    0.00195   -0.00302
C5    1    0.057125    0.641883    0.630614    11.00000    0.02652    0.02459 =
         0.03332    0.00139    0.00157   -0.00014
AFIX  43
H5    2    0.017695    0.687828    0.592065    11.00000   -1.20000
AFIX   0
C6    1    0.044631    0.694938    0.696678    11.00000    0.03418    0.02707 =
         0.04046   -0.00920    0.00331   -0.00104
AFIX  43
H6    2   -0.003342    0.776469    0.702200    11.00000   -1.20000
AFIX   0
C7    1    0.102213    0.628688    0.754261    11.00000    0.03912    0.04229 =
         0.03157   -0.00993    0.00883   -0.01295
AFIX  43
H7    2    0.093593    0.665129    0.798526    11.00000   -1.20000
AFIX   0
C8    1    0.173861    0.506081    0.745799    11.00000    0.03882    0.04170 =
         0.02880    0.00908   -0.00441   -0.00975
AFIX  43
H8    2    0.214031    0.460830    0.784464    11.00000   -1.20000
AFIX   0
C9    1    0.184978    0.452108    0.679902    11.00000    0.03252    0.02706 =
         0.03274    0.00231   -0.00221   -0.00271
AFIX  43
H9    2    0.230627    0.369760    0.674718    11.00000   -1.20000
AFIX   0
C10   1    0.607632    0.592964    0.641316    11.00000    0.02004    0.01873 =
         0.02890    0.00169   -0.00235   -0.00205
C11   1    0.679696    0.484666    0.671982    11.00000    0.02845    0.01731 =
         0.02957    0.00043    0.00123    0.00044
AFIX  43
H11   2    0.721316    0.417576    0.644512    11.00000   -1.20000
AFIX   0
C12   1    0.688859    0.477781    0.744330    11.00000    0.03012    0.02335 =
         0.03189    0.00747   -0.00233    0.00054
AFIX  43
H12   2    0.737690    0.405347    0.765027    11.00000   -1.20000
AFIX   0
C13   1    0.626942    0.576342    0.786619    11.00000    0.02599    0.03074 =
         0.02782   -0.00141   -0.00351   -0.00753
C14   1    0.551524    0.682347    0.754541    11.00000    0.03197    0.02627 =
         0.03417   -0.00821   -0.00116    0.00363
AFIX  43
H14   2    0.505945    0.747815    0.782128    11.00000   -1.20000
AFIX   0
C15   1    0.542467    0.693033    0.682393    11.00000    0.02907    0.01874 =
         0.03513   -0.00167   -0.00394    0.00077
AFIX  43
H15   2    0.493848    0.765571    0.661721    11.00000   -1.20000
AFIX   0
C16   1    0.640428    0.568700    0.864688    11.00000    0.04567    0.05552 =
         0.02947   -0.00013   -0.00572   -0.00241
AFIX 137
H16A  2    0.670393    0.482403    0.878142    11.00000   -1.50000
H16B  2    0.531741    0.591567    0.885218    11.00000   -1.50000
H16C  2    0.727782    0.627237    0.880678    11.00000   -1.50000
AFIX   0
H1    2   -0.021512    0.319299    0.551749    11.00000    0.05453
H2    2    0.209591    0.267265    0.472341    11.00000    0.05865
H1A   2    0.360196    0.651362    0.515524    11.00000    0.04682
HKLF 4

REM  mx3866_a.res in P2(1)2(1)2(1)
REM R1 =  0.0513 for    3353 Fo > 4sig(Fo)  and  0.0542 for all    3519 data
REM    212 parameters refined using      0 restraints

END

WGHT      0.0359      0.9121

REM Instructions for potential hydrogen bonds
EQIV $3 x+1/2, -y+1/2, -z+1
HTAB C11 O2_$3
HTAB O1 O2_$1
HTAB O2 O1
HTAB N1 O4_$2

REM Highest difference peak  0.272,  deepest hole -0.307,  1-sigma level  0.052
Q1    1   0.7649  0.5256  0.8774  11.00000  0.05    0.27
Q2    1   0.6827  0.5424  0.7582  11.00000  0.05    0.23
Q3    1   0.6990  0.5936  0.5018  11.00000  0.05    0.23
Q4    1   0.5669  0.6393  0.6600  11.00000  0.05    0.22
Q5    1   0.5182  0.6186  0.6018  11.00000  0.05    0.22
Q6    1   0.6852  0.6041  0.6003  11.00000  0.05    0.22
Q7    1   0.4359  0.5696  0.6417  11.00000  0.05    0.21
Q8    1   0.4385  0.5945  0.7788  11.00000  0.05    0.20
Q9    1   0.5964  0.5590  0.4782  11.00000  0.05    0.19
Q10   1   0.5369  0.7625  0.4842  11.00000  0.05    0.18
Q11   1   0.7918  0.6203  0.7648  11.00000  0.05    0.18
Q12   1   0.1580  0.3165  0.3988  11.00000  0.05    0.18
Q13   1   0.0930  0.6856  0.6618  11.00000  0.05    0.18
Q14   1   0.6008  0.6399  0.8832  11.00000  0.05    0.17
Q15   1   0.4858  0.7356  0.5334  11.00000  0.05    0.17
Q16   1   0.2113  0.5993  0.5404  11.00000  0.05    0.17
Q17   1   0.7799  0.7485  0.9037  11.00000  0.05    0.17
Q18   1   0.5612  0.4861  0.9029  11.00000  0.05    0.17
Q19   1   0.7400  0.4963  0.7162  11.00000  0.05    0.17
Q20   1   0.5975  0.6029  0.6227  11.00000  0.05    0.17
;
_shelx_res_checksum              66488
_shelx_hkl_file
;
   0   0   1    0.06    0.28
   0   0  -1    0.92    0.41
   0   0  -1   -0.38    0.23
   0   0   1   -0.26    0.23
   0   0   2 2470.26   45.16
   0   0  -2 2457.41   44.93
   0   0  -2 2428.94   44.29
   0   0   3    1.51    1.63
   0   0  -3    6.00    2.33
   0   0  -3   -1.14    0.85
   0   0   3    1.51    0.94
   0   0   4 9124.35  228.75
   0   0  -4 9420.40  236.19
   0   0  -4 8817.83  220.93
   0   0   5    1.76    1.81
   0   0  -5    2.78    1.62
   0   0  -5    3.28    1.77
   0   0   5    0.09    1.86
   0   0   6   19.32    2.58
   0   0  -6   12.24    1.81
   0   0  -6   16.03    2.47
   0   0   6   13.03    1.57
   0   0  -7    3.10    1.72
   0   0  -7    4.93    2.34
   0   0   7    5.80    1.93
   0   0   8  298.93    9.47
   0   0  -8  269.67    8.73
   0   0  -8  284.91    8.86
   0   0   8  270.13    8.30
   0   0   9   -0.10    2.19
   0   0  -9    3.35    1.61
   0   0  -9    2.15    1.96
   0   0  10 7875.20  241.75
   0   0 -10 7036.40  216.30
   0   0 -10 6790.10  208.46
   0   0  11    1.81    1.74
   0   0 -11    5.01    1.64
   0   0 -11    3.64    1.61
   0   0  12 1625.96   63.16
   0   0 -12 1409.65   45.34
   0   0 -12 1500.47   59.34
   0   0  13    2.52    2.50
   0   0 -13    2.44    1.60
   0   0 -13   14.13    4.01
   0   0  14 1251.96   73.41
   0   0 -14 1186.16   70.88
   0   0  15    8.20    3.02
   0   0 -15    9.11    3.56
   0   0  16  740.57   27.81
   0   0 -16  721.71   28.82
   0   0  17   10.29    4.14
   0   0 -17    3.49    2.62
   0   0  18   34.99    5.89
   0   0 -18   47.98    9.76
   0   0  19    3.76    3.13
   0   0 -19    5.07    2.81
   0   0  20   76.76    7.66
   0   0 -20   81.13   11.80
   0   0  21    2.25    1.88
   0   0 -21   12.81    3.88
   0   0  22    8.41    3.24
   0   0 -22   15.14    5.37
   0   0 -23    4.13    3.15
   0   1   0    1.47    0.77
   0  -1   0    0.88    0.56
   0   1  -1  286.65    5.53
   0  -1   1  292.91    5.65
   0   1   1  296.38    6.11
   0  -1  -1  235.44    5.13
   0   1   1  278.42    5.80
   0   1  -2 8425.80  210.92
   0   1  -3  142.26    3.03
   0  -1   3  172.40    3.59
   0   1   3  162.55    4.69
   0  -1  -3  159.01    4.37
   0   1  -3  155.10    3.79
   0  -1   3  149.97    4.24
   0  -1  -3  155.18    4.00
   0   1   3  155.46    3.99
   0  -1   4 1211.91   22.27
   0   1   4 1380.27   26.67
   0  -1  -4 1280.16   24.64
   0   1  -4 1393.67   26.37
   0  -1   4 1311.64   24.72
   0  -1  -4 1252.97   23.81
   0   1   4 1287.11   24.48
   0   1   5  777.23   16.15
   0  -1  -5  711.94   14.74
   0  -1   5  748.10   14.90
   0   1  -5  717.46   14.52
   0  -1   5  735.13   14.52
   0  -1  -5  724.32   14.60
   0   1   5  736.01   14.79
   0   1   6 3797.47   70.77
   0  -1  -6 3429.69   64.02
   0   1  -6 3448.37   63.62
   0  -1   6 3300.99   60.86
   0  -1  -6 3581.45   66.26
   0   1   6 3511.81   64.94
   0   1   7 1086.80   22.28
   0  -1  -7 1017.51   20.89
   0  -1   7 1062.44   21.11
   0   1  -7 1023.96   20.59
   0  -1   7 1035.69   20.30
   0  -1  -7  975.16   19.52
   0   1   7 1035.57   20.58
   0  -1   8 5966.01  146.74
   0  -1  -8 6597.06  163.62
   0  -1   8 7173.19  177.29
   0   1  -8 7279.80  179.82
   0  -1  -8 7327.19  181.06
   0   1   8 7177.00  177.40
   0  -1   9    8.53    0.93
   0   1   9    0.56    2.46
   0  -1   9   12.70    2.29
   0  -1  -9    9.92    2.00
   0   1  -9   11.26    1.87
   0  -1   9    8.45    1.88
   0  -1  -9   12.82    3.14
   0   1   9    4.53    1.50
   0  -1  10  409.65   10.71
   0   1  10  552.73   16.27
   0  -1  10  542.99   15.43
   0  -1 -10  500.93   14.94
   0   1 -10  459.81   14.34
   0  -1 -10  510.93   14.79
   0  -1  11    3.44    0.74
   0   1  11    6.06    2.08
   0  -1  11    0.33    1.48
   0   1 -11    4.24    2.52
   0  -1 -11    3.72    2.66
   0  -1  12  417.59   13.41
   0   1  12  511.38   18.04
   0  -1  12  541.74   18.57
   0   1 -12  558.24   21.65
   0  -1 -12  551.48   19.20
   0  -1  13  406.15   16.06
   0   1  13  574.32   23.98
   0  -1  13  580.76   23.80
   0   1 -13  530.13   23.22
   0  -1 -13  602.35   24.96
   0  -1  14    5.16    1.26
   0   1  14    2.46    2.36
   0  -1  14    2.65    1.72
   0   1 -14   12.23    3.49
   0  -1 -14    6.77    2.90
   0   1  15   25.27    4.21
   0  -1  15   11.08    2.36
   0   1 -15   17.11    2.39
   0  -1 -15   18.63    3.83
   0   1  16  269.84   12.77
   0  -1  16  242.73   11.05
   0   1 -16  242.62   20.87
   0  -1 -16  215.77   14.29
   0   1  17  122.13   10.15
   0  -1  17  115.14    9.57
   0   1 -17  105.06    9.80
   0  -1 -17  100.26   14.77
   0   1  18   12.95    3.21
   0  -1  18   15.86    3.52
   0   1 -18   29.49    6.75
   0  -1 -18   32.17    7.81
   0   1  19    6.22    2.57
   0  -1  19   12.00    3.59
   0   1 -19   11.62    2.84
   0  -1 -19    1.52    2.79
   0   1  20   12.68    4.16
   0  -1  20    8.07    2.79
   0   1 -20   19.57    4.95
   0  -1 -20   32.15    8.79
   0   1  21   14.07    4.12
   0  -1  21    6.31    2.27
   0   1 -21   29.84    6.84
   0  -1 -21   27.41   10.52
   0   1  22   11.74    4.68
   0   1 -22   17.05    4.85
   0  -1 -22   20.78    6.47
   0   1  23    8.89    2.80
   0   1 -23    9.78    5.26
   0  -1 -23   18.04    6.13
   0   1 -24   39.18    9.80
   0  -1 -24   21.05    6.75
   0  -2   1 9999.00  250.36
   0   2  -2    6.80    1.02
   0  -2   2    6.37    1.08
   0   2   2    6.17    1.51
   0  -2  -2    9.95    1.89
   0  -2  -2    5.80    1.58
   0   2   2    5.92    1.92
   0   2  -3  995.49   18.64
   0  -2   3  934.83   17.54
   0   2   3 1137.86   22.44
   0  -2  -3  965.00   19.25
   0  -2   3  993.55   19.41
   0  -2  -3 1045.06   20.59
   0   2   3 1024.64   20.08
   0   2  -4  123.28    3.05
   0   2   4  139.50    4.76
   0  -2  -4  110.71    4.15
   0  -2   4  139.61    6.38
   0  -2  -4  121.19    4.22
   0   2   4  132.52    4.36
   0  -2   5 1046.31   19.55
   0   2   5 1244.56   24.90
   0  -2  -5 1060.03   21.47
   0   2  -5 1058.54   20.75
   0  -2   5 1178.85   22.90
   0  -2  -5 1100.07   21.72
   0   2   5 1101.70   21.75
   0   2   6  334.27    8.99
   0  -2  -6  279.12    7.61
   0   2  -6  292.07    8.79
   0  -2   6  298.47    7.93
   0  -2  -6  287.40    7.44
   0   2   6  301.52    7.48
   0  -2   7    1.03    0.64
   0   2   7    0.58    2.72
   0  -2  -7    3.20    2.05
   0   2  -7    3.89    2.69
   0  -2   7    1.75    1.14
   0  -2  -7    5.41    3.07
   0   2   7    0.44    2.09
   0  -2   8 2237.29   56.57
   0   2   8 2358.56   61.30
   0  -2   8 2103.47   54.17
   0   2  -8 2035.99   52.42
   0  -2  -8 2090.47   53.95
   0   2   8 2009.93   51.92
   0  -2   9  938.75   24.20
   0  -2  -9  900.30   25.07
   0  -2   9  971.60   26.04
   0   2  -9  972.00   26.16
   0  -2   9  882.90   25.22
   0  -2  -9  956.27   25.96
   0  -2  10   77.85    3.29
   0   2  10   88.94    5.42
   0  -2  10   81.49    4.10
   0   2 -10  108.28   11.35
   0  -2 -10   85.75    5.36
   0  -2  11    3.20    0.56
   0   2  11    3.41    2.51
   0  -2  11   11.39    2.13
   0   2 -11    5.38    1.79
   0  -2 -11    6.23    2.88
   0  -2  12    8.43    1.28
   0   2  12   18.07    3.34
   0  -2  12    5.78    1.44
   0   2 -12   10.85    2.30
   0  -2 -12    5.60    2.65
   0  -2  13  551.34   22.25
   0   2  13  578.81   24.32
   0  -2  13  584.12   23.79
   0   2 -13  626.05   27.63
   0  -2 -13  549.33   23.07
   0  -2  14   58.35    8.62
   0   2  14   80.12    6.92
   0  -2  14   83.28    6.68
   0   2 -14  105.49   11.27
   0  -2 -14   86.65    7.18
   0  -2  15  158.13    8.45
   0   2  15  227.75   12.58
   0  -2  15  191.48   10.08
   0   2 -15  225.25   23.40
   0  -2 -15  176.16    9.84
   0   2  16    9.46    5.38
   0  -2  16    1.72    1.49
   0   2 -16    3.79    3.54
   0  -2 -16    5.77    3.11
   0   2  17   36.42    5.30
   0  -2  17   45.95    4.87
   0   2 -17   50.67    8.86
   0  -2 -17   58.85    6.55
   0   2  18   10.29    3.80
   0  -2  18    0.70    1.80
   0   2 -18    4.51    3.32
   0  -2 -18   -0.30    2.92
   0   2  19   56.48   11.78
   0  -2  19   35.27    7.66
   0   2 -19   61.70   15.07
   0  -2 -19   59.05   15.13
   0   2  20   25.22    5.98
   0  -2  20   14.68    3.83
   0   2 -20   21.38    5.66
   0  -2 -20   15.10    4.02
   0   2  21   24.85    6.34
   0   2 -21   23.23    5.18
   0  -2 -21   25.32    7.28
   0   2  22    2.32    2.47
   0   2 -22    5.75    2.17
   0  -2 -22    5.25    2.28
   0   2  23   27.41    6.85
   0   2 -23   34.17    7.28
   0  -2 -23   38.85   11.10
   0   2 -24    2.58    2.84
   0  -2 -24    9.37    2.92
   0   3   0    5.30    2.88
   0  -3   0    1.48    1.76
   0   3  -1   26.05    2.13
   0  -3   1   19.38    1.72
   0   3   1   26.47    2.66
   0  -3  -1   25.03    2.16
   0   3  -2   53.88    2.57
   0  -3   2   48.28    2.28
   0   3   2   50.94    3.04
   0  -3  -2   44.77    2.70
   0  -3  -2   58.21    3.09
   0   3  -3 1454.36   27.34
   0   3   3 1508.08   29.31
   0  -3  -3 1503.35   29.37
   0   3   3 1321.16   25.81
   0  -3   4    8.00    1.04
   0   3   4   13.34    2.61
   0  -3  -4    9.18    2.15
   0  -3   4   14.73    1.98
   0  -3  -4   10.34    2.15
   0   3   4   13.14    2.14
   0   3  -5 1197.35   22.49
   0  -3   5 1269.28   23.90
   0   3   5 1359.60   27.15
   0  -3  -5 1226.02   24.79
   0  -3   5 1272.67   25.41
   0  -3  -5 1332.76   26.50
   0   3   5 1290.08   25.45
   0   3  -6    5.98    1.43
   0  -3   6    2.97    1.39
   0   3   6    5.30    2.51
   0  -3  -6    2.97    2.02
   0  -3   6    4.06    2.09
   0  -3  -6    8.80    2.36
   0   3   6    9.23    2.85
   0   3  -7   30.23    3.08
   0  -3   7   25.77    1.60
   0   3   7   21.75    3.55
   0  -3  -7   25.62    2.87
   0  -3   7   31.34    4.80
   0  -3  -7   22.23    2.49
   0   3   7   20.24    2.14
   0   3  -8    8.99    1.96
   0  -3   8    3.19    1.50
   0   3   8    1.38    2.99
   0   3  -8   -0.15    1.67
   0  -3   8    0.28    0.94
   0  -3  -8    6.07    2.73
   0  -3   9   99.41    3.35
   0   3   9  102.74    6.13
   0  -3  -9  100.39    5.13
   0  -3  10   69.18    7.05
   0   3  10  109.40    6.81
   0  -3  10   75.63    4.08
   0   3 -10   90.28    5.38
   0  -3 -10   81.80    4.97
   0  -3  11  304.69   10.25
   0   3  11  412.19   15.90
   0  -3  11  346.43   12.35
   0   3 -11  357.59   16.97
   0  -3 -11  359.29   13.70
   0  -3  12   83.70    7.47
   0   3  12  104.36    7.22
   0  -3  12   83.38    4.97
   0   3 -12  104.10   12.57
   0  -3 -12  112.54    7.25
   0   3  13    1.11    2.59
   0  -3  13    2.38    1.41
   0   3 -13    4.87    2.03
   0  -3 -13   11.53    4.38
   0  -3  14  692.61   29.64
   0   3  14  932.03   41.43
   0  -3  14  817.83   35.78
   0   3 -14  851.34   40.13
   0  -3 -14  840.35   37.48
   0  -3  15   24.77    5.21
   0   3  15   69.51    5.99
   0  -3  15   52.33    3.96
   0   3 -15   86.79   10.60
   0  -3 -15   75.02    6.52
   0   3  16    8.25    3.47
   0  -3  16    1.66    1.49
   0   3 -16    4.24    1.70
   0  -3 -16    0.82    3.05
   0   3  17   11.00    3.30
   0  -3  17    6.68    2.44
   0   3 -17   23.14    5.49
   0  -3 -17   16.35    4.85
   0   3  18  365.97   24.41
   0  -3  18  333.02   21.65
   0   3 -18  319.50   21.85
   0  -3 -18  351.90   23.29
   0   3  19  104.71   11.54
   0  -3  19   68.66    7.73
   0   3 -19   93.74   18.65
   0  -3 -19  102.64   11.08
   0   3  20   10.98    3.37
   0   3 -20   25.33    6.88
   0  -3 -20   15.64    4.89
   0   3  21   30.70    7.89
   0   3 -21   33.19   10.06
   0  -3 -21   29.10    6.74
   0   3  22    4.74    2.63
   0   3 -22    3.85    1.99
   0  -3 -22    6.62    3.23
   0   3  23    5.37    3.40
   0   3 -23    3.07    2.81
   0  -3 -23    7.69    3.92
   0   3  24   30.16    6.06
   0   3 -24   38.26   19.33
   0  -3 -24   64.68   22.13
   0   4   0  383.99    9.06
   0  -4   0  370.51    8.60
   0   4  -1  556.19   11.87
   0   4   1  587.43   12.81
   0  -4   1  506.06   10.86
   0  -4  -1  528.30   11.75
   0   4  -2   29.05    2.08
   0  -4   2   27.73    2.08
   0   4   2   32.48    2.55
   0  -4  -2   36.05    2.53
   0  -4  -2   36.55    2.85
   0  -4   3 1889.03   48.37
   0   4   3 1804.59   46.84
   0  -4  -3 1851.70   48.23
   0  -4  -3 1965.72   50.99
   0   4  -4  433.39   11.95
   0  -4   4  450.58   12.45
   0   4   4  396.97   12.00
   0  -4  -4  424.51   12.81
   0  -4  -4  341.87   10.80
   0   4  -5   36.69    2.25
   0  -4   5   32.42    1.86
   0   4   5   39.35    3.45
   0  -4   5   37.72    4.67
   0  -4  -5   32.31    3.07
   0   4  -6  221.36    6.69
   0  -4   6  219.95    6.60
   0   4   6  239.28    8.65
   0  -4   6  214.45    8.94
   0  -4  -6  251.70    8.66
   0   4  -7    2.11    1.15
   0  -4   7    2.01    0.86
   0   4   7    2.21    3.40
   0  -4  -7    1.96    2.60
   0   4  -8   99.65    4.79
   0  -4   8   93.05    3.28
   0   4   8  114.28    6.25
   0  -4  -8  109.41    5.48
   0   4  -9  531.96   17.23
   0  -4   9  459.01   14.84
   0   4   9  582.22   20.91
   0  -4  -9  478.64   16.98
   0   4 -10  423.50   14.01
   0  -4  10  500.45   16.16
   0   4  10  512.89   18.88
   0  -4 -10  489.80   17.76
   0  -4  11   66.98    3.48
   0   4  11   60.01    5.57
   0  -4 -11   72.84    5.35
   0   4  12  548.82   33.50
   0  -4  12  517.52   30.98
   0   4 -12  464.48   28.35
   0  -4 -12  497.87   30.28
   0  -4  13  829.96   48.30
   0   4  13  973.56   58.01
   0  -4  13  931.43   54.83
   0   4 -13  828.07   52.25
   0  -4 -13  878.33   52.39
   0  -4  14  155.13    7.39
   0   4  14  192.87   11.39
   0  -4  14  163.64    8.69
   0   4 -14  170.99   10.93
   0  -4 -14  159.53   10.32
   0   4  15   23.66    3.98
   0  -4  15   43.46    3.62
   0   4 -15   45.95   11.94
   0  -4 -15   42.98    5.79
   0   4  16    9.31    3.06
   0  -4  16   11.81    2.67
   0   4 -16   27.17    5.12
   0  -4 -16    6.71    3.17
   0   4  17  253.46   18.09
   0  -4  17  226.07   15.21
   0   4 -17  219.82   16.79
   0  -4 -17  229.74   15.75
   0   4  18  140.08   14.42
   0  -4  18  120.93   12.21
   0   4 -18  121.47   23.47
   0  -4 -18  107.76   11.22
   0   4  19    1.04    2.31
   0   4 -19   12.64    4.48
   0  -4 -19    8.94    3.61
   0   4  20  400.24   87.95
   0   4 -20  309.68   35.94
   0  -4 -20  309.47   33.72
   0   4  21    8.87    4.00
   0   4 -21    7.78    2.96
   0  -4 -21    8.33    3.74
   0   4  22  247.24   38.02
   0   4 -22  205.11   35.74
   0  -4 -22  251.75   38.18
   0   4  23   17.97    5.44
   0   4 -23    4.95    4.43
   0  -4 -23   21.48    5.59
   0   5   0    1.29    2.14
   0   5  -1  313.14    9.49
   0   5   1  323.78   10.12
   0  -5   1  299.54    9.47
   0  -5  -1  293.88    9.34
   0   5   2   96.24    4.61
   0  -5   2   96.84    4.17
   0  -5  -2  117.57    5.56
   0   5  -3  508.98   14.23
   0  -5   3  484.92   13.74
   0   5   3  538.88   15.68
   0  -5  -3  546.31   16.20
   0   5  -4 1518.00   38.59
   0  -5   4 1456.15   37.21
   0   5   4 1449.91   37.92
   0  -5  -4 1469.47   38.63
   0   5  -5    7.08    2.13
   0  -5   5    6.19    1.21
   0   5   5    6.93    2.28
   0  -5  -5   10.39    3.12
   0   5  -6   86.76    3.70
   0  -5   6   85.02    3.65
   0   5   6   92.69    5.05
   0  -5  -6   87.41    4.98
   0   5  -7  106.01    7.77
   0  -5   7  102.76    4.44
   0   5   7  103.41    6.26
   0  -5  -7   88.89    5.43
   0   5  -8  127.31   10.09
   0  -5   8   76.06    3.58
   0   5   8   77.71    5.37
   0  -5  -8   74.48    4.86
   0   5  -9  124.69    8.01
   0  -5   9  103.20    4.99
   0   5   9  137.97    8.36
   0  -5  -9  112.80    7.03
   0   5 -10   45.49    6.30
   0  -5  10   45.13    2.92
   0   5  10   49.59    4.95
   0  -5 -10   44.92    4.81
   0   5 -11    5.47    1.67
   0  -5  11    7.23    1.51
   0   5  11   -0.27    2.81
   0  -5 -11    5.97    2.95
   0  -5  12  498.43   21.70
   0   5  12  569.96   26.74
   0  -5 -12  541.64   25.00
   0  -5  13    1.92    1.24
   0   5  13   10.30    3.51
   0  -5  13   13.91    2.69
   0  -5 -13   -0.16    3.35
   0   5  14  133.97    8.88
   0  -5  14  141.60    7.78
   0  -5 -14  131.49    8.93
   0   5  15  107.22    9.63
   0  -5  15  122.67    9.52
   0  -5 -15  134.55    8.34
   0   5  16    2.99    2.80
   0  -5  16    1.18    1.53
   0  -5 -16    8.37    3.34
   0   5  17   53.21   11.08
   0  -5  17   46.97    9.33
   0  -5 -17   91.51    9.93
   0   5  18  151.21   13.92
   0  -5 -18  158.99   13.62
   0   5  19    6.52    3.20
   0  -5 -19   18.20    6.40
   0   5  20    7.31    3.27
   0  -5 -20    5.30    4.55
   0   5  21    5.23    3.84
   0  -5 -21    8.97    4.75
   0   5  22   10.52    4.17
   0  -5 -22   18.53    4.81
   0   5  23   11.55    4.51
   0  -5 -23   31.56    6.48
   0   6   0   10.53    2.23
   0   6  -1  106.79    4.89
   0   6   1  110.09    5.83
   0   6  -2 1227.30   31.98
   0   6   2 1259.92   33.42
   0  -6  -2 1196.38   32.31
   0   6  -3  147.16    6.15
   0   6   3  140.98    6.82
   0  -6  -3  133.09    6.83
   0   6  -4   27.82    2.95
   0   6   4   22.07    3.03
   0  -6  -4   33.68    3.76
   0   6  -5  374.78   12.95
   0   6   5  385.70   14.26
   0  -6   5  356.26   12.63
   0  -6  -5  381.26   14.54
   0   6  -6   39.46    2.99
   0  -6   6   26.90    2.33
   0   6   6   36.26    3.93
   0  -6  -6   26.25    3.67
   0   6  -7  275.40   14.36
   0  -6   7  251.42   10.97
   0   6   7  242.18   11.80
   0  -6  -7  269.83   12.85
   0   6  -8  376.08   15.37
   0  -6   8  392.51   16.15
   0   6   8  402.30   17.74
   0  -6  -8  406.28   18.17
   0   6  -9  486.11   28.90
   0   6   9  449.28   27.81
   0  -6  -9  433.19   26.78
   0   6 -10  123.44    9.82
   0  -6  10  103.53    7.02
   0   6  10  143.61   10.73
   0  -6 -10  124.63    9.16
   0   6 -11   81.17    7.03
   0  -6  11   81.62    4.77
   0   6  11   93.37    7.13
   0  -6 -11  106.14    7.99
   0   6 -12  796.20   28.46
   0   6  12  704.33   27.52
   0  -6 -12  624.03   24.74
   0   6 -13   11.41    1.69
   0   6  13   24.00    4.66
   0  -6 -13   24.31    5.33
   0   6  14  268.02   20.05
   0  -6  14  213.57   15.50
   0  -6 -14  226.95   16.83
   0   6  15  233.80   16.93
   0  -6  15  199.52   13.67
   0  -6 -15  244.43   17.12
   0   6  16  198.68   19.77
   0  -6  16  139.77   13.54
   0  -6 -16  167.26   17.36
   0   6  17  185.18   16.10
   0  -6 -17  160.55   14.22
   0   6  18   46.54    6.62
   0  -6 -18   60.87    8.25
   0   6  19   11.70    4.88
   0  -6 -19   15.39    6.06
   0   6  20   20.70    5.73
   0  -6 -20   10.76    3.88
   0   6  21   10.09    4.23
   0  -6 -21    0.18    3.33
   0   6  22   91.94   14.19
   0  -6 -22  121.01   18.35
   0   7   0    9.29    2.70
   0   7  -1 2381.29  138.09
   0   7   1 2329.04   90.02
   0  -7  -1 2298.86   89.35
   0   7  -2  444.25   18.62
   0   7   2  411.13   17.67
   0  -7  -2  408.31   18.68
   0   7  -3  926.27   36.68
   0   7   3  861.84   34.79
   0  -7  -3  902.45   36.83
   0   7  -4  177.05    8.58
   0   7   4  165.54    8.66
   0  -7  -4  156.46    8.92
   0   7  -5   93.29    6.77
   0   7   5  104.49    8.38
   0  -7  -5   92.33    7.87
   0   7  -6    5.15    2.98
   0   7   6   14.76    3.90
   0  -7  -6    2.51    3.75
   0   7  -7   35.49    3.36
   0   7   7   30.36    4.27
   0  -7  -7   29.53    4.78
   0   7  -8   17.83    3.66
   0   7   8    8.37    3.67
   0  -7  -8    9.28    3.78
   0   7  -9  955.06   41.73
   0   7   9  988.46   44.08
   0  -7  -9  902.05   40.40
   0   7 -10   21.59    2.98
   0   7  10   12.39    4.65
   0  -7 -10   20.22    4.95
   0   7 -11  779.03   32.02
   0   7  11  775.08   33.26
   0  -7 -11  726.08   31.41
   0   7 -12  248.37   18.90
   0   7  12  229.32   17.17
   0  -7 -12  249.22   18.49
   0   7 -13   95.14    9.69
   0   7  13  104.82    9.71
   0  -7 -13  111.46   10.40
   0   7 -14   44.24    5.35
   0   7  14   66.01    9.52
   0  -7 -14   50.80    8.10
   0   7  15  185.29   18.59
   0  -7 -15  129.38   13.32
   0   7  16    3.62    3.39
   0  -7 -16    7.36    4.81
   0   7  17    6.21    3.36
   0  -7 -17    9.19    4.91
   0   7  18   19.49    5.90
   0  -7 -18   11.43    5.14
   0   7  19   10.70    4.54
   0  -7 -19   11.91    4.40
   0   7  20   26.16    5.40
   0  -7 -20   79.66   10.90
   0   7  21  116.14   17.78
   0  -7 -21  122.39   18.06
   0   8   0   49.81    4.94
   0   8  -1  613.69   36.64
   0   8   1  620.88   37.09
   0  -8  -1  629.61   38.11
   0   8  -2  215.09   13.92
   0   8   2  205.81   13.84
   0  -8  -2  215.15   14.71
   0   8  -3  725.49   32.04
   0   8   3  761.19   34.00
   0  -8  -3  754.39   34.11
   0   8  -4   41.85    4.00
   0   8   4   38.78    4.31
   0  -8  -4   39.24    6.40
   0   8  -5 1560.42   66.86
   0   8   5 1443.76   62.62
   0  -8  -5 1433.81   62.67
   0   8  -6   70.74    4.72
   0   8   6   85.65    6.80
   0  -8  -6   73.76    6.05
   0   8  -7 1902.56   66.27
   0   8   7 1907.53  123.40
   0  -8  -7 1910.22  123.72
   0   8  -8  160.26   13.59
   0   8   8  121.88   10.39
   0  -8  -8  140.06   10.28
   0   8  -9   99.76   11.13
   0   8   9   75.85    7.59
   0  -8  -9   79.97    7.75
   0   8 -10  324.92   23.84
   0   8  10  327.08   23.43
   0  -8 -10  279.35   20.91
   0   8 -11   33.72    5.92
   0   8  11   44.59    7.56
   0  -8 -11   38.25    6.42
   0   8 -12   12.84    2.27
   0   8  12   13.66    5.67
   0  -8 -12   23.82    4.79
   0   8 -13   46.70   10.45
   0   8  13   54.29   11.71
   0  -8 -13   71.04    9.29
   0   8  14   95.11   10.02
   0  -8 -14   89.41    9.21
   0   8  15   89.41    9.21
   0  -8 -15   96.66    9.23
   0   8  16    9.47    3.54
   0  -8 -16    8.04    4.61
   0   8  17   35.58    8.67
   0  -8 -17   66.54    8.65
   0   8  18    6.11    3.23
   0  -8 -18    4.65    4.11
   0   8  19    6.14    3.39
   0  -8 -19    4.36    4.09
   0  -8 -20    9.31    5.36
   0   9   0    5.04    2.94
   0  -9   0    8.44    5.14
   0   9  -1   15.58    4.22
   0   9   1   55.62    5.25
   0  -9  -1   24.74    5.52
   0   9  -2   71.80    6.45
   0   9   2   62.97    6.58
   0  -9  -2   65.62    6.56
   0   9  -3   13.10    4.37
   0   9   3    7.61    3.44
   0  -9  -3    8.50    3.81
   0   9  -4   23.41    3.75
   0   9   4   13.87    3.09
   0  -9  -4   12.65    5.56
   0   9  -5  356.59   16.02
   0   9   5  357.46   16.82
   0  -9  -5  317.66   15.80
   0   9  -6   13.88    3.00
   0   9   6   30.31    5.52
   0  -9  -6   17.60    4.71
   0   9  -7    6.39    3.86
   0   9   7    9.88    4.99
   0  -9  -7    6.69    3.89
   0   9  -8   70.00    9.91
   0   9   8   78.56    7.49
   0  -9  -8   72.40   10.31
   0   9  -9   43.30    7.27
   0   9   9   56.15    8.46
   0  -9  -9   70.78   10.52
   0   9 -10  105.37   14.00
   0   9  10  114.12   12.40
   0  -9 -10  101.16   11.11
   0   9 -11  125.56   16.12
   0   9  11  150.84   13.59
   0  -9 -11  120.34   12.13
   0   9 -12    4.53    1.62
   0   9  12    3.46    3.05
   0  -9 -12    8.70    5.00
   0   9  13   10.20    3.90
   0  -9 -13   18.91    6.98
   0   9  14    7.70    4.86
   0  -9 -14    9.72    4.77
   0   9  15   88.92   10.97
   0  -9 -15   69.57    8.43
   0   9  16    8.30    4.83
   0  -9 -16   18.35    5.62
   0   9  17   16.74    6.24
   0  -9 -17    6.64    3.96
   0   9  18    9.72    4.84
   0  -9 -18   37.22    8.72
   0  10   0  586.37  108.13
   0 -10   0  582.70   37.66
   0  10  -1   60.16    7.91
   0  10   1   59.38    8.12
   0 -10  -1   67.01   10.03
   0 -10   1   66.95    9.74
   0  10  -2   11.26    4.91
   0  10   2    9.64    3.30
   0 -10  -2   16.03    5.84
   0  10  -3  290.23   19.00
   0  10   3  271.32   18.39
   0 -10  -3  320.97   22.16
   0  10  -4   21.64    4.03
   0  10   4   30.62    5.39
   0 -10  -4   49.21    8.69
   0  10  -5   53.24   10.47
   0  10   5   67.83    8.46
   0 -10  -5   79.21   10.31
   0  10  -6   27.86    6.08
   0  10   6   18.11    4.79
   0 -10  -6   38.16    9.27
   0  10  -7    4.94    2.46
   0  10   7   16.62    4.59
   0 -10  -7    1.73    3.61
   0  10  -8   88.68   10.21
   0  10   8  102.83   10.13
   0 -10  -8  104.63   10.96
   0  10  -9    2.52    1.23
   0  10   9   12.93    5.99
   0 -10  -9    0.06    3.63
   0  10 -10  102.99   11.74
   0  10  10  115.96   10.80
   0 -10 -10  110.45   10.42
   0  10 -11    3.69    1.82
   0  10  11    9.93    3.76
   0 -10 -11    1.81    3.59
   0  10  12    1.77    4.21
   0 -10 -12   16.58    7.80
   0  10  13   97.12   11.35
   0 -10 -13   84.26   10.90
   0  10  14    1.18    3.31
   0 -10 -14   13.85    5.91
   0  10  15   67.87    9.93
   0 -10 -15   55.74    8.48
   0  10  16   41.25    8.21
   0 -10 -16   23.18    5.57
   0  11   0    5.76    3.90
   0 -11   0    4.56    3.58
   0  11  -1  119.37   10.45
   0  11   1  122.98   11.24
   0 -11  -1  116.66   11.22
   0 -11   1  147.75   13.63
   0  11  -2   42.59    5.04
   0  11   2   42.34    5.49
   0 -11  -2   30.81    7.49
   0 -11   2   61.21    8.28
   0  11  -3    7.27    3.86
   0  11   3   10.20    4.12
   0 -11  -3    2.93    4.31
   0  11  -4    9.83    3.92
   0  11   4   15.99    4.69
   0 -11  -4    9.59    4.68
   0  11  -5    4.60    2.47
   0  11   5   10.35    5.40
   0 -11  -5    5.33    5.89
   0  11  -6   13.45    3.87
   0  11   6   20.04    5.21
   0 -11  -6   29.57    8.06
   0  11  -7   43.30    5.83
   0  11   7   57.99    8.76
   0 -11  -7   60.01    9.70
   0  11  -8   21.71    4.83
   0  11   8   22.07    5.97
   0 -11  -8   32.41    8.83
   0  11  -9   19.02    5.31
   0  11   9   37.04    5.64
   0 -11  -9   41.77    7.07
   0  11  10    4.45    3.89
   0 -11 -10    4.65    3.94
   0  11  11   54.98    7.12
   0 -11 -11   77.31    9.56
   0  11  12    7.60    3.37
   0 -11 -12    9.62    4.68
   0  11  13  103.33   13.34
   0 -11 -13   96.17   12.78
   0  11  14   10.06    5.28
   0 -11 -14    0.35    4.04
   0  12   0   12.62    4.59
   0 -12   0   12.59    4.32
   0  12  -1   20.71    5.77
   0  12   1   22.55    6.30
   0 -12  -1    5.99    4.55
   0 -12   1   34.40    9.84
   0  12  -2    9.77    4.00
   0  12   2    7.79    3.23
   0 -12  -2    9.76    6.57
   0 -12   2    6.59    4.01
   0  12  -3   19.99    5.58
   0  12   3   30.51    8.01
   0 -12  -3   30.07    8.61
   0 -12   3   35.48    9.42
   0  12  -4   14.64    5.30
   0  12   4   11.25    4.51
   0 -12  -4    6.98    4.72
   0  12  -5   32.87    4.89
   0  12   5   38.17    6.01
   0 -12  -5   23.68    7.07
   0  12  -6   10.50    3.54
   0  12   6    7.61    3.34
   0 -12  -6   19.81    8.10
   0  12  -7   33.96    6.00
   0  12   7   60.85   10.68
   0 -12  -7   53.19   10.31
   0  12  -8   42.83    8.52
   0  12   8   40.29    7.36
   0 -12  -8   48.75   10.06
   0  12   9    3.97    2.76
   0 -12  -9    5.54    4.44
   0  12  10    6.85    3.01
   0 -12 -10   11.15    5.93
   0  12  11    2.08    2.95
   0 -12 -11   16.58    8.19
   0  13   0    6.69    2.91
   0 -13   0   12.30    6.27
   0  13  -1   77.51    9.44
   0  13   1   90.36   10.85
   0 -13  -1   92.90   13.37
   0 -13   1   65.96    9.45
   0  13  -2  112.70   13.07
   0  13   2   78.05    9.52
   0 -13  -2   89.85   12.75
   0 -13   2  101.74   12.95
   0  13  -3   25.74    4.81
   0  13   3   22.12    5.49
   0 -13  -3   30.01    7.09
   0 -13   3   37.76    6.92
   0  13  -4   25.22    5.47
   0  13   4   17.00    5.81
   0 -13  -4    3.55    4.18
   0 -13   4   19.70    5.84
   0  13  -5    2.92    2.53
   0  13   5    4.28    2.75
   0 -13  -5    4.52    4.46
   0 -13   5    4.55    5.18
   0  13  -6  212.64   29.63
   0  13   6  188.94   26.73
   0 -13  -6  239.22   34.35
  -1   0   0    1.00    0.59
   1   0   0    0.74    0.42
   1   0   0    1.13    0.56
  -1   0   0    2.01    0.49
   1   0   1  245.57    4.96
  -1   0   1  246.93    4.88
   1   0  -1  248.68    4.90
   1   0  -1  257.08    5.31
  -1   0   1  238.73    4.88
  -1   0   2   49.27    1.45
   1   0  -2   48.29    1.42
   1   0   2   59.89    3.22
   1   0  -2   51.33    1.93
  -1   0   2   51.33    1.88
  -1   0  -2   51.89    1.39
   1   0   2   50.47    1.37
  -1   0   3    4.14    0.63
   1   0  -3    3.73    0.68
   1   0   3   14.05    3.08
   1   0  -3   18.03    3.09
  -1   0   3   10.79    1.34
  -1   0  -3    7.91    0.91
   1   0   3    8.20    0.88
  -1   0   4 2535.88   46.39
   1   0  -4 2639.32   48.38
   1   0   4 2916.20   54.70
  -1   0  -4 2618.75   49.33
   1   0  -4 2836.86   52.41
  -1   0   4 2751.90   50.93
  -1   0  -4 2809.74   51.40
   1   0   4 2803.40   51.30
   1   0   5  188.76    6.08
  -1   0  -5  184.07    6.05
   1   0  -5  177.68    7.78
  -1   0   5  164.55    4.98
  -1   0  -5  178.21    4.49
   1   0   5  185.47    4.51
  -1   0   6 1485.91   27.84
   1   0  -6 1658.88   31.18
   1   0   6 1738.46   34.28
  -1   0  -6 1599.43   31.57
   1   0  -6 1623.27   31.01
  -1   0  -6 1652.97   31.08
  -1   0   6 1606.22   30.59
  -1   0   7 1202.78   23.02
   1   0  -7 1289.68   24.87
   1   0   7 1339.44   27.20
  -1   0  -7 1311.22   26.69
   1   0  -7 1290.53   25.58
  -1   0   7 1250.81   24.38
   1   0   7 1330.72   25.41
  -1   0   8  515.34   14.18
   1   0  -8  487.93   13.63
   1   0   8  523.82   15.69
   1   0  -8  487.39   13.95
  -1   0   8  493.40   13.87
   1   0   8  495.33   13.65
  -1   0   9 1096.26   28.89
   1   0  -9  973.66   25.80
  -1   0  -9  953.57   26.46
   1   0  -9  989.67   28.24
  -1   0  -9 1088.14   28.67
   1   0   9 1031.78   27.15
  -1   0  10  432.98   12.41
   1   0  10  423.30   13.20
   1   0 -10  416.34   12.12
  -1   0 -10  413.51   13.48
   1   0 -10  420.41   13.79
  -1   0 -10  437.72   12.67
   1   0  10  417.20   11.88
  -1   0  11   72.89    4.19
   1   0  11   58.62    4.54
   1   0 -11   58.03    3.89
   1   0 -11   75.83    9.89
  -1   0 -11   64.47    5.80
  -1   0  12  232.10    8.98
   1   0  12  207.17    9.22
   1   0 -12  222.17    8.86
   1   0 -12  208.73   17.60
  -1   0 -12  222.29    9.56
  -1   0  13  117.02    6.27
   1   0  13  123.38    7.18
   1   0 -13  101.54    6.02
   1   0 -13  103.40    8.76
  -1   0 -13  115.93   12.86
  -1   0  14    7.09    1.94
   1   0  14   11.65    3.34
   1   0 -14    2.60    2.01
   1   0 -14    2.07    1.70
  -1   0 -14    0.81    2.00
  -1   0  15   68.51    5.17
   1   0  15   62.08    5.62
   1   0 -15   62.59    9.66
  -1   0 -15   93.68   12.34
  -1   0  16   61.65    4.69
   1   0  16  100.41    7.31
   1   0 -16   92.55   10.41
  -1   0 -16   98.78    9.30
  -1   0  17   55.47    5.57
   1   0  17   59.06    6.75
   1   0 -17   63.54   10.05
  -1   0 -17   70.49   10.94
  -1   0  18    9.87    3.09
   1   0  18   14.89    4.11
   1   0 -18   16.28    5.76
  -1   0 -18   28.86    6.55
  -1   0  19   16.64    4.65
   1   0  19   11.44    4.81
   1   0 -19    6.61    2.25
  -1   0 -19   15.20    4.70
  -1   0  20    2.42    2.56
   1   0  20   18.30    4.97
   1   0 -20   12.85    4.48
  -1   0 -20   12.50    3.74
   1   0  21    2.56    2.43
   1   0 -21   15.15    5.52
  -1   0 -21    6.85    4.25
   1   0  22   44.43    6.69
  -1   0 -22   54.90   10.47
   1   0 -22   56.42   15.63
   1   0  23   14.05    4.02
   1   0 -23   47.74   10.40
  -1   0 -23   24.26    9.11
   1   0 -24    4.44    3.51
  -1   1   0   35.17    1.61
   1  -1   0   30.20    1.43
   1   1   0   35.56    2.09
  -1  -1   0   32.92    2.06
   1  -1   0   32.67    1.37
  -1   1   0   28.49    1.29
  -1   1  -1  725.27   13.72
   1  -1   1  801.38   15.14
  -1   1   1  852.27   16.15
   1  -1  -1  813.43   15.41
   1   1   1  764.59   15.08
   1   1  -1  806.45   15.35
  -1  -1  -1  822.02   16.39
  -1  -1   1  795.12   15.11
  -1  -1   1  782.46   15.00
   1  -1  -1  804.68   15.21
  -1   1   1  804.67   15.16
   1  -1   1  826.46   15.29
  -1   1  -2 1058.46   19.88
   1  -1   2 1046.29   19.68
  -1   1   2 1086.48   20.47
   1  -1  -2 1055.39   19.92
   1   1  -2 1119.77   20.64
   1   1   2 1039.96   20.34
  -1  -1  -2 1061.93   20.93
   1  -1   2 1099.84   20.18
   1   1  -2 1098.40   20.98
  -1  -1   2 1078.82   20.49
   1  -1  -2 1114.34   20.98
  -1   1   2 1054.86   19.94
  -1  -1  -2 1064.65   20.11
  -1   1  -3 2358.08   43.23
   1  -1   3 2579.79   47.28
  -1   1   3 2634.43   48.51
   1  -1  -3 2577.28   47.53
   1   1   3 2467.18   46.37
  -1  -1  -3 2450.82   46.31
  -1   1  -3 2603.77   47.48
   1   1  -3 2584.57   47.84
  -1  -1   3 2557.80   47.33
   1  -1  -3 2658.31   49.12
  -1   1   3 2496.09   46.10
  -1  -1  -3 2562.31   47.21
   1   1   3 2575.55   47.49
   1  -1   4 3598.69   65.73
  -1   1   4 3722.37   68.32
   1  -1  -4 3535.49   64.98
   1   1   4 3670.94   68.49
  -1  -1  -4 3515.37   65.79
  -1   1  -4 3861.83   70.46
   1   1  -4 3840.02   70.80
  -1  -1   4 3563.20   65.66
   1  -1  -4 3972.08   73.09
  -1   1   4 3619.60   66.59
  -1  -1  -4 3639.01   66.80
   1   1   4 3582.49   65.74
  -1   1  -5  424.46    8.57
   1  -1   5  450.24    9.19
  -1   1   5  497.16   10.58
   1  -1  -5  530.55   11.21
   1   1   5  508.25   12.07
  -1  -1  -5  466.50   11.14
   1   1  -5  446.35    9.80
  -1   1  -5  500.21   10.70
  -1  -1   5  496.95   10.99
   1  -1  -5  514.48   11.18
  -1   1   5  477.03   10.51
  -1  -1  -5  465.97    9.91
   1   1   5  508.22   10.60
   1  -1   6 2612.23   48.00
   1   1   6 2916.12   55.50
  -1  -1  -6 2837.36   54.12
   1   1  -6 2644.24   48.47
   1   1  -6 2838.27   52.96
  -1  -1   6 2608.31   48.66
   1  -1   6 2867.78   52.82
   1  -1  -6 2677.51   50.02
  -1  -1  -6 2836.80   52.58
  -1   1   7  703.81   14.70
  -1  -1   7  631.30   12.31
   1  -1  -7  759.93   15.85
   1   1   7  735.75   16.51
  -1  -1  -7  661.14   15.12
   1  -1   7  801.78   17.66
   1   1  -7  667.98   13.17
   1   1  -7  726.68   15.35
  -1  -1   7  725.27   15.31
   1  -1  -7  693.47   14.64
   1  -1   7  683.62   13.72
  -1  -1  -7  714.65   14.70
  -1   1   7  750.25   15.68
   1  -1   8 2124.66   53.93
  -1   1   8 2230.04   57.25
  -1  -1   8 1831.19   46.57
   1  -1  -8 2018.66   52.05
   1   1   8 2138.44   56.08
  -1  -1  -8 2028.73   53.24
   1   1  -8 2006.88   51.11
   1   1  -8 2079.42   53.61
  -1   1  -8 2183.89   56.01
  -1  -1   8 2047.98   52.70
   1  -1  -8 2065.75   53.31
   1  -1   8 1985.18   50.64
  -1   1   8 2106.37   54.24
   1   1   8 2098.16   53.85
  -1   1   9 1009.45   27.09
  -1  -1   9  838.16   21.98
   1  -1  -9  975.95   26.27
   1   1   9 1047.06   29.22
   1  -1   9  997.30   27.59
   1   1  -9  927.48   24.43
   1   1  -9 1004.13   27.04
  -1   1  -9 1047.04   27.95
   1  -1  -9  984.35   26.67
   1  -1   9  956.14   25.18
   1   1   9  985.16   26.24
   1  -1  10  103.29    8.49
  -1   1  10   79.56    4.38
  -1  -1  10   66.94    3.22
   1  -1 -10   56.47    3.44
   1  -1  10   75.57    4.64
   1   1 -10   58.11    3.17
   1   1 -10   72.18   11.21
  -1   1 -10   86.58    6.22
   1  -1 -10   80.57    4.53
  -1  -1 -10   62.34    3.55
   1  -1  10   60.38    2.97
   1   1  10   70.40    3.50
   1  -1  11  212.08   11.77
  -1   1  11  153.81    6.31
  -1  -1  11  144.71    5.83
   1   1  11  162.99    7.12
   1  -1 -11  145.02    5.97
   1  -1  11  138.55    6.70
   1   1 -11  133.92    5.79
   1   1 -11  134.82   11.14
  -1   1 -11  143.12    6.94
   1  -1 -11  156.96    6.89
  -1  -1 -11  127.55    5.70
   1  -1  11  127.36    5.36
  -1   1  12   33.82    3.35
  -1  -1  12   28.64    2.55
   1   1  12   42.01    4.51
   1  -1 -12   26.44    2.87
   1  -1  12   40.93    3.90
   1   1 -12   34.79    4.49
  -1   1 -12   50.34    6.15
   1  -1 -12   36.15    3.92
  -1  -1 -12   31.68    2.91
  -1   1  13    6.47    2.16
  -1  -1  13    2.40    1.15
   1   1  13    3.34    2.57
   1  -1  13    4.23    2.81
   1   1 -13    6.95    1.65
  -1   1 -13    6.65    2.28
   1  -1 -13    5.70    3.72
  -1  -1 -13    3.23    2.81
  -1   1  14  116.95    8.60
  -1  -1  14   97.56    6.83
   1   1  14  104.29    8.19
   1  -1  14  104.13    8.37
   1   1 -14  122.85   12.90
  -1   1 -14  117.32   11.16
   1  -1 -14  127.42   14.97
  -1  -1 -14  115.79    8.58
  -1  -1  15   89.81    4.37
  -1   1  15  124.87    8.15
  -1  -1  15  103.89    6.29
   1   1  15  110.35    7.66
   1  -1  15   93.25    7.07
   1   1 -15  122.78   10.36
  -1   1 -15  148.04   14.21
   1  -1 -15  113.33   14.08
  -1  -1 -15  119.20   10.83
  -1   1  16  388.77   15.93
   1   1  16  378.72   16.80
   1  -1  16  406.61   17.30
   1   1 -16  375.71   16.69
  -1   1 -16  370.63   28.15
   1  -1 -16  380.76   26.68
  -1  -1 -16  359.28   20.52
  -1   1  17  129.61   16.27
  -1  -1  17  161.32    8.50
   1   1  17  134.80    9.75
   1  -1  17  130.90    8.20
   1   1 -17  128.26   22.81
  -1   1 -17  129.55   18.49
   1  -1 -17  128.33   19.31
  -1  -1 -17  153.30   16.61
  -1   1  18   25.33    5.02
  -1  -1  18   23.23    4.14
   1   1  18   45.40    7.38
   1  -1  18   28.53    5.63
   1   1 -18   60.26    9.56
  -1   1 -18   38.17    7.60
   1  -1 -18   48.91    8.26
  -1  -1 -18   44.04    9.49
  -1   1  19   30.03    6.49
  -1  -1  19   48.85    9.77
   1   1  19   58.99   12.25
   1  -1  19   64.01    8.12
   1   1 -19   64.62   13.55
  -1   1 -19   74.79   11.42
   1  -1 -19   66.26    8.84
  -1  -1 -19   61.23   17.12
  -1   1  20   12.50    4.23
   1   1  20   10.38    3.29
   1  -1  20    7.10    3.67
   1   1 -20    6.99    2.27
  -1   1 -20    7.71    3.34
   1  -1 -20   20.48    4.89
  -1  -1 -20   12.20    4.44
  -1   1  21   43.66    6.27
   1   1  21   46.30    7.11
   1  -1  21   16.72    4.72
  -1   1 -21   40.87   10.28
   1   1 -21   49.58    9.04
  -1  -1 -21   36.54    6.55
   1  -1 -21   57.17   10.38
   1   1  22   12.63    4.49
   1  -1  22   33.31    8.43
  -1   1 -22   47.65    9.24
   1   1 -22   42.45   10.27
   1  -1 -22   42.23    9.62
  -1  -1 -22   31.90   11.10
   1   1  23    9.74    3.87
   1   1 -23   33.76    8.95
  -1   1 -23   35.90   10.70
  -1  -1 -23   32.85    9.63
   1  -1 -23   27.36    9.31
   1   1  24   13.43    4.27
   1   1 -24   41.38   12.17
  -1   1 -24   30.27   10.32
   1  -1 -24   34.44    8.00
  -1  -1 -24   29.25   10.77
  -1   2   0 4392.07   80.27
   1   2   0 4303.19   78.90
  -1  -2   0 4354.83   79.95
  -1   2  -1 2934.96   53.99
   1  -2   1 2812.10   51.72
  -1   2   1 2875.38   53.00
   1  -2  -1 2852.83   52.66
   1   2  -1 2869.63   52.79
   1   2   1 2797.81   52.09
  -1  -2   1 2766.21   51.04
  -1  -2  -1 2674.92   49.88
   1  -2  -1 2946.46   54.32
  -1   2   1 2777.66   51.26
  -1   2  -2 2222.15   41.07
   1  -2   2 2356.39   43.50
  -1   2   2 2347.29   43.61
   1  -2  -2 2388.27   44.47
   1   2  -2 2232.97   41.07
   1   2   2 2343.92   44.21
  -1  -2   2 2365.18   43.60
  -1  -2  -2 2299.26   43.52
   1  -2  -2 2275.44   42.38
  -1   2   2 2260.28   42.04
  -1   2  -3 1340.54   25.41
   1  -2   3 1385.42   25.96
  -1   2   3 1495.48   28.52
   1  -2  -3 1389.01   26.60
   1   2   3 1390.70   27.27
  -1  -2  -3 1397.60   27.56
  -1  -2   3 1416.34   27.15
   1  -2  -3 1401.19   26.82
  -1   2   3 1375.27   26.32
  -1  -2  -3 1384.83   26.59
  -1   2  -4  707.65   13.85
   1  -2   4  748.52   14.51
  -1   2   4  811.97   16.52
   1  -2  -4  757.00   15.51
  -1  -2   4  632.75   11.86
  -1  -2  -4  713.20   15.63
   1   2  -4  773.16   15.78
  -1  -2   4  779.74   15.76
   1  -2  -4  729.21   15.07
  -1   2   4  715.92   14.64
  -1  -2  -4  811.52   16.54
   1   2   4  782.91   15.87
  -1   2  -5    3.95    2.10
   1  -2   5    5.16    0.83
  -1   2   5    2.57    2.16
  -1  -2   5    1.43    0.34
   1  -2  -5    2.87    2.75
   1   2   5   10.25    2.69
  -1  -2  -5    3.52    2.13
   1   2  -5    4.73    0.88
   1  -2   5    7.01    1.58
  -1  -2   5    3.80    1.22
   1  -2  -5    2.64    2.09
  -1   2   5    7.05    1.97
  -1  -2  -5    1.10    2.33
   1   2   5    6.96    2.82
  -1   2  -6  166.32    4.64
   1  -2   6  144.20    3.92
  -1   2   6  158.29    5.45
   1  -2  -6  171.96    5.55
   1   2   6  168.44    6.16
  -1  -2  -6  142.95    5.30
   1   2  -6  148.53    7.94
  -1  -2   6  171.69    5.82
   1  -2   6  159.00    6.33
   1  -2  -6  168.47    5.50
  -1   2   6  147.13    4.63
  -1  -2  -6  150.85    4.91
   1   2   6  162.95    4.89
  -1  -2   7  691.36   17.52
  -1   2   7  906.42   24.46
   1   2   7  917.29   25.56
  -1  -2   7  815.58   20.85
  -1  -2  -7  770.09   21.76
  -1   2  -7  892.59   24.20
   1   2  -7  841.45   22.77
  -1  -2   7  878.28   24.23
   1  -2   7  853.83   22.56
   1  -2  -7  831.06   22.53
  -1  -2  -7  865.17   23.25
   1  -2   8  531.41   14.27
   1  -2  -8  568.97   16.33
   1   2   8  552.37   16.72
  -1  -2   8  543.96   14.27
  -1  -2  -8  525.46   16.17
  -1   2  -8  560.13   15.57
   1   2  -8  543.34   15.68
   1  -2   8  517.21   14.89
   1  -2  -8  539.86   15.58
  -1  -2  -8  543.30   15.36
   1   2   8  569.00   16.05
   1  -2   9 1885.25   47.34
  -1  -2   9 2172.26   53.67
  -1   2   9 2186.85   55.77
   1  -2  -9 2024.21   52.03
   1   2   9 1955.76   50.91
  -1  -2   9 1862.99   46.46
   1  -2   9 2128.20   54.94
   1   2  -9 2006.08   51.27
  -1   2  -9 2012.72   50.81
   1  -2   9 1938.95   48.85
   1  -2  -9 2048.42   52.22
  -1  -2  -9 2056.34   52.23
   1   2   9 1918.40   48.96
  -1  -2  10  685.76   17.27
   1  -2  10  697.74   18.31
  -1   2  10  772.60   21.44
   1   2  10  742.48   21.54
  -1  -2  10  753.65   19.51
   1  -2 -10  729.03   20.44
   1  -2  10  750.37   21.13
  -1   2 -10  761.09   22.84
   1   2 -10  796.83   22.24
   1  -2  10  691.69   18.49
   1  -2 -10  757.32   21.10
  -1  -2 -10  784.28   21.47
   1  -2  11  221.66    8.44
  -1  -2  11  232.57    7.72
  -1   2  11  235.97    9.68
   1   2  11  242.62   10.53
  -1  -2  11  242.96    8.49
   1  -2  11  261.60   10.64
   1   2 -11  243.81   15.19
  -1   2 -11  276.38   16.55
   1  -2 -11  254.51   10.10
  -1  -2 -11  232.56    9.21
  -1  -2  12  346.99   13.57
  -1   2  12  409.89   17.56
   1   2  12  430.63   19.48
  -1  -2  12  401.21   16.20
   1  -2  12  372.56   16.47
  -1   2 -12  428.91   19.98
   1   2 -12  384.27   21.93
   1  -2 -12  386.60   16.77
  -1  -2 -12  383.44   16.35
  -1   2  13  168.70    8.77
  -1  -2  13  147.43    6.79
   1   2  13  125.02    7.64
   1  -2  13  144.96    7.99
   1   2 -13  162.12   14.62
  -1   2 -13  156.43   10.95
   1  -2 -13  140.00    7.92
  -1  -2 -13  125.44    7.04
  -1  -2  14   98.87    9.13
  -1   2  14  156.20   11.02
  -1  -2  14  132.48    8.64
   1   2  14  146.64   11.08
   1  -2  14  132.37    9.82
   1   2 -14  135.04   14.99
  -1   2 -14  130.47   11.30
   1  -2 -14  128.26    9.22
  -1  -2 -14  125.16    8.86
  -1  -2  15   88.12    8.18
  -1   2  15  129.34    8.51
   1   2  15  116.31    8.10
   1  -2  15  107.62    7.48
  -1   2 -15  131.24   11.36
   1   2 -15  131.55   10.88
   1  -2 -15  133.56    8.50
  -1  -2 -15  126.98    7.67
  -1  -2  16   11.11    2.13
  -1   2  16    9.74    2.77
  -1  -2  16   12.42    2.14
   1   2  16   13.63    4.89
   1  -2  16   20.22    3.91
  -1   2 -16   31.88    5.82
   1   2 -16   22.58    4.65
   1  -2 -16   20.63    4.05
  -1  -2 -16   22.40    4.05
  -1   2  17  169.90    9.77
  -1  -2  17  163.42    8.12
   1   2  17  156.77   10.14
   1  -2  17  164.72   10.09
  -1   2 -17  154.54   16.16
   1   2 -17  172.30   16.23
   1  -2 -17  148.10    8.63
  -1  -2 -17  147.81    8.67
  -1   2  18  103.21    8.91
  -1  -2  18   59.90    7.56
   1   2  18   82.68    8.27
   1  -2  18   77.24   15.50
  -1   2 -18   87.15   11.13
   1   2 -18   84.87   12.34
   1  -2 -18   91.40   15.31
  -1  -2 -18  106.28    8.66
  -1   2  19  121.90   12.60
   1   2  19   73.54    8.67
   1  -2  19   94.00   10.07
  -1   2 -19  101.88   18.30
   1   2 -19  133.74   20.30
   1  -2 -19  113.70   19.52
  -1  -2 -19  117.69   12.00
  -1   2  20   68.12    7.02
   1   2  20   69.78    7.96
   1  -2  20   80.17    8.89
   1   2 -20   84.07   17.91
  -1   2 -20   76.10   14.30
   1  -2 -20   81.49   10.35
  -1  -2 -20   91.16   12.66
  -1   2  21  153.99   17.65
   1   2  21  115.45   14.11
   1  -2  21   93.70   11.62
  -1   2 -21  138.71   18.29
   1   2 -21  146.84   24.06
   1  -2 -21  147.05   19.55
  -1  -2 -21  120.39   24.06
  -1   2  22  143.13   14.71
   1   2  22  100.01   11.33
   1   2 -22  119.05   24.50
  -1   2 -22  115.19   24.83
  -1  -2 -22  117.66   23.56
   1  -2 -22  123.24   26.05
   1   2  23    7.30    4.55
  -1   2 -23    8.01    3.34
   1   2 -23    3.93    2.92
   1  -2 -23    8.17    3.81
  -1  -2 -23    3.87    2.80
   1   2  24   10.22    4.24
  -1   2 -24   11.84    4.82
   1   2 -24    7.06    4.25
   1  -2 -24    3.46    2.63
  -1  -2 -24    3.86    3.77
  -1   3   0  288.69    6.78
   1  -3   0  283.15    6.66
   1   3   0  291.27    7.33
  -1  -3   0  281.80    7.03
   1  -3   0  304.13    7.43
  -1   3  -1  298.35    6.85
   1  -3   1  295.19    6.77
  -1   3   1  298.04    7.14
   1  -3  -1  295.78    7.04
   1   3  -1  293.81    7.00
   1   3   1  302.12    7.60
  -1  -3  -1  279.78    7.11
   1  -3  -1  300.91    7.39
  -1   3  -2   99.33    3.44
   1  -3   2   90.35    3.08
  -1   3   2   93.19    3.61
   1  -3  -2   85.19    3.28
   1   3  -2   95.42    3.26
  -1  -3   2   96.97    3.24
   1   3   2   90.61    3.84
  -1  -3  -2   79.57    3.60
   1  -3  -2   94.62    4.25
  -1   3   2   85.97    3.38
  -1   3  -3  560.62   11.57
   1  -3   3  533.32   10.92
   1   3  -3  559.15   11.17
  -1   3   3  611.34   13.11
   1  -3  -3  557.82   12.08
  -1  -3   3  558.39   11.39
   1   3   3  583.80   13.18
  -1  -3  -3  543.33   12.34
   1  -3  -3  599.27   13.22
  -1   3   3  540.11   11.76
  -1  -3  -3  586.44   12.97
  -1   3  -4  675.22   13.43
   1  -3   4  723.08   14.29
   1   3  -4  684.36   13.10
  -1   3   4  823.66   17.01
   1  -3  -4  760.37   15.89
  -1  -3   4  688.58   13.43
   1   3   4  751.63   16.24
  -1  -3  -4  702.10   15.49
  -1  -3   4  749.69   16.12
   1  -3  -4  718.60   15.23
  -1   3   4  731.35   15.25
  -1  -3  -4  777.98   16.53
  -1   3  -5   52.41    4.17
   1  -3   5   33.65    1.90
   1   3  -5   39.20    1.58
  -1   3   5   27.11    2.47
  -1  -3   5   36.01    1.82
   1  -3  -5   42.04    2.92
   1   3   5   28.20    3.11
  -1  -3  -5   28.64    2.81
   1  -3   5   46.90    5.90
  -1  -3   5   64.80    8.83
   1  -3  -5   36.20    2.84
  -1   3   5   30.90    2.26
  -1  -3  -5   51.46    3.85
   1   3   5   36.31    2.34
   1   3  -6  950.21   24.14
   1  -3   6  795.84   20.85
  -1   3   6  923.78   25.13
   1  -3  -6  841.18   23.27
   1   3   6  868.61   24.23
  -1  -3  -6  777.36   22.08
   1  -3   6  856.98   22.97
  -1  -3   6  880.16   26.97
   1  -3  -6  851.03   23.23
  -1   3   6  792.95   21.56
  -1  -3  -6  892.11   24.29
   1   3   6  811.73   22.06
   1   3  -7  376.38    9.74
  -1   3  -7  344.53    9.69
   1  -3   7  381.47   10.58
  -1   3   7  387.66   12.15
   1  -3  -7  409.82   12.65
   1   3   7  379.54   12.54
   1   3  -7  341.06   11.45
   1  -3   7  375.98   11.90
   1  -3  -7  356.11   11.05
  -1  -3  -7  395.64   12.06
   1   3   7  368.98   11.19
  -1   3  -8  209.27    6.86
   1  -3   8  184.48    5.68
  -1  -3   8  164.10    4.59
  -1   3   8  227.06    8.56
   1   3   8  219.48    8.85
  -1  -3   8  196.33    5.79
   1   3  -8  203.74    9.29
   1  -3   8  191.63    7.07
   1  -3  -8  193.60    7.07
  -1  -3  -8  191.80    7.21
  -1   3  -9  165.84    5.42
   1  -3   9  166.67    5.35
  -1  -3   9  156.71    4.37
  -1   3   9  213.73    8.32
   1   3   9  184.00    7.99
  -1  -3   9  180.56    5.51
  -1   3  -9  183.42    8.28
   1   3  -9  167.89    9.61
   1  -3   9  159.54    6.68
   1  -3  -9  186.38    7.02
  -1  -3  -9  166.05    6.74
   1  -3  10   33.76    4.64
  -1  -3  10   31.36    1.55
  -1   3  10   45.19    4.14
   1   3  10   32.80    4.55
  -1  -3  10   35.85    2.27
  -1   3 -10   41.66    5.39
   1   3 -10   57.25    7.38
   1  -3  10   44.78    4.29
   1  -3 -10   39.26    3.80
  -1  -3 -10   47.98    3.91
   1  -3  11   13.29    1.70
  -1  -3  11   11.33    0.97
  -1   3  11   14.37    3.47
   1   3  11   15.84    4.60
  -1  -3  11   11.62    1.47
   1  -3  11   11.02    2.44
  -1   3 -11   22.92    3.06
   1   3 -11   15.99    4.25
   1  -3 -11   19.46    3.75
  -1  -3 -11   17.76    3.54
  -1   3  12  115.27    6.93
   1   3  12  125.30    7.86
  -1  -3  12  133.83    6.10
   1  -3  12   90.39    5.85
   1   3 -12  139.51   11.11
  -1   3 -12  117.06   11.90
   1  -3 -12  125.71    7.24
  -1  -3 -12  138.09    7.73
  -1  -3  13  477.10   27.76
  -1   3  13  613.99   36.99
   1   3  13  617.08   37.61
  -1  -3  13  559.82   32.85
   1  -3  13  576.61   34.87
  -1   3 -13  545.61   37.63
   1   3 -13  511.06   32.13
   1  -3 -13  533.35   32.19
  -1  -3 -13  555.98   33.65
  -1  -3  14   95.59    6.81
  -1   3  14  141.16    8.95
   1   3  14  133.66    8.62
   1  -3  14  149.54    9.33
  -1   3 -14  125.66   15.25
   1   3 -14  140.11   19.35
   1  -3 -14  127.65    7.76
  -1  -3 -14  123.04    7.89
  -1  -3  15    0.92    0.70
  -1   3  15    2.90    3.00
   1   3  15   10.53    3.48
  -1  -3  15    4.77    1.55
   1  -3  15    3.37    3.33
  -1   3 -15    7.37    2.55
   1   3 -15    9.18    3.70
   1  -3 -15   15.32    4.70
  -1  -3 -15    7.01    3.12
  -1   3  16  123.81   10.55
   1   3  16  123.67   10.72
  -1  -3  16  118.84    8.54
   1  -3  16  129.67   16.39
  -1   3 -16  115.16   12.57
   1   3 -16  117.91   10.57
   1  -3 -16  104.39    8.88
  -1  -3 -16  107.56    8.82
  -1   3  17   52.44    7.86
   1   3  17   65.97    9.56
  -1  -3  17   51.16    6.67
   1  -3  17   66.89    9.71
  -1   3 -17   68.65   15.60
   1   3 -17   65.48   15.79
   1  -3 -17   77.44   10.28
  -1  -3 -17   76.72   10.46
  -1   3  18   69.67    9.35
   1   3  18   25.31    4.63
   1  -3  18   72.07    9.67
  -1   3 -18   61.53   14.33
   1   3 -18   56.83   10.30
   1  -3 -18   59.63    8.18
  -1  -3 -18   70.38    9.30
  -1   3  19   12.70    4.23
   1   3  19    7.05    2.86
   1  -3  19    6.73    3.55
  -1   3 -19   20.06    5.72
   1   3 -19   14.31    4.27
   1  -3 -19   25.12    6.17
  -1  -3 -19   15.49    4.53
  -1   3  20   12.17    3.38
   1   3  20   20.91    6.13
   1  -3  20   20.93    5.21
  -1   3 -20   15.34    5.62
   1   3 -20   22.44    5.61
   1  -3 -20   20.99    6.27
  -1  -3 -20   29.26    7.33
  -1   3  21    3.98    3.50
   1   3  21   22.82    6.19
  -1   3 -21   11.13    4.29
   1   3 -21   21.41    6.53
   1  -3 -21   16.94    4.70
  -1  -3 -21   11.15    5.50
  -1   3  22  184.38   17.85
   1   3  22  144.18   15.04
   1   3 -22  150.35   23.66
  -1   3 -22  169.74   18.91
   1  -3 -22  136.25   23.29
  -1  -3 -22  188.07   21.35
  -1   3  23  104.23   12.64
   1   3  23   62.95    8.89
  -1   3 -23   50.81   19.48
   1   3 -23   92.49   19.88
   1  -3 -23   90.41   23.21
  -1  -3 -23  103.38   24.04
   1   3  24    8.97    3.69
   1   3 -24   16.71    8.10
  -1   3 -24   12.75    5.75
  -1  -3 -24   21.27    8.19
   1  -3 -24    9.45    5.17
  -1   4   0  135.48    4.98
   1  -4   0  145.12    5.36
   1   4   0  144.65    5.35
   1  -4   0  144.08    5.88
  -1   4  -1    6.59    1.98
  -1   4   1    3.87    2.75
   1  -4   1    8.10    1.78
   1  -4  -1    6.85    1.40
   1   4   1    6.27    1.88
  -1  -4   1    6.86    2.14
  -1  -4  -1    6.01    1.73
   1  -4  -1    5.86    2.69
  -1   4  -2   18.49    2.02
   1  -4   2   16.49    1.47
  -1   4   2   16.31    2.35
   1   4  -2   15.45    1.89
   1  -4  -2   17.71    1.81
   1   4   2   18.53    3.06
  -1  -4   2   16.45    2.06
  -1  -4  -2   21.69    2.60
   1  -4  -2   27.37    2.67
  -1   4  -3  449.39   12.61
   1   4  -3  481.02   13.23
  -1   4   3  489.69   13.96
   1  -4  -3  396.89   11.80
  -1  -4   3  454.71   12.81
   1   4   3  470.77   14.24
  -1  -4  -3  403.57   12.55
   1  -4  -3  456.68   13.68
  -1  -4  -3  443.46   13.32
  -1   4   3  436.91   12.86
  -1   4  -4  193.31    6.22
   1  -4   4  204.33    6.37
   1   4  -4  209.64    6.28
  -1   4   4  222.80    7.71
   1  -4  -4  171.88    6.26
  -1  -4   4  194.71    6.23
   1   4   4  207.92    7.80
  -1  -4  -4  187.48    7.05
   1  -4  -4  216.51    7.77
  -1  -4  -4  203.22    7.56
  -1   4   4  185.37    6.61
   1   4  -5  107.19    3.63
   1  -4   5   99.05    3.69
  -1   4   5  101.36    4.88
  -1  -4   5  109.72    3.95
   1   4   5  111.52    5.86
   1  -4  -5   95.58    4.75
  -1  -4  -5  107.83    5.57
  -1   4  -6  360.77   10.15
   1   4  -6  340.38    9.08
   1  -4   6  352.92    9.94
  -1   4   6  365.29   11.50
  -1  -4   6  340.52    9.35
   1   4   6  362.33   12.11
   1  -4   6  343.20   10.32
   1  -4  -6  354.35   11.36
  -1  -4  -6  362.95   11.80
  -1   4  -7   69.87    6.16
   1   4  -7   87.90    5.08
   1  -4   7   65.46    2.92
  -1   4   7   89.48    5.29
  -1  -4   7   63.92    2.64
   1   4   7   83.68    5.52
   1  -4   7   76.66    3.85
   1  -4  -7   67.20    4.67
  -1  -4  -7   74.84    4.92
   1   4  -8   98.74    3.62
  -1   4  -8  107.20    9.72
   1  -4   8   86.08    3.46
  -1  -4   8   78.33    2.91
  -1   4   8   91.03    5.05
   1   4   8   95.40    5.76
   1  -4   8  115.30   11.98
   1  -4  -8   85.16    4.95
  -1  -4  -8   87.56    4.90
   1   4  -9  133.69    6.08
  -1   4  -9  103.95    4.79
   1  -4   9   94.08    4.14
  -1  -4   9   88.68    3.45
  -1   4   9  107.97    6.06
   1   4   9  132.20    7.56
   1  -4  -9   93.28    5.29
  -1  -4  -9  110.43    6.46
  -1   4 -10   65.61    9.78
   1  -4  10   46.85    2.82
  -1  -4  10   42.78    2.08
  -1   4  10   49.95    4.51
   1   4  10   40.43    4.69
  -1  -4  10   45.84    2.57
   1  -4 -10   49.00    4.56
  -1  -4 -10   46.17    4.54
  -1   4 -11    6.71    1.68
  -1   4  11    9.17    3.68
   1   4  11   16.13    4.50
  -1  -4  11    9.63    1.46
   1   4 -11   12.64    2.81
   1  -4 -11   14.20    4.08
  -1  -4 -11   14.73    3.25
  -1  -4  12  381.73   22.30
  -1   4  12  560.02   33.89
   1   4  12  516.88   32.05
  -1  -4  12  465.57   27.39
   1  -4  12  503.60   30.70
   1   4 -12  465.65   34.37
   1  -4 -12  498.20   30.33
  -1  -4 -12  488.91   29.68
  -1  -4  13  261.55   11.41
  -1   4  13  352.80   17.44
   1   4  13  373.41   18.76
   1  -4  13  353.48   17.54
   1   4 -13  320.04   19.76
   1  -4 -13  342.19   16.75
  -1  -4 -13  345.30   16.67
  -1   4  14  556.48   22.09
   1   4  14  522.28   21.94
  -1  -4  14  488.55   17.71
   1  -4  14  524.96   20.88
  -1   4 -14  468.51   18.28
   1   4 -14  502.10   33.55
   1  -4 -14  492.72   20.10
  -1  -4 -14  571.44   22.40
  -1   4  15   71.55    7.18
   1   4  15   79.65    8.45
  -1  -4  15   71.83    5.49
   1  -4  15   87.70    8.14
  -1   4 -15   60.35    5.77
   1   4 -15   77.12   14.20
   1  -4 -15   87.20    8.51
  -1  -4 -15   73.47    7.34
  -1   4  16  180.76   14.54
   1   4  16  169.43   14.06
  -1  -4  16  102.87    7.46
   1  -4  16  161.54   12.81
  -1   4 -16  133.55   10.58
   1   4 -16  126.42   14.02
   1  -4 -16  144.64   11.90
  -1  -4 -16  141.47   11.27
  -1   4  17   57.52    8.22
   1   4  17  103.93    9.82
   1  -4  17   69.98    9.40
  -1   4 -17   54.80   14.31
   1   4 -17   66.96   15.89
   1  -4 -17   83.37    7.18
  -1  -4 -17   81.15    7.96
  -1   4  18   30.61    7.01
   1   4  18   23.59    6.15
   1  -4  18   20.11    5.06
  -1   4 -18   23.11    6.77
   1   4 -18   32.44    9.41
   1  -4 -18   35.86    8.25
  -1  -4 -18   24.06    6.28
  -1   4  19   13.04    4.08
   1   4  19    5.45    3.53
   1  -4  19    8.36    3.11
  -1   4 -19    9.90    4.01
   1   4 -19   13.33    3.96
   1  -4 -19   21.02    5.70
  -1  -4 -19   14.85    4.70
  -1   4  20    6.58    3.57
   1   4  20    6.45    3.16
  -1   4 -20    5.48    3.20
   1   4 -20   13.46    4.58
   1  -4 -20    6.66    3.39
  -1  -4 -20    8.48    3.37
  -1   4  21   72.25    8.71
   1   4  21   50.43    7.91
  -1   4 -21   37.05   12.04
   1   4 -21   69.07   16.83
   1  -4 -21   84.49    9.74
  -1  -4 -21   91.33   10.30
  -1   4  22   76.57   12.78
   1   4  22   76.83   13.27
  -1   4 -22   34.03   17.25
   1   4 -22   41.91   21.58
   1  -4 -22  100.36   16.82
  -1  -4 -22  101.04   16.52
  -1   4  23   25.15    4.81
   1   4  23   60.88    9.12
  -1   4 -23   17.40    9.43
   1   4 -23   24.72   10.46
   1  -4 -23   30.00    9.62
  -1  -4 -23   24.06    7.33
  -1   5   0  358.82   10.92
  -1  -5   0  326.76   10.49
   1  -5   0  375.22   11.98
  -1   5  -1 1493.69   38.91
  -1   5   1 1700.63   44.34
   1   5  -1 1695.58   44.07
   1   5   1 1596.36   41.81
  -1  -5   1 1587.35   41.63
  -1  -5  -1 1441.16   38.23
   1  -5  -1 1609.84   42.53
  -1   5  -2   32.15    2.91
  -1   5   2   38.90    2.89
   1   5  -2   35.86    2.58
   1   5   2   26.74    3.15
  -1  -5   2   28.71    2.43
   1  -5  -2   31.26    3.30
  -1   5  -3  564.12   15.44
   1  -5   3  520.60   14.42
  -1   5   3  583.04   16.50
   1   5  -3  582.44   15.99
   1   5   3  603.53   17.41
  -1  -5   3  569.07   15.75
   1  -5  -3  550.02   16.08
  -1  -5  -3  585.24   17.09
   1   5  -4  369.99   10.57
   1  -5   4  307.33    9.08
  -1   5   4  362.74   11.30
   1   5   4  366.71   11.84
  -1  -5   4  372.26   10.85
   1  -5  -4  355.24   11.43
  -1  -5  -4  390.90   12.43
  -1   5  -5   88.45    4.33
   1   5  -5   92.75    3.71
   1  -5   5   76.74    3.34
  -1   5   5   92.89    4.81
   1   5   5   97.93    5.22
  -1  -5   5   77.39    3.51
   1  -5  -5   91.32    5.84
  -1  -5  -5   84.45    4.79
  -1   5  -6  429.54   12.96
   1   5  -6  454.60   12.25
   1  -5   6  421.87   11.84
  -1   5   6  519.38   15.49
  -1  -5   6  469.85   13.01
   1   5   6  517.18   16.13
   1  -5  -6  466.42   14.41
  -1  -5  -6  505.83   15.87
  -1   5  -7  309.21   11.14
   1   5  -7  319.04   11.70
  -1   5   7  355.43   13.48
  -1  -5   7  299.05   10.30
   1   5   7  323.23   12.99
   1  -5  -7  309.59   12.00
  -1  -5  -7  334.75   13.10
  -1   5  -8  262.59    9.79
   1   5  -8  230.56    9.10
  -1   5   8  233.24   10.22
  -1  -5   8  199.83    7.12
   1   5   8  265.96   11.59
   1  -5  -8  226.45    9.74
  -1  -5  -8  214.51    9.47
   1   5  -9  363.00   14.47
  -1   5  -9  404.90   19.04
  -1  -5   9  324.16   13.09
  -1   5   9  437.90   19.24
   1   5   9  408.35   18.51
   1  -5  -9  379.60   17.12
  -1  -5  -9  376.85   16.91
   1   5 -10  163.00   10.26
  -1   5 -10  177.13   13.25
  -1   5  10  180.62   12.59
   1   5  10  186.20   13.56
   1  -5 -10  129.35    9.41
  -1  -5 -10  159.91   11.27
  -1   5 -11 1122.60   66.23
  -1  -5  11  887.23   51.57
  -1   5  11 1155.75   68.21
   1   5  11 1136.50   67.36
   1  -5 -11 1064.85   62.90
  -1  -5 -11 1059.15   62.59
  -1   5 -12  306.62   14.29
  -1  -5  12  315.23   13.89
  -1   5  12  402.61   19.61
   1   5  12  357.04   18.41
  -1  -5  12  332.88   14.95
   1  -5 -12  321.62   15.99
  -1  -5 -12  341.35   16.92
  -1  -5  13   97.40    4.19
  -1   5  13  125.98    7.87
   1   5  13  149.81    9.12
  -1  -5  13  127.46    5.77
   1  -5 -13  136.42    8.73
  -1  -5 -13  113.60    7.59
  -1   5  14  192.85   11.03
   1   5  14  207.61   11.91
  -1  -5  14  197.88    8.87
   1  -5  14  198.08   10.95
   1  -5 -14  173.52   10.81
  -1  -5 -14  189.05   10.58
  -1   5  15  101.10    9.27
   1   5  15  105.14   10.46
  -1  -5  15   79.36    9.68
   1  -5  15   91.57    8.55
   1  -5 -15   92.47    8.55
  -1  -5 -15   85.67   11.41
  -1   5  16   66.21    9.12
   1   5  16   71.72   10.41
   1  -5  16   57.98    8.21
   1  -5 -16   79.14    8.09
  -1  -5 -16   67.96    9.14
  -1   5  17   16.18    4.79
   1   5  17   11.50    3.99
   1  -5  17   41.83    9.05
   1  -5 -17   26.42    6.46
  -1  -5 -17   38.25    9.11
  -1   5  18   67.75    7.65
   1   5  18   72.92    8.98
   1  -5  18   41.79    8.94
   1  -5 -18   70.54    8.37
  -1  -5 -18   58.66    7.13
  -1   5  19   88.79   11.25
   1   5  19  104.49   12.99
   1  -5 -19  115.44   13.91
  -1  -5 -19  111.65   13.27
  -1   5  20  141.40   15.01
   1   5  20   86.66   10.23
   1  -5 -20  151.06   15.61
  -1  -5 -20  108.60   11.96
  -1   5  21  265.86   25.03
   1   5  21  268.50   25.72
   1  -5 -21  242.68   22.74
  -1  -5 -21  255.80   24.10
  -1   5  22   35.61    6.29
   1   5  22   34.10    6.10
   1  -5 -22   51.19    8.40
  -1  -5 -22   44.14    6.68
  -1   6   0   27.17    3.03
   1   6   0   25.79    2.95
   1  -6   0   30.46    3.41
  -1   6  -1  584.12   16.53
  -1   6   1  596.36   17.12
   1   6  -1  647.19   18.06
   1   6   1  560.58   16.26
   1  -6  -1  575.39   17.34
  -1   6  -2  543.66   18.29
  -1   6   2  560.17   19.13
   1   6  -2  550.69   18.59
   1   6   2  540.49   18.71
  -1  -6   2  494.13   17.05
   1  -6  -2  562.06   19.59
  -1   6  -3 1072.30   34.39
   1   6  -3 1056.74   33.74
  -1   6   3 1081.46   35.07
   1   6   3 1001.06   32.77
  -1  -6   3 1043.82   33.72
   1  -6  -3  998.23   32.94
  -1  -6  -3 1046.99   34.54
  -1   6  -4  935.52   30.16
   1   6  -4  876.10   28.10
  -1   6   4  897.01   29.60
   1   6   4  881.81   29.43
  -1  -6   4  902.50   29.38
   1  -6  -4  891.88   30.07
  -1  -6  -4  862.97   28.99
  -1   6  -5  239.60    9.04
   1   6  -5  233.22    8.47
  -1   6   5  198.65    8.84
   1   6   5  257.05   10.96
  -1  -6   5  233.51    9.07
   1  -6  -5  220.62   10.37
  -1  -6  -5  250.48   10.65
  -1   6  -6   65.24    7.87
   1   6  -6   47.85    3.19
  -1   6   6   52.77    4.37
   1   6   6   60.55    5.99
  -1  -6   6   49.42    3.74
   1  -6  -6   41.82    5.33
  -1  -6  -6   47.25    4.98
  -1   6  -7  241.62   10.56
   1   6  -7  277.11   11.61
  -1   6   7  255.51   12.24
  -1  -6   7  256.58   11.18
   1   6   7  281.53   13.70
   1  -6  -7  273.32   13.48
  -1  -6  -7  254.68   12.39
  -1   6  -8  170.90   11.94
   1   6  -8  205.33   17.30
  -1   6   8  189.68   12.98
   1   6   8  160.16   11.47
   1  -6  -8  160.72   11.54
  -1  -6  -8  153.33   10.90
  -1   6  -9  469.17   28.08
   1   6  -9  418.71   25.61
  -1   6   9  446.34   27.58
  -1  -6   9  404.83   24.10
   1   6   9  406.38   25.88
   1  -6  -9  400.77   25.29
  -1  -6  -9  378.64   23.74
  -1   6 -10   10.84    3.25
   1   6 -10    7.91    1.24
  -1   6  10    8.67    2.89
  -1  -6  10    4.00    1.73
   1   6  10   12.53    4.09
   1  -6 -10   18.91    4.68
  -1  -6 -10   11.28    4.92
   1   6 -11  256.82   12.41
  -1   6 -11  274.24   13.16
  -1   6  11  308.94   15.82
  -1  -6  11  242.02   11.20
   1   6  11  297.28   15.98
   1  -6 -11  213.92   12.02
  -1  -6 -11  261.58   14.15
  -1   6 -12  387.68   15.74
  -1   6  12  412.83   17.80
   1   6  12  377.73   16.94
   1  -6 -12  340.01   14.75
  -1  -6 -12  345.01   15.15
  -1   6 -13  404.45   24.35
  -1   6  13  387.90   18.90
   1   6  13  343.24   17.29
  -1  -6  13  318.14   13.84
   1  -6 -13  306.13   15.27
  -1  -6 -13  320.67   15.74
  -1   6  14  418.45   29.66
   1   6  14  343.38   24.59
  -1  -6  14  326.06   21.91
   1  -6 -14  378.64   26.92
  -1  -6 -14  353.78   25.05
  -1   6  15    6.82    4.24
   1   6  15    1.11    3.12
   1  -6  15    7.87    4.57
   1  -6 -15    5.79    3.52
  -1  -6 -15   13.14    4.68
  -1   6  16  110.12   11.93
   1   6  16  118.60   12.95
   1  -6  16  130.69   13.28
   1  -6 -16  135.94   13.78
  -1  -6 -16  142.18   14.96
  -1   6  17   30.30    8.06
   1   6  17   26.98    7.32
   1  -6  17   45.46    5.40
   1  -6 -17   44.88    6.31
  -1  -6 -17   48.30    6.87
  -1   6  18  150.26   17.38
   1   6  18   76.24   10.82
   1  -6 -18  100.25   12.39
  -1  -6 -18   62.13    8.26
  -1   6  19   70.10    8.69
   1   6  19   79.73   10.07
   1  -6 -19  105.09   12.16
  -1  -6 -19   87.01    9.98
  -1   6  20   42.11    6.94
   1   6  20   27.47    6.97
   1  -6 -20   42.09    8.03
  -1  -6 -20   47.35    6.66
  -1   6  21   59.10    8.50
   1   6  21   60.48    8.93
   1  -6 -21   59.57    8.92
  -1  -6 -21   54.06    7.55
  -1   6  22   25.49    5.69
   1   6  22   27.12    6.04
   1  -6 -22   42.34    7.89
  -1  -6 -22   51.98    9.10
  -1   7   0   61.75    4.41
   1   7   0   74.10    5.37
   1  -7   0   70.57    6.21
  -1   7  -1  256.95   11.51
  -1   7   1  238.76   11.28
   1   7  -1  247.46   11.42
   1   7   1  247.82   11.52
   1  -7  -1  251.56   12.18
  -1   7  -2  631.72   25.60
  -1   7   2  657.11   26.78
   1   7  -2  660.33   26.75
   1   7   2  625.32   25.71
   1  -7  -2  638.52   26.79
  -1   7  -3   76.34    5.09
  -1   7   3   63.99    4.99
   1   7  -3   64.48    4.48
   1   7   3   57.47    4.46
   1  -7  -3   63.90    5.13
  -1  -7  -3   75.30    6.99
  -1   7  -4  310.21   13.53
   1   7  -4  311.51   13.32
  -1   7   4  284.45   13.18
   1   7   4  267.64   12.47
   1  -7  -4  262.38   13.00
  -1  -7  -4  273.64   13.47
  -1   7  -5   47.33    4.50
   1   7  -5   49.41    3.95
  -1   7   5   48.02    5.15
   1   7   5   44.24    4.81
   1  -7  -5   59.89    7.16
  -1  -7  -5   62.80    6.25
  -1   7  -6  132.28    9.17
   1   7  -6  123.14    8.23
  -1   7   6  105.51    8.30
   1   7   6  119.51    8.87
   1  -7  -6  102.10    8.16
  -1  -7  -6  123.71    9.51
  -1   7  -7  139.94   16.22
   1   7  -7  112.93    7.60
  -1   7   7  108.04    8.43
   1   7   7  112.20    8.83
  -1  -7   7  122.49    8.52
   1  -7  -7  102.23    8.94
  -1  -7  -7   97.31    7.83
  -1   7  -8  505.97   25.59
   1   7  -8  580.03   25.26
  -1   7   8  565.13   26.37
   1   7   8  530.50   24.86
  -1  -7   8  483.61   21.80
   1  -7  -8  512.46   24.21
  -1  -7  -8  544.73   25.54
  -1   7  -9    5.00    2.22
   1   7  -9    5.22    1.48
  -1   7   9   14.87    3.36
   1   7   9    3.69    3.64
  -1  -7   9    3.99    2.04
   1  -7  -9   13.74    3.81
  -1  -7  -9    7.74    3.87
  -1   7 -10  179.39   13.78
   1   7 -10  211.85   10.34
  -1   7  10  190.53    9.99
   1   7  10  189.89   10.45
  -1  -7  10  176.27    7.82
   1  -7 -10  189.21   10.88
  -1  -7 -10  179.19   10.43
   1   7 -11   49.67    6.49
  -1   7 -11   70.54    8.56
  -1   7  11   66.29    7.19
   1   7  11   58.41    6.46
   1  -7 -11   54.35    6.64
  -1  -7 -11   51.77    6.21
  -1   7 -12   77.53   11.83
  -1   7  12   97.48    9.21
   1   7  12   76.79   11.25
   1  -7 -12   60.52    9.11
  -1  -7 -12   76.65   10.33
  -1   7 -13   55.23    9.21
  -1   7  13   81.00    7.91
   1   7  13   84.12    8.98
   1  -7 -13   51.69    7.49
  -1  -7 -13   67.54    9.47
  -1   7 -14   14.04    5.37
  -1   7  14   20.99    6.23
   1   7  14   14.88    4.74
   1  -7 -14   18.69    5.49
  -1  -7 -14   17.51    6.17
  -1   7  15   11.43    3.97
   1   7  15   27.52    6.97
   1  -7 -15   18.87    5.71
  -1  -7 -15   33.17    7.92
  -1   7  16   22.00    6.99
   1   7  16   10.55    4.84
   1  -7  16   29.14    7.07
   1  -7 -16   16.49    6.47
  -1  -7 -16   29.23    7.51
  -1   7  17   34.10    8.88
   1   7  17    9.61    3.66
   1  -7 -17   34.30    8.99
  -1  -7 -17   31.86    7.38
  -1   7  18   16.55    4.99
   1   7  18   28.18    7.83
   1  -7 -18   42.12    6.53
  -1  -7 -18   47.16    7.62
  -1   7  19   42.94    6.44
   1   7  19   41.64    6.82
   1  -7 -19   56.56    7.60
  -1  -7 -19   49.13    7.49
  -1   7  20    8.06    3.32
   1   7  20   13.63    4.87
   1  -7 -20   17.03    5.04
  -1  -7 -20   11.99    4.17
  -1   7  21    9.97    4.58
   1   7  21    8.39    4.74
   1  -7 -21   13.06    4.92
  -1  -7 -21    7.85    5.57
  -1   8   0  575.96   34.58
   1   8   0  599.52   35.97
   1  -8   0  552.30   33.66
  -1   8  -1  150.94   10.20
  -1   8   1  159.00   10.83
   1   8  -1  155.86   10.81
   1   8   1  157.49   10.83
   1  -8  -1  159.15   11.63
   1  -8   1  170.78   11.79
  -1   8  -2  195.23   10.39
  -1   8   2  181.05    9.70
   1   8  -2  220.74   11.55
   1   8   2  203.33   10.80
   1  -8  -2  185.14   10.91
  -1  -8  -2  221.10   12.76
  -1   8  -3  439.22   20.33
   1   8  -3  402.29   18.67
  -1   8   3  427.93   20.09
   1   8   3  417.79   19.79
   1  -8  -3  376.48   18.33
  -1  -8  -3  432.57   21.75
  -1   8  -4   66.79    5.26
   1   8  -4   73.57    5.32
  -1   8   4   70.31    5.53
   1   8   4   68.45    6.04
   1  -8  -4  101.27    7.29
  -1  -8  -4   65.48    6.25
  -1   8  -5  372.67   17.54
   1   8  -5  352.79   16.46
  -1   8   5  356.21   17.53
   1   8   5  346.17   17.33
   1  -8  -5  321.95   16.44
  -1  -8  -5  381.51   18.97
  -1   8  -6  651.62   24.12
   1   8  -6  657.85   24.15
  -1   8   6  617.10   23.86
   1   8   6  587.07   23.19
   1  -8  -6  579.65   22.96
  -1  -8  -6  612.94   24.59
  -1   8  -7  649.13   31.13
   1   8  -7  662.23   24.13
  -1   8   7  517.64   20.76
   1   8   7  605.48   23.88
   1  -8  -7  598.27   23.62
  -1  -8  -7  637.78   25.44
  -1   8  -8  383.02   19.49
   1   8  -8  396.22   16.78
  -1   8   8  378.60   17.70
   1   8   8  366.82   17.76
   1  -8  -8  376.13   17.87
  -1  -8  -8  359.33   17.35
  -1   8  -9  165.03   16.39
   1   8  -9  177.01   13.96
  -1   8   9  152.72    9.47
   1   8   9  157.78   10.01
   1  -8  -9  128.23   16.76
  -1  -8  -9  135.42    9.03
  -1   8 -10   83.56   13.66
   1   8 -10   70.80    9.79
  -1   8  10   64.05    9.66
   1   8  10   79.30   10.85
   1  -8 -10   58.73    8.74
  -1  -8 -10   71.46   10.11
  -1   8 -11  124.18   14.92
  -1   8  11  140.34   11.35
   1   8  11  139.17   11.19
   1  -8 -11  135.16   11.24
  -1  -8 -11  134.24   11.18
  -1   8 -12   76.87   11.48
  -1   8  12   67.97    8.10
   1   8  12   70.86    9.08
   1  -8 -12   64.48    8.75
  -1  -8 -12   64.95    8.57
  -1   8 -13   79.65   12.04
  -1   8  13  128.86   13.55
   1   8  13  109.80   12.14
   1  -8 -13  107.50   11.63
  -1  -8 -13  100.06   11.34
  -1   8 -14    5.99    2.21
  -1   8  14    1.55    3.14
   1   8  14    5.49    3.32
   1  -8 -14    5.90    5.30
  -1  -8 -14    6.30    3.86
  -1   8 -15    7.30    3.27
  -1   8  15   58.21    8.44
   1   8  15   36.07    6.17
   1  -8 -15   38.66    6.99
  -1  -8 -15   49.41    7.69
  -1   8  16   30.85    8.49
   1   8  16    6.50    4.62
   1  -8 -16   32.85    8.26
  -1  -8 -16   17.79    5.54
  -1   8  17  350.51   71.32
   1   8  17  272.08   25.69
   1  -8 -17  286.95   26.53
  -1  -8 -17  291.02   26.97
  -1   8  18   19.53    5.79
   1   8  18   15.57    5.86
   1  -8 -18   23.70    8.05
  -1  -8 -18    2.93    3.69
  -1   8  19   16.47    5.62
   1   8  19    4.18    2.98
   1  -8 -19   15.99    5.98
  -1  -8 -19   14.04    5.73
  -1   9   0  296.49   14.16
   1   9   0  307.12   14.55
   1  -9   0  345.52   16.78
  -1   9  -1  736.22   30.79
  -1   9   1  707.45   29.93
   1   9  -1  773.94   32.37
   1   9   1  785.52   32.94
   1  -9  -1  739.08   31.93
   1  -9   1  819.59   34.86
  -1   9  -2  388.00   17.37
  -1   9   2  354.44   16.40
   1   9  -2  364.79   16.39
   1   9   2  382.16   17.42
   1  -9  -2  366.15   17.58
   1  -9   2  383.97   18.34
  -1  -9  -2  375.02   18.37
  -1   9  -3  232.20   11.50
   1   9  -3  244.23   11.61
  -1   9   3  222.74   11.33
   1   9   3  223.31   11.45
   1  -9  -3  194.58   10.80
  -1  -9  -3  245.63   14.19
  -1   9  -4   63.28    6.14
   1   9  -4   70.13    6.18
  -1   9   4   55.14    5.38
   1   9   4   85.92    9.17
   1  -9  -4   62.74    6.82
  -1  -9  -4   80.52    8.78
  -1   9  -5  133.35    7.83
   1   9  -5  119.23    9.02
  -1   9   5  124.47   10.16
   1   9   5  119.23   10.09
   1  -9  -5  131.91    8.98
  -1  -9  -5  122.09   10.44
  -1   9  -6  175.77   12.93
   1   9  -6  191.91   13.67
  -1   9   6  174.41   13.42
   1   9   6  181.00   14.04
   1  -9  -6  155.86   13.20
  -1  -9  -6  187.44   14.54
  -1   9  -7  397.77   31.57
   1   9  -7  395.62   26.69
  -1   9   7  386.96   27.14
   1   9   7  340.78   24.24
   1  -9  -7  353.38   25.22
  -1  -9  -7  384.69   27.37
  -1   9  -8  209.42   16.66
   1   9  -8  198.08   13.12
  -1   9   8  203.80   14.50
   1   9   8  199.45   15.09
   1  -9  -8  183.21   14.09
  -1  -9  -8  174.34   13.44
  -1   9  -9  303.91   22.58
   1   9  -9  332.59   25.90
  -1   9   9  293.25   19.98
   1   9   9  313.39   21.54
   1  -9  -9  303.73   21.54
  -1  -9  -9  315.72   21.84
  -1   9 -10   56.91   12.41
   1   9 -10   30.50    6.46
  -1   9  10   42.47    9.18
   1   9  10   31.87    7.72
   1  -9 -10   37.51    8.51
  -1  -9 -10   29.56    7.38
  -1   9 -11  361.23   69.92
  -1   9  11  367.64   70.68
   1   9  11  340.82   27.00
   1  -9 -11  340.21   26.79
  -1  -9 -11  381.98   73.50
  -1   9 -12   42.06    6.18
  -1   9  12   42.51    6.34
   1   9  12   41.22    5.93
   1  -9 -12   42.88    5.92
  -1  -9 -12   42.55    7.64
  -1   9 -13   23.48    5.74
  -1   9  13   55.33    8.50
   1   9  13   28.00    7.59
   1  -9 -13   58.33    8.37
  -1  -9 -13   36.75    6.19
  -1   9  14   66.53    9.64
   1   9  14   63.47    8.93
   1  -9 -14   84.82   10.97
  -1  -9 -14   58.82    8.73
  -1   9  15   43.08    7.55
   1   9  15    9.05    4.10
   1  -9 -15   34.30    9.71
  -1  -9 -15   36.59    7.55
  -1   9  16   14.45    4.34
   1   9  16   12.49    5.02
   1  -9 -16   13.11    5.09
  -1  -9 -16    9.47    4.00
  -1   9  17   32.03    5.68
   1   9  17   33.69    6.64
   1  -9 -17   40.91    8.19
  -1  -9 -17   31.89    6.28
  -1   9  18   86.67   14.06
   1   9  18   44.26    8.58
   1  -9 -18   54.16    9.37
  -1  -9 -18   49.26    8.76
  -1  10   0  193.66   13.62
   1  10   0  225.31   15.42
   1 -10   0  225.22   16.87
  -1  10  -1  176.80   12.42
  -1  10   1  183.45   12.89
   1  10  -1  181.59   12.69
   1  10   1  191.65   13.43
   1 -10  -1  177.48   13.35
   1 -10   1  165.64   12.70
  -1 -10  -1  172.58   14.27
  -1  10  -2  342.25   22.21
  -1  10   2  332.08   21.81
   1  10  -2  347.58   22.55
   1  10   2  346.52   22.60
   1 -10  -2  346.59   23.58
  -1 -10  -2  334.33   23.07
   1 -10   2  354.73   23.72
  -1  10  -3  209.63   14.30
   1  10  -3  180.07   12.50
  -1  10   3  180.58   12.81
   1  10   3  188.53   13.33
   1 -10  -3  222.73   16.41
  -1 -10  -3  228.30   16.38
  -1  10  -4   57.33    8.05
   1  10  -4   68.16    8.69
  -1  10   4   57.51    7.91
   1  10   4   55.16    7.94
   1 -10  -4   57.06    8.12
  -1 -10  -4   38.79    7.45
  -1  10  -5   62.76    7.20
   1  10  -5   44.00    8.87
  -1  10   5   50.84   10.69
   1  10   5   56.89   11.51
   1 -10  -5   47.30   10.04
  -1 -10  -5   85.91    9.84
  -1  10  -6  122.53   12.74
   1  10  -6  119.40   11.73
  -1  10   6  111.04   11.64
   1  10   6  111.00   12.36
   1 -10  -6  107.46   12.18
  -1 -10  -6   88.48   10.84
  -1  10  -7  146.06   18.31
   1  10  -7  128.06   10.64
  -1  10   7   95.98    8.92
   1  10   7  126.10   11.99
   1 -10  -7  129.58   13.00
  -1 -10  -7   89.42    9.29
   1  10  -8  345.59   26.14
  -1  10   8  307.88   24.31
   1  10   8  302.29   24.09
   1 -10  -8  297.17   24.27
  -1 -10  -8  295.58   24.29
  -1  10  -9   73.64    8.37
   1  10  -9   63.12    7.40
  -1  10   9   72.40    7.82
   1 -10  -9   60.68    7.79
  -1 -10  -9   67.58    7.93
  -1  10 -10   17.01    4.00
  -1  10  10    7.37    4.53
   1  10  10   19.82    6.22
   1 -10 -10   10.19    4.21
  -1 -10 -10   10.22    4.42
  -1  10 -11   34.29    9.39
  -1  10  11   43.49    7.76
   1  10  11   26.30    6.75
   1 -10 -11   42.06    7.75
  -1 -10 -11   44.98    7.30
  -1  10 -12   17.14    4.75
  -1  10  12   36.00    8.23
   1  10  12   12.57    4.53
   1 -10 -12   20.08    7.29
  -1 -10 -12   28.46    8.80
  -1  10  13   19.77    6.44
   1  10  13   18.85    5.93
   1 -10 -13   11.27    5.80
  -1 -10 -13   17.64    6.28
  -1  10  14   31.97    6.80
   1  10  14   13.26    4.59
   1 -10 -14   30.45    7.09
  -1 -10 -14   34.62    7.93
  -1  10  15   60.92    8.94
   1  10  15   66.17    9.39
   1 -10 -15   96.47   13.48
  -1 -10 -15   72.25    9.65
  -1  10  16   13.03    4.62
   1  10  16   13.79    5.62
   1 -10 -16    9.23    4.46
  -1 -10 -16   29.46    7.37
  -1  11   0  170.40   14.02
   1  11   0  188.48   15.37
   1 -11   0  188.72   15.99
  -1 -11   0  165.02   14.57
  -1  11  -1  172.13   14.39
  -1  11   1  125.50   10.95
   1  11  -1  150.19   12.98
   1  11   1  166.41   13.89
   1 -11  -1  177.60   15.41
   1 -11   1  155.52   13.80
  -1 -11  -1  166.12   14.74
  -1  11  -2   13.41    4.01
   1  11  -2   25.27    6.40
  -1  11   2   20.76    4.95
   1  11   2   25.61    6.23
   1 -11  -2   19.95    6.69
   1 -11   2   28.71    7.58
  -1 -11  -2   26.65    7.36
  -1  11  -3   63.57    6.75
   1  11  -3   68.91    6.46
  -1  11   3   65.02    6.93
   1  11   3   51.94    5.74
   1 -11  -3   78.11    9.23
  -1 -11  -3   63.15    7.35
   1 -11   3   61.67    6.99
  -1  11  -4   23.97    5.75
   1  11  -4   28.47    6.51
  -1  11   4   16.74    4.65
   1  11   4   30.87    7.80
   1 -11  -4   28.99    8.02
  -1 -11  -4   41.70    7.37
   1 -11   4   24.37    5.92
  -1  11  -5   17.06    4.85
   1  11  -5   15.11    4.02
  -1  11   5   19.03    4.95
   1  11   5   25.99    6.38
   1 -11  -5   18.66    5.11
  -1 -11  -5   31.17    8.85
  -1  11  -6   66.92    8.68
   1  11  -6   60.78    7.56
  -1  11   6   27.19    6.66
   1  11   6   46.77    7.54
   1 -11  -6   48.87    8.19
  -1 -11  -6   49.36    9.22
  -1  11  -7   86.75   13.85
   1  11  -7   81.78    9.65
  -1  11   7   70.83    9.10
   1  11   7   83.46   10.69
   1 -11  -7   82.83   10.85
  -1 -11  -7   68.00    9.85
  -1  11  -8   23.89    6.34
   1  11  -8   13.47    3.95
  -1  11   8   34.36    8.94
   1  11   8   19.78    6.61
   1 -11  -8    6.53    4.12
  -1 -11  -8   13.33    6.47
  -1  11  -9   42.48    6.70
  -1  11   9   66.25    7.97
   1  11   9   33.13    8.55
   1 -11  -9   39.18    6.46
  -1 -11  -9   35.61    8.60
  -1  11 -10   11.87    3.38
  -1  11  10   12.00    5.22
   1  11  10    4.00    3.21
   1 -11 -10    3.88    3.82
  -1 -11 -10   15.61    6.01
  -1  11 -11    5.36    2.53
  -1  11  11   19.39    5.94
   1  11  11   24.74    7.18
   1 -11 -11    8.05    4.38
  -1 -11 -11   14.10    6.69
  -1  11  12   70.23   12.11
   1  11  12   82.88   14.10
   1 -11 -12   89.57   15.61
  -1 -11 -12   78.34   14.01
  -1  11  13   33.77    5.98
   1  11  13   48.30    7.56
   1 -11 -13   42.69    7.40
  -1 -11 -13   43.64    8.29
  -1  11  14   26.54    5.83
   1  11  14   28.05    6.51
   1 -11 -14   28.86    6.88
  -1 -11 -14   31.46    7.48
  -1  12   0  107.75   11.17
   1  12   0  103.86   11.17
   1 -12   0  150.10   15.71
  -1 -12   0  118.13   13.11
  -1  12  -1   37.17    5.28
  -1  12   1   37.99    5.50
   1  12  -1   44.11    5.85
   1  12   1   40.11    5.72
   1 -12  -1   34.55    9.24
   1 -12   1   42.23    7.30
  -1 -12  -1   48.61    7.73
  -1 -12   1   40.58    6.77
  -1  12  -2   49.98    6.52
  -1  12   2   46.41    5.83
   1  12  -2   62.94    7.58
   1  12   2   68.08    7.71
   1 -12  -2   47.57    7.26
  -1 -12  -2   50.62    7.76
   1 -12   2   65.36    9.50
  -1  12  -3   31.54    8.22
   1  12  -3   28.79    7.45
  -1  12   3   24.12    6.49
   1  12   3   25.63    7.01
   1 -12  -3   58.47    8.96
  -1 -12  -3   38.33    6.85
   1 -12   3   53.18    8.33
  -1  12  -4    2.44    2.89
   1  12  -4    3.00    2.00
  -1  12   4    4.60    4.22
   1  12   4    9.46    4.23
   1 -12  -4   13.61    6.08
  -1 -12  -4    2.54    4.35
   1 -12   4    6.48    3.93
  -1  12  -5    5.43    2.81
   1  12  -5    5.50    2.28
  -1  12   5   11.58    4.52
   1  12   5   18.16    5.21
   1 -12  -5   16.56    6.54
  -1 -12  -5   23.63    7.95
   1 -12   5    5.72    4.74
  -1  12  -6   15.13    4.83
   1  12  -6    9.16    3.32
  -1  12   6   22.66    6.10
   1  12   6    7.31    3.37
   1 -12  -6   18.07    6.91
  -1 -12  -6   31.21    8.74
  -1  12  -7    4.58    3.06
  -1  12   7    2.82    2.83
   1  12   7    7.66    3.44
   1 -12  -7   12.04    5.10
  -1 -12  -7    9.06    4.75
  -1  12  -8   85.05   15.80
  -1  12   8   91.04   14.72
   1  12   8   80.35   13.37
   1 -12  -8   81.14   14.09
  -1 -12  -8   57.20   11.12
  -1  12  -9   12.13    3.24
  -1  12   9   21.08    5.33
   1  12   9   24.19    5.86
   1 -12  -9   27.14    5.64
  -1 -12  -9   25.66    6.91
  -1  12  10  147.07   21.49
   1  12  10  124.96   18.67
   1 -12 -10  114.80   17.87
  -1 -12 -10  147.76   21.77
  -1  13   0    2.50    2.45
   1  13   0    2.17    3.48
   1 -13   0   -3.33    3.72
  -1 -13   0    6.89    4.15
  -1  13  -1   18.94    5.40
  -1  13   1   24.27    4.77
   1  13  -1   12.46    3.89
   1  13   1   24.98    4.31
   1 -13  -1   12.00    4.65
   1 -13   1   13.42    6.49
  -1 -13  -1   24.51    6.14
  -1 -13   1   24.64    5.45
  -1  13  -2   35.36    6.12
  -1  13   2   36.15    5.83
   1  13  -2   24.92    4.50
   1  13   2   25.00    4.72
  -1 -13  -2   50.91    9.70
   1 -13   2   41.65    7.12
  -1 -13   2   39.14    7.30
  -1  13  -3   50.31    7.15
   1  13  -3   51.13    6.98
  -1  13   3   36.17    6.11
   1  13   3   43.72    6.32
   1 -13  -3   75.75   11.23
  -1 -13  -3   59.21    9.95
   1 -13   3   50.22    8.17
  -1 -13   3   34.43    7.21
  -1  13  -4   69.07   10.85
   1  13  -4   61.72    9.80
  -1  13   4   69.65   10.98
   1  13   4   61.91   10.02
   1 -13  -4   71.66   11.99
  -1 -13  -4   86.64   14.08
   1 -13   4   70.42   12.26
  -1  13  -5   16.94    5.14
  -1  13   5   20.04    5.44
   1  13   5   30.11    6.25
   1 -13  -5   39.93    8.34
  -1 -13  -5   42.07    9.75
   1 -13   5   20.12    5.60
  -2   0   0  326.12    7.04
   2   0   0  396.94    8.92
   2   0   0  351.25    7.35
  -2   0   0  348.36    7.01
  -2   0   1 5887.50  106.97
   2   0   1 5978.78  108.82
   2   0  -1 5828.95  105.94
  -2   0  -2  653.33   12.67
   2   0   2  659.15   12.81
   2   0  -2  778.97   14.87
   2   0  -2  763.19   15.06
  -2   0   2  702.08   14.15
   2   0   3   25.74    3.37
  -2   0   3   26.63    3.39
   2   0  -3   25.01    1.49
   2   0  -3   29.46    4.92
  -2   0   3   22.73    1.82
  -2   0  -3   20.44    1.02
   2   0  -4  265.87    5.76
   2   0   4  310.83    9.09
   2   0  -4  320.62    8.13
  -2   0   4  282.48    6.71
  -2   0  -4  295.12    6.00
   2   0   5   50.10    4.70
  -2   0   5   27.12    1.52
   2   0  -5   32.15    1.80
   2   0   5   32.88    3.51
   2   0  -5   42.81    5.55
  -2   0   5   23.66    1.89
  -2   0  -5   28.73    1.53
   2   0   5   26.84    1.46
   2   0   6    2.06    1.40
  -2   0   6    1.52    0.96
   2   0  -6    2.86    1.34
   2   0   6    0.50    2.60
   2   0  -6    6.27    3.08
  -2   0   6    8.18    2.31
  -2   0  -6    4.83    1.24
   2   0   6    4.84    1.53
   2   0   7    1.95    0.86
  -2   0   7    1.94    0.54
   2   0  -7    2.23    1.06
   2   0   7   11.74    4.63
   2   0  -7    2.33    2.22
  -2   0   7   -0.28    1.49
  -2   0  -7    2.90    1.10
   2   0   7    3.21    1.27
   2   0   8    6.39    0.92
  -2   0   8    3.98    1.12
   2   0  -8    4.60    1.17
   2   0   8   12.27    4.85
   2   0  -8    4.64    1.81
  -2   0  -8    5.08    1.89
   2   0   8    6.66    1.51
   2   0  -9 2195.55   55.10
   2   0   9 2453.98   63.82
   2   0  -9 2343.90   59.63
  -2   0  -9 2276.30   57.02
   2   0   9 2259.04   56.60
  -2   0  10   32.62    2.29
   2   0 -10   33.86    2.49
   2   0  10   36.07    4.08
   2   0 -10   41.41    4.54
  -2   0 -10   35.53    2.58
   2   0  10   34.01    2.16
  -2   0  11  646.38   20.83
   2   0 -11  590.53   19.49
   2   0  11  655.24   23.38
   2   0 -11  657.05   22.77
  -2   0 -11  651.06   21.80
   2   0  11  618.78   20.32
  -2   0  12  215.34    9.31
   2   0  12  219.22   11.16
   2   0 -12  199.48    9.05
   2   0 -12  232.17   14.52
  -2   0 -12  202.81    9.27
  -2   0  13 1043.58   60.83
   2   0  13 1001.24   59.56
   2   0 -13  882.19   51.74
   2   0 -13 1022.17   61.81
  -2   0 -13 1014.64   59.92
  -2   0  14    1.01    2.05
   2   0  14    7.88    4.52
   2   0 -14    5.37    2.53
   2   0 -14    5.86    1.64
  -2   0 -14    2.64    2.00
  -2   0  15   63.49    4.39
   2   0  15   71.77    7.26
   2   0 -15   56.99    9.83
  -2   0 -15   76.10    5.70
  -2   0  16    7.02    2.09
   2   0  16    9.42    3.72
   2   0 -16   10.00    3.06
  -2   0 -16   19.73    3.37
  -2   0  17  230.16   15.87
   2   0  17  239.05   18.38
   2   0 -17  271.51   34.22
  -2   0 -17  226.91   20.75
  -2   0  18    5.07    2.19
   2   0  18    4.76    2.75
   2   0 -18    6.29    1.93
  -2   0 -18    5.66    1.83
  -2   0  19   60.59   11.61
   2   0  19   67.62    8.73
   2   0 -19   75.20   12.51
  -2   0 -19   63.57   16.21
   2   0  20   77.21    8.49
   2   0 -20  106.30   12.31
  -2   0 -20   70.11   17.03
   2   0  21  250.14   27.98
  -2   0 -21  328.21   35.50
   2   0 -21  302.98   35.58
   2   0  22   17.37    5.21
  -2   0 -22   46.87   13.83
   2   0 -22   61.06   10.27
   2   0  23   77.86   13.58
  -2   0 -23  116.23   24.28
   2   0 -23  117.02   24.66
   2   0  24   10.03    4.39
  -2   0 -24   18.25    6.28
   2   0 -24   11.99    4.67
  -2   1   0 8218.32  149.30
   2  -1   0 8223.38  206.18
   2   1   0 7925.25  144.81
  -2   1  -2   79.20    2.62
   2   1  -2   84.37    2.25
   2  -1   2   88.15    2.90
  -2   1   2   94.96    3.18
   2  -1  -2   80.77    2.71
   2   1   2   81.41    4.32
  -2  -1  -2   89.17    4.27
   2   1  -2   92.64    3.37
   2   1  -2   85.66    4.23
  -2  -1   2   82.27    3.09
   2  -1  -2   72.29    2.73
  -2   1   2   80.30    2.76
  -2   1  -3 1057.45   20.16
   2   1  -3 1019.36   18.92
  -2   1   3 1132.93   21.65
   2  -1  -3 1158.18   22.06
   2   1   3 1199.80   24.45
  -2  -1  -3 1061.82   21.96
   2   1  -3 1160.27   22.75
  -2  -1   3 1122.17   21.71
   2  -1  -3 1159.98   22.47
  -2   1   3 1099.59   21.21
  -2  -1   4  367.82    7.05
  -2   1  -4  378.70    8.45
   2  -1   4  355.07    7.67
  -2   1   4  393.04    8.58
   2   1   4  383.83   10.18
  -2  -1  -4  366.93    9.54
   2   1  -4  379.23    8.81
  -2  -1   4  367.40    8.68
   2  -1  -4  367.16    8.80
  -2   1   4  331.25    7.63
   2  -1   4  348.18    6.60
  -2   1  -5  924.49   17.85
  -2  -1   5 1032.49   18.95
   2  -1   5 1096.48   21.20
   2  -1  -5 1052.83   20.47
   2   1   5 1132.91   24.05
  -2  -1  -5 1003.57   21.39
  -2   1  -5 1077.80   19.99
   2   1  -5 1153.53   23.05
  -2  -1   5 1050.78   21.09
   2  -1  -5 1101.05   21.89
  -2   1   5 1056.31   20.83
   2  -1   5 1085.77   20.15
  -2  -1  -5 1111.69   21.40
   2  -1   6  177.61    5.54
  -2  -1   6  153.86    4.44
  -2   1   6  185.73    6.06
   2  -1  -6  153.53    5.17
   2   1  -6  146.83    4.16
   2   1   6  189.14    7.52
  -2  -1  -6  169.11    6.81
   2   1  -6  187.14    7.25
  -2   1  -6  176.69    5.84
  -2  -1   6  187.02    6.37
   2  -1  -6  179.16    6.92
  -2   1   6  157.51    5.43
   2  -1   6  185.42    5.32
  -2  -1  -6  184.02    5.85
   2   1   6  182.67    5.87
   2  -1   7  113.16    3.89
  -2   1   7  139.25    5.04
   2  -1  -7  120.15    4.60
   2   1  -7  116.36    3.47
   2   1   7  156.28    7.14
  -2  -1  -7  101.69    5.71
   2  -1   7  141.24    7.22
   2   1  -7  127.20    6.91
  -2   1  -7  134.88    4.40
  -2  -1   7  128.89    5.20
   2  -1  -7  146.35    5.83
  -2   1   7  122.49    4.81
   2  -1   7  129.43    4.23
  -2  -1  -7  132.59    4.78
   2   1   7  133.32    4.69
  -2   1   8   88.27    3.95
   2  -1  -8   61.79    3.32
   2   1  -8   77.72    2.73
   2   1   8   86.81    5.78
   2  -1   8   84.88    5.58
   2   1  -8   91.27   10.73
  -2   1  -8   74.46    5.46
   2  -1  -8   69.86    4.33
   2  -1   8   80.18    3.12
  -2  -1  -8   77.63    3.67
   2   1   8   64.44    3.17
  -2   1   9 1245.28   32.00
   2  -1  -9 1214.78   31.58
   2   1   9 1145.57   31.71
   2   1  -9 1042.87   26.33
   2  -1   9 1213.23   33.27
   2   1  -9 1170.88   30.95
  -2   1  -9 1204.28   30.80
   2  -1  -9 1276.64   33.62
  -2  -1  -9 1172.53   30.37
   2  -1   9 1198.15   30.52
   2   1   9 1164.16   30.04
  -2   1  10  522.25   14.49
   2  -1 -10  517.46   14.87
   2   1  10  513.16   16.69
   2  -1  10  517.99   16.49
   2   1 -10  463.60   12.38
   2   1 -10  494.26   18.17
  -2   1 -10  488.38   14.91
   2  -1 -10  519.69   16.31
  -2  -1 -10  495.52   13.94
   2  -1  10  493.42   13.46
   2   1  10  503.58   14.16
  -2  -1  11  432.89   13.91
  -2   1  11  503.48   16.87
   2  -1 -11  461.99   15.86
   2   1  11  505.92   19.12
   2  -1  11  460.39   17.28
   2   1 -11  434.86   14.23
   2   1 -11  461.80   17.36
  -2   1 -11  503.20   18.87
   2  -1 -11  471.63   17.56
  -2  -1 -11  467.67   15.90
   2  -1  11  489.27   16.25
   2   1  11  485.23   16.53
  -2  -1  12  403.81   15.99
  -2   1  12  460.84   18.87
   2  -1 -12  422.86   17.64
   2   1  12  466.70   20.74
   2  -1  12  454.58   20.06
   2   1 -12  401.17   16.15
   2   1 -12  450.00   19.55
  -2   1 -12  437.29   18.64
   2  -1 -12  399.91   24.85
  -2  -1 -12  425.61   17.60
   2  -1  12  398.50   16.29
  -2   1  13  624.72   36.90
  -2  -1  13  560.13   32.79
   2   1  13  605.97   37.18
   2  -1 -13  553.55   33.08
   2  -1  13  661.79   40.12
   2   1 -13  541.30   31.87
   2   1 -13  587.06   36.22
  -2   1 -13  614.30   37.87
   2  -1 -13  548.33   35.73
  -2  -1 -13  616.63   36.66
  -2   1  14  377.61   22.79
   2   1  14  399.23   25.41
   2  -1  14  424.35   26.67
   2   1 -14  348.92   20.93
   2   1 -14  372.41   30.43
  -2   1 -14  409.76   24.88
   2  -1 -14  377.90   24.22
  -2  -1 -14  399.68   24.29
  -2   1  15 1347.18   47.43
  -2  -1  15 1286.29   44.73
   2   1  15 1427.38   52.00
   2  -1  15 1403.89   51.18
  -2   1 -15 1495.72   54.16
   2   1 -15 1430.11   52.00
   2  -1 -15 1415.13   55.19
  -2  -1 -15 1465.45   51.81
  -2   1  16   89.02    7.28
  -2  -1  16   52.24    4.44
   2   1  16   75.82    7.71
   2  -1  16   71.75    7.58
   2   1 -16   86.78   13.08
  -2   1 -16   90.03    8.84
   2  -1 -16   91.25   11.00
  -2  -1 -16   99.21    7.91
  -2   1  17   28.95    4.84
  -2  -1  17   15.84    2.55
   2   1  17   29.33    6.30
   2  -1  17   24.76    4.85
   2   1 -17   39.13    6.86
  -2   1 -17   42.03    8.27
   2  -1 -17   39.11    7.34
  -2  -1 -17   45.29    7.81
  -2  -1  18   61.84    7.46
  -2   1  18   78.99    6.63
   2   1  18   72.85   10.40
   2  -1  18   54.14    8.19
  -2   1 -18   67.13   12.89
   2   1 -18   69.41   13.31
   2  -1 -18   75.38   15.64
  -2  -1 -18   80.43   12.19
  -2   1  19   24.42    5.23
   2   1  19   40.95    9.30
   2  -1  19   60.85   12.60
  -2   1 -19   51.07   11.88
   2   1 -19   60.44   14.17
   2  -1 -19   53.09   12.28
  -2  -1 -19   64.97   10.25
  -2   1  20   31.52    6.70
   2   1  20   26.14    6.58
  -2   1 -20   54.39   11.14
   2   1 -20   74.70   14.13
   2  -1 -20   54.67   11.39
  -2  -1 -20   42.61    8.57
   2   1  21   33.83    9.59
   2  -1  21    8.62    5.00
   2   1 -21   11.55    3.51
  -2   1 -21   13.02    3.30
   2  -1 -21   10.41    3.06
  -2  -1 -21   14.45    4.50
   2   1  22   11.75    3.99
   2  -1  22   11.52    4.43
   2   1 -22   14.41    5.21
  -2   1 -22    6.01    4.56
   2  -1 -22   13.95    5.27
  -2  -1 -22    6.73    3.44
   2   1  23   26.40    7.13
   2  -1  23   38.12    8.24
   2   1 -23   52.40   12.58
  -2   1 -23   15.83    7.89
   2  -1 -23   32.72    8.37
  -2  -1 -23   31.48   12.00
   2   1  24   24.76    6.58
  -2   1 -24    7.78    4.83
   2   1 -24   15.55    5.70
   2  -1 -24   12.09    5.43
  -2  -1 -24   21.77    7.49
  -2   2   0 6040.91  110.31
   2  -2   0 6138.33  112.13
   2   2   0 5888.97  108.26
  -2  -2   0 5570.52  102.44
   2  -2   1 1860.89   34.94
  -2   2   1 1949.34   36.62
   2  -2  -1 1803.24   33.89
   2   2   1 1783.31   34.57
   2   2  -1 1889.77   35.89
  -2  -2  -1 1758.65   34.15
   2  -2  -1 1804.25   33.63
   2  -2   1 1950.86   36.00
  -2   2  -2 1616.01   30.47
   2  -2   2 1617.82   30.48
  -2   2   2 1677.32   31.70
   2  -2  -2 1668.48   31.58
   2   2   2 1568.12   31.13
  -2  -2  -2 1555.75   30.67
  -2  -2   2 1596.02   30.29
  -2  -2   2 1664.34   31.75
   2  -2  -2 1625.95   30.68
  -2   2   2 1589.85   30.02
   2  -2   2 1649.82   30.45
   2  -2   3  790.74   15.65
  -2   2   3  807.90   16.25
   2  -2  -3  819.30   16.45
   2   2  -3  838.93   16.30
   2   2   3  772.69   16.98
  -2  -2  -3  754.75   16.53
  -2  -2   3  799.04   16.27
   2  -2  -3  835.92   16.90
  -2   2   3  771.23   15.48
   2   2  -4  678.17   12.55
  -2   2  -4  685.90   13.87
   2  -2   4  666.78   13.30
  -2   2   4  770.29   15.60
   2  -2  -4  789.04   16.13
   2   2  -4  740.03   14.07
   2   2   4  719.45   16.37
  -2  -2  -4  734.27   16.45
   2   2  -4  725.77   15.26
   2  -2   4  777.58   14.78
  -2  -2   4  763.05   17.26
   2  -2  -4  702.40   14.70
  -2   2   4  711.69   14.63
  -2  -2  -4  761.98   15.58
  -2   2  -5  240.82    7.22
   2  -2   5  250.30    7.43
  -2   2   5  268.27    8.33
   2   2   5  253.34    9.14
  -2  -2  -5  230.25    8.34
   2   2  -5  242.21    7.99
  -2  -2   5  244.29    8.05
   2  -2   5  250.50    7.23
   2  -2  -5  258.08    8.49
  -2   2   5  242.26    7.75
  -2   2  -6  485.96   13.64
   2  -2   6  479.03   13.23
   2  -2  -6  477.10   13.52
   2   2   6  499.34   15.37
  -2  -2  -6  469.18   14.67
   2   2  -6  512.02   14.83
  -2  -2   6  431.32   13.21
   2  -2   6  474.91   13.18
   2  -2  -6  455.13   13.24
  -2   2   6  430.78   12.61
  -2  -2  -6  553.36   15.40
  -2   2  -7   19.70    4.16
  -2   2   7    6.75    2.53
   2  -2  -7    5.74    1.34
   2   2   7    0.22    2.58
  -2   2  -7   10.59    1.64
   2   2  -7   14.82    2.46
   2  -2   7   11.79    1.35
   2  -2  -7    7.98    2.37
  -2  -2  -7   12.03    1.85
   2   2   7   15.39    3.25
  -2   2  -8  196.29    6.09
  -2   2   8  224.28    7.51
   2  -2  -8  261.68    8.76
   2   2   8  220.38    8.99
  -2   2  -8  209.92    7.38
   2   2  -8  218.18   10.66
   2  -2   8  217.51    6.37
   2  -2  -8  222.93    7.79
  -2  -2  -8  236.01    7.66
   2   2   8  228.05    7.40
  -2   2   9  115.93    4.88
   2  -2  -9  119.83    5.15
   2   2   9  122.16    7.14
   2  -2   9  142.34    7.16
  -2   2  -9  106.53    4.63
   2   2  -9  117.20    8.86
   2  -2   9  111.73    3.90
   2  -2  -9  111.14    4.86
  -2  -2  -9  110.67    4.74
   2   2   9  104.17    4.23
  -2   2  10    7.93    2.26
   2  -2 -10    6.28    2.06
   2   2  10    6.42    3.48
   2  -2  10   -0.11    2.80
  -2   2 -10    3.15    1.55
   2   2 -10   12.21    2.43
   2  -2 -10    2.41    2.53
   2  -2  10    6.91    1.68
  -2  -2 -10   11.34    3.62
  -2   2  11   12.50    2.17
   2   2  11   24.53    3.43
   2  -2  11   17.59    3.25
   2   2 -11   28.86    4.75
  -2   2 -11   20.48    2.13
   2  -2 -11   15.97    3.49
   2  -2  11   17.41    1.97
  -2  -2 -11   21.75    2.77
  -2  -2  12   61.99    2.56
  -2   2  12   88.70    5.28
   2   2  12   81.09    6.29
   2  -2  12   93.63    6.84
  -2   2 -12   83.00    5.00
   2   2 -12  103.95    7.75
   2  -2 -12   75.95    5.35
  -2  -2 -12   93.93    5.85
   2  -2  12   70.27    3.96
  -2  -2  13   89.76    5.89
  -2   2  13  103.44    7.48
   2   2  13   56.42    5.75
   2  -2  13   87.57    7.83
  -2   2 -13  111.48   13.35
   2   2 -13   98.72   13.98
   2  -2 -13  107.53    8.34
  -2  -2 -13   87.14    7.37
  -2  -2  14  499.77   21.16
  -2  -2  14  398.87   17.06
  -2   2  14  613.52   27.43
   2   2  14  538.21   25.70
   2  -2  14  600.75   28.38
  -2   2 -14  514.24   26.23
   2   2 -14  567.04   29.08
   2  -2 -14  524.26   25.34
  -2  -2 -14  559.99   25.25
  -2  -2  15   52.49    2.52
  -2   2  15   82.30    5.59
   2   2  15   67.31    6.22
   2  -2  15   57.65    5.89
  -2   2 -15   73.98    9.18
   2   2 -15   74.78    9.31
   2  -2 -15   61.64    5.11
  -2  -2 -15   71.80    5.35
  -2  -2  16   18.96    1.80
  -2   2  16   29.54    4.51
   2   2  16   37.23    6.10
   2  -2  16   32.52    5.02
  -2   2 -16   44.91    9.12
   2   2 -16   56.26    9.33
   2  -2 -16   42.13    7.41
  -2  -2 -16   42.64    5.01
  -2   2  17  356.85   24.88
   2   2  17  334.94   24.26
   2  -2  17  345.83   24.96
  -2   2 -17  290.43   22.60
   2   2 -17  334.06   34.35
   2  -2 -17  310.97   31.61
  -2  -2 -17  287.86   20.39
  -2   2  18  145.15   11.09
   2   2  18  112.55   10.66
   2  -2  18  151.95   11.96
   2   2 -18  117.61   11.68
  -2   2 -18  105.43   17.59
   2  -2 -18  126.80   19.17
  -2  -2 -18  137.55   10.31
  -2   2  19   16.99    4.20
   2   2  19    2.34    4.16
   2   2 -19   23.89    6.71
  -2   2 -19   17.37    5.61
   2  -2 -19   15.70    4.45
  -2  -2 -19   26.61    6.09
  -2   2  20   11.24    3.94
   2   2  20   12.75    5.77
   2  -2  20    7.64    3.78
   2   2 -20    5.65    2.56
  -2   2 -20   10.02    3.15
   2  -2 -20    4.49    3.34
  -2  -2 -20   10.30    3.39
  -2   2  21    1.29    1.64
   2   2  21   10.95    3.94
   2  -2  21    3.57    3.03
  -2   2 -21   20.21    5.81
   2   2 -21   21.19    5.93
   2  -2 -21   16.35    5.75
  -2  -2 -21   15.37    3.80
   2   2  22   25.11    6.73
   2  -2  22   15.99    4.79
  -2   2 -22   14.11    5.05
   2   2 -22   20.02    4.86
   2  -2 -22   20.15    7.10
  -2  -2 -22    9.17    3.87
   2   2  23    8.73    3.41
  -2   2 -23    3.08    2.38
   2   2 -23    4.24    2.26
   2  -2 -23    4.07    3.30
  -2  -2 -23    7.26    2.72
   2   2  24   26.62    6.18
   2   2 -24   27.83   11.48
   2  -2 -24   27.15    8.38
  -2  -2 -24   28.31    7.21
  -2   3   0 1002.29   19.81
   2  -3   0 1136.22   22.21
   2   3   0 1189.93   23.95
  -2  -3   0 1094.62   22.11
  -2   3  -1  288.47    7.10
  -2   3   1  317.69    7.57
   2  -3   1  282.98    6.71
   2  -3  -1  285.64    6.90
   2   3   1  294.58    8.16
  -2  -3   1  271.38    7.05
   2  -3   1  306.47    7.29
  -2   3   1  300.11    7.09
  -2   3  -2 1964.02   37.02
   2  -3   2 1984.94   37.47
  -2   3   2 1898.45   36.03
   2  -3  -2 1932.26   36.73
   2   3  -2 1931.33   36.49
   2   3   2 1980.24   38.59
  -2  -3   2 1860.50   35.30
  -2  -3  -2 1831.36   35.92
   2  -3  -2 2000.07   37.80
   2  -3   2 1996.04   37.27
  -2   3  -3  218.17    7.31
   2  -3   3  231.40    7.05
  -2   3   3  245.54    7.80
   2  -3  -3  252.81    8.02
   2   3  -3  252.70    7.41
   2   3   3  241.68    8.86
  -2  -3  -3  213.36    7.64
  -2  -3   3  240.45    7.42
  -2  -3   3  234.94    8.16
   2  -3  -3  243.03    8.26
  -2   3   3  219.21    6.97
  -2   3  -4  362.42   10.48
   2  -3   4  370.69   10.54
  -2   3   4  382.62   11.34
   2  -3  -4  389.12   11.65
   2   3  -4  347.89    9.46
   2   3   4  402.37   12.88
  -2  -3  -4  395.19   12.90
  -2  -3   4  406.94   11.18
  -2  -3   4  368.56   11.75
   2  -3  -4  331.93   10.21
  -2   3   4  352.05   10.41
  -2  -3  -4  380.51   11.48
  -2   3  -5  597.25   16.28
   2  -3   5  558.89   15.17
  -2   3   5  668.16   18.46
   2  -3  -5  614.35   17.25
   2   3   5  624.41   18.46
  -2  -3   5  582.20   15.18
   2  -3   5  625.00   16.90
   2  -3  -5  620.19   17.26
  -2   3   5  571.36   16.05
  -2  -3  -5  622.34   17.48
  -2   3  -6 1297.90   33.87
  -2   3   6 1275.84   33.67
   2   3   6 1295.30   35.34
   2  -3   6 1324.55   34.10
   2  -3  -6 1107.86   29.70
  -2   3  -7  391.36   10.95
   2   3   7  422.57   13.53
   2   3  -7  404.03   13.02
   2  -3   7  407.50   11.17
   2  -3  -7  460.34   14.07
  -2  -3  -7  426.88   12.62
  -2   3  -8  424.56   12.18
  -2   3   8  400.00   12.03
   2   3   8  399.40   13.27
   2   3  -8  401.17   14.34
   2  -3   8  376.55   14.18
   2  -3  -8  368.66   11.67
  -2  -3  -8  381.22   11.70
  -2   3  -9   19.55    2.94
  -2   3   9   14.22    2.36
   2   3   9   13.32    4.37
   2   3  -9    8.18    2.56
   2  -3   9    9.54    1.78
   2  -3  -9   11.40    3.03
  -2  -3  -9    9.44    2.25
  -2   3 -10  491.04   16.15
  -2   3  10  557.23   19.01
   2   3  10  528.94   19.52
   2   3 -10  526.88   18.57
   2  -3  10  536.74   17.57
   2  -3 -10  560.03   19.56
  -2  -3 -10  584.40   20.01
  -2   3  11  151.43    7.74
   2   3  11  164.16    9.63
   2  -3  11  169.85    9.40
  -2   3 -11  131.29    9.19
   2   3 -11  146.88   13.94
   2  -3  11  131.06    6.14
   2  -3 -11  151.22    8.44
  -2  -3 -11  143.72    7.55
  -2   3  12  498.88   30.03
   2   3  12  417.68   26.42
   2  -3  12  480.42   29.79
  -2   3 -12  380.98   23.18
   2   3 -12  488.87   38.44
   2  -3 -12  433.99   26.68
  -2  -3 -12  458.20   27.84
  -2   3  13  233.45   15.18
   2   3  13  243.42   16.66
   2  -3  13  243.49   16.32
  -2   3 -13  214.85   13.72
   2   3 -13  203.38   17.90
   2  -3 -13  210.72   13.97
  -2  -3 -13  243.92   15.67
  -2   3  14  320.84   15.83
   2   3  14  294.16   16.21
   2  -3  14  272.91   14.57
  -2   3 -14  254.66   16.55
   2   3 -14  264.67   19.39
   2  -3 -14  262.70   13.49
  -2  -3 -14  283.00   14.09
  -2   3  15   56.09    5.09
   2   3  15   78.82    8.81
   2  -3  15   71.42    7.57
  -2   3 -15   54.31   11.44
   2   3 -15   56.37    8.76
   2  -3 -15   63.63    6.42
  -2  -3 -15   66.18    5.19
  -2   3  16  107.17    9.18
   2   3  16  104.66   10.38
   2  -3  16  102.10    9.71
  -2   3 -16   86.41   17.66
   2   3 -16   86.34   14.85
   2  -3 -16   96.44    8.91
  -2  -3 -16   98.42    8.26
  -2   3  17    7.91    3.39
   2   3  17   20.78    4.57
   2  -3  17   14.41    4.10
  -2   3 -17    5.93    2.48
   2   3 -17    7.44    3.16
   2  -3 -17   18.05    4.26
  -2  -3 -17   15.90    4.04
  -2   3  18  163.16   15.98
   2   3  18  160.61   16.43
   2  -3  18  143.59   15.07
  -2   3 -18  141.70   15.93
   2   3 -18  144.67   23.01
   2  -3 -18  190.42   18.48
  -2  -3 -18  137.61   13.46
  -2   3  19   48.80    5.66
   2   3  19   23.99    6.86
   2  -3  19   33.14    7.33
  -2   3 -19   24.79   10.06
   2   3 -19   30.29    7.95
   2  -3 -19   50.74    9.32
  -2  -3 -19   37.53    8.38
  -2   3  20  241.83   26.66
   2   3  20  189.11   21.91
   2  -3  20  182.16   20.84
  -2   3 -20  195.65   22.20
   2   3 -20  201.08   23.12
   2  -3 -20  168.12   26.28
  -2  -3 -20  223.49   24.64
  -2   3  21   16.04    4.70
   2   3  21   17.32    5.57
   2  -3  21    8.21    4.47
  -2   3 -21   12.15    5.56
   2   3 -21   17.10    5.76
   2  -3 -21   25.41   10.08
  -2  -3 -21   16.42    4.84
   2   3  22   64.06   11.94
  -2   3 -22   33.70   15.31
   2   3 -22   42.14   18.48
   2  -3 -22   74.30   15.92
  -2  -3 -22   63.65   11.30
   2   3  23   24.67    4.99
   2   3 -23   31.03   11.68
   2  -3 -23   34.66    9.51
  -2  -3 -23   34.68   10.66
  -2   4   0 4137.92  102.89
  -2  -4   0 4063.56  101.77
   2  -4   0 4395.63  109.21
  -2   4  -1   83.07    4.08
  -2   4   1   65.77    3.42
   2  -4   1   74.49    3.50
   2   4  -1   82.54    4.10
   2   4   1   98.59    4.86
  -2  -4   1   89.63    4.65
  -2  -4  -1   78.72    4.12
   2  -4  -1   84.37    4.58
   2  -4   1   74.10    3.93
  -2   4  -2  471.58   13.37
  -2   4   2  430.96   12.42
   2   4  -2  524.99   14.77
   2   4   2  466.73   14.07
  -2  -4   2  518.06   14.93
   2  -4   2  504.84   14.23
  -2   4   2  480.47   13.71
  -2   4  -3  520.38   15.42
  -2   4   3  537.26   15.22
   2   4  -3  567.35   15.48
   2   4   3  531.12   16.06
  -2  -4   3  531.71   14.99
  -2  -4  -3  528.14   16.16
   2  -4  -3  568.56   16.32
  -2   4   3  519.88   14.86
  -2   4  -4 1136.16   29.93
  -2   4   4 1478.96   38.09
   2   4  -4 1371.50   35.27
   2   4   4 1336.44   35.60
  -2  -4   4 1343.49   34.39
   2  -4  -4 1372.77   35.66
  -2  -4  -4 1371.14   36.52
  -2   4  -5  840.50   22.53
  -2   4   5  848.86   22.97
   2   4  -5  748.65   19.16
   2   4   5  828.44   23.48
  -2  -4   5  856.25   22.23
   2  -4  -5  767.18   21.29
  -2  -4  -5  861.29   23.59
  -2   4  -6  100.08    8.15
   2   4  -6   66.73    2.36
  -2   4   6   76.14    4.09
   2   4   6   80.53    5.49
  -2  -4   6   95.08    3.55
   2  -4   6   83.48    7.57
   2  -4  -6   75.58    4.90
  -2  -4  -6   89.84    4.77
  -2   4  -7  276.00    8.64
  -2   4   7  265.38    9.10
   2   4   7  281.29   10.68
  -2  -4   7  266.10    7.20
   2  -4   7  263.19    9.52
   2  -4  -7  284.95   10.36
  -2  -4  -7  239.26    8.86
  -2   4  -8   63.89    6.76
  -2   4   8   52.33    3.98
   2   4   8   38.07    4.07
   2  -4   8   52.36    6.52
   2  -4  -8   37.98    4.24
  -2  -4  -8   55.26    4.47
  -2   4  -9  455.74   15.78
  -2   4   9  414.01   15.06
   2   4   9  394.80   15.30
   2  -4   9  375.74   13.72
   2  -4  -9  403.68   15.09
  -2  -4  -9  424.53   15.46
  -2   4  10  394.02   16.98
   2   4  10  376.61   17.41
   2  -4  10  309.50   13.89
   2  -4 -10  369.40   16.59
  -2  -4 -10  380.38   16.58
  -2   4 -11  129.54   10.68
  -2   4  11  177.27   11.85
   2   4  11  173.46   12.66
   2   4 -11  148.17   10.63
   2  -4 -11  164.96   11.41
  -2  -4 -11  169.46   11.42
  -2   4  12   87.57    6.92
   2   4  12   78.22    7.44
   2   4 -12   84.82    7.93
   2  -4 -12   83.03    7.79
  -2  -4 -12   84.74    7.54
  -2   4  13    3.78    2.50
   2   4  13    4.93    4.52
   2  -4  13    2.07    3.34
   2   4 -13    9.73    3.41
   2  -4 -13   13.34    5.07
  -2  -4 -13    4.86    3.24
  -2   4  14   87.23    6.33
   2   4  14   78.65    6.95
   2  -4  14  101.09    7.69
   2   4 -14   87.75    8.86
   2  -4 -14   73.18    5.57
  -2  -4 -14   97.09    6.52
  -2   4  15  235.66   12.61
   2   4  15  210.44   12.56
   2  -4  15  246.91   13.61
   2   4 -15  197.63   13.20
   2  -4 -15  196.45   10.62
  -2  -4 -15  202.19   10.74
  -2   4  16   33.04    5.55
   2   4  16   35.19    7.74
   2  -4  16   29.76    5.54
   2   4 -16   22.92    6.81
   2  -4 -16   44.38    7.53
  -2  -4 -16   49.43    7.88
  -2   4  17   25.15    5.77
   2   4  17   22.45    6.43
   2  -4  17   22.20    5.83
   2   4 -17   22.48    8.52
   2  -4 -17   38.47    8.72
  -2  -4 -17   41.28    8.87
  -2   4  18   26.54    6.41
   2   4  18   30.35    7.51
   2  -4  18   37.63    8.17
   2   4 -18   34.22   11.42
   2  -4 -18   34.35    7.69
  -2  -4 -18   49.30    6.92
  -2   4  19  283.41   21.40
   2   4  19  249.33   20.02
   2  -4  19  228.90   17.88
   2   4 -19  223.64   19.27
   2  -4 -19  260.73   20.37
  -2  -4 -19  246.55   18.50
  -2   4  20    6.33    3.98
   2   4  20    6.46    4.35
   2  -4  20    6.69    2.96
   2   4 -20    3.52    2.77
   2  -4 -20   12.32    6.91
  -2  -4 -20    6.96    4.29
  -2   4  21  157.73   15.65
   2   4  21   88.86   10.28
   2  -4  21  106.62   11.78
   2   4 -21   74.67   24.89
   2  -4 -21  134.26   15.42
  -2  -4 -21  149.59   14.77
  -2   4  22    8.31    3.28
   2   4  22    8.42    3.73
   2   4 -22   18.07    5.72
   2  -4 -22   16.26    5.00
  -2  -4 -22   26.51    6.88
   2   4  23   17.07    6.12
   2   4 -23   17.73    9.87
   2  -4 -23   22.56    7.04
  -2  -4 -23   46.70    8.68
  -2   5   0   50.77    3.48
   2   5   0   43.74    3.12
  -2  -5   0   36.87    3.20
   2  -5   0   50.41    3.42
  -2   5  -1  269.47    8.61
  -2   5   1  252.67    8.21
   2   5  -1  279.13    9.00
  -2  -5  -1  228.26    8.24
  -2  -5   1  263.15    8.93
   2  -5  -1  261.81    8.89
   2  -5   1  245.76    8.13
  -2   5  -2  686.56   18.83
  -2   5   2  677.68   18.68
   2   5  -2  716.07   19.49
   2   5   2  747.62   20.95
  -2  -5   2  666.82   18.49
   2  -5  -2  622.72   17.69
   2  -5   2  719.68   19.68
  -2   5  -3  274.32    8.93
  -2   5   3  255.02    8.37
   2   5  -3  293.64    9.10
   2   5   3  314.83   11.21
  -2  -5   3  247.39    7.99
   2  -5  -3  269.16    9.81
  -2   5  -4   95.55   12.48
  -2   5   4   85.94    4.60
   2   5  -4   91.28    3.91
   2   5   4   84.53    5.24
  -2  -5   4   88.40    3.91
   2  -5  -4   83.04    4.67
  -2  -5  -4   93.25    6.03
  -2   5  -5   54.90    6.93
  -2   5   5   58.82    4.34
   2   5  -5   48.84    2.78
   2   5   5   67.39    5.56
  -2  -5   5   53.17    3.07
   2  -5  -5   47.64    4.43
  -2  -5  -5   37.32    3.78
  -2   5  -6   67.29    7.90
   2   5  -6   64.92    2.90
  -2   5   6   62.41    4.53
   2   5   6   66.93    5.59
  -2  -5   6   69.81    3.48
   2  -5  -6   57.22    4.11
  -2  -5  -6   67.60    4.84
  -2   5  -7   52.68    6.28
   2   5  -7   28.44    1.66
  -2   5   7   31.36    3.48
   2   5   7   47.97    5.28
  -2  -5   7   44.51    2.74
   2  -5   7   35.09    5.83
   2  -5  -7   26.53    4.29
  -2  -5  -7   37.02    4.11
  -2   5  -8  333.71   14.47
   2   5  -8  254.66   10.32
  -2   5   8  333.39   14.94
   2   5   8  327.26   15.42
  -2  -5   8  344.73   13.80
   2  -5   8  281.46   12.67
   2  -5  -8  314.22   14.53
  -2  -5  -8  321.57   14.84
   2   5  -9   81.61    4.57
  -2   5  -9   97.22   11.83
  -2   5   9   69.27    5.19
   2   5   9   62.44    6.33
   2  -5  -9   70.34    5.95
  -2  -5  -9   84.70    6.06
  -2   5 -10  436.83   27.79
  -2   5  10  475.39   28.95
   2   5  10  438.91   27.44
   2  -5 -10  429.46   26.50
  -2  -5 -10  416.89   25.62
  -2   5 -11   94.14   11.64
  -2   5  11   92.57    6.57
   2   5  11   94.95    7.77
   2  -5 -11   81.69    6.19
  -2  -5 -11  100.48    6.84
  -2   5 -12  269.40   20.00
  -2   5  12  211.71   10.22
   2   5  12  184.71   10.35
   2  -5 -12  195.21   10.66
  -2  -5 -12  163.21    8.41
  -2   5 -13  948.20   33.45
  -2   5  13 1214.24   44.16
   2   5  13 1106.77   41.29
   2  -5 -13 1123.67   41.34
  -2  -5 -13 1087.48   40.05
  -2   5  14  148.05    9.01
   2   5  14  121.52   10.55
   2  -5  14  129.10   16.68
   2  -5 -14  120.70   10.24
  -2  -5 -14  133.01    8.12
  -2   5  15   20.95    5.44
   2   5  15   10.83    3.98
   2  -5  15   14.58    5.18
   2  -5 -15   25.40    5.23
  -2  -5 -15   23.49    4.65
  -2   5  16  156.25   12.04
   2   5  16  117.97   10.26
   2  -5  16  102.35    9.12
   2  -5 -16  117.41    9.71
  -2  -5 -16  137.83   10.82
  -2   5  17  294.60   23.31
   2   5  17  267.74   22.54
   2  -5  17  245.45   20.34
   2  -5 -17  221.71   18.00
  -2  -5 -17  250.06   20.06
  -2   5  18   13.75    5.19
   2   5  18    8.74    4.25
   2  -5  18    4.94    2.90
   2  -5 -18   11.73    4.56
  -2  -5 -18    1.97    2.71
  -2   5  19   25.00    6.27
   2   5  19   43.93    7.46
   2  -5  19   24.13    6.35
   2  -5 -19   41.51    7.12
  -2  -5 -19   32.75    7.65
  -2   5  20   30.67    7.57
   2   5  20   24.83    7.64
   2  -5  20   30.58    8.39
   2  -5 -20   26.00    6.66
  -2  -5 -20   27.74    6.46
  -2   5  21   12.89    5.24
   2   5  21    5.47    3.52
   2  -5 -21   15.51    5.28
  -2  -5 -21    1.39    3.56
  -2   5  22    2.23    2.40
   2   5  22    4.29    4.46
   2  -5 -22    1.65    3.76
  -2  -5 -22    7.50    3.49
  -2   6   0    8.11    3.62
   2   6   0    9.93    4.20
   2  -6   0   13.03    4.40
  -2   6  -1  303.96   11.44
  -2   6   1  322.66   11.86
   2   6  -1  346.61   12.57
   2   6   1  310.94   11.88
   2  -6  -1  306.10   11.66
   2  -6   1  302.90   11.40
  -2   6  -2  447.28   15.55
  -2   6   2  428.16   15.21
   2   6  -2  480.69   16.50
   2   6   2  446.34   16.44
  -2  -6   2  395.10   14.13
   2  -6  -2  468.20   16.71
   2  -6   2  456.93   16.07
  -2   6  -3  598.55   20.37
  -2   6   3  552.74   18.98
   2   6  -3  595.04   19.77
   2   6   3  582.35   20.62
  -2  -6   3  513.08   17.67
   2  -6  -3  566.89   20.04
  -2   6  -4  334.53   14.27
  -2   6   4  345.98   15.23
   2   6  -4  365.86   15.26
   2   6   4  356.43   16.50
  -2  -6   4  302.44   13.09
   2  -6  -4  329.95   14.91
  -2  -6  -4  343.90   15.71
  -2   6  -5  173.29   12.72
  -2   6   5  177.11    8.93
   2   6  -5  171.79    7.76
   2   6   5  183.64   10.44
  -2  -6   5  162.18    7.90
   2  -6  -5  165.54    9.54
  -2  -6  -5  171.03    9.58
  -2   6  -6  194.86   10.53
   2   6  -6  189.58    8.20
  -2   6   6  213.22   10.37
   2   6   6  225.15   11.51
  -2  -6   6  221.20    9.97
   2  -6  -6  198.72    9.89
  -2  -6  -6  201.63   10.44
  -2   6  -7   27.66    4.49
   2   6  -7   13.92    1.74
  -2   6   7   26.06    3.93
   2   6   7   21.81    4.04
  -2  -6   7   21.23    2.46
   2  -6  -7   18.10    3.62
  -2  -6  -7   20.07    4.06
  -2   6  -8  206.86   17.94
   2   6  -8  131.82    8.06
  -2   6   8  160.43   11.25
   2   6   8  160.01   11.61
  -2  -6   8  149.17    9.49
   2  -6  -8  151.49   10.63
  -2  -6  -8  146.40   10.65
  -2   6  -9  148.34   16.32
   2   6  -9  125.87    7.95
  -2   6   9  119.35    7.69
   2   6   9  132.58    8.91
  -2  -6   9  118.80    6.03
   2  -6  -9  118.51    8.26
  -2  -6  -9  102.07    6.93
   2   6 -10   96.30    5.41
  -2   6 -10  137.15   15.13
  -2   6  10  132.80    8.26
   2   6  10   82.34    7.10
  -2  -6  10   99.90    5.09
   2  -6 -10  107.36    7.91
  -2  -6 -10  110.84    7.94
  -2   6 -11   36.60    4.05
  -2   6  11   38.80    5.40
   2   6  11   38.00    6.03
  -2  -6  11   28.62    1.68
   2  -6 -11   13.72    3.49
  -2  -6 -11   23.31    3.79
  -2   6 -12  602.87   24.97
  -2   6  12  607.44   26.55
   2   6  12  557.94   25.66
   2  -6 -12  561.78   24.79
  -2  -6 -12  565.95   25.18
  -2   6 -13  285.16   28.30
  -2   6  13  243.75   18.14
   2   6  13  222.66   17.58
   2  -6 -13  226.74   16.96
  -2  -6 -13  238.87   17.33
  -2   6 -14  293.34   18.54
  -2   6  14  399.22   26.23
   2   6  14  382.18   26.18
   2  -6 -14  325.56   22.02
  -2  -6 -14  327.95   21.74
  -2   6  15   24.85    6.30
   2   6  15    6.98    3.96
   2  -6  15   12.33    4.47
   2  -6 -15   22.16    6.28
  -2  -6 -15   16.81    4.80
  -2   6  16  263.22   21.32
   2   6  16  269.32   22.35
   2  -6  16  243.20   20.13
   2  -6 -16  217.33   18.25
  -2  -6 -16  224.13   18.12
  -2   6  17   26.42    7.23
   2   6  17   15.78    5.77
   2  -6  17   12.45    4.36
   2  -6 -17   19.69    5.67
  -2  -6 -17   18.98    5.75
  -2   6  18   41.57    6.69
   2   6  18   44.53    7.62
   2  -6  18   37.41    6.05
   2  -6 -18   44.33    7.49
  -2  -6 -18   78.23   10.46
  -2   6  19    9.41    4.12
   2   6  19   20.45    6.81
   2  -6  19   12.10    5.60
   2  -6 -19   29.87    8.34
  -2  -6 -19   21.19    6.32
  -2   6  20   12.24    4.59
   2   6  20   11.37    5.47
   2  -6 -20   16.35    7.03
  -2  -6 -20   -1.46    2.94
  -2   6  21  120.73   14.60
   2   6  21   87.12   11.48
   2  -6 -21  100.75   12.60
  -2  -6 -21  122.31   14.67
  -2   7   0 1471.67   63.30
   2   7   0 1440.99   84.28
   2  -7   0 1445.38   84.46
  -2   7  -1   30.18    4.07
  -2   7   1   25.38    3.56
   2   7  -1   31.73    4.10
   2   7   1   25.23    3.53
   2  -7  -1   20.69    3.54
   2  -7   1   21.58    3.51
  -2   7  -2  574.44   34.35
  -2   7   2  575.46   34.40
   2   7  -2  646.56   38.47
   2   7   2  596.11   35.84
   2  -7  -2  517.61   31.26
   2  -7   2  575.35   34.46
  -2   7  -3  273.42   17.17
  -2   7   3  247.82   15.97
   2   7  -3  271.67   16.89
   2   7   3  232.50   15.06
   2  -7  -3  221.79   14.69
  -2   7  -4   64.50    5.19
  -2   7   4   52.78    4.98
   2   7  -4   59.94    4.86
   2   7   4   71.55    7.76
   2  -7  -4   57.60    6.22
  -2  -7  -4   56.29    5.92
  -2   7  -5  144.10   18.40
   2   7  -5  153.49    9.94
  -2   7   5  127.56    9.28
   2   7   5  137.41   10.72
  -2  -7   5  110.20    7.69
   2  -7  -5  130.22    9.45
  -2  -7  -5  137.49   10.19
  -2   7  -6  317.69   15.54
   2   7  -6  277.47   12.75
  -2   7   6  324.62   15.98
   2   7   6  300.84   15.76
  -2  -7   6  275.19   13.15
   2  -7  -6  314.48   15.69
  -2  -7  -6  331.64   16.64
  -2   7  -7   70.22    7.89
   2   7  -7   72.12    4.29
  -2   7   7   57.80    4.83
   2   7   7   64.95    6.19
  -2  -7   7   53.89    4.22
   2  -7  -7   80.00    6.88
  -2  -7  -7   78.48    7.25
  -2   7  -8  888.50   32.10
   2   7  -8  861.39   30.24
  -2   7   8  801.85   29.88
   2   7   8  891.55   33.82
  -2  -7   8  726.56   26.41
   2  -7  -8  810.17   30.64
  -2  -7  -8  809.07   30.95
  -2   7  -9  286.93   22.16
   2   7  -9  242.71   12.88
  -2   7   9  239.78   11.39
   2   7   9  278.84   14.07
  -2  -7   9  232.24    9.85
   2  -7  -9  225.48   11.75
  -2  -7  -9  245.75   12.09
  -2   7 -10 1339.56  155.98
   2   7 -10 1319.99  153.37
  -2   7  10 1326.29  154.79
   2   7  10 1344.41  157.22
   2  -7 -10 1226.36   50.43
  -2  -7 -10 1263.56   52.24
  -2   7 -11  207.06   18.44
  -2   7  11  188.37   14.18
   2   7  11  176.96   14.64
   2  -7 -11  173.09   13.38
  -2  -7 -11  196.39   14.81
  -2   7 -12  293.55   23.18
  -2   7  12  332.60   23.74
   2   7  12  293.24   21.85
   2  -7 -12  293.24   21.25
  -2  -7 -12  299.38   21.39
  -2   7 -13  269.03   17.81
  -2   7  13  262.56   18.27
   2   7  13  263.69   19.32
   2  -7 -13  251.92   17.79
  -2  -7 -13  220.01   15.80
  -2   7 -14   41.90   11.24
  -2   7  14   47.27   10.06
   2   7  14   22.24    6.06
   2  -7 -14   45.93    9.99
  -2  -7 -14   38.01    8.93
  -2   7 -15   19.62    4.31
  -2   7  15    8.32    3.45
   2   7  15    8.04    3.92
   2  -7 -15   24.96    5.98
  -2  -7 -15   32.31    7.64
  -2   7  16   23.72    6.44
   2   7  16   13.76    5.02
   2  -7  16   20.13    5.80
   2  -7 -16   30.77    8.32
  -2  -7 -16   20.81    5.98
  -2   7  17   23.74    6.72
   2   7  17    7.65    3.93
   2  -7  17   23.07    7.15
  -2  -7 -17   23.54    6.83
  -2   7  18  240.86   22.91
   2   7  18  219.95   21.58
   2  -7 -18  249.24   23.32
  -2  -7 -18  219.62   20.66
  -2   7  19   31.76    6.69
   2   7  19   18.58    5.93
   2  -7 -19   41.43    7.96
  -2  -7 -19   34.21    7.59
  -2   7  20  323.85   75.10
   2   7  20  288.61   67.19
   2  -7 -20  247.67   26.91
  -2  -7 -20  282.86   30.62
  -2   8   0  139.36    8.29
   2   8   0  120.35    7.41
   2  -8   0  114.29    7.19
  -2   8  -1  616.83   27.87
  -2   8   1  529.54   24.13
   2   8  -1  571.87   25.95
   2   8   1  586.61   26.63
   2  -8  -1  561.71   25.86
   2  -8   1  578.60   26.47
  -2   8  -2  133.29    7.95
  -2   8   2  147.10    8.34
   2   8  -2  159.01    8.78
   2   8   2  160.80    9.38
   2  -8  -2  127.69    7.83
   2  -8   2  147.08    8.79
  -2   8  -3   89.26    6.16
  -2   8   3   80.49    5.69
   2   8  -3  100.73    6.43
   2   8   3   89.57    6.30
   2  -8  -3   84.22    6.75
  -2  -8  -3   88.32    7.47
   2  -8   3   87.26    6.65
  -2   8  -4  131.18    7.18
  -2   8   4  129.13    7.53
   2   8  -4  145.76    7.29
   2   8   4  138.92    7.82
   2  -8  -4  132.50    8.41
  -2  -8  -4  125.74    8.57
  -2   8  -5   10.57    2.93
   2   8  -5   10.36    2.18
  -2   8   5   15.39    4.62
   2   8   5    4.43    3.50
   2  -8  -5   25.48    4.70
  -2  -8  -5   11.14    5.20
  -2   8  -6  226.93   17.62
   2   8  -6  224.69    9.41
  -2   8   6  222.55   10.95
   2   8   6  253.58   12.83
   2  -8  -6  226.98   11.33
  -2  -8  -6  219.30   11.38
  -2   8  -7   10.34    2.92
   2   8  -7   15.30    2.35
  -2   8   7   20.76    3.53
   2   8   7   18.20    5.23
   2  -8  -7   13.44    3.64
  -2  -8  -7   18.39    4.16
  -2   8  -8  153.20   14.11
   2   8  -8  130.27   15.61
  -2   8   8  142.75    8.75
   2   8   8  124.79   10.63
   2  -8  -8  123.80   10.52
  -2  -8  -8  133.49    8.76
  -2   8  -9    6.11    2.37
   2   8  -9    3.52    1.44
  -2   8   9    9.73    3.30
   2   8   9    4.44    5.07
   2  -8  -9    8.79    3.51
  -2  -8  -9    3.18    4.52
  -2   8 -10   94.52   11.19
   2   8 -10   84.32    7.35
  -2   8  10   90.72    8.30
   2   8  10   96.71    9.15
   2  -8 -10   79.27    7.64
  -2  -8 -10   81.97    8.00
  -2   8 -11  286.49   24.07
  -2   8  11  294.64   20.09
   2   8  11  299.71   21.13
   2  -8 -11  272.39   19.46
  -2  -8 -11  259.63   18.08
  -2   8 -12   96.21   14.32
  -2   8  12  123.63   12.83
   2   8  12   61.50   12.75
   2  -8 -12  116.72   13.59
  -2  -8 -12   98.89   10.77
  -2   8 -13    9.84    2.97
  -2   8  13   16.46    5.90
   2   8  13   12.21    4.62
   2  -8 -13    7.14    3.63
  -2  -8 -13   19.40    5.05
  -2   8 -14  109.65   18.78
  -2   8  14  131.04   11.68
   2   8  14  169.69   14.86
   2  -8 -14  149.29   12.94
  -2  -8 -14  132.67   11.70
  -2   8 -15    9.43    3.14
  -2   8  15    8.50    3.44
   2   8  15   11.19    6.48
   2  -8 -15    5.27    4.23
  -2  -8 -15    6.69    5.26
  -2   8  16  258.31   25.21
   2   8  16  239.25   24.22
   2  -8 -16  227.90   22.85
  -2  -8 -16  240.24   23.68
  -2   8  17   17.99    5.38
   2   8  17   10.30    4.10
   2  -8 -17   32.13    6.51
  -2  -8 -17    3.96    3.25
  -2   8  18  113.20   13.75
   2   8  18   94.37   12.84
   2  -8 -18  122.22   15.34
  -2  -8 -18  115.39   14.13
  -2   8  19    8.33    3.52
   2   8  19    7.38    3.95
   2  -8 -19   18.21    5.57
  -2  -8 -19   15.43    5.17
  -2   9   0   73.35    6.81
   2   9   0   85.81    7.54
   2  -9   0   93.83    8.75
  -2   9  -1   64.81    6.15
  -2   9   1   55.23    5.56
   2   9  -1   65.88    6.20
   2   9   1   61.76    6.74
   2  -9  -1   60.96    6.48
   2  -9   1   54.77    5.69
  -2   9  -2  193.22   10.47
  -2   9   2  177.80    9.55
   2   9  -2  192.46    9.77
   2   9   2  210.14   11.29
   2  -9  -2  200.20   11.42
   2  -9   2  173.21    9.61
  -2   9  -3  137.57    8.02
  -2   9   3  136.30    8.38
   2   9  -3  130.71    7.36
   2   9   3  130.98    8.35
   2  -9  -3  124.44   10.89
   2  -9   3  122.22   10.81
  -2  -9  -3  132.53    9.19
  -2   9  -4   46.46    6.69
  -2   9   4   53.45    7.69
   2   9  -4   51.93    7.14
   2   9   4   42.70    6.81
   2  -9  -4   53.83    8.61
  -2  -9  -4   59.56    9.94
   2  -9   4   51.82    7.90
  -2   9  -5  243.40   17.31
  -2   9   5  243.08   17.72
   2   9  -5  227.92   16.07
   2   9   5  220.21   16.36
   2  -9  -5  212.86   16.53
  -2  -9  -5  236.37   18.00
  -2   9  -6   39.66    7.05
   2   9  -6   26.60    4.13
  -2   9   6   37.56    6.39
   2   9   6   25.48    5.53
   2  -9  -6   18.35    4.36
  -2  -9  -6   30.39    6.12
  -2   9  -7   64.97    9.85
   2   9  -7   62.41    7.76
  -2   9   7   54.30    7.49
   2   9   7   54.91    8.83
   2  -9  -7   52.61    7.62
  -2  -9  -7   59.69    9.49
  -2   9  -8  237.38   27.36
   2   9  -8  252.62   16.14
  -2   9   8  238.06   16.51
   2   9   8  238.68   16.96
   2  -9  -8  242.59   17.27
  -2  -9  -8  236.09   17.64
  -2   9  -9  120.82   17.53
   2   9  -9  124.87   11.62
  -2   9   9  142.94   14.59
   2   9   9  125.35   13.93
   2  -9  -9  126.41   13.37
  -2  -9  -9  128.73   14.11
  -2   9 -10   59.75    8.60
  -2   9  10   68.10    7.66
   2   9  10   50.94    7.68
   2  -9 -10   50.20    6.27
  -2  -9 -10   53.78    8.91
  -2   9 -11   20.97    5.26
  -2   9  11   30.82    7.09
   2   9  11   21.98    6.97
   2  -9 -11   38.94    9.03
  -2  -9 -11   23.34    6.32
  -2   9 -12   27.32    8.72
  -2   9  12   18.35    5.87
   2   9  12   15.03    4.93
   2  -9 -12   32.25    8.62
  -2  -9 -12   37.55    7.05
  -2   9 -13   13.45    3.51
  -2   9  13    7.67    4.13
   2   9  13   14.99    6.34
   2  -9 -13   11.84    4.37
  -2  -9 -13   11.99    4.12
  -2   9 -14   37.92    6.33
  -2   9  14   47.24    6.67
   2   9  14   10.78    4.32
   2  -9 -14   38.58    6.52
  -2  -9 -14   45.70    6.53
  -2   9 -15   35.83    7.45
  -2   9  15   50.48    6.63
   2   9  15   29.50    7.76
   2  -9 -15   56.94    8.56
  -2  -9 -15   58.41    7.93
  -2   9  16   13.32    5.05
   2   9  16   22.30    7.01
   2  -9 -16   24.04    6.81
  -2  -9 -16   23.34    6.40
  -2   9  17   18.94    5.19
   2   9  17   13.89    6.62
   2  -9 -17   19.66    6.73
  -2  -9 -17   14.52    5.48
  -2  10   0   25.10    4.87
   2  10   0   28.60    4.94
   2 -10   0   37.23    5.92
  -2  10  -1   53.65   11.01
  -2  10   1   64.26    7.82
   2  10  -1   58.18   11.50
   2  10   1   70.99    8.17
   2 -10  -1   52.58   11.08
   2 -10   1   59.88   11.93
  -2  10  -2  116.98   12.08
  -2  10   2   93.25    9.92
   2  10  -2   80.96    8.46
   2  10   2   82.01    9.29
   2 -10  -2   93.04   10.70
   2 -10   2   98.11   10.76
  -2 -10  -2   87.71   10.23
  -2  10  -3   10.37    4.79
  -2  10   3    6.86    3.03
   2  10  -3    3.86    2.37
   2  10   3   13.72    5.28
   2 -10  -3   15.47    4.68
  -2 -10  -3   17.09    6.18
   2 -10   3   15.41    4.84
  -2  10  -4  192.92   18.47
  -2  10   4  195.99   18.67
   2  10  -4  209.75   19.48
   2  10   4  232.36   22.26
   2 -10  -4  243.41   23.73
  -2 -10  -4  218.65   21.44
   2 -10   4  196.70   18.77
  -2  10  -5   14.75    4.97
  -2  10   5    9.84    4.18
   2  10  -5    3.73    2.03
   2  10   5    2.30    2.94
   2 -10  -5   10.70    5.83
  -2 -10  -5    6.16    3.82
   2 -10   5    2.61    2.75
  -2  10  -6  125.36   17.14
   2  10  -6  124.68   10.36
  -2  10   6  108.26    9.71
   2  10   6  119.82   11.52
   2 -10  -6  102.32   10.27
  -2 -10  -6   99.19    9.91
  -2  10  -7   16.20    5.14
   2  10  -7    4.06    1.62
  -2  10   7    1.60    2.78
   2  10   7   13.34    4.47
   2 -10  -7   13.44    6.75
  -2 -10  -7   20.64    6.60
  -2  10  -8  106.66   14.55
   2  10  -8   78.35    6.50
  -2  10   8  102.60    9.30
   2  10   8  106.31   10.58
   2 -10  -8   79.83    8.15
  -2 -10  -8  142.55   12.76
  -2  10  -9   18.08    5.26
  -2  10   9   23.82    6.39
   2  10   9   16.53    4.84
   2 -10  -9   18.45    6.27
  -2 -10  -9   21.48    6.16
  -2  10 -10  160.49   26.57
  -2  10  10  152.74   17.66
   2  10  10  138.64   16.54
   2 -10 -10  133.07   16.11
  -2 -10 -10  152.86   18.18
  -2  10 -11   19.03    4.82
  -2  10  11   24.63    6.85
   2  10  11   29.99    8.30
   2 -10 -11   14.43    4.57
  -2 -10 -11   25.03    8.16
  -2  10 -12    3.80    1.84
  -2  10  12   11.80    5.19
   2  10  12   17.05    5.37
   2 -10 -12    9.46    5.58
  -2 -10 -12    1.60    3.95
  -2  10 -13    2.89    1.40
  -2  10  13   26.23    6.95
   2  10  13    8.51    4.49
   2 -10 -13    2.28    3.55
  -2 -10 -13    2.49    3.28
  -2  10  14   56.03   10.08
   2  10  14   38.18    8.04
   2 -10 -14   39.48    7.98
  -2 -10 -14   81.52   13.94
  -2  10  15   12.67    4.52
   2  10  15   19.11    6.10
   2 -10 -15   30.80    7.24
  -2 -10 -15   19.58    5.52
  -2  11   0  114.46    9.78
   2  11   0  110.25    9.73
   2 -11   0  107.86   10.39
  -2  11  -1  105.12    9.29
  -2  11   1  105.42    9.30
   2  11  -1  103.86    8.96
   2  11   1  106.23    9.34
   2 -11  -1   89.48    9.42
   2 -11   1  100.91    9.94
  -2 -11  -1  111.45   12.15
  -2  11  -2  113.76    9.83
  -2  11   2  115.75    9.95
   2  11  -2  118.23    9.85
   2  11   2  104.61    9.44
   2 -11  -2  112.80   10.29
   2 -11   2  116.62   10.45
  -2 -11  -2  133.91   12.69
  -2  11  -3    5.04    3.11
  -2  11   3   11.56    4.81
   2  11  -3    2.77    3.19
   2  11   3   14.14    5.01
   2 -11  -3    5.99    3.70
   2 -11   3    3.84    3.23
  -2 -11  -3    1.20    3.51
  -2  11  -4    6.70    3.20
  -2  11   4    0.73    2.46
   2  11  -4    3.34    2.78
   2  11   4   12.10    4.48
   2 -11  -4    5.99    3.81
  -2 -11  -4    6.39    4.03
   2 -11   4   13.05    5.62
  -2  11  -5   41.20    6.95
   2  11  -5   28.84    6.08
  -2  11   5   28.03    6.45
   2  11   5   22.30    5.75
   2 -11  -5   48.54    7.54
  -2 -11  -5   36.53    6.73
   2 -11   5   38.53    6.79
  -2  11  -6   55.45   10.45
   2  11  -6   32.55    6.73
  -2  11   6   39.80    5.83
   2  11   6   68.61   10.23
   2 -11  -6   60.31    9.27
  -2 -11  -6   65.24    9.76
   2 -11   6   76.25    9.90
  -2  11  -7   54.77    9.56
  -2  11   7   39.85    5.86
   2  11   7   77.40    9.62
   2 -11  -7   47.54    6.90
  -2 -11  -7   63.37    8.37
  -2  11  -8   45.13    8.04
  -2  11   8   49.57    7.23
   2  11   8   32.27    8.69
   2 -11  -8   39.86    6.69
  -2 -11  -8   51.35    7.39
  -2  11  -9   62.18   10.11
  -2  11   9   63.77    8.40
   2  11   9   25.38    6.42
   2 -11  -9   57.18    7.65
  -2 -11  -9   49.00    7.52
  -2  11 -10   29.30    6.29
  -2  11  10   36.74    7.10
   2  11  10   46.33    9.29
   2 -11 -10   40.31    8.69
  -2 -11 -10   35.74    8.94
  -2  11 -11    6.67    2.30
  -2  11  11   12.80    4.32
   2  11  11    4.36    4.26
   2 -11 -11   12.14    5.75
  -2 -11 -11   12.78    5.96
  -2  11 -12   29.93    4.99
  -2  11  12   58.53    8.16
   2  11  12   31.12    5.98
   2 -11 -12   55.15    8.06
  -2 -11 -12   35.85    6.71
  -2  11  13   20.76    5.36
   2  11  13   23.95    5.93
   2 -11 -13   26.02    6.11
  -2 -11 -13   28.45    6.38
  -2  12   0    8.58    3.22
   2  12   0   14.30    4.25
   2 -12   0    3.14    3.74
  -2 -12   0    3.75    3.94
  -2  12  -1   69.72    8.09
  -2  12   1   52.38    6.97
   2  12  -1   60.02    7.02
   2  12   1   66.69    7.77
   2 -12  -1   58.84    7.69
   2 -12   1   65.15    8.64
  -2 -12  -1   67.77    9.39
  -2  12  -2   89.19    9.85
  -2  12   2  107.20   11.29
   2  12  -2   88.14    9.26
   2  12   2   82.97    9.16
   2 -12  -2   99.87   11.86
   2 -12   2   86.02   10.64
  -2 -12  -2   89.63   10.57
  -2  12  -3    7.46    5.63
  -2  12   3   11.70    4.26
   2  12  -3    9.12    3.14
   2  12   3    7.23    3.01
   2 -12  -3   13.64    6.08
  -2 -12  -3   29.68    9.96
   2 -12   3    8.64    4.12
  -2  12  -4   25.40    6.10
   2  12  -4   12.16    3.25
  -2  12   4   13.04    3.85
   2  12   4   17.20    4.64
   2 -12  -4   14.54    5.95
  -2 -12  -4    7.94    4.84
   2 -12   4   34.82    6.81
  -2  12  -5   46.81    8.28
   2  12  -5   38.19    6.80
  -2  12   5   47.89    8.83
   2  12   5   46.01    9.07
   2 -12  -5   48.08    9.15
  -2 -12  -5   52.72   10.11
   2 -12   5   42.73    8.60
  -2  12  -6   13.14    4.20
  -2  12   6   23.76    6.24
   2  12   6   11.55    4.24
   2 -12  -6   23.19    7.28
  -2 -12  -6   26.01    7.56
   2 -12   6   15.87    5.90
  -2  12  -7   67.32   13.21
  -2  12   7   71.38   12.12
   2  12   7   66.97   11.51
   2 -12  -7   70.26   12.18
  -2 -12  -7   77.19   13.99
   2 -12   7   68.26   11.74
  -2  12  -8    3.95    2.40
  -2  12   8    6.42    4.11
   2  12   8    3.64    2.97
   2 -12  -8   12.54    5.77
  -2 -12  -8    6.40    4.31
   2 -12   8    8.46    3.46
  -2  12  -9    2.44    2.62
  -2  12   9    2.18    2.90
   2  12   9    4.12    3.14
   2 -12  -9    5.27    3.82
  -2 -12  -9   14.82    6.72
  -2  12 -10    5.38    2.43
   2  12  10    8.97    3.77
   2 -12 -10    9.06    5.88
  -2 -12 -10   23.25    7.03
  -2  13   0    9.80    4.83
   2  13   0    5.01    2.46
   2 -13   0   12.05    5.90
  -2 -13   0   -3.32    3.67
  -2  13   1   14.98    5.95
  -2  13  -1    7.45    3.39
   2  13  -1    7.90    3.82
   2  13   1    8.70    3.88
   2 -13  -1    6.00    4.07
   2 -13   1   11.10    5.77
  -2 -13  -1    9.91    6.38
  -2 -13   1   13.93    6.43
  -2  13  -2   19.67    4.97
  -2  13   2    0.03    2.80
   2  13  -2   14.73    4.92
   2  13   2   16.38    5.31
   2 -13  -2   20.29    6.35
   2 -13   2   11.31    5.07
  -2 -13  -2   19.90    7.19
  -2 -13   2    7.24    4.81
  -2  13  -3   15.83    5.60
  -2  13   3    9.71    3.80
   2  13  -3    9.27    3.58
   2  13   3   15.05    5.14
   2 -13  -3   28.55    7.34
   2 -13   3   18.37    6.15
  -2 -13  -3   11.77    5.70
  -2  13  -4   19.48    5.94
   2 -13   4   25.98    7.17
  -2 -13  -4   34.10    8.12
  -3   0   0    1.64    0.97
   3   0   0    2.88    1.27
   3   0   0    2.01    0.80
  -3   0   0    0.31    1.22
  -3   0  -1   50.38    7.64
  -3   0   1   27.03    2.54
   3   0   1   23.57    1.95
   3   0  -1   27.19    4.71
   3   0  -1   23.71    3.25
  -3   0  -1   24.34    1.34
  -3   0   1   27.34    3.68
  -3   0  -2  411.85    8.67
   3   0   2  452.70    9.49
   3   0  -2  477.70    9.82
  -3   0  -2  461.69    8.97
  -3   0   2  477.66   10.03
   3   0   3  175.84    5.97
  -3   0   3  184.66    6.12
   3   0  -3  189.40    5.77
  -3   0  -3  170.02    4.65
   3   0  -3  181.82    6.00
  -3   0   3  188.43    7.31
   3   0  -4  115.54    3.91
   3   0   4  124.45    6.49
   3   0  -4  112.09    6.10
  -3   0  -4  119.64    3.49
  -3   0   5   11.14    1.89
   3   0  -5    3.22    1.73
   3   0   5   10.72    2.80
   3   0  -5    9.47    1.27
  -3   0   5    7.06    1.57
  -3   0  -5    4.36    0.77
  -3   0   6   15.62    1.76
   3   0  -6   21.15    1.71
   3   0   6   21.48    3.55
   3   0  -6   23.89    4.49
  -3   0   6   13.71    1.81
  -3   0  -6   20.33    1.33
  -3   0   7  659.47   16.99
   3   0  -7  613.30   16.22
   3   0   7  732.16   21.54
   3   0  -7  718.27   19.96
  -3   0  -7  648.81   16.58
  -3   0   8   38.69    2.26
   3   0  -8   30.85    2.15
   3   0   8   37.66    4.52
   3   0  -8   44.46    6.94
  -3   0  -8   32.77    1.78
   3   0   8   35.27    1.96
  -3   0   9  758.81   23.92
   3   0  -9  709.33   22.81
   3   0   9  840.58   29.70
   3   0  -9  818.38   27.16
  -3   0  -9  807.08   25.51
   3   0   9  782.84   24.81
  -3   0  10  448.34   14.51
   3   0 -10  445.09   14.84
   3   0  10  493.64   19.43
   3   0 -10  515.80   20.39
  -3   0 -10  522.06   17.71
   3   0  10  487.35   15.98
  -3   0  11  943.95   36.46
   3   0 -11  919.81   35.91
   3   0  11  975.16   40.42
   3   0 -11 1012.90   40.73
  -3   0 -11  973.66   38.31
   3   0  11  909.66   35.51
  -3   0  12   60.16    4.15
   3   0 -12   70.96    5.12
   3   0  12   86.21    8.98
   3   0 -12  100.82   13.94
  -3   0 -12   72.79    7.90
  -3   0  13    6.79    1.44
   3   0 -13   13.70    2.16
   3   0  13    6.57    3.74
   3   0 -13   23.68    5.01
  -3   0 -13   16.90    2.29
   3   0  13    9.67    1.82
   3   0  14   63.11    8.02
   3   0 -14   47.15    5.59
  -3   0 -14   54.72    7.49
  -3   0  15  494.75   17.92
   3   0  15  587.68   24.48
   3   0 -15  585.70   24.44
  -3   0 -15  569.38   21.79
  -3   0  16  329.86   13.91
   3   0  16  346.38   17.84
   3   0 -16  296.31   26.96
  -3   0 -16  320.16   15.35
  -3   0  17    7.01    1.94
   3   0  17   13.69    6.24
   3   0 -17    3.65    2.33
  -3   0 -17    2.49    2.07
   3   0  18  119.18   14.60
   3   0 -18  130.81   15.74
  -3   0 -18  113.83   15.58
   3   0  19    6.94    4.55
   3   0 -19   10.45    3.01
  -3   0 -19    6.65    2.24
   3   0  20   24.82    7.02
  -3   0 -20   39.25    8.27
   3   0 -20   57.72    9.24
   3   0  21    5.26    3.55
   3   0 -21   19.18    5.55
  -3   0 -21   15.75    5.51
   3   0  22   35.48    8.23
   3   0 -22   70.31   15.85
   3   0  23    5.28    3.40
   3   0 -23    7.11    2.80
  -3   1   0  117.69    3.71
   3  -1   0  125.16    4.96
   3   1   0  126.32    5.15
  -3  -1   0  111.68    4.32
   3  -1   0  120.36    3.29
  -3   1   0  107.88    2.99
   3   1   1 1075.71   27.77
   3   1  -1 1108.24   21.16
  -3   1  -1 1249.49   24.09
   3  -1   1 1084.71   28.09
   3  -1  -1 1136.03   21.98
   3   1   1 1159.85   31.54
  -3  -1  -1 1158.19   22.11
  -3  -1   1 1196.59   31.19
   3  -1   1 1141.77   28.97
   3  -1  -1 1207.34   31.05
  -3   1   1 1172.59   22.32
  -3   1  -1 1163.80   29.52
  -3  -1   2  620.41   16.14
  -3   1  -2  683.44   18.15
   3   1  -2  855.27   22.32
   3  -1   2  683.13   18.71
  -3   1   2  725.93   19.23
   3   1   2  694.14   19.91
  -3  -1   2  688.06   18.41
   3  -1  -2  749.92   20.30
  -3   1   2  727.89   19.18
  -3   1  -2  722.31   18.31
   3   1   3 2988.37   74.54
  -3   1  -3 2658.61   66.41
   3  -1   3 2813.12   70.23
   3   1  -3 2258.63   57.05
   3  -1  -3 2651.11   66.09
   3   1   3 2547.48   65.16
   3   1  -3 2599.97   65.18
  -3   1   3 2498.47   63.53
   3  -1   4 1036.73   27.27
  -3   1   4 1189.17   30.80
   3   1  -4 1109.22   28.39
   3  -1  -4 1220.09   31.64
   3   1   4 1140.55   31.54
   3   1  -4 1202.17   31.71
  -3  -1   4 1091.31   29.22
  -3   1   4 1096.84   28.78
  -3  -1  -4 1136.88   29.31
  -3  -1   5 2018.21   50.96
  -3   1   5 2002.53   51.10
   3   1  -5 1785.45   45.26
   3  -1  -5 1930.50   49.42
   3   1   5 1879.56   50.16
   3   1  -5 2010.60   52.11
  -3  -1   5 1822.96   47.13
   3  -1  -5 1948.50   50.49
  -3  -1  -5 1969.29   50.10
  -3   1  -6  756.58   20.14
  -3  -1   6  771.32   19.70
  -3   1   6  917.01   24.12
   3  -1  -6  817.50   21.84
   3   1   6  908.43   26.27
   3   1  -6  928.69   25.44
   3  -1  -6  827.26   22.62
  -3  -1  -6  812.95   21.29
  -3  -1   7  674.24   16.98
  -3   1   7  756.52   19.80
   3  -1  -7  719.07   19.18
   3   1  -7  598.82   15.43
   3   1   7  748.71   22.23
   3  -1   7  757.13   22.77
  -3   1  -7  669.50   17.07
   3   1  -7  766.91   21.36
   3  -1  -7  676.45   19.58
  -3  -1  -7  703.66   18.40
   3  -1   7  682.89   17.26
  -3  -1   8  670.72   17.31
  -3   1   8  837.00   21.90
   3  -1  -8  646.52   17.48
   3   1   8  778.76   23.24
   3  -1   8  784.76   23.94
   3   1  -8  790.46   22.96
  -3   1  -8  692.59   18.10
   3  -1  -8  720.32   20.69
  -3  -1  -8  742.82   19.42
   3  -1   8  743.10   18.95
  -3  -1   9  105.04    5.22
  -3   1   9  123.39    5.16
   3  -1  -9  106.19    4.86
   3   1  -9  104.25    3.93
   3   1   9  120.53    8.23
   3  -1   9  131.82    7.98
  -3   1  -9  109.49    6.35
   3   1  -9  117.58   16.17
   3  -1  -9  116.87    7.10
  -3  -1  -9  113.39    4.86
   3  -1   9  125.67    4.68
   3   1   9  113.15    4.87
  -3  -1  10   95.64    5.53
  -3   1  10  112.48    4.90
   3  -1 -10  113.46    5.25
   3   1 -10   97.87    3.74
   3   1  10  118.38    7.67
   3  -1  10   97.06    6.92
   3   1 -10  106.55   11.28
  -3   1 -10   94.90    4.09
   3  -1 -10  122.16   16.57
  -3  -1 -10  101.87    4.59
   3  -1  10  111.93    4.42
   3   1  10  106.10    4.74
  -3  -1  11  235.91   10.07
  -3   1  11  318.69   13.27
   3  -1 -11  293.38   12.60
   3   1  11  279.02   13.78
   3   1 -11  270.86   10.86
   3  -1  11  322.45   15.84
   3   1 -11  298.56   22.56
  -3   1 -11  296.27   13.06
   3  -1 -11  323.34   23.95
  -3  -1 -11  280.85   11.82
   3  -1  11  289.03   11.97
   3   1  11  278.57   11.83
  -3  -1  12   54.11    3.45
  -3   1  12   77.96    5.66
   3  -1 -12   43.08    3.97
   3   1  12   80.08    7.70
   3   1 -12   60.52    4.13
   3  -1  12   67.07    6.79
   3   1 -12   78.92   13.48
  -3   1 -12   64.00    7.46
   3  -1 -12   66.54    8.71
  -3  -1 -12   77.44    5.62
   3  -1  12   69.35    4.93
   3   1  12   60.00    4.64
  -3  -1  13  247.75   10.78
  -3   1  13  293.95   13.59
   3  -1 -13  280.67   13.32
   3   1  13  289.99   15.74
   3  -1  13  324.15   17.36
   3   1 -13  241.70   10.87
   3   1 -13  216.72   19.00
  -3   1 -13  270.17   12.95
   3  -1 -13  317.08   23.89
  -3  -1 -13  294.61   13.86
   3  -1  13  280.25   12.99
  -3  -1  14  128.61    5.01
  -3   1  14  199.23    8.48
   3  -1 -14  115.19    5.93
   3   1  14  175.90   10.71
   3  -1  14  164.62   11.10
   3   1 -14  165.27   14.98
  -3   1 -14  143.40    6.88
   3  -1 -14  144.93   15.82
  -3  -1 -14  166.04    7.92
  -3  -1  15  208.10    8.61
   3   1  15  242.58   13.93
   3  -1  15  290.60   15.61
  -3   1 -15  264.63   12.07
   3   1 -15  293.69   24.98
   3  -1 -15  222.09   17.26
  -3  -1 -15  318.06   14.35
  -3  -1  16   14.19    2.02
  -3   1  16   20.20    3.46
   3   1  16   26.39    6.54
   3  -1  16   29.29    6.08
  -3   1 -16   31.14    5.65
   3   1 -16   17.13    4.85
   3  -1 -16   33.47    6.29
  -3  -1 -16   29.21    4.51
  -3   1  17  140.14    9.76
   3   1  17  173.07   14.09
   3  -1  17  150.12   12.37
  -3   1 -17  141.35   12.42
   3   1 -17  141.04   14.50
   3  -1 -17  151.82   14.24
  -3  -1 -17  161.13   18.92
  -3   1  18  114.26   11.00
   3   1  18  123.00   13.23
   3  -1  18   85.17   10.14
  -3   1 -18  107.98   12.87
   3   1 -18  121.16   16.50
   3  -1 -18  114.59   19.55
  -3  -1 -18  108.51   18.20
   3   1  19    8.41    3.85
   3  -1  19    6.60    3.25
   3   1 -19   15.27    6.04
  -3   1 -19   10.50    3.28
   3  -1 -19    6.34    3.25
  -3  -1 -19    4.72    1.86
   3   1  20  151.65   18.14
   3  -1  20  121.96   15.75
   3   1 -20  117.29   22.83
  -3   1 -20  114.05   25.23
   3  -1 -20  125.33   26.27
  -3  -1 -20  108.80   20.73
   3   1  21    7.66    3.91
   3  -1  21   27.70    8.65
   3   1 -21   13.09    4.23
  -3   1 -21    2.83    2.19
  -3  -1 -21    2.89    2.22
   3   1  22  100.06   16.75
   3  -1  22  149.35   24.24
   3   1 -22  165.23   29.31
   3  -1 -22  119.99   25.88
  -3  -1 -22  110.26   24.14
   3   1  23   76.95   11.86
   3  -1  23   74.34   10.52
   3   1 -23   89.76   23.66
   3  -1 -23   98.08   25.56
  -3   2   0  268.58    8.76
   3  -2   0  254.96    7.71
  -3  -2   0  262.43    8.15
   3  -2   0  261.09    7.35
  -3   2   0  273.54    7.76
   3   2  -1  549.29   14.73
  -3   2  -1  547.48   15.22
  -3   2   1  419.91   12.00
   3  -2   1  466.95   13.07
   3  -2  -1  489.42   13.71
   3   2  -1  483.10   14.30
   3   2   1  460.30   14.46
  -3  -2   1  433.10   12.21
   3  -2  -1  451.00   12.31
   3  -2   1  467.41   12.34
  -3   2   1  442.86   12.12
  -3   2  -1  465.41   12.30
   3   2  -2   39.80    2.35
  -3   2  -2   62.45    6.56
  -3   2   2   56.70    6.78
   3  -2   2   51.88    2.58
   3  -2  -2   42.61    2.50
   3   2   2   46.04    3.36
   3   2  -2   49.41    3.48
  -3  -2  -2   44.45    3.29
   3  -2  -2   53.61    3.30
   3  -2   2   48.50    1.80
  -3   2   2   41.20    2.24
  -3   2  -3  339.51   10.06
   3   2  -3  348.33    9.35
  -3   2   3  364.51   10.59
   3   2   3  370.19   12.50
   3   2  -3  405.19   11.70
  -3  -2  -3  357.33   11.77
  -3  -2   3  370.80   13.73
   3  -2   3  361.10    9.23
   3  -2  -3  376.06   11.11
  -3   2   3  351.40   10.16
  -3   2  -4  199.40    6.46
   3   2  -4  268.84    7.42
   3  -2  -4  225.86    7.15
   3   2   4  234.86    8.95
   3   2  -4  241.64    7.56
   3   2  -4  215.46    8.31
  -3  -2   4  204.17    9.09
  -3   2   4  212.76    7.02
  -3   2  -5   64.51    7.94
   3   2  -5   43.25    2.94
  -3   2   5   50.17    3.35
   3  -2  -5   37.36    2.40
   3   2   5   43.91    4.28
   3   2  -5   51.11    2.56
   3   2  -5   59.32   10.47
   3  -2  -5   53.75    3.98
  -3   2   5   43.94    3.04
  -3  -2  -5   43.00    2.63
  -3   2  -6  174.64    6.06
  -3   2   6  177.37    6.24
   3  -2  -6  167.12    6.04
   3   2   6  185.39    7.94
   3   2  -6  183.77    5.39
   3   2  -6  165.72    7.74
   3  -2  -6  175.72    6.88
   3  -2   6  155.03    4.11
  -3  -2  -6  156.28    5.89
  -3   2   7  324.27    9.70
   3  -2  -7  282.61    8.92
   3   2  -7  321.95    8.24
   3   2   7  280.30   10.52
   3   2  -7  313.46   10.32
   3  -2  -7  296.53   10.10
   3  -2   7  302.01    7.93
  -3  -2  -7  311.87    9.48
  -3   2  -8   73.64    3.92
  -3   2   8   95.04    4.62
   3  -2  -8  107.49    5.03
   3   2   8   90.16    6.33
   3   2  -8   97.21    9.80
   3  -2  -8   92.33    5.04
   3  -2   8   90.00    3.39
  -3  -2  -8   81.42    4.16
  -3   2   9 1472.82   56.97
   3  -2  -9 1242.45   39.75
   3   2   9 1428.98   47.15
   3   2  -9 1431.73   46.18
   3  -2  -9 1414.39   45.32
   3  -2   9 1357.24   42.04
  -3  -2  -9 1385.84   43.67
  -3   2  10  351.01   14.70
   3   2  10  360.24   17.11
   3  -2  10  395.62   18.60
  -3   2 -10  316.06   12.91
   3   2 -10  341.81   16.08
   3  -2 -10  337.93   15.65
  -3  -2 -10  348.13   14.60
   3  -2  10  350.45   13.98
   3   2  10  321.06   13.52
  -3   2  11  491.17   20.05
   3   2  11  480.71   22.05
   3  -2  11  511.28   23.23
  -3   2 -11  412.65   17.61
   3   2 -11  471.71   20.22
   3  -2 -11  451.76   20.41
  -3  -2 -11  502.91   20.52
  -3   2  12  666.59   39.41
   3   2  12  646.63   39.88
   3  -2  12  657.34   40.29
  -3   2 -12  575.69   35.11
   3   2 -12  550.84   35.64
   3  -2 -12  670.04   40.52
  -3  -2 -12  667.24   39.45
   3  -2  12  594.88   34.89
  -3   2  13  157.34    8.58
   3   2  13  136.30    9.28
   3  -2  13  132.26    8.87
  -3   2 -13  125.52    8.92
   3   2 -13  135.29   20.78
   3  -2 -13  138.83   19.43
  -3  -2 -13  151.56    8.42
   3  -2  13  113.43    5.96
  -3   2  14  182.04    8.55
   3   2  14  150.20    9.70
   3  -2  14  193.00   11.62
  -3   2 -14  147.16    8.89
   3   2 -14  156.77   13.61
   3  -2 -14  152.28   13.92
  -3  -2 -14  185.73    8.90
  -3   2  15  223.06   10.99
   3   2  15  187.30   11.81
   3  -2  15  198.40   13.17
  -3   2 -15  170.99   12.62
   3   2 -15  201.53   18.28
   3  -2 -15  173.93   19.56
  -3  -2 -15  175.33    8.81
  -3   2  16   23.96    4.85
   3   2  16   23.87    5.53
   3  -2  16   32.88    6.80
  -3   2 -16   26.17    4.94
   3   2 -16   41.65    8.38
   3  -2 -16   24.30    4.81
  -3  -2 -16   38.83    5.94
  -3   2  17  173.98   12.14
   3   2  17  149.63   12.71
   3  -2  17  150.79   12.18
  -3   2 -17  149.32   11.84
   3   2 -17  141.31   20.91
   3  -2 -17  143.78   17.39
  -3  -2 -17  154.43   11.01
  -3   2  18    4.90    1.92
   3   2  18   13.13    5.39
   3  -2  18   11.01    4.29
  -3   2 -18   12.74    3.88
   3   2 -18   25.43    6.35
   3  -2 -18   10.94    3.76
  -3  -2 -18    8.39    2.85
  -3   2  19  307.39   21.92
   3   2  19  300.86   23.99
   3  -2  19  349.79   26.90
  -3   2 -19  275.56   19.89
   3   2 -19  275.40   30.00
   3  -2 -19  330.88   42.82
  -3  -2 -19  332.17   24.09
   3   2  20    5.24    3.51
   3  -2  20    3.61    3.77
  -3   2 -20    3.62    1.76
   3   2 -20    2.43    2.65
   3  -2 -20    4.69    3.37
  -3  -2 -20    8.10    3.46
   3   2  21  376.32   76.48
   3  -2  21  311.15   29.28
   3   2 -21  312.48   39.63
   3  -2 -21  360.71   75.34
  -3  -2 -21  370.69   74.97
   3   2  22   50.85    9.67
   3  -2  22   90.45   15.47
   3   2 -22   97.69   23.50
   3  -2 -22   86.81   17.77
  -3  -2 -22   71.98   18.85
   3   2  23   18.05    7.02
   3  -2  23    9.11    3.92
   3   2 -23   34.20    7.73
   3  -2 -23   29.49   10.21
  -3  -2 -23   16.69    5.59
  -3   3   0  245.31    8.66
   3   3   0  250.73    9.05
  -3  -3   0  248.04    8.42
   3  -3   0  238.81    7.14
  -3   3   0  263.08    7.91
  -3   3  -1   79.98    3.50
  -3   3   1   68.67    3.37
   3   3  -1   85.01    4.53
  -3  -3  -1   78.59    4.77
  -3  -3   1   68.76    3.74
   3  -3  -1   75.44    3.45
   3  -3   1   77.36    3.32
  -3   3   1   79.19    3.25
  -3   3  -2  153.79    5.82
  -3   3   2  167.78    6.20
   3   3   2  166.06    6.79
   3   3  -2  186.14    6.65
  -3  -3  -2  161.02    6.94
  -3  -3   2  161.19    6.00
  -3  -3   2  147.32    9.03
   3  -3  -2  167.69    6.07
   3  -3   2  167.84    5.11
  -3   3   2  161.39    5.61
  -3   3  -3  165.73    8.86
  -3   3   3  143.13    5.83
   3   3  -3  152.00    5.35
   3   3   3  118.12    5.94
   3  -3  -3  145.82    5.68
   3  -3   3  144.45    4.47
  -3   3   3  141.22    5.09
   3   3  -4  101.19    3.37
  -3   3  -4   83.25    8.33
  -3   3   4   77.81    3.96
   3   3  -4   84.25    3.46
   3   3   4   83.23    5.74
   3  -3  -4   81.40    4.63
  -3   3   4   79.28    4.24
   3  -3   4   80.17    2.75
  -3   3  -5  364.58   11.12
   3   3  -5  361.98    9.37
  -3   3   5  393.62   11.73
   3   3  -5  359.90    9.78
   3   3   5  378.77   13.43
   3  -3   5  373.86   10.21
  -3  -3  -5  381.58   11.48
   3  -3   5  356.42    9.41
  -3   3  -6    3.97    2.66
   3   3  -6    1.63    0.51
  -3   3   6    2.45    2.19
   3   3  -6    1.24    0.71
   3   3   6    9.52    3.10
   3  -3   6    0.01    0.45
   3  -3  -6    4.70    3.24
  -3  -3  -6    2.28    1.83
  -3   3  -7  174.84    9.37
  -3   3   7  166.75    6.97
   3   3   7  187.13    9.16
   3   3  -7  169.42    8.88
   3  -3   7  149.60    5.56
   3  -3  -7  150.33    6.82
  -3  -3  -7  161.86    6.95
  -3   3  -8   96.43   11.06
  -3   3   8   76.45    4.44
   3   3   8   86.71    6.63
   3   3  -8   84.30    8.69
   3  -3   8   72.69    3.08
   3  -3  -8   75.60    5.71
  -3  -3  -8   76.91    4.56
  -3   3  -9   20.83    4.08
  -3   3   9   12.88    2.25
   3   3   9    2.23    3.35
   3   3  -9    6.86    4.07
   3  -3   9    8.30    1.20
   3  -3  -9    3.17    3.05
  -3  -3  -9   13.61    2.78
  -3   3 -10  260.87   11.19
  -3   3  10  299.33   13.05
   3   3  10  279.55   14.27
   3   3 -10  257.18   16.04
   3  -3 -10  277.87   13.17
  -3  -3 -10  281.92   12.51
  -3   3  11  296.05   18.30
   3   3  11  298.04   19.78
   3   3 -11  258.43   26.73
   3  -3 -11  264.62   17.00
   3  -3  11  256.05   15.35
  -3  -3 -11  271.25   16.95
  -3   3  12   66.02    5.27
   3   3  12   44.20    6.36
   3  -3  12   71.04    6.62
   3   3 -12   49.44   10.10
   3  -3 -12   41.95    4.83
   3  -3  12   49.26    3.30
  -3  -3 -12   47.65    4.09
  -3   3  13  749.18   27.78
   3   3  13  710.11   28.14
   3  -3  13  757.39   30.39
   3   3 -13  716.49   48.82
   3  -3 -13  682.34   26.30
   3  -3  13  608.08   21.95
  -3  -3 -13  699.35   25.86
  -3   3  14  151.57    8.62
   3   3  14  134.54    9.78
   3  -3  14  144.01   10.18
   3   3 -14  109.34   18.73
   3  -3 -14  109.03    9.35
  -3  -3 -14  142.51    8.05
  -3   3  15  162.77    8.90
   3   3  15  141.46   10.00
   3  -3  15  184.73   11.88
  -3   3 -15  123.19    8.93
   3   3 -15  167.76   23.52
   3  -3 -15  160.05   10.76
  -3  -3 -15  158.03    8.52
  -3   3  16  197.91   13.96
   3   3  16  174.84   14.36
   3  -3  16  220.06   16.74
  -3   3 -16  155.65   10.85
   3   3 -16  166.18   21.99
   3  -3 -16  186.39   13.47
  -3  -3 -16  165.58   11.57
  -3   3  17  321.14   29.42
   3   3  17  238.20   23.31
   3  -3  17  266.33   25.54
  -3   3 -17  235.36   21.50
   3   3 -17  242.86   37.05
   3  -3 -17  284.03   30.58
  -3  -3 -17  270.50   24.86
  -3   3  18   24.17    5.52
   3   3  18   12.33    4.59
   3  -3  18   34.87    8.18
  -3   3 -18   18.30    6.65
   3   3 -18   24.44    7.90
   3  -3 -18   35.01   10.01
  -3  -3 -18   33.00    7.41
  -3   3  19   88.40    7.65
   3   3  19   68.43    9.31
   3  -3  19   71.14    8.57
  -3   3 -19   34.88   12.32
   3   3 -19   73.47   17.78
   3  -3 -19   68.55   13.24
  -3  -3 -19   81.14    7.90
  -3   3  20    3.05    2.32
   3   3  20    5.03    3.70
   3  -3  20    9.50    4.94
   3   3 -20   -4.66    3.54
   3  -3 -20    7.62    3.09
  -3  -3 -20    2.46    2.62
   3   3  21   27.80    7.50
   3  -3  21   38.18    6.50
   3   3 -21   36.48   11.97
   3  -3 -21   47.66   12.41
  -3  -3 -21   51.24    7.89
   3   3  22   31.86    6.19
   3  -3  22   26.09    5.75
   3   3 -22   32.25   12.89
   3  -3 -22   53.68   12.25
  -3  -3 -22   55.74   12.64
   3   3  23   59.25   10.71
   3   3 -23   57.44   22.69
   3  -3 -23   68.02   16.94
  -3  -3 -23   59.48   19.24
  -3   4   0  121.68    5.07
   3   4   0  126.08    5.80
  -3  -4   0  106.43    5.22
   3  -4   0  112.18    4.67
  -3   4  -1   36.09    6.38
  -3   4   1   32.51    2.51
   3   4  -1   37.47    3.24
   3   4   1   46.02    3.72
  -3  -4  -1   30.34    2.84
  -3  -4   1   31.31    2.74
   3  -4  -1   38.34    2.95
   3  -4   1   36.42    2.52
  -3   4   1   26.75    2.01
  -3   4  -2  405.98   11.99
  -3   4   2  492.61   14.28
   3   4  -2  490.51   14.12
  -3  -4   2  493.15   14.22
   3  -4  -2  495.60   13.96
   3  -4   2  499.27   13.52
  -3   4   2  442.19   12.57
  -3   4  -3   85.92    3.99
  -3   4   3   91.36    4.41
   3   4  -3   82.12    3.88
   3   4   3   93.49    5.12
  -3  -4   3   71.68    3.41
   3  -4  -3   78.92    4.23
   3  -4   3   97.07    3.79
  -3   4   3   87.36    4.04
  -3   4  -4  438.04   13.70
  -3   4   4  446.10   13.15
   3   4  -4  444.51   12.34
   3   4   4  440.70   14.72
  -3  -4   4  410.30   11.65
   3  -4  -4  417.88   12.38
   3  -4   4  429.74   11.74
  -3   4  -5  325.10   14.04
  -3   4   5  246.78    9.49
   3   4  -5  259.60    8.84
   3   4   5  276.20   11.97
  -3  -4   5  266.37    9.34
   3  -4  -5  252.70    9.76
  -3  -4  -5  290.39   11.05
   3   4  -6  321.08   10.28
  -3   4  -6  280.92   10.47
  -3   4   6  251.13    9.67
   3   4  -6  214.84    7.24
   3   4   6  264.18   11.33
   3  -4   6  260.72    9.61
   3  -4  -6  266.79   10.33
  -3  -4  -6  261.38   10.26
  -3   4  -7  293.88   10.79
   3   4  -7  240.55    7.51
  -3   4   7  302.57   11.31
   3   4   7  304.04   12.84
   3  -4   7  275.03   11.16
   3  -4  -7  275.10   11.05
  -3  -4  -7  307.76   11.81
  -3   4  -8  182.48    8.72
  -3   4   8  182.66    8.81
   3   4   8  176.99   10.45
   3  -4   8  149.93    7.01
   3  -4  -8  178.75    9.44
  -3  -4  -8  174.48    8.90
  -3   4  -9  154.51   14.04
  -3   4   9  142.00    7.55
   3   4   9  132.54    9.16
   3  -4  -9  117.63    7.30
  -3  -4  -9  161.35    8.65
  -3   4 -10   86.30   13.73
  -3   4  10   51.43    4.74
   3   4  10   66.45    8.55
   3  -4  10   40.39    7.00
   3  -4 -10   61.58    5.60
  -3  -4 -10   55.83    5.48
  -3   4 -11  105.98   11.39
  -3   4  11  134.71    7.92
   3   4  11  119.21    8.56
   3   4 -11  126.28    8.69
   3  -4  11  108.01    5.52
   3  -4 -11  130.50    8.10
  -3  -4 -11  136.72    7.97
  -3   4 -12  153.40    7.00
  -3   4  12  194.41    9.44
   3   4  12  190.80   11.00
   3   4 -12  161.25   14.63
   3  -4  12  151.51    6.49
   3  -4 -12  153.14    8.07
  -3  -4 -12  180.66    9.26
  -3   4  13  505.85   19.79
   3   4  13  512.33   21.96
   3  -4  13  479.03   21.28
   3   4 -13  447.08   29.30
   3  -4 -13  448.64   18.29
  -3  -4 -13  493.13   19.17
  -3   4  14  133.42    7.90
   3   4  14  129.11   16.75
   3  -4  14  155.46   10.93
   3   4 -14  151.86   16.37
   3  -4 -14  134.55    8.23
  -3  -4 -14  138.92    7.97
  -3   4  15  108.13    8.91
   3   4  15  111.82   10.83
   3  -4  15  113.24   10.77
   3   4 -15   87.91   14.31
   3  -4 -15  118.22   10.38
  -3  -4 -15  109.10    9.17
  -3   4  16  144.07   10.54
   3   4  16  113.95   10.45
   3  -4  16  169.51   13.60
   3   4 -16  124.24   21.89
   3  -4 -16  141.05   11.30
  -3  -4 -16  146.29   10.75
  -3   4  17   12.39    3.42
   3   4  17   21.12    6.53
   3  -4  17   18.68    6.06
   3   4 -17   10.24    3.37
   3  -4 -17   30.33    7.57
  -3  -4 -17   16.79    4.96
  -3   4  18   12.76    3.78
   3   4  18   12.13    4.18
   3  -4  18   10.12    3.74
   3   4 -18   15.66    5.24
   3  -4 -18   15.86    4.87
  -3  -4 -18    8.76    3.85
  -3   4  19   13.43    4.21
   3   4  19   10.36    4.27
   3  -4  19   30.27    8.31
   3   4 -19   36.36    9.60
   3  -4 -19   25.31    6.42
  -3  -4 -19   22.61    5.40
  -3   4  20    1.06    2.32
   3   4  20    2.14    3.14
   3  -4  20   15.92    5.49
   3   4 -20    3.51    4.00
   3  -4 -20    5.66    3.95
  -3  -4 -20    4.10    3.02
  -3   4  21   74.72   12.11
   3   4  21   41.36    8.22
   3  -4  21   79.35   14.58
   3   4 -21   56.66   17.86
   3  -4 -21   68.20   15.15
  -3  -4 -21   87.07   14.11
   3   4  22  113.40   18.21
   3  -4  22  118.70   18.17
   3   4 -22  106.08   25.84
   3  -4 -22  138.47   31.62
  -3  -4 -22  181.51   25.67
  -3   5   0  641.94   21.45
   3   5   0  629.63   21.42
   3  -5   0  656.13   21.54
  -3   5  -1   91.34    5.05
  -3   5   1   91.97    4.92
   3   5  -1   80.91    4.78
   3   5   1   83.54    5.00
  -3  -5   1   70.54    4.96
   3  -5  -1   78.18    4.49
   3  -5   1   76.58    3.88
  -3   5  -2  251.16    9.51
  -3   5   2  284.57   10.63
   3   5  -2  288.97   10.66
   3   5   2  274.22   11.04
  -3  -5   2  277.53   10.76
   3  -5  -2  273.29   10.28
   3  -5   2  282.36   10.20
  -3   5  -3   47.91    6.55
  -3   5   3   36.97    3.16
   3   5  -3   30.63    2.76
   3   5   3   39.15    4.35
  -3  -5   3   35.42    3.62
   3  -5  -3   29.63    2.93
   3  -5   3   44.05    2.95
  -3   5  -4  150.46    6.49
  -3   5   4  163.71    7.19
   3   5  -4  158.72    6.32
   3   5   4  154.22    7.92
  -3  -5   4  173.19    7.23
   3  -5  -4  180.30    7.79
   3  -5   4  163.44    6.48
  -3   5  -5  250.80   11.13
  -3   5   5  247.48   11.26
   3   5  -5  232.82    9.81
   3   5   5  253.62   12.46
  -3  -5   5  271.45   11.57
   3  -5  -5  241.08   11.15
  -3  -5  -5  263.39   12.29
   3  -5   5  252.28   10.68
  -3   5  -6  298.82   13.20
  -3   5   6  266.81   12.20
   3   5  -6  229.81    9.47
   3   5   6  219.44   11.27
  -3  -5   6  249.07   10.44
   3  -5   6  248.11   12.11
   3  -5  -6  239.92   11.52
  -3  -5  -6  259.46   12.29
  -3   5  -7  152.20   16.53
  -3   5   7  129.69    7.15
   3   5  -7  105.75    4.52
   3   5   7  144.63    8.71
   3  -5   7  125.14    8.00
   3  -5  -7  149.53    8.54
  -3  -5  -7  147.15    8.28
  -3   5  -8  256.58   16.35
  -3   5   8  270.95   17.02
   3   5   8  216.83   14.74
   3  -5   8  255.81   16.12
   3  -5  -8  229.49   15.27
  -3  -5  -8  254.41   16.28
  -3   5  -9  107.00   12.46
  -3   5   9   97.09    7.57
   3   5   9   88.59    8.31
   3  -5   9   75.74    8.54
   3  -5  -9   88.63    7.59
  -3  -5  -9   81.61    6.89
  -3   5 -10  315.36   17.61
  -3   5  10  277.24   13.74
   3   5  10  335.51   17.75
   3  -5  10  225.73   11.10
   3  -5 -10  292.81   14.86
  -3  -5 -10  272.30   13.92
  -3   5 -11  192.51   16.07
  -3   5  11  182.83    8.85
   3   5  11  156.87   10.23
   3  -5  11  140.08    6.45
   3  -5 -11  165.40    8.78
  -3  -5 -11  151.90    8.25
  -3   5 -12  987.59   42.97
  -3   5  12  635.58   26.92
   3   5  12  699.05   30.86
   3  -5 -12  649.69   28.00
  -3  -5 -12  704.31   29.83
  -3   5 -13   57.88    5.06
  -3   5  13   72.29    6.71
   3   5  13   67.79    8.03
   3  -5 -13   66.04    6.56
  -3  -5 -13   64.40    6.34
  -3   5  14   11.66    2.78
   3   5  14   33.35    6.57
   3  -5 -14   29.46    5.65
  -3  -5 -14   48.13    7.40
  -3   5  15   25.63    4.28
   3   5  15   27.49    6.50
   3  -5  15   38.20    6.43
   3  -5 -15   37.12    7.55
  -3  -5 -15   22.07    4.52
  -3   5  16   34.82    7.42
   3   5  16   16.47    5.19
   3  -5  16   39.88    9.84
   3  -5 -16   48.34   10.24
  -3  -5 -16   47.13   10.05
  -3   5  17  113.36   10.01
   3   5  17  117.47   11.46
   3  -5  17   93.86    9.76
   3  -5 -17  123.40   11.52
  -3  -5 -17  110.15    9.49
  -3   5  18  128.46   15.15
   3   5  18   60.40    8.56
   3  -5  18  139.01   17.00
   3  -5 -18  139.00   16.93
  -3  -5 -18  134.45   15.69
  -3   5  19   46.71    6.39
   3   5  19   26.71    7.84
   3  -5  19   43.23    6.75
   3  -5 -19   58.14    7.73
  -3  -5 -19   66.23    8.23
  -3   5  20  145.20   22.49
   3   5  20  113.01   18.72
   3  -5  20  114.59   18.70
   3  -5 -20  157.53   25.15
  -3  -5 -20  132.93   20.51
  -3   5  21   89.32   10.86
   3   5  21   79.05   11.18
   3  -5  21   74.58   10.90
   3  -5 -21  125.53   14.82
  -3  -5 -21  108.20   12.84
  -3   6   0   96.95    5.64
   3   6   0  113.18    7.06
   3  -6   0   87.98    5.20
  -3   6  -1  522.04   21.55
  -3   6   1  479.09   19.92
   3   6  -1  511.35   21.21
   3   6   1  531.55   22.44
   3  -6  -1  483.35   19.98
   3  -6   1  499.05   20.47
  -3   6  -2  349.48   15.08
  -3   6   2  340.59   14.82
   3   6  -2  335.73   14.53
   3   6   2  395.06   17.38
   3  -6  -2  337.55   14.52
   3  -6   2  300.98   13.03
  -3   6  -3   93.20    9.83
  -3   6   3   76.12    5.33
   3   6  -3   83.73    5.10
   3   6   3   80.85    5.95
  -3  -6   3   66.73    4.37
   3  -6  -3   67.25    4.48
   3  -6   3   88.45    5.01
  -3   6  -4  285.58   17.59
  -3   6   4  335.75   20.76
   3   6  -4  327.35   19.81
   3   6   4  323.67   20.74
   3  -6  -4  304.97   19.07
   3  -6   4  338.22   20.62
  -3   6  -5   28.35    3.98
  -3   6   5   23.24    3.51
   3   6  -5   16.82    2.45
   3   6   5   22.85    4.27
  -3  -6   5   23.80    2.87
   3  -6  -5   27.81    4.01
  -3  -6  -5   23.55    4.31
   3  -6   5   29.90    3.51
  -3   6  -6  145.61   17.99
  -3   6   6  137.23    9.66
   3   6  -6  119.86    7.70
   3   6   6  137.77   10.87
  -3  -6   6  108.08    7.43
   3  -6  -6  102.59    8.03
  -3  -6  -6  145.09   10.92
  -3   6  -7  274.21   19.55
  -3   6   7  213.13   11.28
   3   6  -7  176.63    8.09
   3   6   7  210.41   12.07
  -3  -6   7  221.98   10.60
   3  -6   7  168.05    8.65
   3  -6  -7  192.59   10.80
  -3  -6  -7  214.82   11.76
  -3   6  -8  255.32   13.41
   3   6  -8  182.51    8.10
  -3   6   8  256.12   13.05
   3   6   8  240.55   13.95
  -3  -6   8  234.15   10.65
   3  -6  -8  223.80   12.15
  -3  -6  -8  242.51   12.77
  -3   6  -9  256.15   18.36
  -3   6   9  225.78   10.62
   3   6   9  205.25   11.03
   3  -6  -9  222.29   10.82
  -3  -6  -9  207.68   10.19
  -3   6 -10   85.04    9.82
  -3   6  10   80.18    6.05
   3   6  10   79.34    7.79
   3  -6 -10   81.34    6.49
  -3  -6 -10   77.73    5.88
  -3   6 -11  147.06   17.25
  -3   6  11  139.76    8.32
   3   6  11  163.59   11.01
   3  -6 -11  125.28   16.18
  -3  -6 -11  136.22    8.22
  -3   6 -12   83.86   15.96
  -3   6  12   93.05    8.30
   3   6  12   70.69   10.14
   3  -6 -12   70.82   10.18
  -3  -6 -12   99.34    8.90
  -3   6 -13   79.86   13.95
  -3   6  13   57.77    7.81
   3   6  13   66.17    9.72
   3  -6 -13   68.80    9.64
  -3  -6 -13   65.91    8.90
  -3   6 -14  106.92   10.33
  -3   6  14   97.25   10.14
   3   6  14  117.93   13.36
   3  -6 -14  126.19   13.60
  -3  -6 -14  104.38   11.19
  -3   6  15   12.21    3.90
   3   6  15   22.11    7.02
   3  -6 -15   18.85    4.79
  -3  -6 -15   21.18    5.61
  -3   6  16  147.25   12.47
   3   6  16  146.30   13.42
   3  -6  16  104.20   10.11
   3  -6 -16  127.56   11.17
  -3  -6 -16  112.85    9.78
  -3   6  17   18.30    5.19
   3   6  17   25.58    7.05
   3  -6  17   33.56    9.83
   3  -6 -17   14.72    4.76
  -3  -6 -17   28.57    6.59
  -3   6  18   22.56    6.28
   3   6  18   22.37    7.31
   3  -6  18    9.70    5.11
   3  -6 -18   25.09    7.82
  -3  -6 -18   21.98    6.60
  -3   6  19  111.54   17.69
   3   6  19   90.55   15.71
   3  -6  19   89.38   15.31
   3  -6 -19  124.30   19.78
  -3  -6 -19  111.04   17.47
  -3   6  20   18.00    4.68
   3   6  20   23.74    7.34
   3  -6  20   17.09    6.69
   3  -6 -20   33.60    6.64
  -3  -6 -20   40.25    6.31
  -3   7   0  653.95   39.02
   3   7   0  655.85   39.21
   3  -7   0  608.17   36.28
  -3   7  -1   19.10    3.05
  -3   7   1   22.96    3.44
   3   7  -1   20.17    3.52
   3   7   1   10.54    3.43
   3  -7  -1   13.98    2.31
   3  -7   1   16.84    3.03
  -3   7  -2  111.49    6.54
  -3   7   2  119.30    7.61
   3   7  -2  116.36    6.81
   3   7   2  108.75    7.46
   3  -7  -2  112.81    7.22
   3  -7   2  110.08    6.76
  -3   7  -3  409.73   18.96
  -3   7   3  422.54   19.87
   3   7  -3  445.24   20.43
   3   7   3  446.11   21.21
   3  -7  -3  391.44   18.51
   3  -7   3  419.33   19.45
  -3   7  -4  101.55   13.93
  -3   7   4   85.52    6.24
   3   7  -4   94.80    5.75
   3   7   4   81.29    7.22
   3  -7  -4   77.16    5.83
   3  -7   4   81.96    5.55
  -3  -7  -4   79.12    6.95
  -3   7  -5  100.54   10.36
  -3   7   5   72.03    5.10
   3   7  -5   89.01    5.32
   3   7   5   78.00    7.33
  -3  -7   5   70.55    5.41
   3  -7  -5   89.32    6.63
  -3  -7  -5   92.15    7.23
   3  -7   5   81.56    5.50
  -3   7  -6   56.01    8.31
  -3   7   6   57.39    4.79
   3   7  -6   52.38    3.47
   3   7   6   33.17    4.78
  -3  -7   6   45.63    4.00
   3  -7  -6   48.04    4.33
  -3  -7  -6   51.42    5.55
  -3   7  -7  193.69   17.99
  -3   7   7  187.77    9.54
   3   7  -7  158.03    6.54
   3   7   7  218.99   12.94
  -3  -7   7  164.76    7.55
   3  -7  -7  163.77    9.12
  -3  -7  -7  208.71   10.94
  -3   7  -8  189.92   17.29
   3   7  -8  131.29    5.91
  -3   7   8  151.07    8.54
   3   7   8  164.72   11.06
   3  -7  -8  130.04   16.35
  -3  -7  -8  148.92    9.07
  -3   7  -9   20.96    4.11
  -3   7   9   12.74    4.80
   3   7   9    4.43    3.50
   3  -7  -9    4.92    3.33
  -3  -7  -9   24.55    5.07
  -3   7 -10  155.42   17.06
  -3   7  10  119.26    9.84
   3   7  10  110.38   10.50
   3  -7 -10  117.89   10.50
  -3  -7 -10  106.07    9.09
  -3   7 -11   50.79    8.03
  -3   7  11   29.85    5.26
   3   7  11   37.76    6.90
   3  -7 -11   41.15    6.88
  -3  -7 -11   44.81    7.15
  -3   7 -12    6.63    3.02
  -3   7  12    3.56    2.70
   3   7  12   15.78    5.68
   3  -7 -12    9.84    3.63
  -3  -7 -12    6.83    4.17
  -3   7 -13  327.93   33.51
  -3   7  13  330.04   30.43
   3   7  13  267.81   26.24
   3  -7 -13  279.74   26.21
  -3  -7 -13  268.42   25.02
  -3   7 -14    5.05    2.45
  -3   7  14    9.28    4.09
   3   7  14    8.74    6.30
   3  -7 -14    4.22    3.59
  -3  -7 -14   12.57    4.19
  -3   7  15   17.51    5.38
   3   7  15   28.68    7.53
   3  -7 -15   15.83    4.74
  -3  -7 -15   26.70    6.90
  -3   7  16   41.95    6.35
   3   7  16   25.96    6.81
   3  -7 -16   42.12    7.21
  -3  -7 -16   44.60    6.92
  -3   7  17   53.74    7.06
   3   7  17   39.54    7.10
   3  -7  17   66.55    9.80
   3  -7 -17   69.16    9.32
  -3  -7 -17   60.37    7.46
  -3   7  18    5.08    4.31
   3   7  18   28.30    7.84
   3  -7  18    5.57    4.58
   3  -7 -18   11.36    5.85
  -3  -7 -18   19.96    5.90
  -3   7  19    6.85    2.96
   3   7  19   11.93    5.51
   3  -7  19   14.32    5.50
   3  -7 -19   11.33    4.40
  -3  -7 -19    7.36    4.51
  -3   8   0  118.08    7.11
   3   8   0  115.01    6.74
   3  -8   0  112.04    6.46
  -3   8  -1   39.95    4.16
  -3   8   1   36.50    3.76
   3   8  -1   34.90    4.04
   3   8   1   33.75    4.25
   3  -8  -1   41.58    4.26
   3  -8   1   33.03    3.71
  -3   8  -2   53.26    4.27
  -3   8   2   67.70    5.72
   3   8  -2   66.62    5.05
   3   8   2   51.54    5.73
   3  -8  -2   60.87    4.97
   3  -8   2   72.45    5.73
  -3   8  -3   83.82    7.44
  -3   8   3  110.88    9.26
   3   8  -3   95.32    8.01
   3   8   3  111.16    9.47
   3  -8  -3  112.85    9.28
   3  -8   3  101.35    8.43
  -3   8  -4  271.53   17.69
  -3   8   4  241.61   11.97
   3   8  -4  258.06   11.92
   3   8   4  274.24   14.23
   3  -8  -4  237.57   12.45
   3  -8   4  226.78   11.35
  -3  -8  -4  258.98   13.62
  -3   8  -5   89.26   12.01
  -3   8   5   72.69    6.46
   3   8  -5   87.61    6.91
   3   8   5   98.78    9.47
   3  -8  -5   97.32    9.14
   3  -8   5   98.27    7.93
  -3  -8  -5   93.52    8.95
  -3   8  -6  385.33   27.58
  -3   8   6  340.68   15.62
   3   8  -6  351.88   15.08
   3   8   6  382.78   18.49
   3  -8  -6  299.55   14.50
  -3  -8  -6  358.98   17.52
   3  -8   6  383.96   17.51
  -3   8  -7  326.05   23.43
   3   8  -7  333.42   22.31
  -3   8   7  316.46   22.37
   3   8   7  342.85   24.64
   3  -8  -7  300.11   21.93
  -3  -8  -7  327.91   23.66
  -3   8  -8  195.68   23.68
  -3   8   8  173.39   13.33
   3   8   8  167.44   14.03
   3  -8  -8  155.51   13.35
  -3  -8  -8  164.42   13.09
  -3   8  -9    9.96    4.05
  -3   8   9   13.25    4.11
   3   8   9   12.80    5.76
   3  -8  -9   13.19    4.78
  -3  -8  -9   10.42    3.67
  -3   8 -10    6.76    2.88
  -3   8  10    5.63    3.66
   3   8  10   13.20    4.73
   3  -8 -10   16.03    6.16
  -3  -8 -10    9.73    4.07
  -3   8 -11   97.78   14.56
  -3   8  11   83.77    9.20
   3   8  11   91.38   11.65
   3  -8 -11   77.42    8.62
  -3  -8 -11   88.86   10.38
  -3   8 -12   97.60   14.23
  -3   8  12  104.44    9.92
   3   8  12  151.06   14.81
   3  -8 -12  121.87   11.56
  -3  -8 -12  110.98   10.45
  -3   8 -13   29.41    7.02
  -3   8  13   41.66    5.94
   3   8  13   37.45    6.77
   3  -8 -13   27.95    7.34
  -3  -8 -13   37.78    5.81
  -3   8 -14   65.64   15.70
  -3   8  14   87.34   10.90
   3   8  14   70.45    9.97
   3  -8 -14   77.05   10.41
  -3  -8 -14  101.55   12.57
  -3   8 -15   36.24   11.98
  -3   8  15   60.01    7.52
   3   8  15   51.93    8.37
   3  -8 -15   82.91   10.26
  -3  -8 -15   60.76    7.67
  -3   8 -16   38.91    4.55
  -3   8  16   40.55    6.11
   3   8  16   36.43    7.11
   3  -8 -16   53.52    7.89
  -3  -8 -16   66.41    8.63
  -3   8  17   28.18    6.69
   3   8  17   15.57    5.20
   3  -8  17   25.07    7.51
   3  -8 -17   12.92    6.33
  -3  -8 -17   16.24    4.96
  -3   8  18   96.76   14.89
   3   8  18   93.96   15.17
   3  -8 -18   91.54   14.19
  -3  -8 -18   89.00   13.76
  -3   9   0  245.35   17.75
   3   9   0  218.71   15.90
   3  -9   0  229.80   16.97
  -3   9  -1  395.41   27.13
  -3   9   1  375.39   26.11
   3   9  -1  414.97   28.50
   3   9   1  379.64   26.34
   3  -9  -1  367.81   25.81
   3  -9   1  378.95   26.24
  -3   9  -2  370.93   25.57
  -3   9   2  404.72   27.87
   3   9  -2  400.21   27.49
   3   9   2  364.23   25.75
   3  -9  -2  346.55   24.45
   3  -9   2  362.50   25.16
  -3   9  -3   12.58    4.21
  -3   9   3    3.99    2.79
   3   9  -3    5.60    2.41
   3   9   3    7.09    4.09
   3  -9  -3    8.64    5.04
   3  -9   3    4.46    3.82
  -3  -9  -3    0.59    3.35
  -3   9  -4   11.01    3.00
  -3   9   4   11.70    4.66
   3   9  -4    5.20    2.74
   3   9   4    2.85    2.96
   3  -9  -4   11.55    4.31
   3  -9   4   16.11    4.45
  -3  -9  -4   10.72    3.92
  -3   9  -5   75.17   17.16
  -3   9   5   58.77    8.12
   3   9  -5   40.08    5.47
   3   9   5   46.48    7.48
   3  -9  -5   52.63    7.77
   3  -9   5   50.57    7.14
  -3  -9  -5   55.71    8.43
  -3   9  -6   72.05   11.63
  -3   9   6   61.91    7.53
   3   9  -6   71.70    7.34
   3   9   6   65.29    8.10
   3  -9  -6   43.06    9.07
  -3  -9  -6   67.02    8.57
   3  -9   6   58.91   11.69
  -3   9  -7  109.26   15.30
   3   9  -7   92.63    8.86
  -3   9   7   93.20   10.34
   3   9   7  116.11   12.45
   3  -9  -7   95.24   10.26
  -3  -9  -7  107.00   12.03
   3  -9   7  100.18   10.51
  -3   9  -8  308.19   34.30
  -3   9   8  305.11   28.40
   3   9   8  321.59   30.42
   3  -9  -8  302.11   28.32
  -3  -9  -8  370.63   34.54
  -3   9  -9  228.65   31.28
  -3   9   9  201.46   16.62
   3   9   9  214.08   18.33
   3  -9  -9  187.60   15.92
  -3  -9  -9  214.46   18.31
  -3   9 -10  309.93   29.67
  -3   9  10  296.19   22.17
   3   9  10  313.66   23.70
   3  -9 -10  280.66   21.41
  -3  -9 -10  300.21   22.83
  -3   9 -11   25.28    6.51
  -3   9  11   45.48    7.37
   3   9  11   39.01    7.38
   3  -9 -11   34.58    6.41
  -3  -9 -11   31.09    7.70
  -3   9 -12  123.39   22.19
  -3   9  12  144.03   16.78
   3   9  12  160.47   19.34
   3  -9 -12  138.93   16.67
  -3  -9 -12  153.28   18.13
  -3   9 -13   48.05    8.45
  -3   9  13   49.37    6.67
   3   9  13   46.35    7.15
   3  -9 -13   52.62    7.33
  -3  -9 -13   63.28    8.59
  -3   9 -14    6.12    2.71
  -3   9  14    7.65    3.16
   3   9  14   36.62    7.41
   3  -9 -14    9.59    4.30
  -3  -9 -14    7.32    3.68
  -3   9 -15   20.51    6.34
  -3   9  15   15.18    5.56
   3   9  15   26.49    8.27
   3  -9 -15   12.18    4.93
  -3  -9 -15   21.65    6.58
  -3   9 -16    9.31    3.04
  -3   9  16   16.77    4.93
   3   9  16   12.02    5.43
   3  -9 -16   21.26    6.03
  -3  -9 -16   21.09    5.74
  -3  10   0   42.70    9.47
   3  10   0   48.16    5.75
   3 -10   0   37.40    8.45
  -3  10  -1    6.33    4.67
  -3  10   1    5.21    3.52
   3  10  -1    9.56    3.25
   3  10   1    4.66    4.04
   3 -10  -1    4.32    3.19
   3 -10   1   10.69    3.88
  -3  10  -2  152.22   13.13
  -3  10   2  133.81   11.60
   3  10  -2  143.98   12.16
   3  10   2  131.72   12.07
   3 -10  -2  125.61   11.01
   3 -10   2  148.15   12.93
  -3  10  -3    3.79    2.83
  -3  10   3    5.50    2.90
   3  10  -3    7.67    3.17
   3  10   3    7.92    3.26
   3 -10  -3    5.23    3.68
   3 -10   3    6.08    3.10
  -3 -10  -3   13.94    6.18
  -3  10  -4   33.46    7.93
  -3  10   4   67.62    7.80
   3  10  -4   35.87    7.34
   3  10   4   37.11    8.11
   3 -10  -4   41.72    9.91
   3 -10   4   33.45    7.31
  -3 -10  -4   27.81    7.30
  -3  10  -5   51.01    8.35
  -3  10   5   72.72    7.99
   3  10  -5   52.70    5.17
   3  10   5   51.16    7.22
   3 -10  -5   72.60    8.67
   3 -10   5   47.00    5.94
  -3 -10  -5   55.36    6.99
  -3  10  -6    6.12    2.70
  -3  10   6    7.18    3.85
   3  10   6    3.67    3.66
   3 -10  -6    1.31    3.29
  -3 -10  -6    9.25    4.24
   3 -10   6   13.78    5.25
  -3  10  -7  100.34   13.52
  -3  10   7   96.10    8.87
   3  10   7   95.76    9.75
   3 -10  -7   82.94    8.72
  -3 -10  -7   83.81    9.30
   3 -10   7   79.26    7.51
  -3  10  -8   65.62   12.88
  -3  10   8   67.35    8.68
   3  10   8   71.07    9.55
   3 -10  -8   74.53   10.44
  -3 -10  -8   74.26    9.76
   3 -10   8   87.78   11.08
  -3  10  -9   24.64    6.97
  -3  10   9   30.65    7.15
   3  10   9   17.73    5.19
   3 -10  -9   22.64    6.18
  -3 -10  -9   28.06    7.07
  -3  10 -10    1.54    2.01
  -3  10  10   15.45    5.04
   3  10  10    5.26    3.88
  -3 -10 -10   11.34    5.83
  -3  10 -11    6.13    1.84
  -3  10  11   14.12    4.69
   3  10  11    9.80    5.01
   3 -10 -11    7.68    5.01
  -3 -10 -11   10.98    5.47
  -3  10 -12   99.24   23.67
  -3  10  12  152.16   23.59
   3  10  12  136.85   21.83
   3 -10 -12  141.32   22.36
  -3 -10 -12  165.07   25.86
  -3  10 -13    4.13    1.69
  -3  10  13    2.56    2.70
   3  10  13   12.73    5.68
   3 -10 -13    9.16    4.17
  -3 -10 -13    7.45    3.91
  -3  10 -14   74.14   17.39
  -3  10  14  126.85   18.70
   3  10  14   97.54   15.44
   3 -10 -14  113.71   17.63
  -3 -10 -14  127.56   18.92
  -3  11   0   10.97    3.59
   3  11   0    3.91    2.51
   3 -11   0   16.44    5.63
  -3  11  -1    6.74    3.11
  -3  11   1    8.12    3.56
   3  11  -1   14.59    3.68
   3  11   1   16.10    4.69
   3 -11  -1   23.94    6.57
   3 -11   1   12.21    5.23
  -3  11  -2   83.53   10.56
  -3  11   2  106.91   12.75
   3  11  -2   78.54    9.55
   3 -11  -2   96.73   11.79
   3 -11   2   94.89   11.84
  -3 -11  -2   81.29   11.27
  -3  11  -3   50.07    7.18
  -3  11   3   69.53    9.21
   3  11  -3   51.18    6.64
   3  11   3   76.92   10.43
   3 -11  -3   60.52    8.94
   3 -11   3   74.40   10.19
  -3 -11  -3   64.44    9.96
  -3  11  -4   41.36    7.06
  -3  11   4   40.94    5.48
   3  11  -4   25.55    6.33
   3  11   4   22.36    6.31
   3 -11  -4   38.20    6.16
   3 -11   4   46.64    7.30
  -3 -11  -4   32.89    8.80
  -3  11  -5   58.64    9.35
  -3  11   5   59.34    7.21
   3  11   5   56.05    7.93
   3 -11  -5   55.11    7.35
   3 -11   5   63.38    8.01
  -3 -11  -5   81.38   10.24
  -3  11  -6   21.81    6.53
  -3  11   6   19.73    6.23
   3  11   6   21.26    6.55
   3 -11  -6   24.85    7.74
  -3 -11  -6   29.77    8.83
   3 -11   6   34.54    8.80
  -3  11  -7   51.55    8.50
  -3  11   7   31.27    7.35
   3  11   7   41.33    6.13
   3 -11  -7   66.49    9.08
  -3 -11  -7   37.92    6.93
   3 -11   7   48.58    6.41
  -3  11  -8   37.32    8.33
  -3  11   8   41.51    5.74
   3  11   8   38.71    6.78
   3 -11  -8   24.78    6.27
  -3 -11  -8   25.46    6.68
   3 -11   8   35.70    5.34
  -3  11  -9   35.55   10.60
  -3  11   9   68.80   11.52
   3  11   9   81.48   14.55
   3 -11  -9   56.48   10.01
  -3 -11  -9   57.40   10.55
   3 -11   9   66.20   11.27
  -3  11 -10   44.56   10.05
  -3  11  10   35.64    6.37
   3  11  10   48.86    7.61
   3 -11 -10   55.63    8.89
  -3 -11 -10   63.04    9.52
   3 -11  10   36.46    6.15
  -3  11 -11   55.82   12.86
  -3  11  11   87.99   10.84
   3  11  11   52.10    8.35
   3 -11 -11   91.99   12.35
  -3 -11 -11   49.72    7.88
  -3  11 -12   20.67    5.21
  -3  11  12   31.73    6.60
   3  11  12   18.82    6.60
   3 -11 -12   48.61    9.22
  -3 -11 -12   28.00    7.06
  -3  12   0   68.87   11.43
   3  12   0   72.70   11.98
   3 -12   0   59.08    9.99
  -3  12  -1  159.06   24.40
  -3  12   1  172.26   26.39
   3  12  -1  146.51   22.65
   3  12   1  161.34   24.77
   3 -12  -1  153.52   24.05
   3 -12   1  119.68   19.36
  -3 -12  -1  185.06   29.09
  -3  12  -2   85.94   13.79
  -3  12   2  106.51   16.74
   3  12  -2   95.77   15.01
   3  12   2   69.60   11.56
   3 -12  -2   85.99   14.55
   3 -12   2  107.25   17.08
  -3 -12  -2  105.08   17.56
  -3  12  -3   10.01    5.05
  -3  12   3    6.83    3.83
   3  12  -3    6.45    2.63
   3  12   3    9.42    4.45
   3 -12  -3    8.46    4.97
   3 -12   3    7.94    4.82
  -3 -12  -3   14.62    5.34
  -3  12  -4    4.95    2.36
  -3  12   4    7.20    3.09
   3  12   4   10.01    4.72
   3 -12  -4   11.22    4.22
   3 -12   4   15.10    6.30
  -3 -12  -4   22.20    7.92
  -3  12  -5    5.06    2.06
  -3  12   5    9.08    4.21
   3  12   5   14.09    4.07
   3 -12  -5   13.53    4.46
  -3 -12  -5    7.46    4.23
   3 -12   5   11.18    3.83
  -3  12  -6   54.24   10.26
  -3  12   6   66.32    8.85
   3  12   6   46.52    7.08
   3 -12  -6   50.86    8.49
   3 -12   6   73.43    9.64
  -3 -12  -6   68.89   10.20
  -3  12  -7   39.90    7.91
  -3  12   7   38.93    7.30
   3  12   7   30.35    6.38
   3 -12  -7   40.87    8.52
  -3 -12  -7   51.26   10.49
   3 -12   7   52.68    9.11
  -3  12  -8   39.78    9.83
  -3  12   8   46.70    8.09
   3  12   8   29.84    6.61
   3 -12  -8   67.87   11.48
  -3 -12  -8   34.70    7.74
   3 -12   8   54.58    9.54
   4   0   0 5387.91  133.28
   4   0   0 5395.31  133.29
  -4   0   0 5504.76  168.54
   4   0  -1  431.46   11.82
   4   0  -1  487.41   13.33
  -4   0  -1  458.19   12.60
  -4   0   1  481.70   13.01
  -4   0  -2 1042.46   26.73
  -4   0   2 1133.40   28.84
   4   0  -2 1185.87   30.33
   4   0  -2 1246.86   31.98
  -4   0  -2 1182.06   29.61
  -4   0   2 1212.15   31.05
  -4   0   3    2.62    1.43
   4   0  -3    3.28    1.95
   4   0  -3    3.33    1.38
  -4   0  -3    0.42    0.59
  -4   0   3    8.50    2.81
  -4   0   4  257.82    7.52
   4   0  -4  240.52    7.22
   4   0   4  265.10   11.22
   4   0  -4  253.06   10.22
  -4   0  -4  210.39    5.78
  -4   0   4  215.46    7.07
  -4   0  -4  219.27    5.96
  -4   0   5  390.65   10.91
   4   0  -5  398.63   11.11
   4   0   5  420.54   15.18
  -4   0  -5  353.30    9.17
   4   0  -5  385.24   12.71
  -4   0  -5  368.74    9.45
  -4   0   6   18.85    2.58
   4   0  -6   13.08    1.52
   4   0   6   22.00    3.90
   4   0  -6   27.87    4.14
  -4   0  -6   17.55    1.05
  -4   0   7  279.98    9.63
   4   0  -7  210.06    7.57
   4   0   7  194.34    9.98
   4   0  -7  238.29   11.76
  -4   0  -7  220.55    7.17
  -4   0   8    2.05    0.94
   4   0  -8   -0.41    1.09
   4   0   8    6.81    4.93
   4   0  -8    5.46    2.83
  -4   0  -8    2.63    1.18
  -4   0   9  309.42   13.29
   4   0  -9  245.06   10.41
   4   0   9  360.59   18.41
   4   0  -9  294.28   22.88
  -4   0  -9  302.96   12.51
  -4   0  10 1369.28   79.22
   4   0 -10 1330.40   77.34
   4   0  10 1534.56   67.56
   4   0 -10 1459.78   63.35
  -4   0 -10 1462.51   61.81
  -4   0  11  354.46   22.00
   4   0 -11  337.81   20.30
   4   0  11  411.23   26.85
   4   0 -11  344.29   25.30
  -4   0 -11  346.48   20.78
   4   0 -12 1007.78   43.26
   4   0  12 1200.81   54.23
   4   0 -12 1135.13   49.69
  -4   0 -12 1051.73   46.23
   4   0  12  984.27   42.05
  -4   0  13   84.92    6.31
   4   0 -13   75.52    4.07
   4   0  13   86.29    7.46
   4   0 -13   90.98   14.29
  -4   0 -13   75.38    7.16
   4   0  13   87.29    4.44
  -4   0  14   51.20    3.98
   4   0  14   41.60    6.71
   4   0 -14   74.89    9.81
  -4   0 -14   47.48    8.66
  -4   0  15  473.55   31.11
   4   0  15  593.44   41.43
   4   0 -15  596.01   55.75
  -4   0 -15  552.34   37.15
   4   0  16    5.21    4.02
   4   0 -16    6.33    2.97
  -4   0 -16    3.89    1.98
   4   0  17   10.13    4.55
   4   0 -17    6.64    2.68
  -4   0 -17    7.42    2.18
   4   0  18   32.00    8.34
   4   0 -18   54.48    9.21
  -4   0 -18   34.86    9.04
   4   0  19  173.83   21.32
   4   0 -19  140.21   22.21
   4   0  20  115.46   14.58
   4   0 -20  116.34   17.92
   4   0  21   50.07   10.45
   4   0 -21   65.25   16.11
   4   0  22  101.85   14.13
   4   0 -22   65.04   18.93
  -4   1   0  290.75    8.80
   4   1   0  232.40    7.24
   4   1   0  249.80    9.11
   4  -1   0  304.90    8.46
  -4  -1   0  243.48    7.50
  -4   1   0  289.94    8.18
  -4   1  -1  664.41   17.68
  -4   1   1  712.30   18.89
   4   1  -1  780.86   20.49
   4   1   1  795.64   23.01
   4   1  -1  706.44   20.05
   4  -1   1  731.30   18.73
  -4  -1  -1  707.30   18.48
   4  -1  -1  705.61   18.83
  -4  -1   1  684.34   18.01
  -4   1   1  697.56   18.30
  -4   1  -1  714.38   18.22
  -4   1  -2 2009.64   50.75
   4   1  -2 1820.08   45.69
   4  -1  -2 1994.82   50.42
   4   1   2 2003.85   52.71
   4   1  -2 1984.18   50.26
  -4  -1  -2 1820.89   45.58
   4  -1  -2 1922.33   48.59
  -4  -1   2 1810.94   45.81
  -4   1   2 1903.15   47.95
  -4   1  -2 1902.55   47.08
  -4  -1   3  578.52   15.00
  -4   1  -3  714.96   19.16
  -4   1   3  790.62   21.21
   4   1  -3  615.56   16.11
   4  -1  -3  662.92   17.77
   4   1   3  689.74   20.91
  -4  -1  -3  632.72   16.76
   4   1  -3  737.26   20.13
   4  -1  -3  701.21   18.83
  -4  -1   3  636.41   17.40
  -4   1   3  666.30   17.87
  -4   1   4 1189.57   30.52
   4   1  -4 1171.42   29.79
   4  -1  -4 1143.82   29.54
   4   1   4 1214.25   33.87
   4   1  -4 1160.78   30.51
   4  -1  -4 1241.75   32.19
  -4   1   4 1132.37   29.37
  -4   1  -5   71.45    7.24
  -4  -1   5   86.83    3.68
  -4   1   5   62.76    7.26
   4   1  -5   64.84    2.85
   4  -1  -5   53.18    2.80
   4   1   5   69.87    5.57
   4   1  -5   57.23    6.77
   4  -1  -5   71.79    8.98
  -4  -1  -5   55.14    2.47
  -4  -1   6  159.27    5.61
  -4   1   6  146.12    7.00
   4   1  -6  125.94    4.77
   4  -1  -6  142.91    5.78
   4   1   6  161.19    8.59
   4   1  -6  145.86    9.17
   4  -1  -6  144.89    6.59
  -4  -1  -6  160.29    5.87
  -4  -1   7   25.39    2.72
  -4   1   7   25.13    3.29
   4   1  -7   14.93    1.44
   4  -1  -7   16.71    1.79
   4   1   7   23.69    4.78
   4  -1   7   20.35    3.69
   4   1  -7   23.74    5.54
   4  -1  -7   31.58    5.15
  -4  -1  -7   20.18    1.73
  -4  -1   8  393.06   15.42
  -4   1   8  437.38   17.50
   4   1  -8  360.59   14.40
   4  -1  -8  429.79   17.55
   4   1   8  411.70   19.38
   4  -1   8  496.37   22.62
   4   1  -8  402.37   20.71
   4  -1  -8  435.47   19.40
  -4  -1  -8  433.67   17.24
  -4  -1   9  151.32    6.58
  -4   1   9  159.25    7.20
   4  -1  -9  125.20    6.16
   4   1  -9  117.97    5.26
   4   1   9  199.05   11.75
   4  -1   9  159.78   10.17
  -4   1  -9  135.72    5.53
   4   1  -9  163.20    8.47
   4  -1  -9  145.61    7.74
  -4  -1  -9  157.77    6.97
  -4  -1  10    7.61    1.00
  -4   1  10    8.28    1.68
   4  -1 -10    6.25    1.90
   4   1 -10    4.03    1.20
   4   1  10   20.50    5.80
   4  -1  10    8.94    4.13
  -4   1 -10    7.43    1.23
   4   1 -10   11.22    2.96
   4  -1 -10   -0.25    2.97
  -4  -1 -10    9.07    1.67
  -4   1  11  192.93   12.07
   4  -1 -11  154.31   10.06
   4   1 -11  126.09    7.79
   4   1  11  199.75   14.91
   4  -1  11  167.55   13.05
  -4   1 -11  149.34    9.49
   4   1 -11  211.73   26.68
   4  -1 -11  173.68   17.24
  -4  -1 -11  174.45   10.90
   4  -1  11  166.51   10.08
  -4  -1  12   35.95    3.21
  -4   1  12   46.22    3.33
   4  -1 -12   37.23    3.15
   4   1 -12   26.15    1.88
   4   1  12   36.48    5.27
   4  -1  12   40.23    5.02
  -4   1 -12   35.24    5.48
   4   1 -12   28.00    4.70
   4  -1 -12   48.25    6.75
  -4  -1 -12   34.73    2.73
   4  -1  12   26.60    2.19
  -4  -1  13  314.40   11.04
   4   1  13  378.06   17.41
   4  -1  13  397.63   19.10
   4   1 -13  369.89   24.58
  -4   1 -13  341.81   13.14
   4  -1 -13  312.31   22.51
  -4  -1 -13  358.57   13.74
   4  -1  13  328.91   12.36
  -4  -1  14  176.54    7.50
  -4   1  14  203.30    9.29
   4   1  14  216.31   12.96
   4  -1  14  254.31   15.28
   4   1 -14  215.14   19.26
  -4   1 -14  197.37    9.86
   4  -1 -14  197.16   17.44
  -4  -1 -14  221.08   10.08
  -4   1  15   12.74    2.89
   4   1  15    9.56    4.68
   4  -1  15   11.21    6.88
   4   1 -15    4.96    1.79
  -4   1 -15   11.27    2.10
   4  -1 -15   18.34    6.08
  -4  -1 -15    0.59    2.26
  -4   1  16  240.74   15.39
   4   1  16  271.67   20.29
   4  -1  16  281.16   20.30
   4   1 -16  331.22   32.90
  -4   1 -16  256.87   16.85
   4  -1 -16  261.94   22.22
  -4  -1 -16  247.96   19.40
  -4   1  17    4.84    1.61
   4   1  17   27.72    7.80
   4  -1  17   29.20    8.22
  -4   1 -17   23.76    5.57
   4   1 -17   36.06   11.73
   4  -1 -17   55.06   12.16
  -4  -1 -17   24.82    6.80
   4   1  18   20.19    6.20
   4  -1  18   22.44    7.23
   4   1 -18   20.88    5.60
   4  -1 -18   23.80    6.11
  -4  -1 -18   19.44    5.54
   4   1  19   29.52    7.84
   4  -1  19   30.31    8.39
   4   1 -19   28.95    7.82
   4  -1 -19   35.66    7.38
   4   1  20   13.31    5.04
   4  -1  20   38.19    7.95
   4   1 -20   31.88   12.29
   4  -1 -20   22.06    5.93
   4   1  21   19.85    6.09
   4  -1  21    5.93    3.86
   4   1 -21    5.69    2.87
   4  -1 -21   11.83    4.79
   4   1  22   25.43    6.07
   4  -1  22   31.06    7.79
   4   1 -22   39.54   11.31
   4  -1 -22   36.01   10.72
   4   2   0 1188.27   30.23
  -4   2   0 1531.34   39.78
   4   2   0 1332.30   35.62
  -4  -2   0 1229.25   31.89
   4  -2   0 1343.57   34.01
  -4   2   0 1292.13   32.68
  -4   2  -1  917.72   24.11
  -4   2   1 1054.71   28.14
   4   2  -1  952.58   26.28
   4   2   1  893.51   24.98
  -4  -2  -1  878.37   23.00
  -4  -2   1  832.49   21.95
   4  -2   1  918.97   23.45
   4  -2  -1  877.21   22.67
  -4   2   1  872.94   22.62
  -4   2  -1  902.01   22.92
   4   2  -2  920.17   23.60
  -4   2  -2  975.61   25.61
  -4   2   2  965.23   25.25
   4   2   2 1066.64   29.68
   4   2  -2  988.46   27.11
  -4  -2  -2  874.42   22.78
  -4  -2   2  908.93   24.31
   4  -2   2  927.66   23.24
   4  -2  -2  975.12   25.26
  -4   2   2  914.54   23.80
  -4   2  -2  956.19   23.95
  -4   2  -3  229.52    7.54
   4   2  -3  222.13    6.46
  -4   2   3  231.19    7.33
   4   2   3  302.62   12.10
   4   2  -3  266.66    9.39
   4  -2  -3  256.59    7.84
  -4   2   3  231.40    7.44
  -4   2  -4  144.23    6.10
   4   2  -4  136.57    5.97
  -4   2   4  132.02    5.10
   4   2   4  138.61    8.69
   4   2  -4  144.78    5.90
   4  -2  -4  147.37    5.67
  -4   2   4  137.50    5.29
  -4   2  -5  424.76   14.66
  -4   2   5  431.12   14.50
   4   2  -5  402.49   13.00
   4   2   5  454.56   17.79
   4   2  -5  458.98   15.55
   4   2  -5  404.76   14.49
   4  -2  -5  442.07   15.19
  -4  -2  -5  435.88   14.68
  -4   2  -6   60.08   12.34
  -4   2   6   33.26    2.73
   4   2  -6   31.47    1.88
   4   2   6   36.84    4.64
   4   2  -6   35.26    2.55
   4   2  -6   39.40    8.33
   4  -2  -6   56.41    8.31
  -4  -2  -6   29.45    2.43
  -4   2  -7  136.77    7.90
  -4   2   7   96.41    4.58
   4   2  -7   73.72    2.99
   4   2   7  100.12    7.50
   4   2  -7   91.03    4.04
   4   2  -7   99.09   14.77
   4  -2  -7  100.86    7.98
  -4  -2  -7   85.28    4.29
  -4   2  -8   30.82    3.00
  -4   2   8   34.70    2.88
   4   2  -8   25.69    1.59
   4   2   8   23.73    4.55
   4   2  -8   26.37    1.87
   4   2  -8   50.80    7.45
   4  -2  -8   33.23    4.12
  -4  -2  -8   32.42    3.07
  -4   2   9  580.90   34.35
   4   2  -9  368.96   21.45
   4   2   9  477.20   29.89
   4   2  -9  486.50   28.25
   4   2  -9  525.27   32.51
   4  -2  -9  499.45   30.96
  -4  -2  -9  522.80   30.93
  -4   2  10  165.08   10.74
   4   2  10  173.75   13.19
   4  -2  10  191.66   14.78
   4   2 -10  161.91   14.01
   4  -2 -10  162.25   14.63
  -4  -2 -10  132.14    8.65
   4  -2  10  140.37    8.33
  -4   2  11   93.29    5.87
   4   2  11  125.53    9.78
   4  -2  11   98.13    8.83
   4   2 -11  109.87   12.81
   4  -2 -11  101.46   14.71
  -4  -2 -11   95.33    5.40
   4  -2  11   82.73    4.03
  -4   2  12  207.89    9.16
   4   2  12  207.31   12.72
   4  -2  12  204.74   12.93
   4   2 -12  174.91   11.15
   4  -2 -12  190.97   14.53
  -4  -2 -12  199.93    8.57
   4  -2  12  169.50    6.63
  -4   2  13  224.36   10.58
   4   2  13  195.14   12.53
   4  -2  13  213.16   13.22
   4   2 -13  189.65   20.57
   4  -2 -13  188.86   15.64
  -4  -2 -13  200.16    9.52
  -4   2  14  460.45   19.62
   4   2  14  496.40   23.97
   4  -2  14  524.00   25.54
  -4   2 -14  381.41   16.73
   4   2 -14  484.80   23.70
   4  -2 -14  409.12   20.01
  -4  -2 -14  498.36   20.99
  -4   2  15    9.25    2.13
   4   2  15   17.21    5.22
   4  -2  15   36.39    7.65
   4   2 -15   29.26    8.73
   4  -2 -15   20.28    4.62
  -4  -2 -15   22.39    3.65
  -4   2  16  194.59   17.96
   4   2  16  219.73   22.08
   4  -2  16  232.05   23.46
   4   2 -16  174.75   20.08
   4  -2 -16  231.25   34.26
  -4  -2 -16  195.68   18.17
  -4   2  17  105.09    8.92
   4   2  17  111.76   12.24
   4  -2  17  100.43   11.22
   4   2 -17   78.42   14.57
   4  -2 -17  139.50   17.22
  -4  -2 -17  105.33    9.09
   4   2  18   24.71    7.83
   4  -2  18   18.95    5.63
   4   2 -18   21.04    5.32
   4  -2 -18   13.02    4.60
  -4  -2 -18   12.84    3.54
   4   2  19   74.90   11.77
   4  -2  19   36.63    7.86
   4   2 -19   66.44   12.85
   4  -2 -19   48.45    9.56
  -4  -2 -19   47.93    8.92
   4   2  20    7.22    5.06
   4  -2  20   22.52    7.06
   4   2 -20   15.42    6.24
   4  -2 -20   10.05    2.61
   4   2  21   12.28    4.72
   4  -2  21    4.07    3.68
   4   2 -21   10.00    5.41
   4  -2 -21   11.40    5.05
   4   2  22    8.02    5.54
   4  -2  22    9.03    5.71
   4   2 -22   14.29    5.05
   4  -2 -22   20.41    5.67
  -4   3   0  274.35    8.75
   4   3   0  259.24    9.51
   4  -3   0  278.18    8.15
  -4   3   0  272.48    7.97
   4   3  -1 2978.65   74.31
  -4   3  -1 3067.95   77.19
  -4   3   1 2383.30   60.07
   4   3  -1 2570.64   65.51
   4   3   1 2618.69   67.13
   4  -3  -1 2665.63   66.51
   4  -3   1 2642.66   65.62
  -4   3   1 2598.63   65.06
  -4   3  -1 2567.27   63.92
   4   3  -2    2.25    1.02
  -4   3  -2   12.62    3.48
  -4   3   2   -2.68    2.48
   4   3   2    4.29    2.68
   4   3  -2    7.00    2.66
   4  -3   2    2.98    1.49
   4  -3  -2    2.79    2.07
  -4   3   2    8.86    2.44
   4   3  -3  127.73    4.64
  -4   3  -3  146.26    6.08
  -4   3   3  151.78    7.20
   4   3  -3  162.31    7.37
   4   3   3  140.01    8.86
   4  -3   3  159.97    5.42
   4  -3  -3  143.06    5.81
  -4   3   3  134.30    5.58
   4   3  -4  481.13   15.42
  -4   3  -4  507.52   17.63
  -4   3   4  521.41   17.59
   4   3  -4  514.67   17.26
   4   3   4  495.53   18.38
   4  -3   4  521.53   16.11
   4  -3  -4  464.24   15.75
  -4   3  -5  258.41   10.40
   4   3  -5  311.24   10.32
  -4   3   5  281.69   10.41
   4   3  -5  286.32   10.15
   4   3   5  287.93   13.11
   4  -3  -5  274.10   10.44
  -4  -3  -5  265.90    9.96
  -4   3  -6  293.90   12.78
  -4   3   6  366.47   15.46
   4   3  -6  321.48   13.06
   4   3   6  300.93   14.72
   4  -3  -6  340.66   14.69
  -4  -3  -6  310.90   13.29
  -4   3  -7  143.70   17.07
   4   3  -7   83.38    3.60
  -4   3   7  120.15    6.47
   4   3  -7  101.63    4.66
   4   3   7  114.85    8.77
   4  -3  -7   90.12    5.34
  -4  -3  -7  112.02    5.92
  -4   3   8  228.18   14.31
   4   3   8  224.08   15.93
   4   3  -8  209.92   25.38
   4  -3  -8  227.02   14.79
  -4  -3  -8  217.71   13.70
  -4   3  -9  502.46   31.09
  -4   3   9  445.42   26.83
   4   3   9  431.19   27.67
   4   3  -9  380.64   34.37
   4  -3  -9  376.71   23.35
   4  -3   9  377.41   21.85
  -4  -3  -9  394.50   23.85
  -4   3 -10  251.22   12.01
  -4   3  10  319.73   15.21
   4   3  10  253.74   15.25
   4   3 -10  312.38   24.92
   4  -3 -10  311.92   15.77
  -4  -3 -10  267.87   12.89
   4  -3  10  279.21   12.03
  -4   3  11   75.44    5.70
   4   3  11   92.76    8.87
   4   3 -11   73.17   14.18
   4  -3 -11   81.30    6.63
  -4  -3 -11   62.67    4.64
   4  -3  11   67.32    3.45
  -4   3  12  111.30    6.35
   4   3  12  119.85    9.95
   4  -3  12  106.02    8.78
   4   3 -12  104.13   11.67
   4  -3 -12   68.24    5.07
  -4  -3 -12  102.89    5.94
   4  -3  12   83.54    3.69
  -4   3  13  138.00    7.64
   4   3  13  130.93   11.25
   4  -3  13  121.82   11.90
   4   3 -13  125.79   19.18
   4  -3 -13  111.03    9.08
  -4  -3 -13  132.79    7.29
  -4   3  14    6.73    3.07
   4   3  14    6.38    5.41
   4  -3  14    3.53    4.59
   4   3 -14    8.90    4.15
   4  -3 -14   11.38    3.53
  -4  -3 -14    1.07    2.93
  -4   3  15  502.98   31.60
   4   3  15  449.26   30.31
   4  -3  15  457.27   31.06
   4   3 -15  469.60   49.37
   4  -3 -15  443.75   28.61
  -4  -3 -15  508.41   32.01
  -4   3  16   30.54    6.54
   4   3  16   28.38    7.66
   4  -3  16   68.96   10.40
   4   3 -16   31.03    8.60
   4  -3 -16   24.99    8.71
  -4  -3 -16   33.72    7.06
  -4   3  17   33.26    6.83
   4   3  17   31.21    7.77
   4  -3  17   47.64    7.59
   4   3 -17   44.03   12.61
   4  -3 -17   58.92   10.69
  -4  -3 -17   49.97    5.68
  -4   3  18   38.57    5.43
   4   3  18   79.92   10.91
   4  -3  18   68.26   11.16
   4   3 -18   69.78   18.31
   4  -3 -18   99.98   17.20
  -4  -3 -18   72.34    9.03
   4   3  19   37.90    6.69
   4  -3  19   61.92    9.10
   4   3 -19   49.98   13.33
   4  -3 -19   58.23   12.80
  -4  -3 -19   64.18    7.55
   4   3  20   17.80    6.43
   4  -3  20   16.39    5.59
   4   3 -20   27.12    7.09
   4  -3 -20   34.58    8.04
  -4  -3 -20   30.13    7.17
   4   3  21   31.01    7.30
   4  -3  21   37.43    7.57
   4   3 -21   36.53   17.23
   4  -3 -21   71.64   12.93
   4   3  22   52.80    9.96
   4  -3  22   17.68    6.68
   4   3 -22   21.80    9.99
   4  -3 -22   59.06   13.38
  -4   4   0  545.47   18.24
   4   4   0  666.69   23.02
   4  -4   0  613.04   19.98
  -4   4  -1 1339.19   42.32
  -4   4   1 1412.76   44.78
   4   4   1 1490.00   58.55
   4   4  -1 1472.85   57.55
  -4  -4   1 1322.13   42.67
   4  -4  -1 1535.06   59.13
   4  -4   1 1505.93   57.80
  -4   4   1 1408.63   44.31
  -4   4  -2  128.65    5.86
  -4   4   2  132.74    9.06
   4   4  -2  153.86    6.92
   4   4   2  125.89    7.26
   4  -4  -2  128.85    5.78
   4  -4   2  122.86    4.83
  -4   4   2  122.75    5.25
  -4   4  -3  157.35    7.38
  -4   4   3  134.49    6.20
   4   4  -3  126.25    6.00
   4   4   3  155.02    9.76
   4  -4  -3  107.58    5.72
   4  -4   3  122.41    5.45
   4   4  -4  201.39    8.53
  -4   4  -4  163.81   16.52
  -4   4   4  194.49    9.40
   4   4  -4  177.78    8.32
   4   4   4  198.46   11.63
   4  -4  -4  166.02    8.12
   4  -4   4  164.49    6.92
   4   4  -5   72.03    4.52
  -4   4  -5   95.08   12.99
  -4   4   5   93.29    5.65
   4   4  -5   90.59    4.68
   4   4   5   98.64    7.27
   4  -4   5   96.44    6.04
   4  -4  -5  104.37    6.02
   4  -4   5   92.78    4.11
  -4  -4  -5   91.10    5.63
  -4   4  -6   92.78   11.36
   4   4  -6   52.25    4.35
  -4   4   6   65.39    4.44
   4   4  -6   52.88    2.95
   4   4   6   72.75    7.46
   4  -4  -6   68.30    5.27
   4  -4   6   66.45    3.08
  -4  -4  -6   63.72    4.78
  -4   4  -7   51.44    8.27
   4   4  -7   16.21    2.38
  -4   4   7   39.65    3.93
   4   4  -7   22.77    1.86
   4   4   7   44.37    6.13
   4  -4   7   31.60    3.04
   4  -4  -7   32.77    3.53
  -4  -4  -7   37.40    4.05
  -4   4  -8  275.01   19.17
  -4   4   8  303.89   18.96
   4   4   8  296.37   19.84
   4  -4   8  254.49   14.92
   4  -4  -8  243.21   15.67
  -4  -4  -8  257.89   16.32
  -4   4  -9  238.79   20.31
  -4   4   9  228.61   11.64
   4   4   9  170.22   10.53
   4  -4   9  174.72    7.74
   4  -4  -9  157.51    9.08
  -4  -4  -9  184.57    9.57
  -4   4 -10  356.40   17.90
  -4   4  10  292.09   14.16
   4   4  10  311.61   16.86
   4  -4 -10  255.13   13.62
   4  -4  10  248.91   10.92
  -4  -4 -10  296.19   14.53
  -4   4 -11  221.40   11.03
  -4   4  11  270.73   11.97
   4   4  11  188.68   11.11
   4  -4 -11  231.94   11.10
  -4  -4 -11  253.51   11.16
  -4   4  12  263.92   12.86
   4   4  12  233.05   14.10
   4   4 -12  213.00   11.20
   4  -4 -12  217.78   11.31
  -4  -4 -12  202.34    9.96
  -4   4  13  320.27   22.19
   4   4  13  274.45   20.82
   4  -4  13  353.41   26.55
   4   4 -13  281.57   20.16
   4  -4 -13  290.14   20.58
  -4  -4 -13  299.28   20.89
  -4   4  14   40.96    5.81
   4   4  14   33.42    7.29
   4  -4  14   56.79    8.64
   4   4 -14   38.36    9.86
   4  -4 -14   50.57    8.30
  -4  -4 -14   42.38    5.98
  -4   4  15   65.90    7.46
   4   4  15   28.66    7.56
   4  -4  15   60.70   13.18
   4   4 -15   28.52    9.38
   4  -4 -15   56.96   12.04
  -4  -4 -15   45.40    9.35
  -4   4  16  319.48   24.81
   4   4  16  247.37   21.96
   4  -4  16  255.35   21.59
   4   4 -16  209.62   27.07
   4  -4 -16  253.93   20.45
  -4  -4 -16  281.66   22.20
  -4   4  17   54.05    5.75
   4   4  17   34.28    9.48
   4  -4  17   34.47    9.22
   4   4 -17   22.49    7.82
   4  -4 -17   47.74    8.83
  -4  -4 -17   32.34    7.32
  -4   4  18   37.20    5.61
   4   4  18   32.96    8.36
   4  -4  18   38.36    7.25
   4   4 -18   22.85   11.24
   4  -4 -18   55.02    9.89
  -4  -4 -18   43.87    6.11
  -4   4  19    6.86    2.91
   4   4  19    4.38    5.55
   4  -4  19    6.44    5.16
   4   4 -19    2.65    3.67
   4  -4 -19    4.08    2.78
  -4  -4 -19    8.30    2.96
   4   4  20   86.13   14.77
   4  -4  20  130.39   21.77
   4   4 -20   61.38   27.19
   4  -4 -20  125.74   31.26
  -4  -4 -20  124.37   19.33
   4   4  21    7.02    4.20
   4  -4  21   38.79    8.63
   4   4 -21   32.02   10.63
   4  -4 -21   34.43   10.03
  -4   5   0  220.50   11.11
   4   5   0  231.56   11.30
   4  -5   0  227.93   10.06
  -4   5  -1   63.98    9.71
  -4   5   1   75.68    5.61
   4   5  -1   61.11    4.40
   4   5   1   76.45    6.32
   4  -5  -1   63.77    3.98
   4  -5   1   70.34    4.00
  -4   5  -2  103.81    9.92
  -4   5   2  106.89    5.87
   4   5  -2  114.03    6.22
   4   5   2  111.59    8.08
  -4  -5   2   96.60    5.79
   4  -5  -2  118.59    6.26
   4  -5   2  131.66    6.20
  -4   5  -3   78.85   12.65
  -4   5   3   98.43    7.64
   4   5  -3   93.61    6.83
   4   5   3   94.84    7.80
  -4  -5   3   79.63    6.22
   4  -5  -3   81.46    6.21
   4  -5   3   88.75    5.97
  -4   5  -4  111.53   13.58
  -4   5   4   89.78    6.77
   4   5  -4   75.26    5.74
   4   5   4   73.74    7.12
   4  -5  -4   78.08    6.00
   4  -5   4   85.50    5.66
   4   5  -5   89.31    5.50
  -4   5  -5  185.76   18.24
  -4   5   5  136.75    9.70
   4   5  -5  136.48    8.87
   4   5   5  142.24   11.32
   4  -5  -5  138.71    9.82
   4  -5   5  132.63    8.32
  -4  -5  -5  143.97   10.49
   4   5  -6   90.66    7.06
  -4   5  -6  118.84   18.03
  -4   5   6  133.12    9.35
   4   5  -6  116.96    7.48
   4   5   6  112.51    9.70
   4  -5   6  116.64   10.32
   4  -5  -6  124.16    9.01
   4  -5   6  114.59    7.28
  -4  -5  -6  129.09    9.56
   4   5  -7   10.00    1.40
  -4   5  -7   33.60    6.01
  -4   5   7   19.42    3.54
   4   5  -7   11.47    1.26
   4   5   7    2.75    3.81
   4  -5   7   14.35    2.83
   4  -5  -7    9.22    1.98
  -4  -5  -7   13.73    3.95
  -4   5  -8  329.17   24.24
   4   5   8  334.90   17.53
   4  -5   8  295.06   14.02
   4  -5  -8  300.37   14.63
  -4  -5  -8  327.74   15.88
  -4   5  -9  165.76   18.93
  -4   5   9  144.11    7.60
   4   5   9  137.42    9.79
   4  -5   9  114.22    6.12
   4  -5  -9  137.44    8.24
  -4  -5  -9  156.76    7.86
  -4   5 -10   14.09    3.69
  -4   5  10   17.49    4.65
   4   5  10   17.69    6.42
   4  -5 -10    6.00    3.26
  -4  -5 -10    7.10    2.60
  -4   5 -11  137.99   20.94
  -4   5  11  107.48    8.98
   4   5  11  117.33   12.41
   4  -5 -11  104.12    8.69
  -4  -5 -11   92.51    7.75
  -4   5 -12   46.36   11.98
  -4   5  12   39.22    6.04
   4   5  12   29.67    6.07
   4  -5 -12   36.63    6.27
  -4  -5 -12   51.60    7.35
  -4   5 -13   11.64    3.70
  -4   5  13   12.95    3.69
   4   5  13   16.85    4.73
   4  -5 -13    9.98    3.40
  -4  -5 -13   -0.31    2.30
  -4   5  14   38.93    8.17
   4   5  14   17.16    5.58
   4  -5 -14   57.88   12.10
  -4  -5 -14   35.28    7.50
  -4   5  15   36.97    8.02
   4   5  15   22.94    7.07
   4  -5  15   53.59    7.90
   4  -5 -15   39.42    8.99
  -4   5  16    8.92    3.63
   4   5  16   19.28    6.37
   4  -5  16   15.70    6.89
   4  -5 -16   25.89    7.77
  -4  -5 -16   11.53    4.11
  -4   5  17    7.02    3.29
   4   5  17   15.13    6.25
   4  -5  17   18.25    5.61
   4  -5 -17    2.39    3.42
  -4  -5 -17    7.77    2.92
  -4   5  18   86.21    9.63
   4   5  18   68.00   10.44
   4  -5  18   52.97    7.82
   4  -5 -18   50.89   14.14
  -4  -5 -18   88.36    9.98
  -4   5  19   13.30    3.76
   4   5  19   23.75    7.68
   4  -5  19   35.28    8.64
   4  -5 -19   37.63    8.19
  -4  -5 -19   40.17    7.73
  -4   5  20   18.54    4.43
   4   5  20    4.28    3.98
   4  -5  20   22.51    7.89
   4  -5 -20   18.89    4.63
  -4  -5 -20   29.50    5.48
  -4   6   0  591.81   35.39
   4   6   0  750.41   44.76
   4  -6   0  680.96   40.15
  -4   6  -1  131.64    9.06
  -4   6   1  131.68    9.17
   4   6  -1  154.76   10.66
   4   6   1  152.48   11.08
   4  -6  -1  123.24    8.50
   4  -6   1  141.98    9.59
  -4   6  -2  146.15   14.88
  -4   6   2  143.58    9.85
   4   6  -2  162.75   11.20
   4   6   2  123.53    9.79
   4  -6  -2  119.15    8.56
   4  -6   2  140.21    9.36
  -4   6  -3  184.81    9.89
  -4   6   3  163.11    8.85
   4   6  -3  193.76   10.04
   4   6   3  181.82   11.29
   4  -6  -3  180.75    9.70
   4  -6   3  189.59    9.42
  -4   6  -4  478.08   21.71
  -4   6   4  467.58   21.50
   4   6  -4  465.63   20.93
   4   6   4  463.54   22.22
  -4  -6   4  392.58   18.24
   4  -6  -4  415.18   19.29
   4  -6   4  482.48   21.33
  -4   6  -5  693.81   31.16
  -4   6   5  644.81   28.93
   4   6  -5  632.52   27.67
   4   6   5  584.62   27.53
  -4  -6   5  572.42   25.56
   4  -6  -5  595.98   26.82
   4  -6   5  614.68   26.83
  -4  -6  -5  664.22   30.22
  -4   6  -6   59.99    8.64
  -4   6   6   53.77    4.93
   4   6  -6   46.83    3.10
   4   6   6   40.79    5.18
  -4  -6   6   37.85    2.92
   4  -6  -6   47.17    5.16
  -4  -6  -6   49.70    4.98
   4   6  -7  259.17    9.51
  -4   6  -7  335.62   14.97
  -4   6   7  355.91   14.94
   4   6  -7  289.88   10.76
   4   6   7  379.09   17.35
   4  -6   7  286.96   13.11
   4  -6  -7  350.64   14.94
   4  -6   7  344.16   13.03
  -4  -6  -7  348.04   15.17
  -4   6  -8  113.20   14.68
  -4   6   8  113.77    9.19
   4   6   8  116.90   10.97
   4  -6  -8  105.42    9.04
  -4  -6  -8  116.34    9.43
   4  -6   8  119.51    8.50
  -4   6  -9   26.89    5.02
  -4   6   9   27.93    4.48
   4   6   9   22.78    6.52
   4  -6  -9   22.67    4.37
  -4  -6  -9   42.10    5.44
  -4   6 -10  305.17   21.19
  -4   6  10  352.40   24.34
   4   6  10  345.90   25.06
   4  -6 -10  359.96   25.41
  -4  -6 -10  355.45   24.88
  -4   6 -11  184.27   20.97
  -4   6  11  164.76   11.74
   4   6  11  175.30   13.78
   4  -6 -11  137.67   11.18
  -4  -6 -11  168.99   12.59
  -4   6 -12  176.73   31.65
  -4   6  12  168.97   12.11
   4   6  12  173.52   14.10
   4  -6 -12  169.62   12.95
  -4  -6 -12  163.24   11.98
  -4   6 -13   81.21   16.36
  -4   6  13   55.77   11.14
   4   6  13   62.84    9.30
   4  -6 -13   63.76    8.06
  -4  -6 -13   75.80    8.19
  -4   6 -14    9.25    3.28
  -4   6  14   10.49    3.62
   4   6  14   12.13    6.21
   4  -6 -14    7.85    3.21
  -4  -6 -14    3.97    2.67
  -4   6  15  153.10   12.69
   4   6  15  122.65   11.94
   4  -6 -15  151.91   13.59
  -4  -6 -15  146.82   11.90
  -4   6  16   28.48    6.71
   4   6  16   23.66    7.30
   4  -6  16   39.21    7.13
   4  -6 -16   34.94    5.98
  -4  -6 -16   40.52    6.23
  -4   6  17   77.87    8.72
   4   6  17   42.48    7.41
   4  -6  17   51.05    8.41
   4  -6 -17   68.82    9.18
  -4  -6 -17   58.69    7.59
  -4   6  18   45.05    8.17
   4   6  18   29.25    6.74
   4  -6  18   47.62    9.41
   4  -6 -18   33.90    7.24
  -4  -6 -18   45.93    8.25
  -4   6  19    9.17    3.00
   4   6  19   15.30    5.82
   4  -6  19   16.08    4.89
   4  -6 -19   12.62    4.63
  -4   7   0   29.53    4.26
   4   7   0   24.12    3.65
   4  -7   0   32.54    3.76
  -4   7  -1  967.59   35.01
  -4   7   1  787.66   29.11
   4   7  -1  978.12   35.62
   4   7   1 1056.34   38.66
   4  -7  -1  919.14   33.52
   4  -7   1  940.72   33.84
  -4   7  -2  455.28   17.78
  -4   7   2  461.58   18.44
   4   7  -2  507.82   19.61
   4   7   2  542.66   21.74
   4  -7  -2  442.11   17.48
   4  -7   2  454.19   17.37
  -4   7  -3  513.13   19.90
  -4   7   3  572.11   22.10
   4   7  -3  559.54   21.16
   4   7   3  580.51   23.17
   4  -7  -3  499.19   19.56
   4  -7   3  559.24   20.86
  -4   7  -4   93.81   11.99
  -4   7   4   96.86    7.92
   4   7  -4   83.35    6.59
   4   7   4  109.10   10.22
   4  -7  -4  119.07    9.95
   4  -7   4   95.92    7.30
  -4   7  -5  105.15   14.99
  -4   7   5   94.60    7.80
   4   7  -5   91.84    7.11
   4   7   5  118.39   11.19
   4  -7  -5   88.85    7.41
   4  -7   5  100.90    7.84
  -4  -7  -5   99.10    8.82
  -4   7  -6   21.89    4.54
  -4   7   6   13.38    2.92
   4   7  -6   12.95    2.10
   4   7   6   33.36    6.54
   4  -7  -6   17.19    2.76
   4  -7   6   22.73    3.11
  -4  -7  -6   38.37    5.77
  -4   7  -7   77.07   13.55
  -4   7   7   58.98    8.34
   4   7  -7   36.26    4.75
   4   7   7   59.25   10.13
   4  -7  -7   54.07    8.28
   4  -7   7   48.94    6.61
  -4  -7  -7   52.61    8.00
  -4   7  -8   68.60   12.04
  -4   7   8   74.50   10.01
   4   7   8   63.74    9.92
   4  -7  -8   65.56    9.56
  -4  -7  -8   58.79    8.14
   4  -7   8   68.23    8.80
  -4   7  -9  532.82   34.48
  -4   7   9  491.75   31.27
   4   7   9  486.53   32.26
   4  -7  -9  433.70   28.14
  -4  -7  -9  482.91   31.02
   4  -7   9  514.94   32.05
  -4   7 -10   52.56    8.59
  -4   7  10   22.03    3.98
   4   7  10   17.42    4.67
   4  -7 -10   29.32    5.12
  -4  -7 -10   41.23    6.42
  -4   7 -11  230.05   28.32
  -4   7  11  236.38   22.04
   4   7  11  237.26   23.40
   4  -7 -11  216.00   20.60
  -4  -7 -11  210.34   20.09
  -4   7 -12  127.31   19.66
  -4   7  12  115.33   10.25
   4   7  12   80.46    8.67
   4  -7 -12  114.03   10.49
  -4  -7 -12  119.71   10.97
  -4   7 -13  488.16   90.31
  -4   7  13  335.94   24.51
   4   7  13  370.84   28.38
   4  -7 -13  314.71   23.60
  -4  -7 -13  320.48   23.56
  -4   7 -14   99.85   26.38
  -4   7  14  131.15   15.19
   4   7  14   96.49   13.24
   4  -7 -14  101.08   12.67
  -4  -7 -14   95.31   11.71
  -4   7 -15   12.53    4.29
  -4   7  15    4.71    2.40
   4   7  15    5.56    5.33
   4  -7 -15    6.32    4.76
  -4  -7 -15   11.94    4.91
  -4   7  16   29.37    6.73
   4   7  16    9.45    4.27
   4  -7 -16   18.28    4.87
  -4  -7 -16   30.61    7.53
  -4   7  17   17.85    5.54
   4   7  17    9.86    4.66
   4  -7  17    8.36    6.35
   4  -7 -17    9.65    5.02
  -4  -7 -17    2.87    2.69
  -4   7  18   28.35    5.20
   4   7  18    3.72    3.87
   4  -7  18    7.69    5.72
   4  -7 -18   23.09    7.38
  -4  -7 -18   13.84    4.78
  -4   8   0   85.19   11.10
   4   8   0   88.47   11.05
   4  -8   0   87.10   10.76
  -4   8  -1  105.26    9.54
  -4   8   1   88.58   11.11
   4   8  -1   78.76   10.36
   4   8   1   90.72    8.11
   4  -8  -1   85.09   10.96
   4  -8   1   76.07    9.68
  -4   8  -2   19.59    5.75
  -4   8   2    9.08    2.43
   4   8  -2   16.50    3.82
   4   8   2   18.49    3.86
   4  -8  -2   10.09    2.70
   4  -8   2   16.07    3.68
  -4   8  -3  162.45   12.09
  -4   8   3  166.73   12.64
   4   8  -3  145.91   10.86
   4   8   3  182.39   14.34
   4  -8  -3  162.03   12.48
   4  -8   3  174.74   12.86
  -4   8  -4  181.84   16.74
  -4   8   4  174.69   13.03
   4   8  -4  205.12   14.59
   4   8   4  202.83   15.85
   4  -8  -4  189.16   14.24
   4  -8   4  217.86   15.59
  -4  -8  -4  198.48   15.34
  -4   8  -5  314.77   22.23
  -4   8   5  329.63   21.67
   4   8  -5  335.39   21.27
   4   8   5  304.12   21.25
   4  -8  -5  293.80   19.81
   4  -8   5  340.55   21.81
  -4  -8  -5  322.82   21.82
  -4   8  -6  142.52   17.13
  -4   8   6  124.59   10.22
   4   8  -6  105.75    7.42
   4   8   6  140.40   12.61
   4  -8  -6  116.94    9.64
   4  -8   6  104.10    8.00
  -4  -8  -6  106.29    8.81
  -4   8  -7  406.94   27.09
  -4   8   7  357.72   23.46
   4   8   7  349.23   23.88
   4  -8  -7  329.08   21.83
  -4  -8  -7  344.62   23.21
   4  -8   7  378.13   24.16
  -4   8  -8   27.10    6.43
  -4   8   8   23.16    6.03
   4   8   8   20.58    5.89
   4  -8  -8   22.00    5.47
  -4  -8  -8   22.71    6.13
   4  -8   8   25.00    5.54
  -4   8  -9  164.11   22.50
  -4   8   9  155.98   13.02
   4   8   9  165.26   17.18
   4  -8  -9  142.30   12.74
  -4  -8  -9  174.68   15.00
   4  -8   9  168.73   13.64
  -4   8 -10   50.96    8.12
  -4   8  10   56.09    6.52
   4   8  10    7.10    3.99
   4  -8 -10   41.39    9.20
  -4  -8 -10   47.76    6.47
  -4   8 -11   17.52    6.02
  -4   8  11   46.80    5.81
   4   8  11   47.64    7.25
   4  -8 -11   42.63    5.72
  -4  -8 -11   49.10    6.40
  -4   8 -12   36.32    7.26
  -4   8  12   36.97    5.83
   4   8  12   30.58    8.15
   4  -8 -12   66.71   10.02
  -4  -8 -12   54.66    8.03
  -4   8 -13   45.09    7.73
  -4   8  13   48.27    6.50
   4   8  13   45.64    7.18
   4  -8 -13   63.61    8.81
  -4  -8 -13   52.69    6.92
  -4   8 -14  102.29   24.32
  -4   8  14  122.10   12.30
   4   8  14  149.00   16.78
   4  -8 -14  114.17   12.00
  -4  -8 -14  124.29   12.86
  -4   8 -15    8.94    2.89
  -4   8  15    6.13    2.64
   4   8  15   10.54    4.43
   4  -8 -15   18.00    6.01
  -4  -8 -15    5.83    3.25
  -4   8 -16   21.21    4.81
  -4   8  16   38.04    6.24
   4   8  16   15.21    5.47
   4  -8 -16   17.94    5.27
  -4  -8 -16   27.11    5.04
  -4   8  17   74.71   11.78
   4   8  17   58.92   10.71
   4  -8  17   74.62   13.50
   4  -8 -17   52.39   10.02
  -4  -8 -17   59.76    9.95
  -4   9   0   12.96    3.32
   4   9   0   21.38    5.26
   4  -9   0   32.83    7.13
  -4   9  -1   18.46    4.90
  -4   9   1   11.19    3.85
   4   9  -1   13.61    3.64
   4   9   1   12.75    4.28
   4  -9  -1   14.10    3.79
   4  -9   1   18.65    4.69
  -4   9  -2  155.45   20.15
  -4   9   2  141.50   13.90
   4   9  -2  134.88   13.11
   4   9   2  176.96   17.65
   4  -9  -2  126.42   12.59
   4  -9   2  145.28   14.13
  -4   9  -3   45.20   10.04
  -4   9   3   52.56   10.97
   4   9  -3   40.19    8.30
   4   9   3   43.78    9.58
   4  -9  -3   29.55    6.36
   4  -9   3   45.65    9.45
  -4   9  -4   68.85   14.29
  -4   9   4   59.13   11.76
   4   9  -4   54.06   10.61
   4   9   4   60.78   12.35
   4  -9  -4   54.39   10.97
   4  -9   4   67.30    7.57
  -4  -9  -4   67.44    8.70
  -4   9  -5   44.61    8.24
  -4   9   5   46.05    5.36
   4   9  -5   42.23    4.51
   4   9   5   33.18    7.56
   4  -9  -5   58.87    7.15
   4  -9   5   56.98    6.00
  -4  -9  -5   56.34    7.16
  -4   9  -6   37.12    8.35
  -4   9   6   36.70    7.72
   4   9   6   25.03    6.52
   4  -9  -6   40.50    9.27
   4  -9   6   36.59    7.53
  -4  -9  -6   35.90    8.61
  -4   9  -7   23.15    6.21
  -4   9   7   27.91    6.95
   4   9   7   19.15    5.51
   4  -9  -7   32.20    7.08
   4  -9   7   23.87    5.50
  -4  -9  -7   52.79    7.64
  -4   9  -8   10.85    3.46
  -4   9   8   24.10    6.04
   4   9   8   17.74    5.24
   4  -9  -8   19.17    6.93
  -4  -9  -8   28.42    6.94
   4  -9   8   23.94    5.67
  -4   9  -9   68.40   12.40
  -4   9   9   77.17   10.04
   4   9   9   87.47   12.74
   4  -9  -9   72.70    9.81
  -4  -9  -9   71.80    9.94
  -4   9 -10   50.23    9.40
  -4   9  10   36.61    5.56
   4   9  10   32.35    7.81
   4  -9 -10   38.55    6.87
  -4  -9 -10   62.56    8.83
  -4   9 -11    7.21    3.33
  -4   9  11   13.96    4.92
   4   9  11    7.47    4.27
   4  -9 -11   18.15    6.98
  -4  -9 -11   -0.22    3.06
  -4   9 -12   37.23    8.18
  -4   9  12   36.71    5.45
   4   9  12   20.53    6.77
   4  -9 -12   42.32    6.40
  -4  -9 -12   55.02    7.22
  -4   9 -13   79.90   17.03
  -4   9  13   74.24   12.35
   4   9  13  107.34   18.15
   4  -9 -13  129.96   20.91
  -4  -9 -13   98.60   16.13
  -4   9 -14   54.64   10.68
  -4   9  14   81.77   10.41
   4   9  14   73.60   11.16
   4  -9 -14   77.81   10.73
  -4  -9 -14   76.55   10.03
  -4   9 -15   13.81    4.67
  -4   9  15   20.55    4.95
   4   9  15    7.82    4.24
   4  -9 -15   15.10    6.18
  -4  -9 -15   32.12    6.78
  -4  10   0   30.86    6.90
   4  10   0   38.12    5.06
   4 -10   0   44.29    5.63
  -4  10  -1    6.26    3.25
  -4  10   1   11.84    5.36
   4  10  -1    4.94    3.27
   4  10   1    1.76    2.39
   4 -10  -1   13.17    4.69
   4 -10   1    5.88    2.92
  -4  10  -2   65.53   10.80
  -4  10   2   58.13    6.61
   4  10  -2   33.48    7.40
   4  10   2   39.18    5.14
   4 -10  -2   51.64    5.95
   4 -10   2   45.81    5.54
  -4  10  -3   28.85    6.92
  -4  10   3   28.50    7.10
   4  10  -3    8.88    2.83
   4  10   3   20.81    5.80
   4 -10  -3   17.99    4.96
   4 -10   3   26.38    6.48
  -4 -10  -3   24.34    6.86
  -4  10  -4   22.74    5.48
  -4  10   4   24.39    5.64
   4  10  -4   18.28    4.22
   4  10   4   18.48    4.98
   4 -10  -4   39.65    6.82
   4 -10   4   33.78    8.40
  -4 -10  -4   37.87    6.94
  -4  10  -5   22.41    6.29
  -4  10   5   15.96    4.55
   4  10   5    6.84    3.41
   4 -10  -5   19.05    5.63
   4 -10   5   23.38    5.55
  -4 -10  -5   16.55    5.14
  -4  10  -6   48.45    9.17
  -4  10   6   35.86    6.25
   4  10   6   18.83    5.23
   4 -10  -6   42.76    7.77
   4 -10   6   35.81    5.43
  -4 -10  -6   25.76    7.58
  -4  10  -7  139.66   23.20
  -4  10   7  132.27   13.80
   4  10   7  144.19   16.00
   4 -10  -7  126.35   13.15
  -4 -10  -7  173.40   17.95
   4 -10   7  150.90   15.09
  -4  10  -8    7.50    4.17
  -4  10   8    5.79    3.03
   4  10   8   11.07    5.74
   4 -10  -8    5.60    3.38
  -4 -10  -8    7.55    4.07
  -4  10  -9  104.98   19.41
  -4  10   9  143.75   14.24
   4  10   9  110.44   12.36
   4 -10  -9  117.02   12.09
  -4 -10  -9  159.25   16.01
  -4  10 -10   51.45   11.91
  -4  10  10   77.68   12.57
   4  10  10   62.80   11.33
   4 -10 -10   80.32   13.16
  -4 -10 -10   81.47   13.56
  -4  10 -11    7.56    2.63
  -4  10  11   14.28    4.83
   4  10  11    7.34    3.75
   4 -10 -11   15.20    5.70
  -4 -10 -11    6.91    3.90
  -4  10 -12   36.45    7.88
  -4  10  12   48.25    6.77
   4  10  12   51.66    8.48
   4 -10 -12   39.73    7.03
  -4 -10 -12   57.34    8.84
  -4  10 -13    7.82    3.18
  -4  10  13   27.53    5.79
   4  10  13   27.05    6.45
   4 -10 -13   24.52    6.54
  -4 -10 -13   16.52    6.09
  -4  11   0  226.04   21.06
   4  11   0  212.25   19.80
   4 -11   0  233.47   22.33
  -4  11  -1   83.12    9.37
  -4  11   1   88.43    9.47
   4  11  -1   53.60    6.36
   4  11   1   57.00    7.27
   4 -11  -1   62.17    7.35
   4 -11   1   86.04    9.75
  -4  11  -2   11.92    4.65
  -4  11   2    7.72    3.26
   4  11  -2    7.20    3.07
   4  11   2    9.78    3.25
   4 -11  -2   14.22    5.42
   4 -11   2   13.83    5.80
  -4 -11  -2    6.37    4.07
  -4  11  -3    2.31    1.90
  -4  11   3    1.89    2.73
   4  11  -3    8.73    3.39
   4  11   3    3.42    2.75
   4 -11  -3    9.13    4.44
   4 -11   3    4.84    3.67
  -4 -11  -3   -0.18    3.43
  -4  11  -4   17.90    5.06
  -4  11   4   28.50    6.70
   4  11   4   27.93    6.50
   4 -11  -4   21.46    6.01
   4 -11   4   20.19    4.85
  -4 -11  -4   26.54    7.41
  -4  11  -5   26.82    7.22
  -4  11   5   30.98    6.37
   4  11   5   28.62    6.89
   4 -11  -5   26.97    6.26
   4 -11   5   30.28    6.10
  -4 -11  -5   33.79    7.48
  -4  11  -6   31.88    7.82
  -4  11   6   15.66    5.44
   4  11   6   13.55    5.36
   4 -11  -6   21.30    6.59
  -4 -11  -6   27.00    8.13
  -4  11  -7   46.05    9.03
  -4  11   7   38.24    7.12
   4  11   7   24.23    7.03
   4 -11  -7   26.75    6.99
  -4 -11  -7   44.35    8.77
  -4  11  -8   71.76   13.63
  -4  11   8   84.37   10.56
   4  11   8   65.38    9.67
  -4 -11  -8   96.17   12.91
  -4  11  -9   35.93    7.83
  -4  11   9   66.77    8.86
   4  11   9   60.85    9.10
   4 -11  -9   54.88    8.36
  -4 -11  -9   82.63   11.20
  -4  11 -10   46.22   11.60
  -4  11  10   86.46   13.59
   4  11  10   68.12   11.48
   4 -11 -10   59.49   10.03
  -4 -11 -10   82.38   13.95
  -4  12   0   19.31    4.86
   4  12   0   30.72    5.37
   4 -12   0   32.93    6.34
  -4  12   1   18.53    5.20
  -4  12  -1   33.93    7.38
   4  12  -1   16.50    4.36
   4  12   1   15.75    4.28
   4 -12  -1   19.37    5.32
   4 -12   1   29.92    5.40
  -4 -12  -1   12.36    4.71
  -4  12  -2   17.62    5.82
  -4  12   2   12.70    4.97
   4  12   2   11.79    4.44
   4 -12  -2   16.88    5.98
   4 -12   2    7.27    3.49
  -4 -12  -2   36.47    9.10
  -4  12  -3   94.96   19.28
  -4  12   3   92.02   13.89
   4  12   3   90.45   14.04
   4 -12  -3   97.10   14.57
   4 -12   3  101.13   15.26
  -4 -12  -3   94.71   15.40
  -4  12  -4    6.80    3.87
  -4  12   4   12.80    5.41
   4  12   4    5.77    3.88
   4 -12  -4   14.87    5.65
   4 -12   4    8.23    4.33
  -4 -12  -4    5.62    4.10
  -4  12  -5   29.09    7.27
  -4  12   5   31.45    6.13
   4  12   5   25.47    6.12
   4 -12  -5   30.23    6.31
  -4 -12  -5   10.77    4.87
  -5   0   0    4.91    1.20
  -5   0   0    8.31    2.08
  -5   0  -1   32.38    2.63
  -5   0   1   59.49    8.65
   5   0  -1   37.77    5.43
  -5   0  -1   34.52    2.22
  -5   0   1   37.80    2.54
  -5   0  -2    8.20    1.68
  -5   0   2   17.62    3.56
   5   0  -2   10.08    1.92
  -5   0  -2   12.58    1.79
  -5   0   2    9.52    1.35
  -5   0   3  527.48   20.93
   5   0   3  528.81   23.19
   5   0  -3  532.82   21.42
  -5   0  -3  516.12   20.03
  -5   0   4    9.02    1.33
   5   0   4   10.02    3.87
   5   0  -4    8.56    1.77
  -5   0  -4    6.40    0.89
  -5   0  -4    5.59    0.88
  -5   0   5  173.72    7.89
   5   0   5  197.41   11.10
   5   0  -5  236.30   17.66
  -5   0  -5  180.87    7.09
  -5   0  -5  187.87    7.40
  -5   0   6    8.54    1.39
   5   0  -6    7.55    1.79
   5   0   6   25.44    5.55
   5   0  -6   11.99    1.97
  -5   0   7  381.86   22.61
   5   0  -7  330.64   19.81
   5   0   7  381.33   25.07
   5   0  -7  404.88   26.17
  -5   0   8   36.71    4.59
   5   0  -8   24.09    2.49
   5   0   8   28.00    5.96
   5   0  -8   23.35    3.03
  -5   0   9   69.22    8.01
   5   0  -9   56.70    3.67
   5   0   9   80.07    8.76
   5   0  -9   66.61   11.26
  -5   0  -9   52.68    2.38
  -5   0  10    8.49    1.58
   5   0 -10    1.19    0.95
   5   0  10   13.74    6.69
   5   0 -10    6.63    2.65
  -5   0 -10    5.17    0.85
  -5   0  11   75.16    6.92
   5   0 -11   46.23    3.08
   5   0  11   74.40    8.21
   5   0 -11   75.53    9.45
  -5   0 -11   57.10    3.53
  -5   0  12    3.96    1.44
   5   0  12    8.55    5.11
   5   0 -12    2.36    2.42
  -5   0  13  781.10   87.64
   5   0  13  777.16   87.90
   5   0 -13  686.09   47.70
  -5   0  14    3.39    1.24
   5   0  14    1.10    4.35
   5   0 -14    9.58    3.10
   5   0  15   58.98   12.61
   5   0 -15   35.91    8.88
   5   0  16   17.21    5.40
   5   0 -16   14.68    4.86
   5   0  17   75.02    9.41
   5   0 -17   82.04   12.05
   5   0  18   18.85    7.93
   5   0 -18    9.18    3.75
   5   0  19   15.41    6.60
   5   0 -19   20.39    6.21
   5   0  20    8.60    4.74
   5   0 -20   11.89    4.38
   5   0  21    7.98    5.97
   5   0 -21   10.08    4.20
  -5   1   0   35.45    5.80
   5   1   0   30.59    3.87
   5  -1   0   22.26    3.74
  -5  -1   0   20.41    2.50
  -5   1   0   30.60    2.39
  -5   1  -1   26.47    5.26
  -5   1   1   32.30    4.78
   5   1   1   25.69    3.71
   5   1  -1   26.89    3.66
   5  -1  -1   25.38    3.22
  -5  -1  -1   24.55    3.74
  -5  -1   1   19.56    3.35
  -5   1   1   28.46    2.66
  -5   1  -1   25.73    1.95
  -5   1   2  171.12    6.80
   5   1   2  179.73    9.45
   5   1  -2  181.27    8.90
   5  -1  -2  169.39    8.01
  -5  -1  -2  150.45    5.56
  -5  -1   2  134.45    5.51
  -5   1   2  160.65    6.61
  -5   1  -2  154.51    5.37
  -5   1  -3  318.40   14.27
  -5   1   3  233.90   10.31
   5   1   3  211.55   10.97
   5   1  -3  238.44   10.49
  -5  -1  -3  210.57    9.36
   5  -1  -3  228.25    9.94
  -5   1   3  211.20    9.25
  -5   1  -3  215.75    8.40
  -5   1  -4  316.73   13.24
  -5  -1   4  321.90   12.90
  -5   1   4  372.86   15.24
   5   1  -4  360.72   14.69
   5   1   4  434.87   20.24
   5   1  -4  402.12   16.93
  -5  -1  -4  346.63   13.73
   5  -1  -4  377.83   15.68
  -5  -1   5   22.76    2.97
  -5   1  -5   21.07    2.42
  -5   1   5   44.28    5.76
   5   1  -5   20.51    1.76
   5   1   5   46.94    6.99
   5   1  -5   33.93    5.13
  -5  -1  -5   23.17    2.89
   5  -1  -5   32.09    4.79
  -5  -1  -5   22.39    1.89
  -5  -1   6  280.75   16.59
  -5   1   6  393.75   23.54
   5   1  -6  310.60   18.56
   5   1   6  385.02   24.62
  -5  -1  -6  306.25   18.31
   5   1  -6  339.06   20.82
   5  -1  -6  333.82   22.07
  -5  -1  -6  304.60   18.01
  -5  -1   7  162.64   10.89
  -5   1   7  155.51   14.43
   5   1  -7   95.85    6.34
   5   1   7  135.35   11.11
   5  -1   7  129.83   10.70
   5   1  -7  118.05   13.86
   5  -1  -7  113.97   13.38
  -5  -1  -7  131.08    8.07
  -5  -1   8  352.74   21.00
  -5   1   8  251.93   15.89
   5   1  -8  215.27   13.10
   5   1   8  273.73   18.84
   5  -1   8  273.76   19.56
   5   1  -8  255.54   16.35
   5  -1  -8  265.95   17.36
  -5  -1  -8  270.28   16.07
  -5  -1   9  330.32   14.61
  -5   1   9  283.70   17.29
   5   1  -9  197.83    9.26
   5   1   9  260.77   15.25
   5  -1   9  257.02   15.27
   5   1  -9  258.66   20.50
   5  -1  -9  243.67   12.36
  -5  -1  -9  262.58   11.77
  -5  -1  10  161.52    9.42
  -5   1  10  120.22    8.71
   5   1  10  144.99   10.66
   5  -1  10  126.45    9.72
   5   1 -10  133.35   16.80
   5  -1 -10  136.23   17.37
  -5  -1 -10  122.90    5.28
  -5  -1  11  225.24    8.64
  -5   1  11  194.17   14.28
   5   1  11  190.18   11.47
   5  -1  11  215.82   12.79
   5   1 -11  157.08   17.75
   5  -1 -11  157.20   12.46
  -5  -1 -11  149.74    6.04
  -5  -1  12   15.73    2.23
  -5   1  12   14.28    2.48
   5   1  12   30.57    5.38
   5  -1  12   18.37    4.75
   5   1 -12    8.50    3.30
   5  -1 -12    9.96    3.19
  -5  -1 -12   17.05    1.96
  -5   1  13  108.27   10.61
   5   1  13  128.83   13.23
   5  -1  13   96.94    9.90
   5   1 -13  102.57   19.04
   5  -1 -13  140.96   19.69
  -5   1  14  158.63   15.15
   5   1  14  157.80   13.59
   5  -1  14  177.47   15.55
   5   1 -14  140.48   14.88
   5  -1 -14  174.36   15.19
  -5  -1 -14  139.68   11.85
  -5   1  15   31.91    7.31
   5   1  15   35.28    9.45
   5  -1  15   55.49   12.72
   5   1 -15   36.69   10.89
   5  -1 -15   55.53   13.86
   5   1  16  114.74   13.12
   5  -1  16  101.22   12.16
   5   1 -16   93.06   15.63
   5  -1 -16   93.66   16.02
   5   1  17   36.06    6.85
   5  -1  17   12.82    7.04
   5   1 -17    9.81    5.03
   5  -1 -17   14.75    4.63
   5   1  18   47.82    8.91
   5  -1  18   56.45    9.35
   5   1 -18   52.82   13.03
   5  -1 -18   70.94   15.02
   5   1  19    7.37    4.65
   5  -1  19   15.98    5.27
   5   1 -19   22.31    8.31
   5  -1 -19   24.19    7.28
   5   1  20   12.78    4.96
   5  -1  20   13.83    5.08
   5  -1 -20   27.26    7.40
   5   1 -21  136.66   27.71
   5  -1 -21  148.86   29.11
  -5   2   0 1812.54   69.87
   5   2   0 1981.54   77.65
  -5  -2   0 1688.06   65.05
   5  -2   0 1719.59   65.78
  -5   2   0 1767.09   67.65
  -5   2  -1  105.85    6.31
  -5   2   1   85.66    6.20
   5   2  -1  104.44    7.31
   5   2   1   93.40    6.79
  -5  -2  -1   80.95    5.92
   5  -2   1   90.25    4.93
   5  -2  -1  116.46    9.93
  -5   2   1  101.52    5.13
  -5   2  -1   98.20    4.59
  -5   2  -2 1250.01   48.57
  -5   2   2 1337.72   51.87
   5   2   2 1448.40   57.72
   5   2  -2 1375.91   54.28
   5  -2   2 1373.80   52.41
  -5  -2  -2 1213.43   46.90
   5  -2  -2 1362.04   52.56
  -5   2   2 1287.55   49.75
  -5   2  -2 1268.03   48.40
  -5   2  -3   78.04   10.62
  -5   2   3   94.07   10.69
   5   2  -3   44.41    6.23
   5   2   3   76.30    7.12
   5   2  -3   65.81    4.97
  -5  -2  -3   65.14    5.62
   5  -2  -3   72.69    9.32
  -5   2   3   61.00    4.14
  -5   2  -4  111.90   13.45
  -5   2   4  137.54    7.74
   5   2  -4   67.28    7.11
   5   2   4  105.00    7.80
   5   2  -4  111.43    6.34
  -5  -2  -4   77.02    7.51
   5  -2  -4  106.31    5.68
  -5   2  -5   30.47    4.66
  -5   2   5   24.10    3.93
   5   2  -5    7.17    1.48
   5   2   5   16.10    4.59
   5   2  -5   10.95    2.63
   5  -2  -5   22.15    2.93
  -5  -2  -5    8.70    2.19
  -5   2  -6   93.94   14.99
  -5   2   6   63.80    8.15
   5   2  -6   48.51    3.57
   5   2   6   47.75    6.15
   5   2  -6   60.34    5.21
   5   2  -6   53.65    9.10
   5  -2  -6   64.78   10.51
  -5  -2  -6   49.23    3.92
  -5   2  -7    7.21    3.41
  -5   2   7    4.31    1.62
   5   2  -7    2.07    0.74
   5   2   7    2.69    3.39
   5   2  -7    3.39    1.38
   5   2  -7    2.17    2.43
   5  -2  -7    7.48    3.82
  -5  -2  -7    6.92    2.54
  -5   2   8  405.95   18.26
   5   2  -8  323.22   14.23
   5   2   8  451.52   22.70
   5   2  -8  422.42   18.88
   5   2  -8  411.20   20.37
   5  -2  -8  428.75   31.00
  -5  -2  -8  431.34   19.12
  -5   2   9   24.98    3.84
   5   2   9   20.15    4.41
   5   2  -9   21.16    2.19
   5  -2   9   24.02    4.99
   5   2  -9   26.74    4.03
   5  -2  -9   18.54    2.78
  -5  -2  -9   29.36    2.98
   5   2 -10  681.84   23.76
   5   2  10 1041.23   39.86
   5  -2  10 1110.60   42.78
   5   2 -10 1009.71   37.23
   5  -2 -10  988.22   38.67
  -5  -2 -10 1096.93   38.60
  -5   2  11   49.28    5.96
   5   2  11   34.78    5.70
   5  -2  11   61.75    8.29
   5   2 -11   39.96    5.66
   5  -2 -11   50.31    7.04
  -5  -2 -11   53.61    4.56
  -5   2  12  558.87   23.45
   5   2  12  490.71   23.78
   5  -2  12  538.52   26.16
   5   2 -12  553.45   39.66
   5  -2 -12  515.50   24.30
  -5  -2 -12  520.59   21.55
  -5   2  13  110.51    8.44
   5   2  13  130.29   14.35
   5  -2  13  113.77   11.63
   5   2 -13   89.83   19.25
   5  -2 -13  111.09   17.46
  -5  -2 -13   93.85    7.00
  -5   2  14    3.10    1.71
   5   2  14   16.79    5.85
   5  -2  14   32.47    7.65
   5   2 -14   17.60    4.78
   5  -2 -14    8.70    3.16
  -5  -2 -14   12.72    2.22
  -5   2  15   20.64    4.50
   5   2  15   24.04    8.38
   5  -2  15   36.14    9.83
   5   2 -15   21.62    7.81
   5  -2 -15   19.12    5.74
  -5  -2 -15   21.54    4.54
  -5   2  16   10.52    2.90
   5   2  16   13.25    7.07
   5  -2  16   15.68    6.12
   5   2 -16   10.08    4.52
   5  -2 -16   13.30    3.74
   5   2  17   30.50    9.41
   5  -2  17   53.33    8.94
   5   2 -17   29.39   10.41
   5  -2 -17   44.10    7.57
   5   2  18   68.03    9.67
   5  -2  18   60.01    9.89
   5   2 -18   53.39   18.53
   5  -2 -18   80.05   16.87
   5   2  19   49.23    8.49
   5  -2  19   22.09    7.60
   5   2 -19   41.24   10.95
   5  -2 -19   41.11   10.41
   5   2  20  113.60   15.70
   5  -2  20  114.77   14.98
   5   2 -20   88.29   18.62
   5  -2 -20  102.67   19.99
   5   2  21   19.28    8.46
   5  -2  21   20.73    6.73
   5   2 -21   11.20    4.48
   5  -2 -21   17.21    4.87
  -5   3   0  253.81   12.44
   5   3   0  220.75   12.12
   5  -3   0  244.75   10.29
  -5   3   0  225.40    9.58
  -5   3  -1  252.50   11.11
  -5   3   1  286.12   15.20
   5   3  -1  277.04   13.59
   5   3   1  289.96   14.64
   5  -3   1  259.33   10.46
   5  -3  -1  254.07   11.64
  -5   3   1  260.26   11.01
  -5   3  -1  253.42   10.40
  -5   3  -2  400.55   16.77
  -5   3   2  396.36   16.60
   5   3  -2  439.24   18.97
   5   3   2  445.89   20.19
   5  -3   2  380.27   15.02
   5  -3  -2  410.66   17.77
  -5   3   2  390.43   15.98
  -5   3  -3   64.82    9.12
  -5   3   3   60.66    8.93
   5   3   3   63.19    6.34
   5   3  -3   64.19    5.92
   5  -3   3   44.97    3.06
   5  -3  -3   55.59    9.19
  -5   3  -4  601.78   35.65
   5   3  -4  640.50   37.51
  -5   3   4  610.03   36.40
   5   3  -4  615.36   36.65
   5   3   4  624.29   38.23
   5  -3  -4  636.07   38.53
  -5   3  -5  154.36   10.14
   5   3  -5  142.06   10.36
  -5   3   5  150.01    9.69
   5   3  -5  181.26   11.77
   5   3   5  198.91   14.54
   5  -3  -5  157.48   16.17
  -5   3  -6  226.22   14.40
   5   3  -6  190.36   12.64
  -5   3   6  253.59   17.62
   5   3  -6  216.83   13.51
   5   3   6  255.21   17.37
   5  -3  -6  232.53   18.87
  -5  -3  -6  201.84   12.74
  -5   3  -7   86.99   13.74
  -5   3   7   62.09    7.52
   5   3  -7   43.32    2.61
   5   3  -7   64.82    4.31
   5   3   7   60.67    6.56
   5  -3  -7   59.99    9.47
  -5  -3  -7   64.17    4.71
  -5   3  -8  436.23   20.56
  -5   3   8  356.44   16.63
   5   3   8  344.76   18.54
   5  -3  -8  327.68   16.12
  -5  -3  -8  327.14   15.08
  -5   3  -9   18.87    3.50
  -5   3   9   20.03    4.13
   5   3  -9    5.69    0.72
   5   3  -9    8.78    1.02
   5   3   9   12.07    4.32
   5   3  -9   18.21    3.64
   5  -3  -9   16.63    3.54
  -5  -3  -9   13.62    2.25
  -5   3  10    7.97    3.16
   5   3  10   14.57    6.46
   5   3 -10   13.81    4.68
   5  -3 -10    5.85    3.39
  -5  -3 -10    8.71    2.73
  -5   3  11   15.23    2.84
   5   3  11   38.80    7.12
   5  -3  11   33.44    5.68
   5   3 -11   24.00    6.19
   5  -3 -11   33.16    4.14
  -5  -3 -11   33.08    3.71
  -5   3  12  347.31   23.85
   5   3  12  312.05   23.45
   5  -3  12  326.81   25.41
   5   3 -12  288.47   31.61
   5  -3 -12  271.02   28.60
  -5  -3 -12  332.67   22.64
  -5   3  13    7.41    2.29
   5   3  13    8.97    4.45
   5  -3  13   21.35    7.63
   5   3 -13   19.92    4.99
   5  -3 -13   19.36    3.99
  -5  -3 -13   18.26    4.29
  -5   3  14   40.20    8.28
   5   3  14   14.42    5.23
   5  -3  14   18.78    7.43
   5   3 -14   20.50    5.42
   5  -3 -14   33.18    8.31
  -5  -3 -14   31.26    6.60
  -5   3  15   41.79    8.73
   5   3  15   21.27    6.87
   5  -3  15   52.24    8.95
   5   3 -15   33.98    9.85
   5  -3 -15   41.90   10.21
  -5  -3 -15   46.36    4.95
  -5   3  16   34.79    7.11
   5   3  16   15.65    5.50
   5  -3  16   38.02    7.36
   5   3 -16   41.64    8.49
   5  -3 -16   42.52    9.94
  -5  -3 -16   35.38    3.80
  -5   3  17    3.96    1.97
   5   3  17    2.32    4.42
   5  -3  17    6.71    5.42
   5   3 -17   11.00    4.53
   5  -3 -17    2.92    3.05
   5   3  18   15.98    5.86
   5  -3  18   20.89    8.46
   5   3 -18   21.82    6.54
   5  -3 -18   16.96    5.64
   5   3  19   15.12    6.46
   5  -3  19    6.98    4.41
   5   3 -19    4.77    2.53
   5  -3 -19   -2.10    3.04
   5   3  20    2.23    3.55
   5  -3  20    7.30    4.27
   5   3 -20    5.75    4.44
   5  -3 -20    9.62    3.91
  -5   4   0  214.38   15.02
   5   4   0  204.41   14.24
   5  -4   0  220.97   13.52
  -5   4   0  191.86   11.90
  -5   4  -1  213.44   15.66
  -5   4   1  173.62   12.18
   5   4   1  197.16   14.24
   5   4  -1  200.25   13.66
   5  -4  -1  190.73   12.10
   5  -4   1  185.00   11.39
  -5   4   1  171.69   10.82
  -5   4  -2  130.57   15.05
  -5   4   2  116.71    9.18
   5   4   2  124.89   10.68
   5   4  -2  139.36    9.96
   5  -4   2  133.63    8.33
   5  -4  -2  137.62    9.12
  -5   4   2  114.84    7.73
  -5   4  -3  613.08   36.80
  -5   4   3  564.13   33.94
   5   4   3  641.20   39.22
   5   4  -3  626.56   37.44
   5  -4  -3  624.28   36.97
  -5   4  -4  128.50    9.32
   5   4  -4  101.98    7.83
  -5   4   4  127.44   13.71
   5   4  -4  118.19    8.41
   5   4   4  136.15   11.11
   5  -4   4  112.40    6.83
   5  -4  -4  129.64    9.06
  -5   4  -5  162.84   21.27
   5   4  -5   89.45    8.71
  -5   4   5  141.45   14.03
   5   4  -5  130.97    7.03
   5   4   5  118.71    8.64
   5  -4  -5  133.66    7.76
  -5   4  -6   29.38    4.95
   5   4  -6    7.24    1.53
  -5   4   6   29.23    3.54
   5   4  -6   23.40    2.83
   5   4   6   34.83    7.01
   5  -4  -6   29.52    4.12
  -5  -4  -6   31.69    3.60
  -5   4  -7  529.03   20.03
  -5   4   7  534.42   20.33
   5   4  -7  419.17   15.36
   5   4   7  552.97   23.26
   5  -4  -7  502.27   19.40
  -5  -4  -7  500.47   19.21
  -5   4  -8   60.61    9.95
  -5   4   8   44.14    4.06
   5   4  -8   22.44    1.72
   5   4   8   31.28    5.85
   5  -4  -8   45.99    5.04
  -5  -4  -8   46.47    4.17
  -5   4  -9  674.15   30.62
  -5   4   9  542.55   23.58
   5   4   9  485.46   23.42
   5  -4  -9  480.71   21.04
  -5  -4  -9  470.43   20.20
  -5   4 -10   90.34   15.66
  -5   4  10   92.52    8.13
   5   4  10  107.45   12.17
   5  -4 -10   90.75    8.50
  -5  -4 -10   65.87    5.82
  -5   4 -11   42.88    5.92
  -5   4  11   58.56    8.20
   5   4  11   40.01    8.04
   5  -4 -11   40.66    6.76
  -5  -4 -11   49.21    6.59
  -5   4  12   89.55    7.35
   5   4  12   59.47    9.02
   5  -4 -12   67.45    9.31
  -5  -4 -12   87.88    7.10
  -5   4  13   53.50   10.68
   5   4  13   37.32    9.80
   5  -4  13   40.80    9.52
   5  -4 -13   45.22   10.33
  -5  -4 -13   39.87    8.28
  -5   4  14   46.94    5.39
   5   4  14   45.34    7.69
   5  -4  14   57.92    8.90
   5   4 -14   51.57    7.15
   5  -4 -14   51.11    8.31
  -5  -4 -14   60.41    6.08
  -5   4  15   19.09    4.78
   5   4  15   23.74    7.12
   5  -4  15   17.27    6.35
   5   4 -15   21.02    6.47
   5  -4 -15   30.51    8.43
  -5  -4 -15   13.60    4.18
  -5   4  16   26.22    5.95
   5   4  16   14.65    5.32
   5  -4  16   37.51    8.10
   5   4 -16   23.90    6.85
   5  -4 -16   19.24    5.88
  -5  -4 -16   17.31    4.37
  -5   4  17   89.05    9.62
   5   4  17   29.01    8.27
   5  -4  17   92.14   12.05
   5   4 -17   45.09   17.52
   5  -4 -17   80.44   14.58
  -5   4  18   19.24    4.43
   5   4  18   13.77    4.99
   5  -4  18   35.26    6.46
   5   4 -18   36.65   10.96
   5  -4 -18   40.56    6.44
   5   4  19   23.02    8.96
   5  -4  19   14.17    5.56
   5   4 -19    2.54    3.35
   5  -4 -19    5.43    3.80
   5   4  20   25.40    8.38
   5  -4  20   18.31    7.35
   5   4 -20    6.57    4.31
   5  -4 -20    9.30    3.26
  -5   5   0   88.47   11.11
   5   5   0   82.80    6.92
   5  -5   0   69.46    4.44
  -5   5  -1 1740.72   74.45
  -5   5   1 1636.68   69.90
   5   5   1 1851.70   65.77
   5   5  -1 1771.58   62.60
   5  -5   1 1874.00   64.78
   5  -5  -1 1697.69   72.21
  -5   5  -2  152.86   20.31
  -5   5   2  131.44   14.69
   5   5  -2  125.51    8.40
   5   5   2  129.51    8.71
   5  -5  -2  117.04    7.04
  -5   5  -3  380.69   18.07
  -5   5   3  364.02   17.53
   5   5  -3  353.39   16.62
   5   5   3  369.88   19.08
   5  -5  -3  357.99   16.47
   5  -5   3  368.18   16.25
  -5   5  -4   41.51    6.71
  -5   5   4   40.45    6.28
   5   5  -4   28.54    3.05
   5   5   4   49.54    6.28
   5  -5  -4   38.85    3.98
   5  -5   4   40.40    2.48
  -5   5  -5  228.23   10.58
  -5   5   5  252.14   11.26
   5   5  -5  203.19    8.66
   5   5   5  244.00   13.20
   5  -5   5  191.45    7.87
   5  -5  -5  196.88    9.58
   5  -5   5  229.56    8.45
  -5   5  -6   60.99    7.86
  -5   5   6   41.52    4.02
   5   5   6   32.35    6.86
   5  -5   6   31.94    3.34
   5  -5  -6   50.98    5.67
   5  -5   6   44.67    2.05
  -5  -5  -6   42.00    3.80
  -5   5  -7  258.86   20.25
  -5   5   7  287.41   13.66
   5   5  -7  205.42    8.99
   5   5   7  238.70   14.13
   5  -5  -7  208.43   10.65
  -5  -5  -7  218.42   10.82
  -5   5  -8  138.50    7.44
  -5   5   8  182.43    9.77
   5   5  -8  100.69    6.80
   5   5   8  158.88   10.30
   5  -5  -8  151.92    9.11
  -5  -5  -8  162.81    8.66
  -5   5  -9  449.29   37.97
  -5   5   9  464.81   31.67
   5   5   9  393.03   28.22
   5  -5  -9  433.79   29.61
  -5  -5  -9  406.72   27.82
  -5   5 -10   52.31    9.53
  -5   5  10   44.20    6.71
   5   5  10   58.34    9.28
   5  -5 -10   35.36    5.72
  -5  -5 -10   33.37    5.31
  -5   5 -11  431.08   28.13
  -5   5  11  365.03   23.64
   5   5  11  311.25   22.32
   5  -5 -11  308.60   20.47
  -5  -5 -11  302.26   19.79
  -5   5 -12   25.78    5.55
  -5   5  12   20.57    4.96
   5   5  12   18.62    6.73
   5  -5 -12   36.87    7.83
  -5  -5 -12   35.18    7.33
  -5   5  13  100.27    9.41
   5   5  13   57.83    8.57
   5  -5 -13  106.37   10.75
  -5  -5 -13   85.18    8.22
  -5   5  14  137.67   11.29
   5   5  14  123.17   12.00
   5  -5  14   95.20   10.56
   5  -5 -14  129.85   11.80
  -5  -5 -14  134.91   11.13
  -5   5  15   13.28    4.46
   5   5  15    8.40    4.60
   5  -5  15   29.08    7.75
   5  -5 -15   19.69    5.83
  -5  -5 -15   10.24    3.32
  -5   5  16   35.67    7.48
   5   5  16   26.63    9.03
   5  -5  16   51.69    8.67
   5  -5 -16   38.83    7.11
  -5  -5 -16   64.43    7.65
  -5   5  17   46.78    5.95
   5   5  17   21.29    7.64
   5  -5  17   29.24    7.73
   5  -5 -17   31.66    7.58
  -5  -5 -17   29.89    7.34
  -5   5  18   12.96    4.16
   5   5  18    8.74    5.07
   5  -5  18   16.60    5.87
   5  -5 -18    5.82    3.32
   5   5  19    4.18    4.07
   5  -5  19   -0.13    4.08
   5  -5 -19    8.48    4.50
  -5   6   0   24.89    2.92
   5   6   0   13.37    2.85
   5  -6   0   19.97    2.76
  -5   6  -1  329.03   13.78
  -5   6   1  363.57   15.76
   5   6   1  386.65   16.78
   5   6  -1  361.26   15.36
   5  -6  -1  387.85   15.15
  -5   6  -2  141.42   16.02
  -5   6   2  145.38   13.08
   5   6  -2  124.34    6.83
   5   6   2  140.06    9.43
   5  -6  -2  127.02    6.56
  -5   6  -3  643.61   27.44
  -5   6   3  542.75   23.04
   5   6  -3  596.81   25.34
   5   6   3  559.20   25.53
   5  -6  -3  543.56   23.11
   5  -6   3  559.94   22.88
  -5   6  -4  211.71   23.39
  -5   6   4  159.26    8.67
   5   6  -4  175.06    8.91
   5   6   4  144.02    9.17
   5  -6  -4  158.14    8.55
   5  -6   4  156.86    7.33
  -5   6  -5  401.74   20.74
  -5   6   5  397.78   17.78
   5   6  -5  398.01   17.13
   5   6   5  415.69   20.32
   5  -6  -5  391.55   17.62
   5  -6   5  420.18   17.32
  -5  -6  -5  416.78   19.13
  -5   6  -6   83.31   15.90
  -5   6   6   60.56    8.53
   5   6  -6   56.50    7.30
   5   6   6   54.53    8.11
   5  -6  -6   69.25    9.66
   5  -6   6   61.20    7.53
  -5  -6  -6   64.56    8.91
  -5   6  -7  572.42   38.79
  -5   6   7  592.73   39.93
   5   6   7  564.54   39.14
   5  -6  -7  505.62   34.17
  -5  -6  -7  519.23   35.25
  -5   6  -8  170.47   16.83
  -5   6   8  198.12   14.79
   5   6   8  180.53   14.96
   5  -6  -8  170.15   13.08
  -5  -6  -8  186.63   13.91
  -5   6  -9  247.80   16.25
  -5   6   9  273.36   18.37
   5   6   9  278.14   20.26
   5  -6  -9  231.93   15.95
  -5  -6  -9  247.79   16.77
  -5   6 -10   16.11    4.36
  -5   6  10   26.85    6.07
   5   6  10   40.68   10.65
   5  -6 -10    9.44    3.29
  -5  -6 -10   23.20    5.79
  -5   6 -11   13.07    3.42
  -5   6  11   16.17    4.62
   5   6  11   22.08    6.41
   5  -6 -11   13.59    3.55
  -5  -6 -11   25.89    6.12
  -5   6 -12  218.31   37.37
  -5   6  12  211.95   17.16
   5   6  12  208.75   19.41
   5  -6 -12  175.65   15.07
  -5  -6 -12  168.16   13.92
  -5   6 -13   21.73    7.52
  -5   6  13   54.83    5.94
   5   6  13   60.21    9.46
   5  -6 -13   46.73    6.23
  -5  -6 -13   53.01    5.78
  -5   6 -14    2.12    2.29
  -5   6  14    8.83    4.70
   5   6  14    5.32    4.00
   5  -6 -14    7.59    4.54
  -5  -6 -14    6.39    3.31
  -5   6  15   74.37    8.63
   5   6  15   13.45    5.82
   5  -6  15   52.22    8.44
   5  -6 -15   44.88    7.16
  -5  -6 -15   67.17    8.18
  -5   6  16   15.94    4.55
   5   6  16   11.36    4.54
   5  -6  16   12.97    5.74
   5  -6 -16    9.23    4.79
  -5  -6 -16    6.77    3.96
  -5   6  17   25.38    6.39
   5   6  17   26.55    8.27
   5  -6  17   27.80    9.23
   5  -6 -17   32.52    9.11
  -5  -6 -17   32.87    6.65
  -5   6  18   42.99    7.55
   5   6  18   50.49    9.38
   5  -6  18   43.52    9.80
   5  -6 -18   62.31   10.37
  -5   7   0   17.37    3.45
   5   7   0   11.75    3.21
   5  -7   0   12.54    3.07
  -5   7  -1   69.00   14.33
  -5   7   1   92.25   14.92
   5   7  -1   98.37    8.45
   5   7   1   73.82   10.42
   5  -7  -1   77.56   10.38
   5  -7   1   75.45    9.57
  -5   7  -2  141.74   19.89
  -5   7   2  117.24   18.50
   5   7  -2  135.26   10.65
   5   7   2  147.91   12.02
   5  -7  -2  119.45    9.43
   5  -7   2  110.03    8.32
  -5   7  -3    6.98    2.54
  -5   7   3   10.89    4.15
   5   7  -3    8.90    2.66
   5   7   3    6.37    3.62
   5  -7  -3   11.45    2.62
   5  -7   3    8.78    2.21
  -5   7  -4  112.38   19.49
  -5   7   4   85.07   11.07
   5   7  -4   80.74   10.29
   5   7   4   80.87   11.60
   5  -7  -4   90.41    8.07
   5  -7   4   91.15    6.99
  -5   7  -5   55.46   10.38
  -5   7   5   34.73    5.29
   5   7  -5   22.07    3.54
   5   7   5   39.02    7.16
   5  -7  -5   31.32    5.43
   5  -7   5   36.62    4.84
  -5  -7  -5   30.63    5.46
  -5   7  -6   50.30    9.85
  -5   7   6   55.73    7.52
   5   7  -6   29.72    4.26
   5   7   6   61.69   10.39
   5  -7  -6   46.76    6.38
   5  -7   6   43.40    5.51
  -5  -7  -6   54.06    7.90
  -5   7  -7  196.56   25.62
  -5   7   7  235.27   22.20
   5   7   7  208.38   21.13
   5  -7  -7  173.96   16.69
  -5  -7  -7  208.60   20.04
  -5   7  -8   89.72   13.41
  -5   7   8   93.81   10.13
   5   7   8   94.58   11.03
   5  -7  -8   91.09    9.75
  -5  -7  -8   84.90    9.40
  -5   7  -9   38.43    9.78
  -5   7   9   42.29    4.92
   5   7   9   31.40    8.72
   5  -7  -9   50.00    5.98
  -5  -7  -9   38.40    8.36
  -5   7 -10   12.59    3.61
  -5   7  10   24.73    5.53
   5   7  10   10.64    4.96
   5  -7 -10   16.70    4.78
  -5  -7 -10   23.35    5.71
  -5   7 -11   13.93    4.47
  -5   7  11   35.92    5.45
   5   7  11   22.68    7.30
   5  -7 -11    5.05    3.34
  -5  -7 -11    8.35    3.02
  -5   7 -12   21.32    5.82
  -5   7  12   14.86    4.35
   5   7  12   18.41    6.40
   5  -7 -12   22.08    5.90
  -5  -7 -12   25.54    6.28
  -5   7 -13   32.72   12.58
  -5   7  13   35.30    8.97
   5   7  13   39.40    6.39
   5  -7 -13   47.86    6.39
  -5  -7 -13   41.18    5.95
  -5   7 -14   35.80   10.23
  -5   7  14  117.31   12.28
   5   7  14  109.91   12.47
   5  -7 -14   92.58   10.14
  -5  -7 -14  125.33   13.23
  -5   7 -15   42.74    7.29
  -5   7  15   64.42   10.98
   5   7  15   33.06    7.35
   5  -7 -15   51.97    9.29
  -5  -7 -15   53.33    9.90
  -5   7  16   27.51    4.96
   5   7  16   17.51    6.26
   5  -7  16   16.75    5.97
   5  -7 -16   15.08    4.98
  -5  -7 -16   27.67    5.64
  -5   7  17   11.18    4.86
   5   7  17    6.82    5.57
   5  -7  17   23.08    7.96
   5  -7 -17   10.54    4.27
  -5  -7 -17   14.04    4.86
  -5   8   0  330.35   30.44
   5   8   0  416.17   37.86
   5  -8   0  346.32   31.26
  -5   8  -1   18.89    4.85
  -5   8   1   35.00    9.65
   5   8  -1   11.79    3.75
   5   8   1   10.46    3.68
   5  -8  -1   26.84    5.97
   5  -8   1   20.80    4.78
  -5   8  -2  160.10   23.24
  -5   8   2  172.86   16.58
   5   8  -2  164.27   15.67
   5   8   2  170.67   16.76
   5  -8  -2  142.49   13.86
   5  -8   2  166.80   15.60
  -5   8  -3  100.86   15.36
  -5   8   3  119.28   11.95
   5   8  -3  112.89   11.21
   5   8   3  109.48   12.15
   5  -8  -3  103.09   10.60
   5  -8   3  104.96   10.10
  -5   8  -4   17.54    4.62
  -5   8   4   27.27    7.43
   5   8  -4    1.32    1.39
   5   8   4   13.53    5.57
   5  -8  -4   12.80    4.11
   5  -8   4    9.28    2.85
  -5   8  -5  147.22   23.28
  -5   8   5  139.55   13.83
   5   8  -5  122.02   11.64
   5   8   5  141.42   15.09
   5  -8  -5  112.07   11.48
   5  -8   5  109.71   10.46
  -5  -8  -5  119.27   12.66
  -5   8  -6   21.15    5.11
  -5   8   6    2.20    3.02
   5   8   6    8.89    3.97
   5  -8  -6    3.72    2.80
  -5  -8  -6    9.24    4.50
  -5   8  -7   49.75    9.01
  -5   8   7   53.32    5.86
   5   8   7   65.74    8.99
   5  -8  -7   48.31    5.64
  -5  -8  -7   54.14    6.95
  -5   8  -8   66.27   11.59
  -5   8   8   74.09    7.35
   5   8   8   85.19    9.09
   5  -8  -8   95.69    9.47
  -5  -8  -8   70.23    7.03
  -5   8  -9    4.34    3.00
  -5   8   9    9.49    3.66
   5   8   9   18.05    6.02
   5  -8  -9    8.77    4.75
  -5  -8  -9    4.43    2.77
  -5   8 -10   48.67    9.72
  -5   8  10   61.96    8.30
   5   8  10   50.37    8.11
   5  -8 -10   38.62    6.52
  -5   8 -11   16.07    4.75
  -5   8  11   15.90    5.36
   5   8  11   23.69    7.25
   5  -8 -11   22.27    6.47
  -5  -8 -11   15.13    4.70
  -5   8 -12  103.93   19.73
  -5   8  12  141.28   13.93
   5   8  12  112.12   13.44
   5  -8 -12  109.04   11.60
  -5  -8 -12  108.55   11.31
  -5   8 -13   92.90   33.32
  -5   8  13  128.91   20.22
   5   8  13   60.79   11.47
   5  -8 -13  107.59   17.29
  -5  -8 -13  110.31   17.46
  -5   8 -14   11.67    4.84
  -5   8  14    8.32    2.82
   5   8  14   14.58    6.05
   5  -8 -14    8.67    3.51
  -5  -8 -14   17.84    5.04
  -5   8 -15   44.23    7.16
  -5   8  15   60.79    9.84
   5   8  15   23.35    5.94
   5  -8 -15   40.09    8.46
  -5  -8 -15   64.99   10.99
  -5   9   0   16.09    4.78
   5   9   0   16.55    5.09
   5  -9   0   24.51    5.91
  -5   9  -1  127.23   18.36
  -5   9   1  106.84   15.75
   5   9  -1  126.97   10.47
   5   9   1  132.07   11.12
   5  -9  -1  109.15    9.02
   5  -9   1   99.51    8.26
  -5   9  -2   34.13    8.19
  -5   9   2   33.51    7.71
   5   9  -2   22.06    5.01
   5   9   2   23.50    5.94
   5  -9  -2   39.94    4.63
   5  -9   2   28.08    6.22
  -5   9  -3   84.76   14.50
  -5   9   3   95.56    8.50
   5   9  -3   85.16    7.55
   5   9   3  100.35    9.96
   5  -9  -3   84.67    7.74
   5  -9   3   94.53    8.03
  -5   9  -4   27.09    8.78
  -5   9   4   24.73    5.84
   5   9  -4    9.51    2.86
   5   9   4   16.81    4.85
   5  -9  -4   48.16    5.72
   5  -9   4   22.97    5.26
  -5  -9  -4   26.65    6.78
  -5   9  -5   34.91    7.08
  -5   9   5   30.43    6.87
   5   9   5   22.67    6.02
   5  -9  -5   34.87    5.84
  -5  -9  -5   26.91    7.28
  -5   9  -6   29.26    7.08
  -5   9   6   36.36    6.31
   5   9   6   21.41    6.27
   5  -9  -6   22.55    6.12
  -5  -9  -6   21.95    6.23
  -5   9  -7   56.70    9.86
  -5   9   7   51.36    7.04
   5   9   7   75.18   11.20
   5  -9  -7   64.29    8.82
  -5  -9  -7   51.90    7.49
  -5   9  -8   55.85    8.60
  -5   9   8   56.37    7.18
   5   9   8   55.57    8.58
   5  -9  -8   52.52    6.87
  -5  -9  -8   58.29    7.72
  -5   9  -9   61.10   12.80
  -5   9   9   91.33    9.92
   5   9   9   86.06   10.20
   5  -9  -9   82.79    9.71
  -5  -9  -9   84.94    9.78
  -5   9 -10   23.28    6.70
  -5   9  10   26.85    6.10
   5   9  10   16.37    5.77
   5  -9 -10   28.84    7.22
  -5  -9 -10   25.82    6.53
  -5   9 -11  174.95   38.59
  -5   9  11  278.36   41.84
   5   9  11  254.48   39.09
   5  -9 -11  226.07   34.38
  -5  -9 -11  235.43   35.72
  -5   9 -12    9.23    3.81
  -5   9  12    3.50    3.03
   5   9  12    6.32    3.74
   5  -9 -12    4.58    4.23
  -5  -9 -12    8.94    4.18
  -5   9 -13   10.24    4.04
  -5   9  13   30.20    6.26
   5   9  13   10.52    4.59
   5  -9 -13   16.54    6.02
  -5  -9 -13   20.58    5.67
  -5  10   0    4.65    2.18
   5  10   0    3.40    2.29
   5 -10   0    2.10    2.68
  -5  10   1   28.18    8.92
  -5  10  -1   27.35    7.75
   5  10  -1   18.88    5.38
   5  10   1    6.98    2.76
   5 -10  -1   19.41    5.96
   5 -10   1   19.88    5.72
  -5  10  -2    3.97    2.33
  -5  10   2   12.64    6.06
   5  10  -2    0.96    2.41
   5  10   2    8.46    4.27
   5 -10  -2    4.23    2.92
   5 -10   2    3.42    3.07
  -5  10  -3  104.95   18.05
  -5  10   3  107.95   11.23
   5  10   3   97.55   10.95
   5 -10  -3   77.72    8.42
  -5 -10  -3  118.33   13.35
  -5  10  -4    4.12    2.20
  -5  10   4    9.32    4.33
   5  10   4    5.75    3.12
   5 -10  -4    7.49    2.97
  -5 -10  -4   22.12    7.48
  -5  10  -5  166.32   25.80
  -5  10   5  209.02   19.65
   5  10   5  231.25   22.70
   5 -10  -5  166.60   15.86
  -5 -10  -5  212.83   20.51
  -5  10  -6   41.37    9.49
  -5  10   6   30.95    7.61
   5  10   6   34.61    6.61
   5 -10  -6   33.43    5.54
  -5 -10  -6   45.07    7.22
  -5  10  -7   29.07    6.65
  -5  10   7   14.31    4.54
   5  10   7   17.30    6.36
   5 -10  -7   23.69    6.76
  -5 -10  -7   27.65    7.64
  -5  10  -8   45.71   10.18
  -5  10   8   45.34    8.21
   5  10   8   34.00    8.25
   5 -10  -8   52.02    9.07
  -5 -10  -8   60.98   10.53
  -5  10  -9   52.82   10.42
  -5  10   9   74.93    9.82
   5  10   9   60.79   10.11
   5 -10  -9   70.40    9.59
  -5 -10  -9   87.28   11.63
  -5  10 -10   19.53    7.00
  -5  10  10   17.31    6.32
   5  10  10   23.70    6.14
   5 -10 -10   21.47    5.87
  -5 -10 -10    9.71    4.92
  -5  10 -11    8.21    4.02
  -5  10  11   20.64    5.04
   5  10  11   11.22    5.73
  -5 -10 -11   12.59    5.49
  -5  11   0    7.57    2.58
   5  11   0    5.33    2.90
   5 -11   0    6.55    2.89
  -5  11   1   72.36   14.74
  -5  11  -1   59.57   13.72
   5  11  -1   32.46    5.09
   5  11   1   60.47    8.25
   5 -11  -1   68.15    8.72
  -5  11  -2   36.66    8.11
  -5  11   2   48.40    7.31
   5  11   2   25.64    5.00
   5 -11  -2   38.94    5.83
  -5  11  -3   27.78    7.22
  -5  11   3   26.17    4.98
   5  11   3   12.42    3.57
   5 -11  -3   38.93    6.30
  -5 -11  -3   28.61    6.59
  -5  11  -4    1.27    2.24
  -5  11   4    6.40    3.30
   5  11   4    3.39    2.40
   5 -11  -4    4.47    3.99
  -5 -11  -4    8.46    4.08
  -5  11  -5   19.63    5.50
  -5  11   5   23.16    7.10
   5  11   5   12.56    4.45
   5 -11  -5   24.05    5.49
  -5 -11  -5   31.97    6.81
  -5  11  -6   79.89   20.25
  -5  11   6  112.71   16.60
   5  11   6   59.70   10.04
   5 -11  -6   95.37   14.79
  -5 -11  -6   82.05   13.54
  -5  11  -7    5.33    3.90
  -5  11   7   27.32    6.73
   5  11   7    4.29    4.34
   5 -11  -7   15.62    5.26
  -5 -11  -7   13.59    6.16
  -6   0   0   31.83    3.27
  -6   0   0   29.36    2.79
  -6   0   1  168.18   10.48
  -6   0  -1  175.30   10.85
  -6   0   1  171.40   10.60
  -6   0   2  290.78   19.15
   6   0   2  234.50   16.05
   6   0  -2  218.68   13.61
  -6   0  -2  210.75   12.71
  -6   0   3  752.12   33.09
   6   0   3  591.46   28.25
   6   0  -3  538.28   23.92
  -6   0  -3  513.24   21.99
  -6   0   4    7.03    2.38
   6   0   4   19.84    5.94
   6   0  -4    4.58    1.53
  -6   0  -4    5.44    1.30
  -6   0  -4    1.87    0.85
  -6   0   5  606.64   26.98
   6   0   5  641.52   30.76
   6   0  -5  597.06   26.71
  -6   0  -5  442.35   18.59
  -6   0   6   95.99   10.96
   6   0   6   88.46    7.06
   6   0  -6   81.26    8.48
  -6   0   7  124.16   10.10
   6   0   7  116.12    9.22
   6   0  -7   96.34   11.04
  -6   0   8   29.40    4.12
   6   0   8   40.73    6.42
   6   0  -8   30.85    6.10
  -6   0   9  351.03   14.89
   6   0   9  442.15   22.45
   6   0  -9  373.74   30.45
  -6   0  10  128.39   11.12
   6   0  10  156.52   14.45
   6   0 -10  142.02   22.68
  -6   0  11  388.00   24.45
   6   0  11  448.66   30.50
   6   0 -11  564.25   49.18
  -6   0  12  162.74   12.71
   6   0  12  249.72   20.85
   6   0 -12  197.15   22.98
   6   0  13   13.83    6.23
   6   0 -13    2.89    3.73
   6   0  14   17.35    6.13
   6   0 -14   27.82    7.93
   6   0  15   18.32    7.81
   6   0 -15   13.91    6.01
   6   0  16    7.99    4.90
   6   0 -16    3.68    2.73
   6   0  17   33.09    9.96
   6   0 -17   54.97   15.44
   6   0  18   17.37    6.93
   6   0 -18    2.27    3.44
   6   0  19  140.72   17.70
   6   0 -19  174.92   22.15
  -6   1   0   15.69    2.73
   6   1   0   26.42    5.89
  -6  -1   0    4.47    1.12
  -6   1   0   10.76    1.71
  -6   1  -1   86.55   10.77
  -6   1   1   63.02    8.98
   6   1   1   51.64    6.47
   6   1  -1   55.83    5.95
   6  -1  -1   55.89    6.97
  -6  -1  -1   39.09    6.71
  -6   1   1   54.47    4.19
  -6   1  -1   51.89    3.62
  -6   1  -2  140.48    9.16
  -6   1   2  121.83   12.02
   6   1   2  129.58    9.37
   6   1  -2  117.89    8.52
   6  -1  -2   98.91   10.32
  -6  -1  -2   80.23    4.33
  -6   1   2   92.89    5.24
  -6   1  -2   99.44    4.82
  -6   1  -3  181.40   11.46
  -6   1   3  189.92   11.30
   6   1   3  252.21   14.09
   6   1  -3  226.80   12.33
   6  -1  -3  207.61   10.09
  -6  -1  -3  184.99    8.54
  -6   1  -3  228.27    9.85
  -6   1  -4  295.92   13.74
  -6   1   4  339.21   15.55
   6   1   4  375.53   19.15
   6   1  -4  359.90   17.59
   6  -1  -4  373.29   18.07
  -6  -1  -4  302.53   13.64
  -6   1   5    9.24    1.58
   6   1   5   18.02    4.70
   6   1  -5    6.66    1.69
   6  -1  -5   11.49    2.93
  -6  -1  -5    7.05    1.62
  -6   1   6   29.03    4.28
   6   1   6   20.44    4.52
   6  -1   6   40.71    5.42
   6   1  -6   23.93    5.12
   6  -1  -6   35.62    5.13
  -6  -1  -6   15.47    2.54
  -6  -1  -6   30.26    2.37
  -6   1   7    9.38    1.87
   6   1   7   11.06    4.52
   6  -1   7   11.04    4.95
   6   1  -7    2.87    1.62
   6  -1  -7    8.28    3.93
  -6  -1  -7    3.17    0.86
  -6  -1  -7    6.68    1.14
  -6   1   8   96.24   10.60
   6   1   8   82.60    8.76
   6  -1   8   83.16    9.07
   6   1  -8   63.44   12.39
   6  -1  -8  110.25   20.06
  -6  -1   9   23.03    2.35
  -6   1   9   23.27    3.86
   6   1   9   16.19    5.36
   6  -1   9   22.44    5.59
   6   1  -9   40.39    7.77
   6  -1  -9   26.57    5.23
  -6  -1  -9   21.85    1.90
  -6  -1  10   65.61    7.90
  -6   1  10   83.88   12.97
   6   1  10  103.67   12.08
   6  -1  10   67.00   10.13
   6   1 -10   67.31   15.73
   6  -1 -10   77.74   14.51
  -6   1  11   38.65    6.67
   6   1  11   43.66    8.91
   6  -1  11   44.15    8.43
   6   1 -11   44.25   11.50
   6  -1 -11   42.82    9.44
  -6   1  12  193.33   23.91
   6   1  12  222.80   23.09
   6  -1  12  231.15   23.94
   6   1 -12  170.57   23.47
   6  -1 -12  156.53   21.42
  -6   1  13  727.30   65.67
   6   1  13  705.41   64.55
   6  -1  13  673.11   61.95
   6   1 -13  633.77   57.95
   6  -1 -13  570.37   52.46
   6   1  14  205.12   18.75
   6  -1  14  251.16   22.90
   6   1 -14  203.35   29.82
   6  -1 -14  179.02   22.50
   6   1  15   32.32    9.53
   6  -1  15   55.31   10.56
   6   1 -15   39.09    8.15
   6  -1 -15   41.42    6.22
   6   1  16   44.93    8.56
   6  -1  16   53.84   10.35
   6   1 -16   40.00   14.94
   6  -1 -16   62.55   10.29
   6   1  17  121.13   14.32
   6  -1  17   92.39   12.63
   6   1 -17  111.82   23.41
   6  -1 -17  115.86   18.29
   6   1  18   71.74   14.69
   6  -1  18  105.34   18.82
   6   1 -18   52.05   22.24
   6  -1 -18   97.78   22.78
   6   1  19   15.00    8.25
   6  -1  19   21.91    7.50
   6   1 -19   15.64    5.53
   6  -1 -19   14.67    5.00
  -6   2   0  370.53   16.98
   6   2   0  402.15   20.16
   6  -2   0  377.96   17.00
  -6   2   0  378.12   16.74
  -6   2  -1  219.34   10.74
  -6   2   1  230.59   11.09
   6   2  -1  231.53   12.86
   6   2   1  249.67   14.26
   6  -2  -1  219.75   10.23
  -6   2   1  215.50   10.13
  -6   2  -1  241.11   10.87
  -6   2  -2   78.12   12.00
  -6   2   2   77.42    9.58
   6   2  -2   84.06    6.83
   6   2   2   88.59    8.42
   6  -2  -2   68.68    8.94
  -6  -2  -2   42.32    7.64
  -6   2   2   49.04    3.36
  -6   2  -2   70.19    3.56
  -6   2  -3  184.01   10.43
  -6   2   3  196.30   14.07
   6   2   3  205.77   13.32
   6   2  -3  189.95   10.79
  -6  -2  -3  117.74    7.51
   6  -2  -3  140.82    7.12
  -6   2  -4  340.19   16.77
  -6   2   4  260.75   13.85
   6   2   4  270.47   14.91
   6   2  -4  277.27   14.55
  -6  -2  -4  229.26   10.58
   6  -2  -4  224.45   13.18
  -6   2  -5  252.84   11.44
  -6   2   5  194.61   14.04
   6   2   5  211.15   12.92
   6   2  -5  164.01    8.22
   6  -2  -5  172.49    9.32
  -6  -2  -5  200.91    8.65
  -6   2  -6   16.43    3.34
  -6   2   6   11.64    2.58
   6   2   6   18.69    4.74
   6   2  -6   19.54    3.15
  -6  -2  -6    8.98    1.71
   6  -2  -6   17.27    2.96
  -6  -2  -6   16.17    2.32
  -6   2  -7   56.71    5.13
  -6   2   7   78.23   11.21
   6   2   7   69.71    9.29
   6   2  -7   57.63    5.53
   6   2  -7   43.72    5.13
   6  -2  -7   61.61    9.02
  -6  -2  -7   69.69    5.56
  -6   2   8   69.75    9.77
   6   2   8   53.36    8.41
   6   2  -8   37.62    4.13
   6   2  -8   40.31   10.03
   6  -2  -8   44.10    8.95
  -6  -2  -8   46.05    3.88
  -6   2   9  134.76   13.58
   6   2   9  101.87   10.97
   6   2  -9  115.45    8.62
   6  -2   9  144.25   13.14
   6   2  -9  116.96   12.75
   6  -2  -9  130.72   12.47
  -6  -2  -9  131.09    9.25
  -6   2  10  108.73   11.98
   6   2  10  103.52   11.21
   6  -2  10  116.53   12.44
   6   2 -10   81.85   17.80
   6  -2 -10   96.44   13.68
  -6   2  11    3.64    1.33
   6   2  11    9.91    4.28
   6  -2  11   10.37    5.37
   6   2 -11    6.11    3.48
   6  -2 -11    3.20    1.20
  -6   2  12  133.59   17.44
   6   2  12  149.11   16.13
   6  -2  12  137.33   15.74
   6   2 -12  121.26   17.45
   6  -2 -12  134.51   18.23
  -6   2  13   65.42    8.56
   6   2  13   35.68    9.22
   6  -2  13   68.79    8.80
   6   2 -13   54.48   14.02
   6  -2 -13   47.89    7.27
  -6   2  14   41.56    5.41
   6   2  14   28.55    7.33
   6  -2  14   31.09    8.53
   6   2 -14   42.28   13.57
   6  -2 -14   29.76    8.86
   6   2  15  103.86   15.21
   6  -2  15   37.94    6.69
   6   2 -15   48.27   16.85
   6  -2 -15   72.39   14.86
   6   2  16  170.80   19.40
   6  -2  16  215.35   23.24
   6   2 -16  135.53   17.89
   6  -2 -16  117.82   23.98
   6   2  17   17.36    5.88
   6  -2  17   15.17    7.68
   6   2 -17   13.40    4.80
   6  -2 -17    8.18    2.72
   6   2  18   18.86    7.49
   6  -2  18   13.37    5.76
   6   2 -18    6.00    3.16
   6  -2 -18   11.41    4.95
   6  -2  19   21.23    7.31
   6   2 -19   19.01    6.04
   6  -2 -19   37.03    8.81
  -6   3   0  833.97   36.65
   6   3   0  838.22   38.17
  -6   3  -1 1297.42   55.81
  -6   3   1 1274.52   54.84
   6   3  -1 1322.70   57.88
   6   3   1 1290.04   57.05
   6  -3   1 1159.81   49.05
   6  -3  -1 1259.82   53.55
  -6   3  -2  325.82   12.88
  -6   3   2  327.34   18.54
   6   3  -2  389.03   16.71
   6   3   2  337.48   15.44
   6  -3   2  323.10   11.47
   6  -3  -2  374.52   14.26
  -6   3  -3  184.89   15.16
  -6   3   3  213.57   18.58
   6   3  -3  165.36    9.24
   6   3   3  184.91   10.86
   6  -3  -3  168.44    7.40
  -6   3  -4   55.69   10.76
  -6   3   4   72.21   11.36
   6   3  -4   59.25    5.03
   6   3   4   65.25    7.76
   6  -3  -4   45.34    6.57
  -6   3  -5  202.87   21.78
  -6   3   5  254.77   18.66
   6   3   5  224.51   13.35
   6   3  -5  184.94    9.03
   6  -3  -5  187.70   13.37
  -6   3  -6  277.70   14.73
  -6   3   6  220.94   12.53
   6   3  -6  210.51   10.24
   6   3   6  223.81   13.39
   6  -3  -6  216.97   16.51
  -6  -3  -6  215.59   10.33
  -6   3  -7   62.55   13.30
  -6   3   7   76.41   12.22
   6   3  -7   57.94    5.18
   6   3   7   75.01    9.66
   6  -3  -7   66.82    8.86
  -6  -3  -7   79.90    6.57
  -6   3  -8  213.94   15.27
  -6   3   8  249.37   18.66
   6   3   8  256.04   20.11
   6  -3  -8  240.02   24.10
  -6  -3  -8  266.11   18.33
  -6   3  -9  280.47   19.44
  -6   3   9  341.53   28.16
   6   3   9  340.26   24.93
   6  -3  -9  310.95   24.84
  -6  -3  -9  399.80   26.91
  -6   3  10  110.86   13.54
   6   3  10   87.68    9.35
   6  -3 -10  106.20   18.97
  -6  -3 -10  103.33    7.37
  -6   3  11  298.00   27.87
   6   3  11  337.95   32.52
   6  -3  11  280.34   27.87
   6   3 -11  254.13   24.00
   6  -3 -11  299.34   38.29
  -6  -3 -11  298.45   26.86
  -6   3  12   12.56    3.71
   6   3  12   15.51    5.31
   6  -3  12   32.98    9.70
   6   3 -12   20.34    5.48
   6  -3 -12   27.98    6.19
  -6   3  13  154.13   17.89
   6   3  13   96.61   10.58
   6  -3  13  149.34   15.16
   6   3 -13  103.59   18.88
   6  -3 -13  150.45   22.39
  -6   3  14   50.54    6.49
   6   3  14   29.03    8.54
   6  -3  14   30.27    9.06
   6   3 -14   26.68   12.17
   6  -3 -14   30.35   10.66
  -6   3  15    3.73    1.75
   6   3  15   13.88    5.50
   6  -3  15   24.13    7.34
   6   3 -15   14.37    5.23
   6  -3 -15   23.08    8.55
   6   3  16  203.31   22.24
   6  -3  16  208.50   23.66
   6   3 -16  127.40   32.28
   6  -3 -16  165.72   28.74
   6   3  17   21.45    7.89
   6  -3  17   37.93   10.19
   6   3 -17   19.85    8.90
   6  -3 -17   20.69    6.49
   6   3  18   11.71    4.98
   6  -3  18   18.10    7.85
   6   3 -18   20.22    7.65
   6  -3 -18   21.39    5.16
   6   3  19   18.83    7.25
   6  -3  19    9.28    6.90
   6   3 -19    3.17    3.60
   6  -3 -19    4.49    3.23
  -6   4   0 1471.99   51.86
   6   4   0 1597.48   57.50
   6  -4   0 1496.28   52.33
  -6   4  -1   24.81    5.28
  -6   4   1   35.88    8.32
   6   4   1   12.37    3.11
   6   4  -1   22.99    4.06
   6  -4   1   17.93    3.92
  -6   4  -2  128.03   16.86
  -6   4   2  143.20   16.53
   6   4   2  104.92    8.27
   6   4  -2  109.82    8.15
   6  -4   2   94.58    3.94
   6  -4  -2  115.93    8.77
  -6   4  -3  124.74   16.05
  -6   4   3  100.22   13.25
   6   4  -3  115.95    9.46
   6   4   3  136.80   10.27
   6  -4   3   94.73    6.52
   6  -4  -3  131.26   12.35
  -6   4  -4  206.02   10.57
  -6   4   4  253.42   18.98
   6   4  -4  212.57   10.76
   6   4   4  237.65   14.16
   6  -4  -4  245.72   18.35
  -6   4  -5  131.22    7.07
  -6   4   5  138.10   15.64
   6   4  -5  140.53    8.11
   6   4   5  161.17   11.96
   6  -4  -5  156.54    8.13
  -6   4  -6    8.50    2.83
  -6   4   6    9.07    2.65
   6   4  -6    6.12    2.20
   6   4   6    8.00    3.92
   6  -4  -6    5.19    2.67
  -6  -4  -6    9.69    3.38
  -6   4  -7  355.94   25.01
  -6   4   7  321.05   24.65
   6   4   7  306.06   22.85
   6  -4  -7  264.21   26.28
  -6  -4  -7  368.41   25.21
  -6   4  -8   18.52    4.86
  -6   4   8   21.27    4.28
   6   4   8    7.99    4.20
   6  -4  -8   23.93    5.61
  -6  -4  -8   22.63    4.21
  -6   4  -9  173.19   33.46
  -6   4   9  169.30   14.85
   6   4   9  146.86   14.95
   6  -4  -9  122.33   12.49
  -6  -4  -9  183.08   12.85
  -6   4 -10  334.85   30.23
  -6   4  10  442.20   41.81
   6   4  10  482.94   45.19
   6  -4 -10  373.73   34.59
  -6  -4 -10  445.42   40.06
  -6   4  11   42.94    9.68
   6   4  11   41.63    9.84
   6  -4 -11   43.06   10.65
  -6  -4 -11   34.23    7.17
  -6   4  12   55.28    8.25
   6   4  12   64.91    8.97
   6  -4  12   61.78    8.69
   6  -4 -12   43.85    9.88
  -6  -4 -12   41.19    8.47
  -6   4  13   48.93    6.63
   6   4  13   12.54    5.00
   6  -4  13   21.68    7.82
   6  -4 -13   30.61    7.58
  -6   4  14  219.03   25.18
   6   4  14  181.94   21.83
   6  -4  14  213.30   25.49
   6  -4 -14  170.20   22.02
  -6   4  15    6.87    3.43
   6   4  15   22.90    7.90
   6  -4  15   11.22    5.69
   6  -4 -15   16.38    5.40
  -6   4  16   35.32    4.65
   6   4  16   35.43    7.13
   6  -4  16   37.95    8.01
   6  -4 -16   39.89    9.95
   6   4  17   11.37    6.55
   6  -4  17   16.98    6.08
   6  -4 -17    8.11    4.09
   6   4  18   15.70    6.04
   6  -4  18    9.13    5.21
   6  -4 -18    8.24    4.04
  -6   5   0  175.77    9.99
   6   5   0  156.30    9.11
   6  -5   0  199.02    9.22
  -6   5  -1  649.08   28.69
  -6   5   1  618.55   28.36
   6   5   1  611.68   27.27
   6   5  -1  615.03   26.93
   6  -5   1  587.03   23.74
   6  -5  -1  605.64   24.93
  -6   5  -2  442.45   19.26
  -6   5   2  449.13   20.10
   6   5  -2  445.27   19.81
   6   5   2  463.28   21.73
   6  -5   2  422.75   17.18
   6  -5  -2  507.96   21.52
  -6   5  -3   15.68    3.75
  -6   5   3   18.20    3.53
   6   5  -3    8.42    2.73
   6   5   3    8.23    3.94
   6  -5   3    4.39    1.09
   6  -5  -3   11.72    3.63
  -6   5  -4  231.29   16.40
  -6   5   4  216.45   17.02
   6   5  -4  207.38   14.86
   6   5   4  233.86   18.18
   6  -5  -4  231.28   16.48
  -6   5  -5  378.86   32.57
  -6   5   5  271.81   20.30
   6   5  -5  283.04   19.49
   6   5   5  316.78   23.29
   6  -5  -5  324.83   22.37
  -6   5  -6  230.07   25.08
  -6   5   6  238.94   22.08
   6   5   6  248.54   18.10
   6  -5  -6  238.76   16.27
  -6  -5  -6  309.03   20.70
  -6   5  -7  130.34   19.75
  -6   5   7  131.68   18.45
   6   5   7  102.18   10.65
   6  -5  -7  102.51    8.25
  -6  -5  -7  132.72   10.17
  -6   5  -8  313.97   32.33
  -6   5   8  327.71   30.73
   6   5   8  321.67   30.79
   6  -5  -8  265.42   27.80
  -6  -5  -8  364.94   33.28
  -6   5  -9    4.18    2.85
  -6   5   9    8.95    3.25
   6   5   9   12.42    7.14
   6  -5  -9   11.45    3.14
  -6  -5  -9    9.33    3.62
  -6   5 -10   29.44    8.94
  -6   5  10   21.51    5.39
   6   5  10   30.81    9.04
   6  -5 -10   23.07    5.77
  -6  -5 -10   33.25    7.44
  -6   5 -11   44.51   10.43
  -6   5  11   78.46    7.49
   6  -5 -11   60.73    8.24
  -6  -5 -11   91.41    8.28
  -6   5 -12   23.13    5.76
  -6   5  12   43.85    5.40
   6   5  12   33.91    9.58
   6  -5 -12   36.34    7.76
  -6  -5 -12   35.61    4.82
  -6   5  13    4.00    2.38
   6   5  13    8.50    4.19
   6  -5 -13    8.32    4.20
  -6  -5 -13   10.20    3.72
  -6   5  14   33.43    8.43
   6   5  14    8.55    4.72
   6  -5  14   41.79    9.38
   6  -5 -14   32.55    9.39
  -6   5  15   45.93    5.69
   6   5  15   60.84   10.81
   6  -5  15   39.59    7.65
   6  -5 -15   47.21    9.93
  -6   5  16   31.45    6.12
   6   5  16   50.68   11.18
   6  -5  16   67.47   13.20
   6  -5 -16   17.99    7.51
   6   5  17    9.60    5.21
   6  -5  17   12.40    7.04
   6  -5 -17    7.95    3.44
  -6   6   0   49.18    9.60
   6   6   0   46.05    6.93
   6  -6   0   46.32    6.12
  -6   6  -1  197.28   20.76
  -6   6   1  149.60   17.36
   6   6   1  139.51   11.32
   6   6  -1  145.32   11.08
   6  -6   1  144.51    9.86
   6  -6  -1  141.84   10.09
  -6   6  -2   21.56    4.88
  -6   6   2    7.05    2.13
   6   6  -2    7.62    2.30
   6   6   2    8.09    2.93
   6  -6   2   14.40    2.41
   6  -6  -2   12.11    2.96
  -6   6  -3   72.90   15.23
  -6   6   3   79.31    8.10
   6   6  -3   81.81    6.90
   6   6   3   63.33    8.77
   6  -6  -3   90.22    7.48
  -6   6  -4   29.83    5.73
  -6   6   4   21.88    4.55
   6   6  -4   30.35    4.83
   6   6   4   32.08    6.34
   6  -6  -4   18.94    3.29
  -6   6  -5   45.90   11.14
  -6   6   5   71.31   13.44
   6   6  -5   61.35   11.72
   6   6   5   45.38    9.84
   6  -6  -5   65.14    7.31
  -6  -6  -5   52.29   10.73
  -6   6  -6  184.74   22.25
  -6   6   6  202.64   19.07
   6   6   6  206.65   21.30
   6  -6  -6  184.67   17.52
  -6  -6  -6  204.95   19.75
  -6   6  -7    9.33    3.73
  -6   6   7    7.19    2.91
   6   6   7    3.34    4.09
   6  -6  -7   13.69    4.34
  -6  -6  -7   20.49    7.12
  -6   6  -8   51.12    8.64
  -6   6   8   43.23    7.24
   6   6   8   35.29    8.90
   6  -6  -8   51.73    6.04
  -6  -6  -8   64.91    7.57
  -6   6  -9  125.46   18.21
  -6   6   9  152.72   12.63
   6   6   9  134.08   13.07
   6  -6  -9  127.76   10.85
  -6  -6  -9  143.56   11.73
  -6   6 -10   13.84    4.05
  -6   6  10    7.04    3.11
   6   6  10   25.47    7.77
   6  -6 -10   11.75    4.62
  -6  -6 -10   16.06    6.29
  -6   6 -11   14.16    5.61
  -6   6  11    3.64    2.62
   6   6  11   -3.09    3.97
   6  -6 -11    7.47    3.13
  -6  -6 -11   14.06    4.55
  -6   6 -12    5.31    3.35
  -6   6  12   16.54    5.54
   6   6  12   11.76    4.76
   6  -6 -12   15.88    5.27
  -6  -6 -12   10.27    4.13
  -6   6 -13   99.36   10.16
  -6   6  13  160.41   15.55
   6   6  13  131.08   14.78
   6  -6 -13   61.20   23.25
  -6  -6 -13   89.17    9.44
  -6   6  14   67.29   11.33
   6   6  14   78.33   15.28
   6  -6 -14   74.87   12.32
  -6  -6 -14   66.51   10.96
  -6   6  15   18.76    4.67
   6   6  15   19.18    5.93
   6  -6  15   30.27    7.19
   6  -6 -15   13.75    6.16
  -6   6  16    8.15    4.63
   6   6  16    9.94    6.33
   6  -6  16    6.37    5.30
   6  -6 -16    6.55    2.99
  -6   7   0  402.66   36.45
   6   7   0  389.50   35.77
   6  -7   0  457.35   40.94
  -6   7  -1  112.37   18.70
  -6   7   1   87.15   13.02
   6   7   1  101.05   11.07
   6   7  -1   94.47    9.94
   6  -7  -1   83.06    8.57
   6  -7   1   90.19    9.15
  -6   7  -2  112.02   17.34
  -6   7   2   71.72   14.40
   6   7  -2   85.18    9.33
   6   7   2   87.78    9.95
   6  -7  -2   89.06    8.92
  -6   7  -3   80.59   13.14
  -6   7   3   59.27   15.90
   6   7  -3   40.64    8.43
   6   7   3   31.08    7.66
   6  -7  -3   61.70   11.92
  -6   7  -4  136.60   19.59
  -6   7   4   99.71   13.55
   6   7  -4   94.37    8.42
   6   7   4  118.08   11.76
   6  -7  -4   99.79    8.99
  -6   7  -5   35.73    9.92
  -6   7   5   34.57    8.57
   6   7   5   25.03    6.30
   6  -7  -5   34.59    7.19
  -6  -7  -5   44.99    6.54
  -6   7  -6   17.63    5.15
  -6   7   6    9.99    2.71
   6   7   6   11.01    4.21
   6  -7  -6   21.72    5.28
  -6  -7  -6    9.30    3.47
  -6   7  -7   36.24    7.62
  -6   7   7   32.93    8.46
   6   7   7   21.64    6.58
   6  -7  -7   39.29    4.97
  -6  -7  -7   55.40    6.59
  -6   7  -8   90.84   15.01
  -6   7   8  107.73   12.77
   6   7   8  142.09   17.66
   6  -7  -8  116.77   13.84
  -6  -7  -8  119.34   14.41
  -6   7  -9  169.69   23.45
  -6   7   9  230.24   25.35
   6   7   9  159.56   19.31
   6  -7  -9  168.92   19.25
  -6  -7  -9  244.72   27.26
  -6   7 -10   91.73   15.97
  -6   7  10  142.01   14.39
   6   7  10   87.84   10.64
   6  -7 -10  130.96   13.58
  -6  -7 -10  184.31   18.50
  -6   7 -11  177.66   26.59
  -6   7  11  224.22   21.81
   6   7  11  184.21   19.74
   6  -7 -11  152.97   15.63
  -6  -7 -11  207.66   20.46
  -6   7 -12   35.91   15.28
  -6   7  12   72.69    8.32
   6   7  12   37.95    7.12
   6  -7 -12   52.31    7.16
  -6  -7 -12   76.02    9.05
  -6   7 -13   11.38    4.08
  -6   7  13   16.56    6.03
   6   7  13   20.57    6.88
   6  -7 -13   13.88    4.36
  -6  -7 -13   22.43    6.11
  -6   7 -14   14.83    3.92
  -6   7  14   15.25    4.85
   6   7  14   17.81    5.99
   6  -7 -14   19.51    5.62
  -6  -7 -14   14.69    4.84
  -6   7  15   65.26   10.63
   6   7  15   57.27   11.06
   6  -7 -15   55.02   10.17
  -6   8   0   21.64    5.58
   6   8   0   11.91    4.24
   6  -8   0   20.79    4.84
  -6   8  -1   26.43    7.19
  -6   8   1   36.47    5.86
   6   8  -1   12.44    3.68
   6   8   1   15.93    4.81
   6  -8  -1   26.84    6.06
  -6   8  -2   61.54   12.15
  -6   8   2   51.39   10.72
   6   8  -2   57.21    6.33
   6   8   2   68.45    7.55
   6  -8  -2   60.02    5.74
  -6   8  -3   71.15   13.76
  -6   8   3   79.38   15.05
   6   8  -3   55.74    5.91
   6   8   3   62.71    8.64
   6  -8  -3   51.64    5.63
  -6   8  -4  266.52   29.39
  -6   8   4  231.90   33.62
   6   8   4  274.30   30.43
   6  -8  -4  240.93   26.28
  -6   8  -5   22.84    6.18
  -6   8   5   36.80    9.34
   6   8   5   23.89    7.17
   6  -8  -5   34.94    5.81
  -6  -8  -5   52.66    8.12
  -6   8  -6   25.26    6.19
  -6   8   6   20.83    5.18
   6   8   6   23.78    7.07
   6  -8  -6   29.18    7.17
  -6   8  -7   35.39   10.54
  -6   8   7   18.12    5.08
   6   8   7   16.41    5.53
   6  -8  -7   19.17    5.35
  -6  -8  -7   37.94    6.26
  -6   8  -8   90.62   17.67
  -6   8   8  100.70   10.80
   6   8   8  122.94   14.98
   6  -8  -8   94.56   10.33
  -6  -8  -8  120.69   13.59
  -6   8  -9   25.00    6.58
  -6   8   9   11.93    3.66
   6   8   9   18.69    6.50
   6  -8  -9   20.05    5.23
  -6  -8  -9   18.03    5.57
  -6   8 -10    7.31    2.50
  -6   8  10   19.08    6.54
   6   8  10   14.65    5.85
   6  -8 -10    5.05    3.19
  -6  -8 -10    4.89    4.52
  -6   8 -11    1.59    2.14
  -6   8  11    5.32    4.51
   6   8  11   -0.44    3.74
   6  -8 -11   -0.48    3.10
  -6   8 -12  119.50   25.46
  -6   8  12  126.73   14.87
   6   8  12  122.54   15.81
   6  -8 -12   96.99   12.21
  -6  -8 -12  106.08   13.00
  -6   8 -13   80.15   23.16
  -6   8  13   95.20   14.62
   6   8  13  101.93   16.54
   6  -8 -13  123.20   18.11
  -6  -8 -13   77.96   12.22
  -6   9   0   20.69    6.24
   6   9   0   21.31    6.02
  -6   9  -1    9.66    4.18
  -6   9   1   12.34    4.74
   6   9  -1    5.23    2.88
   6   9   1    7.82    3.21
   6  -9  -1    7.21    3.22
  -6   9  -2   50.50   11.30
  -6   9   2   40.27    7.80
   6   9   2   39.85    6.74
   6  -9  -2   49.67    6.35
  -6   9  -3    6.90    2.89
  -6   9   3    9.74    3.62
   6   9   3    3.23    2.95
   6  -9  -3   24.95    6.70
  -6   9  -4   59.09   10.06
  -6   9   4   46.68   10.81
   6   9   4   71.79    8.75
   6  -9  -4   54.87    6.74
  -6  -9  -4   74.87    9.38
  -6   9  -5   10.26    3.69
  -6   9   5    9.32    3.00
   6   9   5    9.93    4.80
   6  -9  -5    4.03    2.53
  -6  -9  -5    7.52    3.90
  -6   9  -6   44.13    8.93
  -6   9   6   52.08    6.82
   6   9   6   12.60    4.17
   6  -9  -6   34.30    5.38
  -6  -9  -6   52.29    7.94
  -6   9  -7   14.34    4.40
  -6   9   7    7.15    4.45
   6   9   7   -0.51    3.26
   6  -9  -7    2.39    2.94
  -6  -9  -7    8.04    3.89
  -6   9  -8   19.69    6.36
  -6   9   8   18.82    4.97
   6   9   8   27.81    7.66
   6  -9  -8   20.99    5.22
  -6  -9  -8    9.84    4.23
  -6   9  -9    8.00    2.60
  -6   9   9    8.45    3.35
   6   9   9    9.29    4.13
   6  -9  -9    3.66    3.23
  -6  -9  -9    9.29    4.91
  -6   9 -10    6.98    3.24
  -6   9  10   12.12    6.02
   6   9  10   16.10    6.10
   6  -9 -10    6.49    3.35
  -6  -9 -10    5.96    3.59
  -6   9 -11   15.50    4.94
  -6   9  11    9.85    3.93
   6  -9 -11   19.21    5.75
  -6  -9 -11   10.82    4.23
  -6  10   0  101.34   21.31
   6  10   0   85.19   13.86
  -6  10  -1   38.05   12.22
  -6  10   1   37.82    9.26
   6  10   1   36.83    6.82
  -6  10  -2  132.63   28.10
  -6  10   2  103.79   22.50
   6  10   2  116.55   13.84
  -6  10  -3   24.73    5.52
  -6  10   3   42.40    7.78
   6  10   3   15.44    4.70
  -6 -10  -3   39.94    6.84
  -6  10  -4   18.15    4.89
  -6  10   4   17.44    5.02
   6  10   4   15.62    5.01
   6 -10  -4   26.54    5.34
  -6 -10  -4   24.37    6.12
  -6  10  -5  127.88   26.58
  -6  10   5  126.25   24.38
   6  10   5  138.98   16.22
   6 -10  -5  140.21   16.00
  -6 -10  -5  160.40   18.98
  -6  10  -6   36.58   10.46
  -6  10   6   36.60    6.71
   6  10   6   19.33    6.33
   6 -10  -6   45.35    8.54
  -6 -10  -6   36.60    8.12
  -6  10  -7   25.92    5.67
  -6  10   7   24.92    4.95
   6  10   7   46.94    9.75
   6 -10  -7   27.51    5.70
  -6 -10  -7   47.27    8.90
   7   0   0   14.23    7.36
   7   0   1   32.33    7.92
  -7   0   2   37.99    3.91
   7   0   2   48.42    7.43
  -7   0   3    5.10    2.16
   7   0   3   12.90    8.25
  -7   0   4   40.96    9.54
   7   0   4   50.45    8.55
   7   0  -4   47.66   10.37
  -7   0   5   38.25    8.25
   7   0   5   54.45    9.35
   7   0  -5   40.02    9.27
  -7   0   6   17.30    3.85
   7   0   6   18.97    4.75
   7   0  -6   20.47    5.37
  -7   0   7    5.41    2.31
   7   0   7   23.37    7.16
   7   0  -7    2.39    1.02
  -7   0   8   23.86    6.58
   7   0   8   48.19    8.98
  -7   0   9   40.34    9.78
   7   0   9   47.18   11.11
   7   0  -9   33.10    7.84
  -7   0  10    8.49    3.00
   7   0  10   14.62    6.32
   7   0 -10    6.38    3.75
   7   0  11    8.28    5.07
   7   0 -11   10.09    3.63
   7   0  12   88.44   10.24
   7   0 -12   91.04   15.69
   7   0  13   39.58    9.28
   7   0 -13   29.93   12.13
   7   0  14   65.69    9.47
   7   0 -14   55.67   15.71
   7   0  15   39.56    8.82
   7   0 -15   38.86   11.19
   7   0  16   14.43    7.17
   7   0 -16    3.33    2.56
   7   0  17   16.96    7.18
   7   0 -17    4.78    2.48
  -7   1   0  182.74    9.74
   7   1   0  134.45    9.84
  -7   1  -1  145.41    7.40
  -7   1   1  231.39   14.31
   7   1   1  169.85   10.99
   7   1  -1  190.67   12.14
  -7   1  -2   86.66    7.71
  -7   1   2  119.44   15.58
   7   1   2  105.14   10.95
   7   1  -2   93.19    8.78
   7  -1  -2   90.36    9.23
  -7   1   3  263.10   18.18
   7   1   3  305.14   22.43
   7   1  -3  284.88   20.78
   7  -1  -3  247.09   17.08
  -7   1   4   12.20    2.70
   7   1   4   41.34    8.43
   7  -1   4   18.26    5.14
   7   1  -4   12.70    3.68
   7  -1  -4    7.45    2.46
  -7   1   5   50.73   11.46
   7   1   5   69.06   10.03
   7  -1   5   46.79    7.70
   7   1  -5   83.04   11.33
   7  -1  -5   46.49   11.16
  -7   1   6   19.83    4.15
   7   1   6   24.39    5.68
   7  -1   6   15.74    5.16
   7   1  -6   10.21    2.80
   7   1  -6   14.51    2.90
   7  -1  -6   16.21    2.78
  -7   1   7   84.20   12.05
   7   1   7  111.87   11.45
   7  -1   7  142.57   13.12
   7   1  -7  103.93    8.52
   7   1  -7   72.13   10.86
   7  -1  -7   93.03   12.21
  -7   1   8  122.90   10.16
   7   1   8  147.53   12.68
   7  -1   8  159.85   14.30
   7   1  -8  127.29    9.42
   7   1  -8  120.44   15.48
   7  -1  -8  118.37   12.01
  -7   1   9    8.18    2.47
   7   1   9   12.36    7.46
   7  -1   9   12.87    4.78
   7   1  -9    4.59    1.90
   7   1  -9    8.15    2.57
   7  -1  -9    3.21    3.02
  -7   1  10   68.74   10.88
   7   1  10   94.71   11.92
   7  -1  10  116.36   12.64
   7   1 -10   61.90   14.20
   7  -1 -10   83.21   10.61
  -7   1  11   31.98    8.03
   7   1  11   46.18    9.53
   7  -1  11   31.78    8.42
   7   1 -11   46.24   10.03
   7  -1 -11   49.13    9.88
   7   1  12  250.71   21.66
   7  -1  12  207.95   19.12
   7   1 -12  152.08   23.81
   7  -1 -12  172.47   22.76
   7   1  13  352.91   78.28
   7  -1  13  387.04   85.68
   7   1 -13  310.95   46.73
   7  -1 -13  310.76   40.58
   7   1  14   32.24   10.03
   7  -1  14   34.81   10.52
   7   1 -14   24.78    9.27
   7  -1 -14   53.50   11.63
   7   1  15   19.20    7.43
   7  -1  15   19.05    7.87
   7   1 -15   29.10    8.25
   7  -1 -15   18.96    4.90
   7   1  16   19.19    9.14
   7  -1  16    3.27    4.92
   7   1 -16    7.32    3.61
   7  -1 -16    9.08    2.74
   7  -1  17   63.65   12.00
   7   1 -17   36.55   14.57
   7  -1 -17   62.07   13.40
  -7   2   0   12.86    4.27
   7   2   0   10.73    5.00
  -7   2   1  217.40   22.55
  -7   2  -1  203.23   15.28
   7   2  -1  231.08   17.50
   7   2   1  261.10   20.95
   7  -2  -1  151.13   10.51
  -7   2  -2   69.01   14.62
  -7   2   2   51.04   10.15
   7   2  -2   67.05    9.58
   7   2   2   56.29    8.60
   7  -2  -2   41.09    6.51
  -7   2  -3  288.43   20.43
  -7   2   3  220.23   21.53
   7   2   3  244.89   18.76
   7   2  -3  237.03   17.65
   7  -2  -3  216.46   18.75
  -7   2  -4   38.90   10.15
  -7   2   4   61.15   12.47
   7   2   4   86.09   13.57
   7   2  -4   65.82    9.28
   7  -2  -4   51.02    8.02
  -7   2  -5  233.02   16.26
  -7   2   5  276.92   19.18
   7   2   5  276.16   21.38
   7   2  -5  274.91   19.73
   7  -2  -5  254.19   18.54
  -7   2   6    3.24    1.52
   7   2   6   19.63    6.46
   7   2  -6    5.52    3.24
   7  -2  -6   16.33    3.47
  -7  -2  -6    3.93    1.90
  -7   2   7  118.56   17.25
   7   2   7  146.24   12.89
   7   2  -7  131.00    9.80
   7  -2   7  134.47   12.88
   7  -2  -7  115.62   10.35
  -7   2   8   43.06    9.23
   7   2   8   33.94    9.88
   7   2  -8   34.52    7.08
   7  -2   8   42.90    9.82
   7  -2  -8   43.86   10.05
  -7   2   9  230.72   25.77
   7   2   9  286.43   29.14
   7  -2   9  248.40   24.98
   7   2  -9  229.74   21.47
   7  -2  -9  259.41   25.05
  -7   2  10   13.95    3.54
   7   2  10    9.49    5.38
   7  -2  10   30.14   10.79
   7   2 -10   13.74    4.28
   7  -2 -10   21.78    5.61
  -7   2  11  336.18   27.05
   7   2  11  324.38   26.07
   7  -2  11  387.44   30.62
   7   2 -11  322.25   26.31
   7  -2 -11  286.55   27.01
  -7   2  12    5.33    1.36
   7   2  12   20.05    7.31
   7  -2  12    8.93    5.33
   7  -2 -12    8.05    3.30
   7   2  13    6.02    4.61
   7  -2  13   18.97    7.62
   7   2 -13    5.69    2.33
   7  -2 -13    4.63    2.27
   7   2  14   33.86    9.97
   7  -2  14   47.54    8.93
   7   2 -14   45.84   11.30
   7  -2 -14   46.31   10.42
   7   2  15   27.49   10.37
   7  -2  15   34.30    9.01
   7   2 -15   24.68   10.12
   7  -2 -15   33.33    9.74
   7   2  16   11.01    6.64
   7  -2  16    3.00    4.88
   7   2 -16    3.57    2.79
   7  -2 -16    1.21    2.61
   7   2  17   14.56    8.23
   7  -2  17   65.87   14.57
   7   2 -17   15.81    6.08
   7  -2 -17   26.26    7.23
  -7   3   0    9.10    3.34
   7   3   0   13.20    3.58
   7  -3   0    9.78    2.68
  -7   3  -1  146.04   18.47
  -7   3   1  158.56   17.03
   7   3  -1  186.38   14.47
   7   3   1  168.44   13.98
   7  -3  -1  140.07    9.83
  -7   3  -2   32.01    7.45
  -7   3   2   32.89    6.19
   7   3  -2   18.09    4.13
   7   3   2   31.36    6.11
   7  -3  -2   28.01    6.26
  -7   3  -3  133.98   10.61
  -7   3   3  153.83   17.32
   7   3  -3  128.41   11.20
   7   3   3  137.12   12.22
   7  -3  -3  124.05   14.08
  -7   3  -4   91.12   19.10
  -7   3   4   96.84   14.13
   7   3  -4   77.96    7.45
   7   3   4  100.22    9.19
   7  -3  -4   76.04   15.79
  -7   3  -5  114.35   20.96
  -7   3   5   79.22    8.92
   7   3   5  105.45   11.37
   7   3  -5   96.14    8.87
   7  -3  -5   86.00   15.57
  -7  -3  -5  114.49    8.41
  -7   3  -6   10.51    3.88
  -7   3   6   22.97    4.40
   7   3  -6   14.98    3.07
   7   3   6   12.32    4.67
   7  -3  -6   17.32    3.54
  -7  -3  -6   23.57    3.92
  -7   3  -7   55.62   10.96
  -7   3   7   59.29   13.57
   7   3   7   51.91   11.73
   7   3  -7   38.56    7.97
   7  -3  -7   63.00   11.82
  -7  -3  -7   55.44   10.77
  -7   3  -8   33.90    7.10
  -7   3   8   31.15    7.82
   7   3   8   34.14    9.52
   7  -3  -8   35.38    8.47
  -7   3   9   45.42    6.78
   7   3   9   64.47   10.59
   7  -3  -9   35.00   10.18
  -7   3  10  134.27   18.26
   7   3  10  186.65   18.29
   7  -3  10   86.70   10.50
   7  -3 -10  107.57   20.43
  -7   3  11  178.76   24.03
   7   3  11  218.68   26.94
   7  -3  11  231.48   28.59
   7  -3 -11  127.55   20.36
  -7   3  12  123.28   20.66
   7   3  12   78.69   11.94
   7  -3  12   88.36   12.81
   7  -3 -12   85.76   17.25
  -7   3  13  329.02   35.12
   7   3  13  423.19   77.01
   7  -3  13  377.17   69.17
   7  -3 -13  365.84   34.25
   7   3  14   15.80    6.83
   7  -3  14   29.58    8.90
   7  -3 -14   27.16    7.64
   7   3  15   80.41   16.21
   7  -3  15  131.21   22.63
   7   3 -15  110.61   17.93
   7  -3 -15   76.09   22.89
   7   3  16    7.20    5.12
   7  -3  16   16.75    7.75
   7   3 -16    3.59    3.05
   7  -3 -16   15.36    4.09
  -7   4   0    2.94    2.07
   7  -4   0    3.07    1.29
  -7   4  -1   52.34   10.75
   7   4   1   50.31    8.22
   7   4  -1   42.12    7.02
   7  -4  -1   30.75    7.66
  -7   4  -2  183.89   12.95
  -7   4   2  215.84   19.89
   7   4   2  220.39   16.38
   7   4  -2  234.22   16.57
   7  -4  -2  191.99   12.49
  -7   4  -3   11.32    3.69
  -7   4   3   19.43    3.66
   7   4   3   18.38    6.70
   7   4  -3   10.67    3.16
   7  -4  -3   18.89    3.60
  -7   4  -4   33.69    8.75
  -7   4   4   36.08    8.78
   7   4  -4   25.46    5.95
   7   4   4   47.79   11.08
   7  -4  -4   30.79    9.02
  -7   4  -5   67.44   12.03
  -7   4   5   78.63   14.22
   7   4  -5   68.94    7.73
   7   4   5   78.45   10.63
   7  -4  -5   77.99   12.07
  -7  -4  -5   85.76    9.00
  -7   4  -6   16.46    4.21
  -7   4   6   16.07    4.18
   7   4  -6    9.45    3.03
   7   4   6    3.29    4.47
   7  -4  -6   18.65    4.38
  -7  -4  -6    9.34    2.86
  -7   4  -7   45.19   12.37
  -7   4   7   84.01   12.39
   7   4   7   42.85    6.25
   7  -4  -7   55.84    8.38
  -7  -4  -7   59.88    6.06
  -7   4  -8   29.93   10.46
  -7   4   8   45.21    8.95
   7   4   8   68.46    9.99
   7  -4  -8   52.99   12.65
  -7  -4  -8   48.87    5.14
  -7   4  -9   44.10    4.91
  -7   4   9   60.25   10.81
   7   4   9   76.90   10.41
   7  -4  -9   62.62   11.63
  -7   4  10   19.81    5.42
   7   4  10   19.67    6.13
   7  -4 -10   18.65    5.03
  -7   4  11   16.55    4.88
   7   4  11   10.14    4.87
   7  -4  11   32.05   10.17
   7  -4 -11    8.98    4.07
  -7   4  12   78.51   12.16
   7   4  12  103.08   12.98
   7  -4  12   83.70   11.74
   7  -4 -12   59.83   13.83
  -7   4  13    2.34    1.90
   7   4  13    6.58    5.72
   7  -4  13    7.91    5.57
   7  -4 -13    7.42    4.88
  -7   4  14   58.11   12.77
   7  -4  14  102.07   18.33
   7  -4 -14   50.17   16.10
   7   4  15   14.45    6.76
   7  -4  15    7.97    7.28
   7   4  16   19.74    5.93
   7  -4  16   78.72   14.00
   7  -4 -16   72.54   18.75
  -7   5   0  724.13   64.33
   7   5   0  790.85  144.15
  -7   5  -1   12.62    3.97
  -7   5   1   21.07    6.22
   7   5   1   14.56    4.95
   7   5  -1   10.61    3.88
   7  -5  -1   18.10    4.28
  -7   5  -2   99.01   15.77
  -7   5   2   94.45   14.54
   7   5  -2   95.47   10.37
   7   5   2  115.66   13.06
   7  -5  -2   90.40    8.88
  -7   5  -3  143.61   22.30
  -7   5   3  197.81   25.77
   7   5  -3  161.85   15.85
   7   5   3  157.90   17.41
   7  -5  -3  142.94   16.74
  -7   5  -4   64.38   15.19
  -7   5   4  107.77   17.51
   7   5  -4   73.82    6.94
   7   5   4   98.35   11.71
   7  -5  -4   65.75   13.78
  -7   5  -5   33.27    8.12
  -7   5   5   28.42    8.11
   7   5  -5   11.43    3.17
   7   5   5   30.89    7.73
   7  -5  -5   17.26    4.64
  -7  -5  -5   21.27    5.18
  -7   5  -6   78.90   15.97
  -7   5   6   95.76   15.67
   7   5   6   99.99   11.40
   7  -5  -6   80.18   13.95
  -7  -5  -6  109.77   10.07
  -7   5  -7   76.02   16.65
  -7   5   7  102.00   16.39
   7   5   7   84.52    9.51
   7  -5  -7  101.62   12.48
  -7  -5  -7  101.43    9.04
  -7   5  -8  176.37   36.41
  -7   5   8  190.49   19.86
   7   5   8  224.89   19.35
   7  -5  -8  168.17   20.72
  -7  -5  -8  171.52   13.35
  -7   5  -9    2.32    2.66
  -7   5   9    7.72    3.27
   7   5   9    3.46    4.30
   7  -5  -9    3.16    2.10
  -7  -5  -9   11.35    4.43
  -7   5 -10  302.73   28.14
  -7   5  10  300.38   36.79
   7   5  10  323.40   31.71
   7  -5 -10  298.47   32.12
  -7   5 -11   49.23    6.79
  -7   5  11   44.55    7.99
   7   5  11   30.97    9.59
   7  -5 -11   51.89   10.82
  -7   5  12   93.18   15.62
   7   5  12  144.57   17.47
   7  -5 -12   83.73   15.01
  -7   5  13    9.25    3.70
   7   5  13   -0.71    3.73
   7  -5  13   14.43    6.01
  -7   5  14    3.16    2.25
   7   5  14   13.68    5.74
   7  -5  14    6.38    5.60
   7  -5 -14    3.06    3.40
  -7   5  15    8.93    2.86
   7   5  15    9.44    4.60
   7  -5  15    9.58    5.79
   7  -5 -15   -0.09    2.94
  -7   6   0   16.09    4.60
   7   6   0   18.26    4.90
  -7   6  -1  242.32   23.00
  -7   6   1  293.40   33.73
   7   6  -1  241.23   19.42
   7   6   1  238.31   19.61
  -7   6  -2  130.87   10.42
  -7   6   2  173.95   22.88
   7   6  -2  143.90   11.86
   7   6   2  154.22   13.25
  -7   6  -3   24.88    6.15
  -7   6   3   24.28    6.49
   7   6  -3    9.33    3.25
   7   6   3   10.30    4.01
   7  -6  -3   21.04    4.84
  -7   6  -4   19.53    5.06
  -7   6   4   33.35    8.77
   7   6  -4   15.77    4.04
   7  -6  -4   28.43    7.41
  -7   6  -5    1.68    2.10
  -7   6   5    5.68    2.47
   7   6   5    2.33    3.09
   7  -6  -5   10.33    3.71
  -7  -6  -5   11.45    4.52
  -7   6  -6   26.10    6.11
  -7   6   6   19.31    5.09
   7   6   6   23.11    6.37
   7  -6  -6   30.35    7.39
  -7  -6  -6   18.84    5.18
  -7   6  -7   16.84    4.19
  -7   6   7    2.65    1.88
   7   6   7    2.14    3.60
   7  -6  -7    8.23    3.06
  -7  -6  -7    0.80    2.51
  -7   6  -8  178.67   29.48
  -7   6   8  179.53   25.12
   7   6   8  239.66   24.70
   7  -6  -8  199.90   24.94
  -7  -6  -8  239.99   23.16
  -7   6  -9   39.76   12.15
  -7   6   9   48.66    8.92
   7   6   9   54.54    8.84
   7  -6  -9   43.36    7.43
  -7  -6  -9   48.44    6.21
  -7   6 -10   55.94   15.31
  -7   6  10   49.49    9.92
   7   6  10   47.19    8.51
   7  -6 -10   38.72    7.55
  -7   6 -11   31.88    8.91
  -7   6  11   51.21   11.40
   7   6  11   41.96    8.92
   7  -6 -11   41.09   12.92
  -7   6 -12   17.44    4.66
  -7   6  12   30.71    6.00
   7   6  12   17.49    4.92
   7  -6 -12   23.54    7.28
  -7   6  13   30.31    8.15
   7   6  13   29.01    6.54
   7  -6 -13   42.20   11.07
  -7   6  14   25.03    6.73
   7  -6  14   43.42    9.45
   7  -6 -14   26.42    8.58
  -7   7   0   64.08   14.15
   7   7   0   41.87    6.84
  -7   7  -1   27.20    7.16
  -7   7   1   37.80    7.04
   7   7  -1   20.79    5.22
   7   7   1   32.45    7.64
  -7   7  -2   11.99    4.40
  -7   7   2   18.92    4.89
   7   7  -2    9.72    3.28
   7   7   2    2.04    2.97
  -7   7  -3  146.76   26.15
  -7   7   3  155.42   24.30
   7   7   3  167.09   19.66
  -7   7  -4    2.24    2.12
  -7   7   4    9.64    4.01
   7   7   4   10.24    4.51
   7  -7  -4    0.15    2.07
  -7   7  -5   24.01    6.79
  -7   7   5   25.81    8.12
   7   7   5   35.49    9.29
   7  -7  -5   48.13    6.51
  -7  -7  -5   33.42    8.62
  -7   7  -6   10.52    3.70
  -7   7   6   10.40    3.58
   7   7   6   12.48    5.73
   7  -7  -6   12.98    4.12
  -7  -7  -6   12.35    4.80
  -7   7  -7   61.37   14.26
  -7   7   7   83.84   15.35
   7   7   7   98.83   11.68
   7  -7  -7  106.82   11.30
  -7  -7  -7  104.95   11.20
  -7   7  -8    5.01    2.56
  -7   7   8    7.28    3.58
   7   7   8    7.54    4.05
   7  -7  -8    8.92    3.64
  -7  -7  -8    5.27    3.91
  -7   7  -9   14.46    4.99
  -7   7   9   22.00    5.76
   7   7   9   13.84    5.25
   7  -7  -9    9.69    5.02
  -7  -7  -9   34.97    7.16
  -7   7 -10    5.56    1.78
  -7   7  10    7.67    2.65
   7   7  10    2.67    3.75
   7  -7 -10   19.69    5.59
  -7   7 -11    6.58    2.52
  -7   7  11    8.21    3.56
   7   7  11   15.01    6.00
   7  -7 -11    6.29    3.96
  -7   7 -12    9.54    3.93
  -7   7  12   10.34    4.81
   7   7  12   34.03    8.09
   7  -7 -12   23.36    6.67
  -7   8   0    8.78    3.65
   7   8   0    7.05    3.42
  -7   8  -1   33.71    7.76
  -7   8   1   38.25    7.61
   7   8  -1   25.04    5.71
   7   8   1   21.51    5.28
  -7   8  -2   17.10    4.73
  -7   8   2   13.41    4.36
   7   8   2    9.47    3.34
  -7   8  -3    7.30    2.49
  -7   8   3   10.54    4.69
   7   8   3   10.61    3.71
  -7   8  -4   73.78   15.42
  -7   8   4   79.28   10.76
   7   8   4   50.32    7.80
  -7   8  -5   12.06    4.10
  -7   8   5   14.04    4.74
   7   8   5   14.91    5.21
  -7  -8  -5   13.22    5.28
  -7   8  -6   24.90    9.42
  -7   8   6   40.37   11.51
   7   8   6   24.92    6.61
   7  -8  -6   49.71    8.46
  -7  -8  -6   58.60   10.46
  -7   8  -7    6.70    1.91
  -7   8   7    6.17    3.92
   7   8   7    9.36    4.31
   7  -8  -7    0.64    2.65
  -7  -8  -7    8.82    4.38
  -7   8  -8    8.28    3.08
  -7   8   8    0.68    2.97
   7   8   8   16.91    5.34
   7  -8  -8    1.09    2.50
  -7  -8  -8    3.17    2.87
  -7   8  -9    4.18    3.14
  -7   8   9   13.30    4.02
   7   8   9    4.44    4.58
   7  -8  -9   17.98    5.64
  -7  -8  -9   14.68    5.74
  -7   8 -10    9.55    3.55
  -7   8  10   18.43    6.42
   7   8  10   11.21    4.51
   7  -8 -10   12.96    4.99
  -7  -8 -10   16.80    5.93
  -7   9   0   31.50    6.34
  -7   9  -1   45.05    8.49
  -7   9   1   45.34    8.84
   7   9   1   23.48    6.61
  -7   9  -2   27.74    8.73
  -7   9   2   36.29    7.35
   7   9   2   25.31    5.66
  -7   9  -3   36.84    8.33
  -7   9   3   35.18    7.98
   7   9   3   20.33    5.50
  -7   9  -4    8.77    2.98
  -7   9   4    4.85    2.37
   7   9   4   10.41    5.34
  -7  -9  -4    5.91    3.47
  -7   9  -5    5.21    2.48
  -7   9   5   13.46    4.81
   7   9   5    2.56    4.02
  -7  -9  -5   10.62    5.13
  -7   9  -6   62.72   13.12
  -7   9   6   51.76   10.22
   7   9   6   41.08    7.91
  -7  -9  -6   59.82   10.60
   8   0   0   15.92    6.75
   8   0   1  138.75   15.20
   8   0  -1  163.86   17.68
   8   0   2  139.17   15.62
   8   0  -2  143.55   14.89
   8   0   3  121.16   13.67
   8   0  -3  145.11   13.29
   8   0   4   51.72    7.69
   8   0  -4   32.53    7.61
   8   0   5   19.71    7.60
   8   0   6   35.11    6.72
   8   0  -6   26.16    6.06
   8   0   7    5.15    4.24
   8   0  -7   -0.82    1.97
  -8   0   8    6.27    1.89
   8   0   8   23.12    8.10
   8   0  -8   15.57    4.88
   8   0   9   83.33   12.81
   8   0  -9   42.71   11.07
   8   0  10   11.41    5.74
   8   0 -10   14.32    6.60
   8   0  11  258.04   25.79
   8   0 -11  240.02   24.73
   8   0  12  325.45   31.29
   8   0 -12  292.41   27.03
   8   0  13   13.13    5.72
   8   0 -13   15.11    4.08
   8   0  14   67.82   10.54
   8   0 -14   39.67   17.19
   8   0  15   13.74    8.09
   8   0 -15    5.18    2.25
  -8   1   0    8.91    3.18
   8   1   0    8.10    5.43
  -8   1   1   19.97    4.90
   8   1  -1    8.95    3.11
   8   1   1   19.25    6.59
  -8   1   2   11.14    3.34
   8   1  -2   15.69    4.52
   8   1   2   22.37    6.21
   8  -1   2   20.03    6.60
  -8   1   3   64.47   16.63
   8   1   3  139.68   14.03
   8   1  -3  130.06   12.26
   8  -1   3  101.83   11.06
  -8   1   4  306.88   23.88
   8   1   4  217.22   20.01
   8   1  -4  215.32   18.86
   8  -1   4  218.07   19.02
   8  -1  -4  179.08   14.02
  -8   1   5   77.49   19.35
   8   1   5   95.59   11.18
   8  -1   5  110.40   12.70
   8   1  -5   76.33    7.91
   8  -1  -5   63.05    9.43
  -8   1   6   58.95   16.37
   8   1   6   62.97    8.95
   8  -1   6   55.19    8.34
   8   1  -6   68.47    7.24
   8  -1  -6   43.51   11.25
  -8   1   7   36.67    7.47
   8   1   7   40.26    7.52
   8  -1   7   30.01    8.60
   8   1  -7   21.29    5.34
   8  -1  -7   21.52    5.72
  -8   1   8   17.43    4.60
   8   1   8   29.42    8.80
   8  -1   8   31.92    9.98
   8  -1  -8    4.43    2.22
  -8   1   9   39.87    9.64
   8   1   9   88.72   14.54
   8  -1   9   82.08   12.46
   8   1  -9   57.02    7.65
   8  -1  -9   41.53   11.23
   8   1  10   77.47   11.69
   8  -1  10   63.59   10.62
   8   1 -10   59.48   10.45
   8  -1 -10   49.39   13.18
   8   1  11    4.63    4.13
   8  -1  11   35.32    9.36
   8   1 -11    7.20    5.04
   8  -1 -11    6.94    2.49
   8   1  12   41.12    9.28
   8  -1  12   50.15   10.79
   8   1 -12   29.49   11.24
   8  -1 -12   44.52   14.80
   8   1  13    8.57    5.03
   8  -1  13   19.20    6.79
   8   1 -13    8.95    4.11
   8  -1 -13   10.73    3.10
   8   1  14  105.40   13.89
   8  -1  14   89.36   14.46
   8  -1 -14   70.82   22.50
  -8   2   0   12.75    4.42
   8   2   0   24.93    7.00
  -8   2   1  136.78   19.55
  -8   2  -1  121.93   27.44
   8   2   1  117.29   13.05
   8   2  -1  112.31   11.60
  -8   2  -2   30.09    7.60
  -8   2   2   38.05   10.44
   8   2   2   34.57    8.58
   8   2  -2   40.07    9.32
  -8   2  -3   15.83    4.20
  -8   2   3   17.28    4.58
   8   2   3   24.10    7.84
   8   2  -3   17.87    5.09
   8  -2  -3   15.06    4.93
  -8   2   4  179.99   15.26
   8   2   4  191.99   17.61
   8   2  -4  174.72   15.13
   8  -2  -4  131.89   13.93
  -8   2   5   21.95    7.08
   8   2   5   26.35    8.21
   8   2  -5   28.36    6.76
   8  -2  -5   20.22    6.20
  -8   2   6   24.80    7.45
   8   2   6   51.84    9.00
   8   2  -6   32.47    7.42
   8  -2   6   24.67    7.10
   8  -2  -6   23.18    6.28
  -8   2   7    7.32    2.00
   8   2   7   21.18    6.47
   8  -2   7   16.38    5.29
   8  -2  -7   11.26    3.43
  -8   2   8   20.76    6.05
   8   2   8   33.81   10.47
   8  -2   8   21.30    5.77
   8  -2  -8   26.29    7.94
  -8   2   9    4.81    1.75
   8   2   9    6.36    4.29
   8  -2   9   16.32    7.04
   8  -2  -9   10.48    5.61
  -8   2  10    5.86    2.60
   8   2  10    8.44    4.80
   8  -2  10   12.44    6.14
   8  -2 -10    5.77    2.69
   8   2  11    9.67    4.66
   8  -2  11    3.96    5.00
   8  -2 -11    6.43    2.74
   8   2  12  288.42   44.66
   8  -2  12  334.16   57.51
   8  -2 -12  289.59   43.40
   8   2  13    8.06    4.62
   8  -2  13   11.93    5.52
   8   2 -13   14.11    4.97
   8  -2 -13   11.53    3.37
   8  -2  14  135.63   21.85
   8   2 -14  154.28   22.52
   8  -2 -14  113.80   24.57
  -8   3   0   82.96   20.82
   8   3   0   95.35    9.85
  -8   3   1   50.96   13.16
  -8   3  -1   39.86   13.07
   8   3  -1   31.27    7.17
   8   3   1   43.50    6.08
  -8   3  -2   15.59    4.80
  -8   3   2    9.78    3.81
   8   3  -2   10.83    4.58
   8   3   2   10.55    5.44
  -8   3  -3   70.13   18.57
  -8   3   3   59.17   14.51
   8   3  -3   65.46    7.82
   8   3   3   59.44    7.55
  -8   3  -4   13.19    4.86
  -8   3   4    7.00    2.84
   8   3  -4    4.08    3.04
   8   3   4    7.61    3.76
   8  -3  -4    3.47    1.48
  -8   3  -5   86.66    8.14
  -8   3   5   68.51   11.74
   8   3   5   92.50   10.53
   8   3  -5   66.30    6.89
   8  -3  -5   57.87   13.70
  -8   3  -6   59.51    7.77
  -8   3   6   53.56   12.30
   8   3   6   41.76    7.39
   8  -3  -6   66.53   10.38
  -8   3   7    6.06    2.18
   8   3   7   10.59    4.82
   8  -3  -7    8.10    2.92
  -8   3   8   55.91   11.98
   8   3   8   48.46    8.08
   8  -3   8   68.03   10.03
   8  -3  -8   53.89   12.83
  -8   3   9   53.51   10.73
   8   3   9   36.08    8.33
   8  -3   9   68.27   10.58
   8  -3  -9   36.88   11.15
  -8   3  10   66.41   12.49
   8   3  10   73.28   10.37
   8  -3  10  111.39   13.92
   8  -3 -10   42.61   12.70
  -8   3  11   83.58   18.12
   8   3  11   64.68   12.00
   8  -3  11  120.14   20.98
   8  -3 -11   69.53   19.74
   8   3  12   13.79    5.31
   8  -3  12   35.60    8.22
   8  -3 -12   31.72    8.91
   8   3  13   32.66    7.37
   8  -3  13   92.04   13.13
   8  -3 -13   52.68   19.26
   8  -3  14   67.25   13.28
   8  -3 -14   56.10   19.73
  -8   4   0   89.03   15.03
   8   4   0   96.14    9.69
  -8   4  -1  464.44   85.40
  -8   4   1  424.35   29.97
   8   4   1  425.98   31.22
   8   4  -1  417.04   30.95
  -8   4  -2  177.46   19.15
  -8   4   2  187.99   15.84
   8   4   2  217.06   18.29
   8   4  -2  237.63   18.60
  -8   4  -3   22.24    6.45
  -8   4   3   17.29    4.96
   8   4   3   17.60    5.99
   8   4  -3    9.16    3.55
  -8   4  -4  173.83   30.36
  -8   4   4  137.64   19.22
   8   4   4  122.43   15.72
   8   4  -4   95.94   12.00
  -8   4  -5   12.78    4.01
  -8   4   5   13.04    3.69
   8   4   5    7.99    3.99
   8  -4  -5   10.32    3.80
  -8   4  -6   71.29   21.01
  -8   4   6   84.67   16.83
   8   4   6  119.11   15.48
   8  -4  -6   68.41   11.29
  -8   4  -7  113.02   11.58
  -8   4   7   88.66   18.27
   8   4   7  111.73   14.69
   8  -4  -7   96.16   14.98
  -8   4  -8   21.77    5.63
  -8   4   8   22.12    6.65
   8   4   8   15.20    5.69
   8  -4  -8   20.58    8.67
  -8   4   9  295.81   29.92
   8   4   9  293.67   28.75
   8  -4  -9  280.42   25.46
  -8   4  10   34.74    7.76
   8   4  10   16.99    6.52
   8  -4  10   48.05   10.93
   8  -4 -10   27.67   10.66
  -8   4  11  110.38   22.91
   8  -4  11  138.65   18.24
   8  -4 -11  113.69   17.58
  -8   4  12   86.72   18.12
   8   4  12   90.36   12.88
   8  -4  12  109.18   14.90
   8  -4 -12   96.04   16.53
   8   4  13    3.79    4.65
   8  -4  13   19.59    7.57
   8  -4 -13   15.76    7.07
  -8   5   0   10.51    2.88
   8   5   0   10.43    4.23
  -8   5  -1   82.99   19.53
  -8   5   1   96.24   20.72
   8   5  -1   86.13   11.21
   8   5   1  104.23   13.18
  -8   5  -2   17.77    4.49
  -8   5   2   20.45    5.46
   8   5  -2   37.11    6.10
   8   5   2   20.98    6.28
  -8   5  -3   11.11    4.77
  -8   5   3   15.81    4.79
   8   5  -3   10.20    3.62
   8   5   3   25.01    7.64
  -8   5  -4   21.01    6.03
  -8   5   4   16.16    4.67
   8   5   4   20.43    6.51
  -8   5  -5    2.69    2.67
  -8   5   5    5.72    2.65
  -8   5  -6   67.62   17.05
  -8   5   6   80.44   15.22
   8   5   6   38.53    6.48
  -8   5  -7   45.89   11.80
  -8   5   7   34.05    7.11
   8   5   7   20.12    5.99
   8  -5  -7   27.92    8.20
  -8   5  -8   33.92   11.56
  -8   5   8   82.60   19.50
   8   5   8   60.28   11.97
   8  -5  -8   47.53   13.28
  -8   5  -9    4.70    2.32
  -8   5   9   -0.83    2.40
   8   5   9    9.08    4.42
   8  -5  -9    0.83    2.14
  -8   5 -10    8.44    3.52
  -8   5  10   16.19    5.18
   8   5  10   13.43    4.82
   8  -5 -10    4.41    3.84
  -8   5  11    9.59    3.50
   8   5  11   28.67    7.34
   8  -5 -11   19.69    8.14
  -8   6   0  295.38   28.31
   8   6   0  252.90   23.81
  -8   6  -1   10.64    3.56
  -8   6   1    7.00    2.32
   8   6   1    8.16    3.89
   8   6  -1    5.58    2.41
  -8   6  -2   57.58   12.69
  -8   6   2   53.44   13.86
   8   6   2   33.42    5.64
  -8   6  -3   69.63   16.89
  -8   6   3   54.60   14.25
   8   6   3   87.13   10.21
  -8   6  -4   72.50   17.14
  -8   6   4  118.52   16.10
   8   6   4   84.77   10.85
  -8   6  -5   44.55   14.89
  -8   6   5   71.86   18.76
   8   6   5   65.42   12.59
  -8   6  -6   82.81   23.86
  -8   6   6  104.68   25.97
   8   6   6  121.81   20.48
  -8   6  -7   14.15    5.30
  -8   6   7   14.18    5.99
   8   6   7   29.78    7.14
  -8   6  -8   22.30    6.83
  -8   6   8   25.39    6.15
   8   6   8   17.56    5.88
  -8   6  -9   15.67    5.14
  -8   6   9   27.74    7.18
   8   6   9   13.26    4.89
  -8   6 -10   37.78    6.37
  -8   6  10   36.58    8.75
   8   6  10   18.58    6.85
   8  -6 -10   33.12   11.91
  -8   7   0  137.41   28.73
   8   7   0  149.00   23.17
  -8   7  -1   12.77    4.40
  -8   7   1   10.78    3.60
   8   7   1   21.31    6.05
  -8   7  -2    0.48    2.30
  -8   7   2    6.71    2.70
   8   7   2   10.65    4.85
  -8   7  -3   29.47    7.40
  -8   7   3   16.89    7.21
   8   7   3    9.67    3.85
  -8   7  -4   20.39    4.54
  -8   7   4   15.55    6.41
   8   7   4    8.80    3.72
  -8  -7  -4   11.70    4.21
  -8   7  -5   27.12    7.95
  -8   7   5   38.74    8.52
   8   7   5   35.52    7.51
  -8  -7  -5   40.44    6.47
  -8   7  -6   12.45    4.30
  -8   7   6    8.42    4.07
   8   7   6    4.27    3.31
  -8   7  -7   50.08   11.35
  -8   7   7   65.77   12.15
   8   7   7   27.50    6.49
  -8   8   0   26.36    6.52
  -8   8   1   25.63    6.48
  -8   8  -1   13.58    5.80
  -8   8  -2   11.58    3.55
  -8   8   2   17.41    6.42
   8   8   2    0.93    2.35
  -8   8  -3   10.87    3.92
  -8   8   3   20.14    6.58
   9   0   0    6.79    4.37
   9   0  -1   18.70    5.94
   9   0   1   14.92    5.52
   9   0   2   61.36    8.95
   9   0  -2   39.79    6.94
   9   0   3  102.81   12.99
   9   0  -3  121.74   14.08
   9   0   4   16.51    7.16
   9   0  -4   16.42    5.68
   9   0   5   23.81    7.93
   9   0  -5   28.97    7.10
   9   0   6   15.05    7.11
   9   0  -6    5.72    3.15
   9   0   7  105.12   17.89
   9   0   8    1.29    4.55
   9   0   9    9.29    5.00
   9   0  10   23.24    7.99
   9   0 -10    6.72    3.36
   9   0  11   16.96    6.83
   9   0 -11    8.70    4.16
   9   1   0   55.00    8.46
   9  -1   0   38.65    6.96
   9   1   1   77.69   10.53
   9   1  -1   62.50    8.81
   9  -1  -1   54.58    8.23
   9  -1   1   66.60   10.17
   9   1   2  121.36   14.78
   9   1  -2  113.88   13.03
   9  -1   2  108.64   13.32
   9   1   3   24.16    7.41
   9   1  -3   28.05    8.13
   9  -1   3   20.16    6.71
  -9   1   4   68.19    7.12
   9   1   4   94.49   13.41
   9   1  -4   63.24    7.86
   9  -1   4   57.91    9.01
  -9   1   5    3.26    2.15
   9   1   5   11.18    6.74
   9   1  -5    3.87    2.69
   9  -1   5    7.21    5.11
  -9   1   6   25.74    5.21
   9   1   6   40.01    8.09
   9  -1   6   24.71    7.03
  -9   1   7   18.27    4.47
   9   1   7   18.51    8.29
   9  -1   7    5.67    4.45
   9   1   8   11.23    6.38
   9  -1   8   22.16    6.81
   9  -1  -8    6.23    4.79
   9   1   9   12.56    5.09
   9  -1   9   22.47    8.41
   9  -1  -9   20.69    8.84
   9   1  10   65.05   12.05
   9  -1  10   20.86    7.18
   9  -1 -10   15.49    6.46
  -9   2   0  277.59   25.85
   9   2   0  356.73   34.49
  -9   2  -1   57.44    7.44
  -9   2   1   46.88    6.21
   9   2  -1   43.12    6.88
   9   2   1   50.66    8.33
  -9   2   2  197.71   17.97
   9   2  -2  210.10   20.56
   9   2   2  231.45   23.53
  -9   2   3   10.61    4.21
   9   2  -3   19.09    5.42
   9  -2   3    2.18    4.59
  -9   2   4   19.52    4.82
   9   2  -4   20.30    5.51
   9   2   4   16.05    5.89
   9  -2   4    3.97    4.57
  -9   2   5   95.42   24.28
   9   2   5   92.03   13.29
   9  -2   5  112.08   13.36
  -9   2   6   10.54    3.98
   9   2   6    5.47    4.11
   9  -2   6   30.31    9.20
  -9   2   7   16.12    6.54
   9   2   7   25.44    7.92
   9  -2   7   45.48    9.97
  -9   2   8   45.71   17.31
   9   2   8   51.04    9.18
   9  -2   8   52.52    9.93
   9   2   9   11.69    5.08
   9  -2   9   10.85    4.92
   9  -2  -9   11.58    5.30
   9  -2  10  123.24   19.13
   9  -2 -10   46.30   19.99
  -9   3   0   72.60   20.57
   9   3   0   50.88    6.97
  -9   3   1   40.83    7.24
  -9   3  -1   39.31   11.77
   9   3  -1   33.95    5.84
   9   3   1   27.88    7.34
  -9   3  -2   15.63    4.38
  -9   3   2   39.91   12.93
   9   3   2   27.40    7.66
   9   3  -2   12.79    3.93
  -9   3  -3   17.50    4.38
  -9   3   3   31.09   10.52
   9   3   3   17.97    5.79
   9   3  -3   16.91    4.79
  -9   3  -4   20.39    5.26
  -9   3   4   33.10    9.29
   9   3   4   46.18    9.52
  -9   3   5    8.54    2.55
   9   3   5    3.94    3.25
  -9   3   6    9.56    3.01
   9   3   6   14.18    5.93
   9  -3   6    8.52    5.10
  -9   3   7   12.05    3.61
   9   3   7    9.80    4.12
   9  -3   7   21.40    7.97
  -9   3   8   83.03   15.70
   9   3   8   86.41   12.59
   9  -3   8  115.97   15.32
  -9   3   9    3.94    1.97
   9   3   9   22.24    7.47
   9  -3   9   14.01    6.07
  -9   4   0  217.44   32.71
   9   4   0  163.55   25.89
  -9   4  -1   36.84   11.88
  -9   4   1   30.56   11.67
   9   4   1   35.80    7.98
   9   4  -1   26.07    6.69
  -9   4  -2   21.91    6.60
  -9   4   2   11.82    4.14
   9   4   2   19.45    6.21
   9   4  -2   16.71    5.12
  -9   4  -3  355.53   59.64
  -9   4   3  243.20   37.16
   9   4   3  264.16   41.09
  -9   4  -4   24.38    9.21
  -9   4   4   17.57    5.95
   9   4   4   24.68    6.96
  -9   4  -5   10.47    3.09
  -9   4   5   10.65    3.61
   9   4   5    2.17    4.60
  -9   4  -6    6.92    3.23
  -9   4   6    6.03    1.92
   9   4   6    7.05    4.92
  -9   4   7   55.46   16.51
   9   4   7   73.85   12.86
  -9   4   8    2.61    1.46
   9   4   8    6.58    3.99
   9  -4   8   11.73    5.80
  -9   5   0    7.48    3.20
   9   5   0    4.20    2.86
  -9   5  -1   74.79   20.13
  -9   5   1   59.67   16.22
   9   5   1   70.31   10.28
  -9   5  -2   15.67    5.99
  -9   5   2   13.26    5.87
   9   5   2    4.12    3.01
  -9   5  -3   11.76    4.64
  -9   5   3   25.39    7.38
   9   5   3    8.94    3.59
  -9   5  -4    5.14    2.24
  -9   5   4    1.19    1.59
   9   5   4    6.88    3.70
  -9   5  -5   63.80   20.37
  -9   5   5   48.95   17.56
   9   5   5   42.58    9.67
  -9   5  -6    7.26    3.35
  -9   5   6   13.74    4.32
   9   5   6    6.62    3.76
  -9   6   0   57.18   15.19
  -9   6  -1   39.36   11.14
  -9   6   1   36.37   11.10
  10   0   0   81.01   13.31
  10   0  -1   32.83    8.30
  10   0   1   16.31    5.96
  10   0  -2  114.23   18.16
  10   0   2   52.42    9.77
  10   1   0   27.19    7.11
  10  -1   0   30.05    7.37
  10   1  -1   13.39    5.92
  10   1   1    9.81    6.89
  10  -1  -1    4.54    4.01
  10  -1   1    7.02    5.94
  10   1   2   52.43   10.46
  10  -1  -2   59.24   11.26
  10  -1   2   68.40   13.22

_computing_structure_solution     'SHELXT 2014/4 (Sheldrick, 2014)'
;
_shelx_hkl_checksum              87619
_shelx_shelxl_version_number     2014/7
_olex2_submission_special_instructions 'No special instructions were received'
loop_
_space_group_symop_operation_xyz
'x, y, z'
'-x+1/2, -y, z+1/2'
'-x, y+1/2, -z+1/2'
'x+1/2, -y+1/2, -z'
loop_
_atom_site_label
_atom_site_type_symbol
_atom_site_fract_x
_atom_site_fract_y
_atom_site_fract_z
_atom_site_U_iso_or_equiv
_atom_site_adp_type
_atom_site_occupancy
_atom_site_site_symmetry_order
_atom_site_calc_flag
_atom_site_refinement_flags_posn
S1 S 0.60227(11) 0.60802(8) 0.55001(4) 0.0247(2) Uani 1 1 d .
O1 O 0.0924(4) 0.3283(2) 0.54809(15) 0.0347(6) Uani 1 1 d .
O2 O 0.2825(4) 0.2827(2) 0.43530(15) 0.0342(6) Uani 1 1 d .
O3 O 0.7054(3) 0.5059(3) 0.52237(14) 0.0332(6) Uani 1 1 d .
O4 O 0.6427(4) 0.7399(2) 0.53312(14) 0.0366(7) Uani 1 1 d .
N1 N 0.4074(4) 0.5875(3) 0.52438(16) 0.0249(6) Uani 1 1 d .
C1 C 0.3283(5) 0.4590(3) 0.52096(19) 0.0241(7) Uani 1 1 d .
H1B H 0.3964 0.3997 0.5497 0.029 Uiso 1 1 calc R
C2 C 0.1432(4) 0.4619(3) 0.5492(2) 0.0245(7) Uani 1 1 d .
H2A H 0.0700 0.5109 0.5170 0.029 Uiso 1 1 calc R
C3 C 0.3361(5) 0.4140(3) 0.44500(18) 0.0269(7) Uani 1 1 d .
H3A H 0.2633 0.4695 0.4169 0.032 Uiso 1 1 calc R
H3B H 0.4534 0.4232 0.4282 0.032 Uiso 1 1 calc R
C4 C 0.1291(4) 0.5189(3) 0.62153(18) 0.0244(7) Uani 1 1 d .
C5 C 0.0571(5) 0.6419(3) 0.63061(19) 0.0281(8) Uani 1 1 d .
H5 H 0.0177 0.6878 0.5921 0.034 Uiso 1 1 calc R
C6 C 0.0446(5) 0.6949(4) 0.6967(2) 0.0339(9) Uani 1 1 d .
H6 H -0.0033 0.7765 0.7022 0.041 Uiso 1 1 calc R
C7 C 0.1022(5) 0.6287(4) 0.7543(2) 0.0377(9) Uani 1 1 d .
H7 H 0.0936 0.6651 0.7985 0.045 Uiso 1 1 calc R
C8 C 0.1739(6) 0.5061(4) 0.7458(2) 0.0364(9) Uani 1 1 d .
H8 H 0.2140 0.4608 0.7845 0.044 Uiso 1 1 calc R
C9 C 0.1850(5) 0.4521(3) 0.6799(2) 0.0308(8) Uani 1 1 d .
H9 H 0.2306 0.3698 0.6747 0.037 Uiso 1 1 calc R
C10 C 0.6076(5) 0.5930(3) 0.64132(17) 0.0226(7) Uani 1 1 d .
C11 C 0.6797(5) 0.4847(3) 0.67198(19) 0.0251(7) Uani 1 1 d .
H11 H 0.7213 0.4176 0.6445 0.030 Uiso 1 1 calc R
C12 C 0.6889(5) 0.4778(3) 0.7443(2) 0.0285(8) Uani 1 1 d .
H12 H 0.7377 0.4053 0.7650 0.034 Uiso 1 1 calc R
C13 C 0.6269(5) 0.5763(3) 0.78662(18) 0.0282(8) Uani 1 1 d .
C14 C 0.5515(5) 0.6823(4) 0.7545(2) 0.0308(8) Uani 1 1 d .
H14 H 0.5059 0.7478 0.7821 0.037 Uiso 1 1 calc R
C15 C 0.5425(5) 0.6930(3) 0.68239(19) 0.0276(8) Uani 1 1 d .
H15 H 0.4938 0.7656 0.6617 0.033 Uiso 1 1 calc R
C16 C 0.6404(6) 0.5687(4) 0.8647(2) 0.0436(11) Uani 1 1 d .
H16A H 0.6704 0.4824 0.8781 0.065 Uiso 1 1 calc GR
H16B H 0.5317 0.5916 0.8852 0.065 Uiso 1 1 calc GR
H16C H 0.7278 0.6272 0.8807 0.065 Uiso 1 1 calc GR
H1 H -0.022(7) 0.319(4) 0.552(3) 0.055(14) Uiso 1 1 d .
H2 H 0.210(7) 0.267(5) 0.472(3) 0.059(15) Uiso 1 1 d .
H1A H 0.360(6) 0.651(4) 0.516(2) 0.047(14) Uiso 1 1 d .
loop_
_atom_site_aniso_label
_atom_site_aniso_U_11
_atom_site_aniso_U_22
_atom_site_aniso_U_33
_atom_site_aniso_U_23
_atom_site_aniso_U_13
_atom_site_aniso_U_12
S1 0.0234(4) 0.0243(4) 0.0263(4) 0.0033(3) 0.0009(4) -0.0036(3)
O1 0.0332(15) 0.0236(11) 0.0475(16) -0.0091(12) 0.0068(15) -0.0082(11)
O2 0.0352(15) 0.0269(13) 0.0405(16) -0.0124(12) -0.0011(13) 0.0003(11)
O3 0.0249(14) 0.0432(15) 0.0314(14) -0.0043(12) 0.0044(12) 0.0058(12)
O4 0.0401(17) 0.0316(13) 0.0382(15) 0.0139(12) 0.0000(12) -0.0143(12)
N1 0.0257(16) 0.0188(14) 0.0303(14) 0.0056(11) -0.0025(13) -0.0005(12)
C1 0.0254(17) 0.0178(15) 0.0293(17) 0.0007(13) -0.0015(15) 0.0000(13)
C2 0.0242(18) 0.0205(14) 0.0289(17) -0.0008(14) -0.0032(15) -0.0027(12)
C3 0.0276(18) 0.0258(16) 0.0274(16) -0.0043(14) -0.0024(15) 0.0003(13)
C4 0.0213(18) 0.0236(15) 0.0284(17) 0.0011(13) 0.0020(14) -0.0030(13)
C5 0.0265(19) 0.0246(17) 0.0333(18) 0.0014(14) 0.0016(16) -0.0001(14)
C6 0.034(2) 0.0271(17) 0.040(2) -0.0092(16) 0.0033(17) -0.0010(15)
C7 0.039(2) 0.042(2) 0.0316(18) -0.0099(17) 0.0088(19) -0.013(2)
C8 0.039(2) 0.042(2) 0.0288(19) 0.0091(17) -0.0044(17) -0.0098(18)
C9 0.033(2) 0.0271(17) 0.033(2) 0.0023(15) -0.0022(17) -0.0027(16)
C10 0.0200(16) 0.0187(14) 0.0289(16) 0.0017(12) -0.0024(14) -0.0021(14)
C11 0.0285(19) 0.0173(14) 0.0296(18) 0.0004(13) 0.0012(15) 0.0004(14)
C12 0.030(2) 0.0233(16) 0.0319(19) 0.0075(14) -0.0023(16) 0.0005(15)
C13 0.026(2) 0.0307(18) 0.0278(17) -0.0014(14) -0.0035(15) -0.0075(14)
C14 0.032(2) 0.0263(17) 0.0342(19) -0.0082(15) -0.0012(17) 0.0036(15)
C15 0.029(2) 0.0187(15) 0.0351(19) -0.0017(14) -0.0039(16) 0.0008(14)
C16 0.046(3) 0.056(3) 0.029(2) -0.0001(18) -0.0057(19) -0.002(2)
loop_
_atom_type_symbol
_atom_type_description
_atom_type_scat_dispersion_real
_atom_type_scat_dispersion_imag
_atom_type_scat_source
C C 0.0033 0.0016 'International Tables Vol C Tables 4.2.6.8 and 6.1.1.4'
H H 0.0000 0.0000 'International Tables Vol C Tables 4.2.6.8 and 6.1.1.4'
N N 0.0061 0.0033 'International Tables Vol C Tables 4.2.6.8 and 6.1.1.4'
O O 0.0106 0.0060 'International Tables Vol C Tables 4.2.6.8 and 6.1.1.4'
S S 0.1246 0.1234 'International Tables Vol C Tables 4.2.6.8 and 6.1.1.4'
loop_
_geom_angle_atom_site_label_1
_geom_angle_atom_site_label_2
_geom_angle_atom_site_label_3
_geom_angle
O3 S1 O4 119.95(18)
O3 S1 N1 108.45(16)
O3 S1 C10 106.82(16)
O4 S1 N1 105.23(16)
O4 S1 C10 107.62(15)
N1 S1 C10 108.36(17)
C2 O1 H1 112(3)
C3 O2 H2 104(3)
S1 N1 H1A 113(4)
C1 N1 S1 121.9(2)
C1 N1 H1A 125(4)
N1 C1 H1B 108.6
N1 C1 C2 111.0(3)
N1 C1 C3 107.7(3)
C2 C1 H1B 108.6
C3 C1 H1B 108.6
C3 C1 C2 112.2(3)
O1 C2 C1 103.4(3)
O1 C2 H2A 109.4
O1 C2 C4 111.7(3)
C1 C2 H2A 109.4
C4 C2 C1 113.5(3)
C4 C2 H2A 109.4
O2 C3 C1 113.7(3)
O2 C3 H3A 108.8
O2 C3 H3B 108.8
C1 C3 H3A 108.8
C1 C3 H3B 108.8
H3A C3 H3B 107.7
C5 C4 C2 119.9(3)
C9 C4 C2 121.4(3)
C9 C4 C5 118.7(3)
C4 C5 H5 119.9
C6 C5 C4 120.2(3)
C6 C5 H5 119.9
C5 C6 H6 119.6
C7 C6 C5 120.8(4)
C7 C6 H6 119.6
C6 C7 H7 120.3
C6 C7 C8 119.5(4)
C8 C7 H7 120.3
C7 C8 H8 120.0
C9 C8 C7 119.9(4)
C9 C8 H8 120.0
C4 C9 H9 119.5
C8 C9 C4 120.9(4)
C8 C9 H9 119.5
C11 C10 S1 120.2(3)
C11 C10 C15 120.7(3)
C15 C10 S1 119.1(3)
C10 C11 H11 120.5
C10 C11 C12 119.0(3)
C12 C11 H11 120.5
C11 C12 H12 119.2
C11 C12 C13 121.7(3)
C13 C12 H12 119.2
C12 C13 C16 121.1(3)
C14 C13 C12 118.1(3)
C14 C13 C16 120.8(3)
C13 C14 H14 119.2
C15 C14 C13 121.6(3)
C15 C14 H14 119.2
C10 C15 H15 120.6
C14 C15 C10 118.9(3)
C14 C15 H15 120.6
C13 C16 H16A 109.5
C13 C16 H16B 109.5
C13 C16 H16C 109.5
H16A C16 H16B 109.5
H16A C16 H16C 109.5
H16B C16 H16C 109.5
loop_
_geom_bond_atom_site_label_1
_geom_bond_atom_site_label_2
_geom_bond_distance
S1 O3 1.429(3)
S1 O4 1.441(3)
S1 N1 1.604(3)
S1 C10 1.755(4)
O1 C2 1.441(4)
O1 H1 0.89(5)
O2 C3 1.436(4)
O2 H2 0.92(5)
N1 C1 1.468(4)
N1 H1A 0.78(5)
C1 H1B 0.9800
C1 C2 1.534(5)
C1 C3 1.528(5)
C2 H2A 0.9800
C2 C4 1.510(5)
C3 H3A 0.9700
C3 H3B 0.9700
C4 C5 1.403(5)
C4 C9 1.384(5)
C5 H5 0.9300
C5 C6 1.382(5)
C6 H6 0.9300
C6 C7 1.373(6)
C7 H7 0.9300
C7 C8 1.397(6)
C8 H8 0.9300
C8 C9 1.382(6)
C9 H9 0.9300
C10 C11 1.385(5)
C10 C15 1.397(5)
C11 H11 0.9300
C11 C12 1.388(5)
C12 H12 0.9300
C12 C13 1.390(5)
C13 C14 1.389(5)
C13 C16 1.500(5)
C14 H14 0.9300
C14 C15 1.387(5)
C15 H15 0.9300
C16 H16A 0.9600
C16 H16B 0.9600
C16 H16C 0.9600
loop_
_geom_hbond_atom_site_label_D
_geom_hbond_atom_site_label_H
_geom_hbond_atom_site_label_A
_geom_hbond_distance_DH
_geom_hbond_distance_HA
_geom_hbond_distance_DA
_geom_hbond_angle_DHA
_geom_hbond_site_symmetry_A
O1 H1 O2 0.89(5) 1.87(5) 2.684(4) 151(4) 4_456
O2 H2 O1 0.92(5) 1.82(5) 2.657(4) 149(5) .
N1 H1A O4 0.78(5) 2.23(5) 2.938(4) 152(5) 4_466
loop_
_geom_torsion_atom_site_label_1
_geom_torsion_atom_site_label_2
_geom_torsion_atom_site_label_3
_geom_torsion_atom_site_label_4
_geom_torsion
S1 N1 C1 C2 137.4(3)
S1 N1 C1 C3 -99.5(3)
S1 C10 C11 C12 177.3(3)
S1 C10 C15 C14 -178.2(3)
O1 C2 C4 C5 -136.3(3)
O1 C2 C4 C9 43.3(5)
O3 S1 N1 C1 39.4(3)
O3 S1 C10 C11 -9.4(3)
O3 S1 C10 C15 169.0(3)
O4 S1 N1 C1 168.9(3)
O4 S1 C10 C11 -139.4(3)
O4 S1 C10 C15 38.9(3)
N1 S1 C10 C11 107.3(3)
N1 S1 C10 C15 -74.4(3)
N1 C1 C2 O1 -174.8(3)
N1 C1 C2 C4 -53.6(4)
N1 C1 C3 O2 172.7(3)
C1 C2 C4 C5 107.2(4)
C1 C2 C4 C9 -73.2(4)
C2 C1 C3 O2 -65.0(4)
C2 C4 C5 C6 -179.7(3)
C2 C4 C9 C8 179.0(3)
C3 C1 C2 O1 64.7(4)
C3 C1 C2 C4 -174.1(3)
C4 C5 C6 C7 0.0(6)
C5 C4 C9 C8 -1.4(6)
C5 C6 C7 C8 -0.1(6)
C6 C7 C8 C9 -0.5(6)
C7 C8 C9 C4 1.3(6)
C9 C4 C5 C6 0.7(5)
C10 S1 N1 C1 -76.2(3)
C10 C11 C12 C13 0.3(6)
C11 C10 C15 C14 0.2(5)
C11 C12 C13 C14 1.3(5)
C11 C12 C13 C16 -178.9(4)
C12 C13 C14 C15 -2.1(6)
C13 C14 C15 C10 1.5(6)
C15 C10 C11 C12 -1.0(5)
C16 C13 C14 C15 178.0(4)
