#------------------------------------------------------------------------------
#$Date: 2016-08-10 04:12:06 +0300 (Wed, 10 Aug 2016) $
#$Revision: 185715 $
#$URL: file:///home/coder/svn-repositories/cod/cif/1/54/38/1543873.cif $
#------------------------------------------------------------------------------
#
# This file is available in the Crystallography Open Database (COD),
# http://www.crystallography.net/. The original data for this entry
# were provided by IUCr Journals, http://journals.iucr.org/.
#
# The file may be used within the scientific community so long as
# proper attribution is given to the journal article from which the
# data were obtained.
#
data_1543873
loop_
_publ_author_name
'G\"orbitz, Carl Henrik'
'Karen, Pavel'
'Du\<sek, Michal'
'Pet\<r\'i\<cek, V\'aclav'
_publ_section_title
;
 An exceptional series of phase transitions in hydrophobic amino acids
 with linear side chains
;
_journal_issue                   5
_journal_name_full               IUCrJ
_journal_page_first
;
;
_journal_paper_doi               10.1107/S2052252516010472
_journal_volume                  3
_journal_year                    2016
_chemical_absolute_configuration rm
_chemical_formula_moiety         'C5 H11 N O2 S'
_chemical_formula_sum            'C5 H11 N O2 S'
_chemical_formula_weight         149.21
_chemical_name_common            L-methionine
_chemical_name_systematic
;
 S-2-amino-4-(methylthio)butanoic acid
;
_space_group_crystal_system      monoclinic
_space_group_IT_number           4
_space_group_name_Hall           'P 2yb'
_space_group_name_H-M_alt        'P 1 21 1'
_symmetry_space_group_name_Hall  'P 2yb'
_symmetry_space_group_name_H-M   'P 1 21 1'
_atom_sites_solution_hydrogens   geom
_atom_sites_solution_primary     direct
_atom_sites_solution_secondary   difmap
_audit_creation_method           SHELXL-2013
_cell_angle_alpha                90
_cell_angle_beta                 94.980(2)
_cell_angle_gamma                90
_cell_formula_units_Z            4
_cell_length_a                   9.5473(6)
_cell_length_b                   5.1830(3)
_cell_length_c                   15.5830(10)
_cell_measurement_reflns_used    7767
_cell_measurement_temperature    320(2)
_cell_measurement_theta_max      26.85
_cell_measurement_theta_min      2.41
_cell_volume                     768.19(8)
_computing_cell_refinement       'APEX2 (Bruker, 2014)'
_computing_data_collection       'APEX2 (Bruker, 2014)'
_computing_data_reduction        'APEX2 (Bruker, 2014)'
_computing_molecular_graphics    'MERCURY (Macrae et al., 2008)'
_computing_publication_material  'SHELXL (Sheldrick, 2015b)'
_computing_structure_refinement  'SHELXL (Sheldrick, 2015b)'
_computing_structure_solution    'SHELXT (Sheldrick, 2015a)'
_diffrn_ambient_temperature      320(2)
_diffrn_detector_area_resol_mean 8.3
_diffrn_measured_fraction_theta_full 0.990
_diffrn_measured_fraction_theta_max 0.974
_diffrn_measurement_device_type  'Bruker D8 Vantage single crystal CCD'
_diffrn_measurement_method
'Sets of exposures each taken over 0.5\% \w rotation'
_diffrn_radiation_monochromator  graphite
_diffrn_radiation_type           MoK\a
_diffrn_radiation_wavelength     0.71073
_diffrn_reflns_av_R_equivalents  0.0456
_diffrn_reflns_av_unetI/netI     0.0586
_diffrn_reflns_Laue_measured_fraction_full 0.990
_diffrn_reflns_Laue_measured_fraction_max 0.974
_diffrn_reflns_limit_h_max       9
_diffrn_reflns_limit_h_min       -11
_diffrn_reflns_limit_k_max       6
_diffrn_reflns_limit_k_min       -6
_diffrn_reflns_limit_l_max       18
_diffrn_reflns_limit_l_min       -19
_diffrn_reflns_number            7664
_diffrn_reflns_point_group_measured_fraction_full 0.971
_diffrn_reflns_point_group_measured_fraction_max 0.927
_diffrn_reflns_theta_full        25.242
_diffrn_reflns_theta_max         26.396
_diffrn_reflns_theta_min         2.141
_exptl_absorpt_coefficient_mu    0.355
_exptl_absorpt_correction_T_max  1.000
_exptl_absorpt_correction_T_min  0.645
_exptl_absorpt_correction_type   multi-scan
_exptl_absorpt_process_details   'SADABS (Bruker, 2014)'
_exptl_crystal_colour            colourless
_exptl_crystal_density_diffrn    1.290
_exptl_crystal_density_method    'not measured'
_exptl_crystal_description       plate
_exptl_crystal_F_000             320
_exptl_crystal_size_max          0.48
_exptl_crystal_size_mid          0.45
_exptl_crystal_size_min          0.11
_refine_diff_density_max         0.236
_refine_diff_density_min         -0.261
_refine_diff_density_rms         0.046
_refine_ls_abs_structure_details
;
 Flack x determined using 751 quotients [(I+)-(I-)]/[(I+)+(I-)]
 (Parsons and Flack (2004), Acta Cryst. A60, s61).
;
_refine_ls_abs_structure_Flack   -0.04(9)
_refine_ls_extinction_method     none
_refine_ls_goodness_of_fit_ref   1.073
_refine_ls_hydrogen_treatment    constr
_refine_ls_matrix_type           full
_refine_ls_number_parameters     248
_refine_ls_number_reflns         2936
_refine_ls_number_restraints     833
_refine_ls_restrained_S_all      1.024
_refine_ls_R_factor_all          0.0999
_refine_ls_R_factor_gt           0.0657
_refine_ls_shift/su_max          0.002
_refine_ls_shift/su_mean         0.000
_refine_ls_structure_factor_coef Fsqd
_refine_ls_weighting_details
;
 w=1/[\s^2^(Fo^2^)+(0.0937P)^2^+0.2310P]
 where P=(Fo^2^+2Fc^2^)/3
;
_refine_ls_weighting_scheme      calc
_refine_ls_wR_factor_gt          0.1694
_refine_ls_wR_factor_ref         0.1887
_reflns_Friedel_coverage         0.708
_reflns_Friedel_fraction_full    0.947
_reflns_Friedel_fraction_max     0.868
_reflns_number_gt                2082
_reflns_number_total             2936
_reflns_threshold_expression     'I > 2\s(I)'
_cod_data_source_file            ed5010.cif
_cod_data_source_block           Met320
_cod_database_code               1543873
_shelx_space_group_comment
;
The symmetry employed for this shelxl refinement is uniquely defined
by the following loop, which should always be used as a source of
symmetry information in preference to the above space-group names.
They are only intended as comments.
;
_shelxl_version_number           2013-2
_shelx_res_file
;
REM Solution 1  R1  0.268  Rweak  0.085,  Alpha = 0.0166  in P2(1)
REM Flack x = -0.718 ( 0.620 ) from Parsons' quotients
REM Formula:  C8 N O6
TITL test in P2(1)
CELL  0.71073   9.5473   5.1830  15.5830   90.000   94.980   90.000
ZERR    4.00   0.00060   0.00030   0.00100   0.0000   0.0022   0.0000
LATT -1
SYMM -X, 1/2+Y, -Z
SFAC C H N O S
UNIT 20 44 4 8 4
LIST 4
TEMP 46.840

L.S. 10

DAMP 200

ACTA
BOND $H
CONF

FMAP 2
PLAN 5

ISOR 0.002 C21B

EADP C21A C22A
EADP C31A C32A
EADP C41A C42A
EADP S11A S12A
EADP C51A C52A

EADP C21B C22B C23B C24B
EADP C31B C32B C33B C34B

FLAT 0.05 C21A C31A C41A S11A
FLAT 0.05 C31A C41A S11A C51A

DFIX 3.34 0.03 C31B C51B C32B C52B C33B C53B C34B C54B

SIMU
DELU

EQIV $1 1-X, 0.5+Y, -Z
EQIV $2 X, -1+Y, Z
EQIV $3 1-X, -0.5+Y, -Z
EQIV $4 -1+X, -1+Y, Z
EQIV $5 -1+X, Y, Z

HTAB N1A O1B_$1
HTAB N1A O1B
HTAB N1A O2A_$2

HTAB N1B O1A_$3
HTAB N1B O2A_$4
HTAB N1B O1A_$4
HTAB N1B O2B_$2
HTAB C21B O1A_$5

SUMP 1.000 0.001 1.0 2 1.0 4 1.0 5 1.0 6

WGHT    0.093700    0.231000
FVAR       0.93865   0.40639   0.31277   0.24145   0.14804   0.20333   0.10120
FVAR       0.18978
MOLE 1
O1A   4    0.885584    0.596168    0.076426    11.00000    0.02641    0.04820 =
         0.07558    0.00031    0.00773   -0.00185
O2A   4    0.816616    0.961241    0.132545    11.00000    0.04212    0.03647 =
         0.09631   -0.00660    0.00899   -0.01291
N1A   3    0.636035    0.372410    0.070366    11.00000    0.02629    0.03730 =
         0.06821    0.00241    0.00736   -0.00667
AFIX  33
H1A   2    0.644898    0.414469    0.015728    11.00000   -1.50000
H2A   2    0.552695    0.298638    0.074442    11.00000   -1.50000
H3A   2    0.703909    0.262566    0.088498    11.00000   -1.50000
AFIX   0
C1A   1    0.797016    0.730501    0.107918    11.00000    0.02868    0.03874 =
         0.05484    0.00688    0.00076   -0.00303

PART 1
C21A  1    0.646931    0.606022    0.123884    31.00000    0.02575    0.03361 =
         0.06227    0.00210    0.00565   -0.00374
AFIX  13
H21A  2    0.573217    0.726373    0.101842    31.00000   -1.20000
AFIX   0
C31A  1    0.626100    0.548103    0.217615    31.00000    0.05388    0.05145 =
         0.07106    0.00629    0.02176   -0.01518
AFIX  23
H31A  2    0.690724    0.412711    0.238109    31.00000   -1.20000
H32A  2    0.531222    0.484870    0.221449    31.00000   -1.20000
AFIX   0
C41A  1    0.649906    0.783267    0.275459    31.00000    0.10302    0.08265 =
         0.08133   -0.01495    0.03300   -0.02118
AFIX  23
H41A  2    0.584763    0.918427    0.255477    31.00000   -1.20000
H42A  2    0.744607    0.847365    0.271598    31.00000   -1.20000
AFIX   0
S11A  5    0.626099    0.710064    0.384731    31.00000    0.21516    0.16282 =
         0.09198   -0.02765    0.07520   -0.07260
C51A  1    0.657145    0.973894    0.432472    31.00000    0.31494    0.20491 =
         0.12888   -0.06436    0.07323   -0.01909
AFIX  33
H51A  2    0.644868    0.953779    0.492600    31.00000   -1.50000
H52A  2    0.593432    1.103111    0.408206    31.00000   -1.50000
H53A  2    0.752087    1.025855    0.425754    31.00000   -1.50000
AFIX   0

PART 2
SAME 0.004 0.006 C21A > C51A
C22A  1    0.656718    0.613658    0.120602   -31.00000    0.02575    0.03361 =
         0.06227    0.00210    0.00565   -0.00374
AFIX  13
H22A  2    0.583073    0.736461    0.100369   -31.00000   -1.20000
AFIX   0
C32A  1    0.643066    0.556189    0.215201   -31.00000    0.05388    0.05145 =
         0.07106    0.00629    0.02176   -0.01518
AFIX  23
H33A  2    0.732407    0.492677    0.241281   -31.00000   -1.20000
H34A  2    0.573747    0.421088    0.219603   -31.00000   -1.20000
AFIX   0
C42A  1    0.599851    0.791777    0.264906   -31.00000    0.10302    0.08265 =
         0.08133   -0.01495    0.03300   -0.02118
AFIX  23
H43A  2    0.522643    0.878423    0.232104   -31.00000   -1.20000
H44A  2    0.678193    0.911257    0.272077   -31.00000   -1.20000
AFIX   0
S12A  5    0.547400    0.706079    0.367818   -31.00000    0.21516    0.16282 =
         0.09198   -0.02765    0.07520   -0.07260
C52A  1    0.547766    0.969950    0.417462   -31.00000    0.31494    0.20491 =
         0.12888   -0.06436    0.07323   -0.01909
AFIX  33
H54A  2    0.503164    0.947963    0.469868   -31.00000   -1.50000
H55A  2    0.497415    1.096763    0.382047   -31.00000   -1.50000
H56A  2    0.642944    1.026355    0.430804   -31.00000   -1.50000
AFIX   0

PART 0
MOLE 2
O1B   4    0.369977    0.184530    0.080732    11.00000    0.03006    0.04157 =
         0.08202   -0.01355    0.01722   -0.01132
O2B   4    0.304841    0.581035    0.109931    11.00000    0.05235    0.03361 =
         0.12290   -0.00096    0.01825   -0.00657
N1B   3    0.110837    0.000000    0.099231    11.00000    0.03121    0.05020 =
         0.07731    0.01192    0.00453   -0.01485
AFIX  33
H1B   2    0.095209    0.042661    0.043906    11.00000   -1.50000
H2B   2    0.031750   -0.059454    0.118278    11.00000   -1.50000
H3B   2    0.176769   -0.121641    0.105111    11.00000   -1.50000
AFIX   0
C1B   1    0.286615    0.344655    0.108194    11.00000    0.02969    0.03651 =
         0.06277    0.00340    0.00377   -0.00396

PART 1
C21B  1    0.158765    0.230502    0.149846    21.00000    0.03790    0.04472 =
         0.04926    0.00182    0.00824   -0.00070
AFIX  13
H21B  2    0.082923    0.358488    0.146071    21.00000   -1.20000
AFIX   0
C31B  1    0.193277    0.157264    0.244631    21.00000    0.08336    0.08518 =
         0.06114    0.01631    0.01682   -0.00635
AFIX  23
H31B  2    0.120870    0.040473    0.261094    21.00000   -1.20000
H32B  2    0.281309    0.062780    0.249380    21.00000   -1.20000
AFIX   0
C41B  1    0.205048    0.363946    0.305195    21.00000    0.11204    0.11252 =
         0.08075   -0.01210    0.01266   -0.02702
AFIX  23
H41B  2    0.265766    0.494633    0.283688    21.00000   -1.20000
H42B  2    0.251489    0.298810    0.358674    21.00000   -1.20000
AFIX   0
S11B  5    0.044175    0.516764    0.329049    21.00000    0.18927    0.09288 =
         0.11748   -0.02135    0.04630    0.02044
C51B  1   -0.033212    0.323651    0.394279    21.00000    0.17706    0.19260 =
         0.08682   -0.00116    0.06501    0.03012
AFIX  33
H51B  2   -0.120217    0.399392    0.408105    21.00000   -1.50000
H52B  2    0.027105    0.298752    0.446184    21.00000   -1.50000
H53B  2   -0.051641    0.160220    0.366580    21.00000   -1.50000
AFIX   0

PART 2
SAME 0.004 0.006 C21B > C51B
C22B  1    0.164399    0.246413    0.154244    41.00000    0.03790    0.04472 =
         0.04926    0.00182    0.00824   -0.00070
AFIX  13
H22B  2    0.090159    0.377168    0.153522    41.00000   -1.20000
AFIX   0
C32B  1    0.209408    0.162941    0.246946    41.00000    0.08336    0.08518 =
         0.06114    0.01631    0.01682   -0.00635
AFIX  23
H33B  2    0.271280    0.015095    0.244717    41.00000   -1.20000
H34B  2    0.263960    0.301803    0.275004    41.00000   -1.20000
AFIX   0
C42B  1    0.099839    0.097038    0.299516    41.00000   71.00000
AFIX  23
H43B  2    0.141885    0.010232    0.350564    41.00000   -1.20000
H44B  2    0.038356   -0.026101    0.268157    41.00000   -1.20000
AFIX   0
S12B  5   -0.006299    0.356998    0.333517    41.00000    0.13101    0.19194 =
         0.13651   -0.01197    0.05289    0.05903
C52B  1    0.083632    0.502017    0.414540    41.00000   81.00000
AFIX  33
H54B  2    0.028788    0.640757    0.434973    41.00000   -1.50000
H55B  2    0.169423    0.569474    0.395652    41.00000   -1.50000
H56B  2    0.105150    0.380419    0.460260    41.00000   -1.50000
AFIX   0

PART 3
SAME 0.004 0.006 C21B > C51B
C23B  1    0.152821    0.243522    0.127848    51.00000    0.03790    0.04472 =
         0.04926    0.00182    0.00824   -0.00070
AFIX  13
H23B  2    0.078319    0.369472    0.112383    51.00000   -1.20000
AFIX   0
C33B  1    0.184532    0.233541    0.225922    51.00000    0.08336    0.08518 =
         0.06114    0.01631    0.01682   -0.00635
AFIX  23
H35B  2    0.152260    0.068481    0.245948    51.00000   -1.20000
H36B  2    0.285770    0.238605    0.238634    51.00000   -1.20000
AFIX   0
C43B  1    0.124784    0.431226    0.274686    51.00000   71.00000
AFIX  23
H45B  2    0.024922    0.439347    0.257033    51.00000   -1.20000
H46B  2    0.165428    0.594607    0.259347    51.00000   -1.20000
AFIX   0
S13B  5    0.145825    0.401333    0.389775    51.00000    0.18203    0.13886 =
         0.10459   -0.00427    0.04692   -0.00240
C53B  1    0.064397    0.135877    0.415370    51.00000   81.00000
AFIX  33
H57B  2    0.070966    0.117553    0.476892    51.00000   -1.50000
H58B  2    0.107459   -0.010246    0.390415    51.00000   -1.50000
H59B  2   -0.032717    0.145530    0.393729    51.00000   -1.50000
AFIX   0

PART 4
SAME 0.004 0.006 C21B > C51B
C24B  1    0.146273    0.232192    0.137074    61.00000    0.03790    0.04472 =
         0.04926    0.00182    0.00824   -0.00070
AFIX  13
H24B  2    0.070083    0.356168    0.123427    61.00000   -1.20000
AFIX   0
C34B  1    0.164915    0.188769    0.234669    61.00000    0.08336    0.08518 =
         0.06114    0.01631    0.01682   -0.00635
AFIX  23
H37B  2    0.202363    0.016507    0.245000    61.00000   -1.20000
H38B  2    0.235186    0.309512    0.258956    61.00000   -1.20000
AFIX   0
C44B  1    0.043195    0.214921    0.280666    61.00000   71.00000
AFIX  23
H47B  2   -0.011878    0.058251    0.272312    61.00000   -1.20000
H48B  2   -0.013105    0.355036    0.254823    61.00000   -1.20000
AFIX   0
S14B  5    0.071010    0.274790    0.394228    61.00000    0.21108    0.23410 =
         0.07330    0.00946    0.05697    0.01154
C54B  1    0.142960    0.562439    0.406943    61.00000   81.00000
AFIX  33
H60B  2    0.088167    0.665986    0.442637    61.00000   -1.50000
H61B  2    0.145837    0.643648    0.351755    61.00000   -1.50000
H62B  2    0.236834    0.545420    0.433850    61.00000   -1.50000
REM
MOLE   2
AFIX   0
HKLF 4

REM  test in P2(1)
REM R1 =  0.0657 for    2082 Fo > 4sig(Fo)  and  0.0999 for all    2936 data
REM    248 parameters refined using    833 restraints

END

WGHT      0.0935      0.2364

REM Highest difference peak  0.236,  deepest hole -0.261,  1-sigma level  0.046
Q1    1   0.5147  0.8594  0.3512  11.00000  0.05    0.24
Q2    1   0.0963  0.1835  0.3026  11.00000  0.05    0.18
Q3    1   0.6374  0.4975  0.1171  11.00000  0.05    0.18
Q4    1   0.1043  0.1485  0.2200  11.00000  0.05    0.18
Q5    1   0.3319  0.5167  0.1559  11.00000  0.05    0.17
;
_shelx_res_checksum              32150
_shelx_hkl_file
;
   1   0   0   -0.10    0.10
  -2   0   0  125.59    6.70
  -2   0   0  136.19    6.70
  -2   0   0  126.29    6.90
  -3   0   0   95.49    5.20
   3   0   0   99.39    5.70
  -3   0   0   98.29    5.60
   4   0   0 1526.45   76.49
  -4   0   0 1604.64   76.49
  -4   0   0 1479.15   76.49
  -4   0   0 1529.05   76.39
  -5   0   0    5.30    1.50
  -5   0   0    5.50    1.10
  -5   0   0    7.50    1.20
  -6   0   0  185.38   11.10
  -6   0   0  192.08   10.20
   6   0   0  195.38   11.30
  -6   0   0  194.58   10.10
  -7   0   0   28.50    2.40
  -7   0   0   32.70    2.40
  -7   0   0   30.80    3.90
  -7   0   0   31.20    4.30
  -8   0   0   31.00    4.50
  -8   0   0   25.20    2.30
  -8   0   0   22.30    2.20
  -8   0   0   29.00    4.60
  -9   0   0    0.80    1.00
  -9   0   0    1.50    1.00
  -9   0   0   -4.40    2.80
 -10   0   0   13.40    1.70
 -10   0   0   10.40    1.50
 -11   0   0   90.49   11.60
   0  -1   0   -0.20    0.50
   0  -1   0    0.10    0.10
   0  -1   0   -0.20    0.40
   0   1   0    0.30    0.10
  -1  -1   0 4503.55  208.08
   1  -1   0 4062.19  208.58
   1  -1   0 4097.99  210.38
  -1  -1   0 4273.97  210.98
  -1  -1   0 4189.98  210.88
  -1   1   0 4147.29  208.48
  -2  -1   0   79.19    4.70
   2  -1   0   77.49    4.10
   2  -1   0   76.69    4.40
   2  -1   0   77.89    4.10
  -2  -1   0   75.99    4.60
  -2  -1   0   78.19    4.20
   2   1   0   73.99    4.30
  -2   1   0   75.89    4.40
  -3  -1   0 1299.67   64.89
  -3  -1   0 1323.97   65.69
  -3  -1   0 1386.36   65.09
   3  -1   0 1241.68   65.09
  -3  -1   0 1331.87   65.69
  -3   1   0 1258.87   64.99
  -4  -1   0  288.87   15.10
  -4  -1   0  293.67   15.30
  -4  -1   0  281.37   15.20
   4  -1   0  276.27   15.20
  -4  -1   0  276.57   14.90
  -4   1   0  287.67   15.10
  -5  -1   0  330.67   17.50
  -5  -1   0  331.37   17.60
  -5  -1   0  323.07   17.40
  -5   1   0  322.57   17.50
   6  -1   0   26.10    3.50
  -6  -1   0   22.10    3.10
  -6  -1   0   25.40    3.10
  -6  -1   0   27.10    3.20
  -6   1   0   33.40    3.70
  -7  -1   0  207.28   11.90
   7  -1   0  197.48   12.30
  -7  -1   0  208.08   11.80
  -7  -1   0  203.28   12.30
  -7  -1   0  204.98   12.10
  -7   1   0  209.48   12.50
   8  -1   0  110.29    7.80
  -8  -1   0   98.29    7.90
  -8  -1   0   98.79    7.80
  -8  -1   0  102.59    7.10
  -8   1   0  115.19    8.70
  -9  -1   0   58.79    5.20
  -9  -1   0   63.99    7.00
  -9  -1   0   60.99    6.70
  -9  -1   0   64.59    5.40
 -10  -1   0    8.60    2.50
 -10  -1   0   14.00    4.70
 -10  -1   0    8.70    2.80
 -10   1   0    1.90    4.50
 -11  -1   0   11.60    5.60
 -11   1   0   -2.40    5.40
   0  -2   0  256.97   14.40
   0  -2   0  261.67   14.40
   0  -2   0  283.07   13.50
   0   2   0  267.67   13.40
   1  -2   0  423.66   22.70
  -1  -2   0  430.76   21.80
   1  -2   0  430.36   22.10
  -1  -2   0  439.76   23.00
  -1  -2   0  434.26   23.00
   1  -2   0  423.86   22.70
  -1   2   0  464.65   21.90
   1   2   0  461.25   21.90
   2  -2   0    8.90    1.40
  -2  -2   0   10.30    1.90
   2  -2   0    7.60    1.40
  -2  -2   0    7.90    1.80
   2  -2   0    6.10    1.20
  -2  -2   0    7.60    0.80
   2   2   0    7.60    1.10
  -2   2   0    8.90    1.30
   3  -2   0   24.50    2.40
  -3  -2   0   27.90    2.00
   3  -2   0   26.30    2.10
  -3  -2   0   27.30    3.00
  -3  -2   0   24.90    2.90
   3  -2   0   25.20    2.10
  -3   2   0   26.60    2.40
   3   2   0   22.80    2.10
  -4  -2   0  206.78   11.10
   4  -2   0  197.88   10.70
   4  -2   0  208.88   10.70
  -4  -2   0  201.88   12.00
  -4  -2   0  222.58   11.50
  -4  -2   0  212.08   12.20
  -4   2   0  209.68   11.50
  -5  -2   0  148.99    8.80
  -5  -2   0  145.89    9.40
  -5  -2   0  146.89    9.30
   5  -2   0  149.29    8.90
  -5   2   0  145.19    8.90
   6  -2   0    6.10    1.90
  -6  -2   0    6.30    2.20
  -6  -2   0    5.50    2.40
  -6  -2   0    2.40    2.10
  -6  -2   0    3.20    1.50
  -6   2   0    3.00    2.00
  -7  -2   0    8.60    2.90
  -7  -2   0   14.10    2.60
  -7  -2   0   11.50    3.00
   7  -2   0    8.70    3.20
  -7  -2   0    9.50    3.00
  -7   2   0    9.90    3.00
  -8  -2   0    3.80    2.90
  -8  -2   0    4.00    2.90
  -8  -2   0    2.20    2.40
  -8  -2   0    3.30    3.10
   8  -2   0    3.00    3.20
  -8   2   0   -0.50    2.60
  -9  -2   0   33.00    4.90
  -9  -2   0   37.60    5.80
  -9  -2   0   33.80    4.90
  -9  -2   0   42.70    6.10
  -9   2   0   39.70    5.80
 -10  -2   0    7.50    4.20
 -10  -2   0    3.90    4.10
 -10  -2   0    1.20    3.50
 -10   2   0   -0.20    4.40
 -11  -2   0    4.70    5.30
 -11  -2   0    1.20    3.80
   0  -3   0    1.90    1.70
   0  -3   0   -0.90    1.60
   0  -3   0    0.40    0.50
   0   3   0   -0.20    0.40
   1  -3   0  161.48    9.30
   1  -3   0  171.08   10.30
  -1  -3   0  168.28   10.50
  -1  -3   0  181.48    8.90
   1  -3   0  169.98   10.30
  -1  -3   0  174.48   10.60
   1   3   0  177.48    9.00
  -1   3   0  182.18    9.00
   2  -3   0  135.59    7.90
   2  -3   0  136.69    8.50
  -2  -3   0  142.49    9.10
  -2  -3   0  140.29    7.30
  -2  -3   0  146.89    9.30
   2  -3   0  139.29    8.50
   2   3   0  140.29    7.60
  -2   3   0  145.49    7.60
  -3  -3   0   72.69    6.00
   3  -3   0   68.89    4.70
   3  -3   0   61.19    4.60
   3  -3   0   63.19    4.70
  -3  -3   0   64.69    5.70
  -3  -3   0   57.69    3.60
   3   3   0   61.99    4.10
  -3   3   0   63.89    4.10
  -4  -3   0   53.29    5.50
  -4  -3   0   48.90    5.20
  -4  -3   0   56.99    3.30
   4  -3   0   48.20    3.80
   4  -3   0   53.69    4.40
   4  -3   0   50.09    3.80
   4   3   0   47.10    3.80
  -4   3   0   53.19    4.10
   5  -3   0   31.30    2.70
  -5  -3   0   36.40    5.30
   5  -3   0   38.10    4.20
   5  -3   0   34.80    2.60
  -5  -3   0   36.70    5.10
  -5  -3   0   31.50    3.70
  -5  -3   0   36.90    2.90
  -5   3   0   35.10    3.80
  -6  -3   0  137.19    9.80
  -6  -3   0  134.19    9.90
   6  -3   0  114.19    8.90
  -6  -3   0  130.09    7.70
  -6  -3   0  135.19    8.70
  -7  -3   0   27.10    4.90
  -7  -3   0   26.90    3.60
  -7  -3   0   26.40    4.90
   7  -3   0   18.70    4.40
  -7  -3   0   17.30    4.50
  -7   3   0   32.60    4.60
  -8  -3   0    8.40    4.10
  -8  -3   0   13.60    5.10
  -8  -3   0    6.00    2.40
  -8  -3   0    8.10    3.30
  -8   3   0    9.40    3.20
  -9  -3   0   11.50    4.10
  -9  -3   0    7.40    4.40
  -9   3   0    7.40    3.80
 -10  -3   0   -1.40    4.90
 -10  -3   0   -2.90    4.70
 -10   3   0    7.10    5.50
   0  -4   0    0.40    1.00
   0  -4   0   -0.80    2.30
   0  -4   0    2.90    2.80
   0   4   0    2.50    0.80
   1  -4   0   37.80    3.10
   1  -4   0   37.90    4.80
  -1  -4   0   27.30    5.00
  -1  -4   0   34.50    2.50
   1  -4   0   33.00    4.70
  -1  -4   0   37.00    5.10
   1   4   0   35.20    2.50
  -1   4   0   31.20    2.40
  -2  -4   0    6.90    1.20
   2  -4   0    6.80    2.50
  -2  -4   0    5.10    3.20
  -2  -4   0    5.70    3.20
   2  -4   0    6.60    2.60
   2   4   0    6.10    1.30
  -2   4   0    5.90    1.10
  -3  -4   0  142.59    7.30
   3  -4   0  135.79    8.60
   3  -4   0  136.89    8.90
  -3  -4   0  135.09   10.20
  -3  -4   0  134.09   10.30
   3   4   0  131.99    7.80
   4  -4   0   12.30    2.60
  -4  -4   0   11.70    3.80
   4  -4   0    9.80    2.50
  -4  -4   0   10.60    3.70
  -4  -4   0    8.10    1.50
   4  -4   0   12.30    2.60
   4   4   0    9.40    2.00
  -4   4   0   10.80    1.90
   5  -4   0  109.19    6.90
   5  -4   0  105.89    8.10
  -5  -4   0  114.39    6.20
  -5  -4   0  101.69    7.40
  -5  -4   0  107.79    9.60
   5  -4   0  100.89    6.90
  -5  -4   0  111.59    9.80
  -5   4   0  108.79    7.30
  -6  -4   0    2.10    2.50
  -6  -4   0    0.40    3.60
   6  -4   0    5.70    3.30
  -6  -4   0    6.00    1.50
   6  -4   0    4.60    1.70
   6  -4   0    2.40    1.40
  -6   4   0    3.60    2.20
  -7  -4   0    6.40    4.40
  -7  -4   0    5.60    1.90
  -7  -4   0   -0.30    3.20
  -7   4   0    1.40    2.60
  -8  -4   0    3.40    4.00
  -8  -4   0    9.70    2.60
  -8  -4   0    8.00    5.00
  -8   4   0    8.50    3.70
  -9  -4   0   13.80    4.90
  -9  -4   0   -0.20    5.80
  -9   4   0    5.50    4.20
   0  -5   0    3.00    1.60
   0  -5   0    0.60    3.10
   0  -5   0   -1.90    3.70
   0   5   0   -1.50    1.00
   1  -5   0    4.10    4.10
  -1  -5   0    5.70    4.00
   1  -5   0    1.10    2.00
  -1  -5   0    3.90    1.50
   1  -5   0    5.70    3.40
  -1   5   0    5.60    1.20
   1   5   0    4.90    1.50
   2  -5   0   12.70    2.80
   2  -5   0   14.10    3.90
  -2  -5   0   12.10    4.40
  -2  -5   0   12.60    1.80
   2  -5   0   12.30    3.90
   2   5   0   12.70    2.00
  -2   5   0   11.50    2.00
  -3  -5   0    3.50    1.20
  -3  -5   0   -0.20    4.30
   3  -5   0    0.00    3.20
   3  -5   0   -3.20    3.00
   3  -5   0    4.30    2.60
  -3   5   0    1.30    1.30
   3   5   0    1.40    1.80
  -4  -5   0   22.30    2.30
   4  -5   0   25.80    4.40
   4  -5   0   17.10    4.00
   4  -5   0   25.10    4.20
  -4  -5   0   26.20    6.10
   4   5   0   20.80    3.00
   5  -5   0    7.20    3.10
   5  -5   0   12.60    3.30
  -5  -5   0   16.00    5.40
   5  -5   0    5.30    3.90
  -5  -5   0    9.40    1.60
  -5   5   0    9.50    2.30
  -6  -5   0   17.60    5.80
  -6   5   0   16.80    3.10
  -7   5   0    3.40    3.20
   0  -6   0    3.40    5.10
   1  -6   0    3.60    5.00
  -1  -6   0    4.90    5.60
  -2  -6   0    0.30    5.50
   2  -6   0   -8.60    4.70
   3  -6   0    6.20    4.70
   4  -6   0   -3.80    4.30
 -11   0   1   74.79   10.00
 -10   0   1   -0.70    3.70
 -10   0   1    5.50    1.10
 -10   0   1    6.70    1.00
  -9   0   1    0.40    2.50
  -9   0   1    0.50    0.80
  -9   0   1    1.10    1.10
  -8   0   1  108.79    8.30
  -8   0   1  118.49    8.30
  -8   0   1  116.49    6.60
  -8   0   1  116.59    6.30
  -7   0   1   17.90    3.00
  -7   0   1   20.10    3.50
  -7   0   1   21.70    2.20
  -7   0   1   16.90    1.70
  -6   0   1    1.60    1.50
  -6   0   1    2.40    0.80
  -6   0   1    3.10    1.50
  -6   0   1    2.60    1.10
  -5   0   1    2.50    0.90
  -5   0   1    1.60    0.70
  -5   0   1    1.80    1.20
  -4   0   1  233.28   12.00
  -4   0   1  230.98   12.50
  -4   0   1  226.48   12.40
  -4   0   1  229.58   11.80
  -3   0   1   59.99    3.80
   3   0  -1   59.29    3.40
  -3   0   1   60.99    3.80
  -2   0   1    0.50    0.40
  -2   0   1    0.40    0.20
   2   0  -1    0.70    0.30
  -2   0   1    0.80    0.50
   1   0  -1    1.20    0.30
   1   0  -1    1.60    0.30
  -1   0   1    1.80    0.30
  -1   0  -1    0.30    0.20
  -1   0  -1    0.10    0.10
   1   0   1    0.00    0.10
   1   0   1   -0.40    0.20
   2   0   1 9490.25  472.85
  -2   0  -1 9209.58  470.45
   2   0   1 9383.56  470.75
  -2   0  -1 9999.00  472.65
  -3   0  -1  316.27   15.50
  -3   0  -1  308.67   15.90
   3   0   1  295.27   15.90
   4   0   1 2269.07  112.99
  -4   0  -1 2239.58  112.99
   4   0   1 2271.77  113.29
  -4   0  -1 2332.47  113.19
   5   0   1  111.99    7.10
  -5   0  -1  111.29    6.10
  -5   0  -1  114.39    6.40
  -5   0  -1  110.49    6.90
   6   0   1  240.98   13.90
  -6   0  -1  253.47   13.10
  -6   0  -1  253.37   12.80
  -6   0  -1  240.98   13.90
  -7   0  -1   11.70    2.70
  -7   0  -1   12.10    1.60
  -7   0  -1   12.30    2.00
  -8   0  -1   14.30    3.10
  -8   0  -1    9.70    1.60
  -8   0  -1    6.70    2.70
  -8   0  -1   10.70    1.60
  -9   0  -1    9.00    1.50
  -9   0  -1   14.80    4.10
  -9   0  -1   10.20    1.40
 -10   0  -1    5.90    1.30
 -10   0  -1    3.20    1.10
 -11   0  -1   10.60    6.10
 -11  -1   1    6.60    5.20
 -11   1   1   15.50    6.50
 -10  -1   1    1.70    2.00
 -10  -1   1   -0.90    3.80
 -10  -1   1    4.10    2.60
  -9  -1   1   75.09    5.80
  -9  -1   1   70.99    7.30
  -9  -1   1   89.09    6.50
  -9   1   1   91.69    8.30
  -8  -1   1   27.40    4.40
  -8  -1   1   22.20    3.80
  -8  -1   1   20.50    3.30
  -8   1   1   21.10    4.20
  -8   1   1   29.50    4.40
  -7  -1   1   84.39    6.70
  -7  -1   1   89.39    6.10
   7  -1  -1   92.69    6.80
  -7  -1   1   90.79    6.50
  -7  -1   1   94.19    6.40
  -7   1   1   81.39    6.70
  -6  -1   1   17.70    2.70
  -6  -1   1   15.20    2.70
  -6  -1   1   15.90    2.60
  -6  -1   1   16.30    2.60
   6  -1  -1   18.90    2.80
  -6   1   1   18.40    3.20
  -5  -1   1  345.77   18.20
  -5  -1   1  348.17   18.20
  -5  -1   1  354.06   18.10
   5  -1  -1  340.87   18.20
  -5   1   1  310.37   18.00
  -4  -1   1   36.10    3.10
  -4  -1   1   41.10    2.90
  -4  -1   1   35.30    3.00
  -4  -1   1   38.20    3.10
   4  -1  -1   37.50    3.10
  -4   1   1   35.50    3.10
  -3  -1   1 3660.63  174.48
  -3  -1   1 3553.04  172.78
   3  -1  -1 3403.06  172.98
  -3  -1   1 3671.33  174.38
  -3   1   1 3479.95  173.98
  -3   1   1 3402.16  172.98
   3   1  -1 3361.26  173.38
   2  -1  -1  583.94   29.00
  -2  -1   1  563.64   29.40
  -2  -1   1  591.64   28.90
   2  -1  -1  593.54   28.80
   2   1  -1  571.04   29.40
   2   1  -1  589.94   28.90
  -2   1   1  583.84   28.90
  -2   1   1  547.05   29.00
   1  -1  -1  579.94   29.70
  -1  -1   1  589.04   30.00
  -1  -1   1  650.53   29.40
   1  -1  -1  583.14   29.50
   1   1  -1  557.64   30.00
   1   1  -1  624.04   29.40
  -1   1   1  562.34   29.80
   0  -1  -1  544.65   28.40
   0  -1   1  557.44   28.40
   0  -1  -1  566.74   27.70
   0  -1   1  606.54   27.90
   0   1  -1  606.04   27.80
   0   1   1  532.75   28.40
   0   1  -1  524.25   28.40
  -1  -1  -1 2426.76  116.49
   1  -1   1 2260.47  115.39
  -1  -1  -1 2422.76  115.69
   1  -1   1 2304.47  116.59
  -1   1  -1 2251.17  116.69
  -1   1  -1 2415.56  116.39
   1   1   1 2232.38  115.59
   1   1   1 2402.46  116.49
  -2  -1  -1  148.19    7.80
  -2  -1  -1  146.59    8.20
   2  -1   1  157.68    7.60
  -2  -1  -1  157.78    7.90
   2  -1   1  144.79    8.00
   2   1   1  143.79    8.20
  -2   1  -1  146.29    7.90
  -2   1  -1  148.19    7.70
  -3  -1  -1    6.60    1.10
  -3  -1  -1    7.70    1.30
   3  -1   1    8.90    1.50
  -3  -1  -1    6.80    1.10
  -3   1  -1    8.00    1.40
  -3   1  -1    7.00    0.70
   3   1   1    6.20    1.30
  -4  -1  -1   41.00    3.00
  -4  -1  -1   36.20    3.10
   4  -1   1   38.30    3.30
  -4  -1  -1   41.40    3.10
  -4   1  -1   41.90    3.30
   4   1   1   38.40    3.20
  -5  -1  -1   33.60    3.20
  -5  -1  -1   35.60    3.40
  -5  -1  -1   37.40    3.50
   5  -1   1   39.80    3.40
  -5  -1  -1   35.60    3.20
  -5   1  -1   33.80    3.50
  -6  -1  -1   19.00    2.60
  -6  -1  -1   16.10    3.00
  -6  -1  -1   20.10    3.00
   6  -1   1   11.20    2.50
  -6   1  -1   19.40    3.00
  -7  -1  -1   93.99    6.30
  -7  -1  -1   94.19    6.80
  -7  -1  -1   93.99    6.80
   7  -1   1   91.59    6.90
  -7  -1  -1   97.29    6.90
  -8  -1  -1   63.89    5.30
  -8  -1  -1   67.39    6.20
  -8  -1  -1   67.39    6.20
   8  -1   1   66.39    6.40
  -8  -1  -1   74.89    5.80
  -8   1  -1   64.79    6.30
  -9  -1  -1   35.00    4.50
  -9  -1  -1   30.80    5.10
  -9  -1  -1   39.10    5.60
  -9  -1  -1   35.60    4.20
  -9   1  -1   33.90    5.00
 -10  -1  -1   14.80    3.00
 -10  -1  -1   14.60    3.40
 -10   1  -1   12.00    4.60
 -11  -1  -1   28.50    7.20
 -11  -2   1   11.00    4.00
 -11  -2   1    4.40    5.20
 -10  -2   1   25.60    4.50
 -10  -2   1   25.80    5.50
 -10  -2   1   43.20    7.20
 -10   2   1   28.60    5.90
  -9  -2   1    7.40    3.90
  -9  -2   1    6.90    3.60
  -9  -2   1    9.10    3.20
  -9   2   1    8.30    3.80
  -8  -2   1    8.40    3.20
   8  -2  -1    9.80    3.80
  -8  -2   1   16.10    3.00
  -8  -2   1   12.30    3.60
  -8  -2   1    9.70    3.00
  -8   2   1   14.00    3.60
  -7  -2   1    2.90    2.60
  -7  -2   1    3.20    2.40
  -7  -2   1    6.40    2.00
   7  -2  -1   -0.20    2.60
  -7  -2   1    6.60    2.70
  -7   2   1    3.50    2.30
   6  -2  -1   41.90    4.40
  -6  -2   1   41.90    4.80
  -6  -2   1   38.50    3.50
  -6  -2   1   34.90    3.90
  -6  -2   1   39.40    4.50
  -6   2   1   38.90    4.40
  -5  -2   1   37.30    4.10
  -5  -2   1   36.20    3.00
   5  -2  -1   27.00    3.60
  -5  -2   1   27.30    3.20
  -5  -2   1   37.20    3.90
   4  -2  -1   64.19    4.80
   4  -2  -1   71.39    4.00
  -4  -2   1   71.49    5.50
  -4  -2   1   67.09    5.20
  -4  -2   1   70.29    4.30
   4  -2  -1   71.99    3.80
   4   2  -1   64.99    4.50
  -4   2   1   69.89    4.80
  -3  -2   1   17.50    2.70
  -3  -2   1   13.80    2.50
   3  -2  -1   14.30    1.80
  -3  -2   1   17.60    1.50
   3  -2  -1   15.90    2.10
   3  -2  -1   12.80    1.50
  -3   2   1   14.30    1.90
   3   2  -1   15.00    1.80
   2  -2  -1    2.10    0.80
   2  -2  -1    2.60    0.90
  -2  -2   1    1.20    1.30
  -2  -2   1    1.70    1.40
  -2  -2   1    2.60    0.60
  -2   2   1    1.90    0.90
  -2   2   1    2.40    0.80
   2   2  -1    2.50    0.80
   1  -2  -1   76.79    4.90
  -1  -2   1   77.49    4.10
  -1  -2   1   76.49    5.20
   1  -2  -1   74.39    4.30
  -1  -2   1   81.99    5.30
  -1   2   1   76.39    4.90
  -1   2   1   79.99    4.20
   1   2  -1   80.69    4.20
   0  -2   1  164.28    8.30
   0  -2  -1  156.08    9.10
   0  -2  -1  165.88    8.20
   0  -2   1  156.38    9.10
   0  -2   1  147.39    9.00
   0   2  -1  167.98    8.30
   0   2   1  162.18    9.20
   0   2   1  169.38    8.10
  -1  -2  -1   68.19    3.40
   1  -2   1   65.09    4.40
  -1  -2  -1   61.59    4.40
   1  -2   1   65.19    3.80
   1  -2   1   67.99    4.30
   1   2   1   61.09    4.50
  -1   2  -1   69.29    3.70
   2  -2   1   34.50    2.60
   2  -2   1   36.10    2.80
  -2  -2  -1   34.20    3.30
  -2  -2  -1   38.20    2.10
   2  -2   1   33.60    2.60
   2   2   1   34.40    3.20
   2   2   1   33.70    2.30
  -2   2  -1   37.70    2.50
   3  -2   1  107.59    6.20
  -3  -2  -1  114.19    6.20
  -3  -2  -1  109.99    5.90
   3  -2   1  106.39    6.00
  -3  -2  -1  108.69    6.90
   3  -2   1  104.19    6.40
  -3   2  -1  111.49    6.30
   3   2   1  103.89    6.90
  -4  -2  -1   83.39    6.00
   4  -2   1   77.69    5.40
   4  -2   1   77.49    4.60
  -4  -2  -1   81.89    4.80
  -4  -2  -1   83.69    5.20
  -4  -2  -1   78.39    5.80
   4  -2   1   84.29    4.30
  -4   2  -1   78.69    5.20
  -5  -2  -1  272.37   15.60
  -5  -2  -1  282.07   15.90
   5  -2   1  259.87   15.30
  -5  -2  -1  289.97   15.20
  -5  -2  -1  281.67   14.90
  -5   2  -1  286.47   15.30
  -6  -2  -1    6.70    2.70
  -6  -2  -1    7.10    1.80
  -6  -2  -1    6.80    2.40
  -6   2  -1    5.70    2.20
  -7  -2  -1   23.60    4.10
  -7  -2  -1   14.80    3.50
  -7  -2  -1   20.50    3.50
  -7  -2  -1   17.10    2.90
  -7   2  -1   16.30    3.10
  -8  -2  -1    4.60    3.00
  -8  -2  -1    5.70    2.90
   8  -2   1    2.20    3.50
  -8  -2  -1    7.70    2.80
  -8  -2  -1    1.80    2.70
  -8   2  -1    3.00    3.00
  -9  -2  -1   33.90    5.80
  -9  -2  -1   42.30    6.30
  -9  -2  -1   38.30    6.30
  -9   2  -1   37.00    6.50
 -10  -2  -1    5.90    3.90
 -10  -2  -1    2.20    3.90
 -10  -2  -1    1.70    4.30
 -10   2  -1    9.30    4.40
 -10  -3   1   -4.50    4.10
 -10  -3   1   13.80    5.00
 -10   3   1    0.00    5.50
  -9  -3   1   15.80    4.60
  -9  -3   1   10.10    4.60
  -9   3   1   14.30    4.80
  -8  -3   1   13.10    5.00
  -8  -3   1   15.60    4.20
  -8  -3   1   11.00    2.90
  -8  -3   1   16.00    4.10
  -8   3   1   17.10    3.90
  -7  -3   1   10.60    2.20
   7  -3  -1   12.90    3.70
  -7  -3   1   11.40    4.10
  -7  -3   1    9.90    3.10
  -7  -3   1   13.70    3.80
  -7   3   1   10.30    3.10
  -6  -3   1   61.69    6.40
  -6  -3   1   56.19    4.10
  -6  -3   1   42.40    4.90
   6  -3  -1   44.10    5.60
  -6  -3   1   54.69    6.20
  -6   3   1   56.79    5.10
  -5  -3   1  108.39    8.30
   5  -3  -1   95.69    7.30
   5  -3  -1  107.89    6.20
  -5  -3   1  110.69    6.20
   5  -3  -1  102.49    5.90
  -5  -3   1  112.09    8.50
  -5   3   1  110.79    6.90
   5   3  -1  101.39    6.80
   4  -3  -1   48.10    3.90
  -4  -3   1   53.29    3.30
   4  -3  -1   49.40    3.60
  -4  -3   1   47.90    5.30
  -4  -3   1   49.30    5.30
   4  -3  -1   52.19    4.40
  -4   3   1   48.10    4.00
   4   3  -1   47.20    3.80
   3  -3  -1   64.79    4.80
  -3  -3   1   63.49    5.80
   3  -3  -1   65.49    4.60
   3  -3  -1   62.79    4.60
  -3  -3   1   70.19    3.80
  -3  -3   1   67.49    5.80
   3   3  -1   62.89    4.30
  -3   3   1   64.59    4.20
  -2  -3   1   85.39    6.40
   2  -3  -1   84.99    5.20
   2  -3  -1   83.39    5.80
   2  -3  -1   82.69    5.70
  -2  -3   1   81.09    4.60
  -2  -3   1   79.99    6.40
  -2   3   1   89.19    4.80
   2   3  -1   82.39    4.90
   1  -3  -1   38.70    3.90
   1  -3  -1   38.40    2.70
   1  -3  -1   33.80    3.70
  -1  -3   1   37.50    2.40
  -1  -3   1   34.50    4.10
  -1  -3   1   39.50    4.10
  -1   3   1   41.80    2.40
   1   3  -1   41.00    2.50
   0  -3  -1  111.69    6.10
   0  -3   1  112.69    7.50
   0  -3   1  114.29    7.60
   0  -3  -1  110.89    7.40
   0  -3   1  114.09    6.20
   0  -3  -1  111.39    7.50
   0   3   1  119.69    5.90
   0   3  -1  115.49    6.10
  -1  -3  -1   83.29    6.20
   1  -3   1   85.19    6.00
   1  -3   1   78.89    5.00
  -1  -3  -1   87.89    6.40
   1  -3   1   81.59    6.10
  -1  -3  -1   86.79    4.50
  -1   3  -1   91.29    4.70
   1   3   1   86.09    4.60
   2  -3   1  130.59    7.80
  -2  -3  -1  138.19    9.10
  -2  -3  -1  139.09    7.00
   2  -3   1  134.09    8.40
   2  -3   1  140.99    8.30
  -2  -3  -1  140.39    8.90
   2   3   1  129.39    7.30
  -2   3  -1  142.59    7.40
  -3  -3  -1   15.10    1.40
  -3  -3  -1   16.90    2.90
   3  -3   1   10.20    2.10
   3  -3   1   15.70    2.70
   3  -3   1   15.70    2.40
  -3  -3  -1   15.80    3.20
  -3   3  -1   16.80    2.00
   3   3   1   13.70    1.90
  -4  -3  -1   53.59    4.10
  -4  -3  -1   52.49    5.50
   4  -3   1   55.19    4.20
  -4  -3  -1   51.69    5.30
   4  -3   1   50.29    4.60
   4  -3   1   61.89    4.00
  -4  -3  -1   62.79    3.60
  -4   3  -1   59.09    4.20
  -5  -3  -1   49.20    5.80
   5  -3   1   45.40    3.60
   5  -3   1   46.60    4.80
  -5  -3  -1   50.49    5.80
  -5  -3  -1   64.19    4.60
   5  -3   1   52.69    3.30
  -5   3  -1   53.49    4.40
  -6  -3  -1  144.89   10.30
  -6  -3  -1  129.69    9.80
  -6  -3  -1  135.19    7.90
   6  -3   1  126.49    7.00
   6  -3   1  137.99    9.20
  -6   3  -1  139.59    8.70
  -7  -3  -1   16.30    4.40
  -7  -3  -1   11.90    3.00
  -7  -3  -1    9.40    3.70
   7  -3   1    4.30    3.70
  -7  -3  -1   12.90    2.40
  -7   3  -1   13.50    3.20
  -8  -3  -1    6.00    3.30
  -8  -3  -1    3.20    4.20
  -8  -3  -1    4.50    4.00
  -8  -3  -1    3.00    2.40
  -8   3  -1    7.10    3.20
  -9  -3  -1    4.50    4.50
  -9  -3  -1   -4.20    3.40
  -9   3  -1    9.20    3.90
 -10  -3  -1   23.60    6.00
 -10  -3  -1    9.00    5.50
  -9  -4   1   22.60    5.70
  -9  -4   1   12.50    6.10
  -9   4   1   19.50    4.80
  -8  -4   1    9.90    4.90
  -8  -4   1    4.60    4.40
  -8  -4   1   12.40    2.80
  -8   4   1   10.30    3.80
  -7  -4   1   30.40    4.70
  -7  -4   1   25.70    3.60
  -7  -4   1   32.40    6.10
  -7   4   1   33.10    5.40
  -6  -4   1   19.20    2.70
  -6  -4   1   22.20    5.20
   6  -4  -1   20.10    2.80
   6  -4  -1   12.50    4.10
   6  -4  -1   16.10    2.50
  -6  -4   1   16.70    3.50
  -6   4   1   17.80    3.10
   5  -4  -1   10.80    2.40
   5  -4  -1    9.00    3.20
  -5  -4   1   12.10    4.40
   5  -4  -1   13.90    2.30
  -5  -4   1    8.20    4.10
  -5  -4   1   11.10    2.00
   5   4  -1    8.80    2.50
  -5   4   1   12.70    2.30
  -4  -4   1   26.00    4.60
   4  -4  -1   28.90    4.20
   4  -4  -1   23.40    3.70
   4  -4  -1   29.60    4.10
  -4  -4   1   21.60    2.20
  -4  -4   1   26.30    5.10
   4   4  -1   25.50    3.20
  -4   4   1   27.10    2.90
   3  -4  -1    6.30    2.00
   3  -4  -1    7.40    2.50
  -3  -4   1    2.60    3.00
  -3  -4   1    5.00    1.00
  -3  -4   1    4.70    3.50
  -3   4   1    5.90    1.30
   3   4  -1    6.10    1.60
  -2  -4   1    3.70    0.90
   2  -4  -1    6.60    2.60
   2  -4  -1    1.50    2.50
  -2  -4   1    2.30    2.70
   2  -4  -1    2.60    1.60
  -2  -4   1    4.10    2.90
   2   4  -1    4.90    1.30
  -2   4   1    5.20    1.00
  -1  -4   1   16.40    3.50
  -1  -4   1   15.20    3.60
   1  -4  -1   11.00    2.00
   1  -4  -1   16.60    3.30
  -1  -4   1   15.80    1.70
   1  -4  -1   15.30    3.20
   1   4  -1   15.70    1.80
  -1   4   1   14.30    1.40
   0  -4  -1   25.10    2.20
   0  -4   1   23.80    3.90
   0  -4  -1   25.30    4.60
   0  -4  -1   24.40    4.10
   0  -4   1   24.10    4.40
   0  -4   1   21.30    2.20
   0   4   1   22.40    1.80
   0   4  -1   25.80    2.10
  -1  -4  -1   49.80    5.70
   1  -4   1   55.69    5.70
  -1  -4  -1   48.00    5.70
   1  -4   1   52.89    5.30
  -1  -4  -1   50.29    3.20
   1   4   1   51.69    3.30
  -1   4  -1   49.90    3.20
   2  -4   1   17.80    2.70
  -2  -4  -1   14.70    3.80
  -2  -4  -1   17.00    1.50
   2  -4   1   15.60    3.10
   2  -4   1   18.40    3.40
  -2  -4  -1   15.10    3.70
   2   4   1   15.50    2.00
  -2   4  -1   16.90    1.90
   3  -4   1  235.18   13.90
  -3  -4  -1  241.58   15.50
   3  -4   1  246.08   14.50
  -3  -4  -1  248.08   15.70
  -3  -4  -1  263.17   12.70
   3   4   1  235.38   13.20
  -3   4  -1  274.87   13.20
   4  -4   1    3.80    1.90
  -4  -4  -1   -1.70    1.60
  -4  -4  -1    2.30    0.80
  -4  -4  -1    2.80    3.50
   4  -4   1    1.10    2.20
  -4  -4  -1    2.90    3.30
   4  -4   1    2.30    2.20
  -4   4  -1    1.50    1.30
  -5  -4  -1  129.29   11.10
   5  -4   1  126.19    9.50
  -5  -4  -1  143.79   11.20
   5  -4   1  127.29    8.50
  -5  -4  -1  140.19    7.70
  -5  -4  -1  151.98    8.90
   5  -4   1  145.79    8.30
  -5   4  -1  148.59    8.50
  -6  -4  -1    3.90    4.10
   6  -4   1    1.30    1.20
   6  -4   1    2.80    3.20
  -6  -4  -1    7.20    2.70
  -6  -4  -1    1.60    1.30
   6  -4   1   -1.30    1.70
  -6   4  -1    1.10    2.10
  -7  -4  -1    3.60    1.80
  -7  -4  -1    3.30    4.50
  -7  -4  -1   -0.40    2.90
  -7   4  -1    5.80    2.90
  -8  -4  -1   12.90    5.50
  -8  -4  -1   18.60    4.30
  -8  -4  -1    9.50    2.50
  -8   4  -1    8.80    3.70
  -9  -4  -1   28.40    5.60
  -9  -4  -1   33.00    7.00
  -9   4  -1   29.80    5.70
  -7  -5   1   17.20    4.50
  -7   5   1    3.20    3.00
  -6  -5   1    4.90    3.50
  -6  -5   1   14.40    6.00
  -6   5   1   13.50    3.10
  -5  -5   1    4.30    1.40
   5  -5  -1    2.20    2.90
   5  -5  -1    4.90    3.70
   5  -5  -1   -2.20    2.90
  -5  -5   1    0.00    4.30
   5   5  -1    0.20    2.70
  -5   5   1    1.50    1.90
   4  -5  -1   30.70    4.70
  -4  -5   1   37.50    6.80
  -4  -5   1   33.00    2.90
   4  -5  -1   31.70    5.80
  -4   5   1   35.30    3.40
   4   5  -1   29.40    4.20
   3  -5  -1   11.10    3.70
   3  -5  -1    8.70    2.90
   3  -5  -1    8.40    3.70
  -3  -5   1   10.10    1.60
  -3  -5   1   14.50    4.90
   3   5  -1    7.30    2.20
  -3   5   1    8.70    1.60
  -2  -5   1    6.20    4.00
   2  -5  -1    8.80    3.60
   2  -5  -1    7.90    3.60
   2  -5  -1   11.50    2.50
  -2  -5   1    6.20    1.40
  -2   5   1    5.60    1.20
   2   5  -1    4.50    1.80
   1  -5  -1    0.40    3.40
  -1  -5   1    0.60    1.30
   1  -5  -1    3.60    3.90
   1  -5  -1    4.50    1.80
  -1  -5   1    4.60    3.60
   1   5  -1   -0.10    1.30
  -1   5   1    1.10    1.00
   0  -5   1   53.89    7.70
   0  -5  -1   63.49    7.70
   0  -5   1   66.29    7.30
   0  -5  -1   55.59    4.60
   0  -5  -1   61.29    7.70
   0  -5   1   68.39    4.80
   0   5  -1   68.59    4.20
   0   5   1   67.49    4.00
   1  -5   1    7.20    4.10
   1  -5   1    2.60    3.30
  -1  -5  -1    5.60    1.50
  -1  -5  -1    6.70    4.00
   1  -5   1    7.90    2.10
   1   5   1    4.20    1.40
  -1   5  -1    5.70    1.30
   2  -5   1   40.80    5.80
   2  -5   1   53.39    7.20
  -2  -5  -1   39.70    3.00
  -2  -5  -1   44.30    6.60
   2  -5   1   33.60    4.20
   2   5   1   37.50    3.30
  -2   5  -1   38.60    3.10
   3  -5   1    4.60    2.70
   3  -5   1   -2.10    3.40
   3  -5   1   -1.80    2.80
  -3  -5  -1   -0.50    0.90
  -3  -5  -1    3.80    4.20
  -3   5  -1   -1.40    1.20
  -4  -5  -1   24.00    6.00
   4  -5   1   21.10    3.80
   4  -5   1   19.30    4.40
  -4  -5  -1   18.10    2.90
  -4  -5  -1   20.10    2.10
  -4   5  -1   25.10    3.10
   5  -5   1    0.20    3.90
   5  -5   1    6.20    2.90
  -5  -5  -1    6.30    4.80
  -5  -5  -1   11.60    3.20
   5  -5   1    6.40    3.50
  -5   5  -1    4.90    2.10
  -6  -5  -1    2.60    5.40
  -6   5  -1    3.90    2.60
  -7   5  -1    5.50    3.50
   4  -6  -1   -2.00    4.60
   3  -6  -1   -6.10    4.80
  -2  -6   1    3.40    5.90
   2  -6  -1   -1.50    5.00
  -1  -6   1   -1.80    5.10
   1  -6  -1   -0.70    5.10
   0  -6   1   -8.70    4.50
   0  -6  -1    3.10    5.30
   1  -6   1    1.90    5.00
  -1  -6  -1   16.70    6.20
   2  -6   1   -0.90    4.50
  -2  -6  -1    8.10    5.90
   3  -6   1   -3.70    4.40
  -3   6  -1    3.20    1.80
   4  -6   1   10.30    4.60
 -11   0   2    0.10    4.40
 -10   0   2    2.50    3.70
 -10   0   2    1.10    1.30
 -10   0   2    0.20    0.90
  -9   0   2    1.40    2.80
  -8   0   2  166.38   10.80
  -8   0   2  167.58    8.80
  -8   0   2  172.08   11.00
  -8   0   2  162.68    9.30
  -7   0   2   11.90    1.80
  -7   0   2   13.30    2.70
  -7   0   2   12.60    1.40
  -7   0   2   12.00    2.70
  -6   0   2  425.46   21.90
  -6   0   2  422.66   22.60
  -6   0   2  424.66   21.60
  -6   0   2  430.56   22.80
  -5   0   2   22.30    2.70
   5   0  -2   21.10    2.00
  -5   0   2   21.60    1.60
  -5   0   2   21.60    2.60
  -4   0   2   24.70    2.40
  -4   0   2   24.70    2.30
  -4   0   2   24.30    1.70
   4   0  -2   25.00    2.00
   3   0  -2   71.99    4.20
  -3   0   2   79.39    4.10
   3   0  -2   67.99    4.40
  -3   0   2   80.09    4.70
  -2   0   2 1612.74   77.29
   2   0  -2 1556.34   77.69
   2   0  -2 1516.85   77.19
  -1   0   2   16.20    1.10
   1   0  -2   19.10    1.10
   0   0   2   65.69    3.30
   0   0  -2   62.29    3.30
  -1   0  -2   45.20    2.50
   1   0   2   44.60    2.50
   2   0   2 1247.18   67.69
  -2   0  -2 1521.15   68.29
   2   0   2 1333.87   67.99
   3   0   2    1.60    0.70
  -3   0  -2    2.60    0.90
  -3   0  -2    2.10    0.50
   3   0   2    1.80    0.70
  -4   0  -2  578.14   26.60
  -4   0  -2  539.15   27.10
   4   0   2  481.35   27.00
   4   0   2  513.95   26.80
   5   0   2  207.08   11.50
   5   0   2  202.18   11.90
  -5   0  -2  233.38   11.20
  -5   0  -2  221.88   12.10
  -6   0  -2  193.18    9.50
   6   0   2  170.18   10.70
  -6   0  -2  186.98   10.90
   6   0   2  172.08    9.90
  -7   0  -2    3.30    1.50
  -7   0  -2    6.50    2.40
  -7   0  -2    3.60    0.90
   7   0   2    1.20    2.30
  -8   0  -2   18.30    1.90
  -8   0  -2   16.60    2.60
   8   0   2   14.30    3.40
  -9   0  -2    2.70    1.50
  -9   0  -2    2.20    3.40
 -10   0  -2    5.10    4.60
 -10   0  -2    5.50    1.40
 -11   0  -2   -6.60    5.00
 -11  -1   2   -4.80    4.30
 -11   1   2   15.80    6.60
 -10  -1   2   12.80    4.30
 -10  -1   2   17.90    2.90
  -9  -1   2   42.60    6.20
  -9  -1   2   46.50    4.20
  -9  -1   2   51.59    5.20
  -9   1   2   37.70    5.50
  -8  -1   2   23.60    4.00
  -8  -1   2   23.30    4.10
  -8  -1   2   27.00    4.30
  -8  -1   2   29.00    3.20
  -8   1   2   20.30    3.70
  -8   1   2   24.10    3.90
  -7  -1   2   22.90    3.50
  -7  -1   2   27.80    4.20
  -7  -1   2   23.90    3.70
  -7  -1   2   21.20    2.90
  -7   1   2   32.30    4.10
  -7   1   2   19.50    3.60
  -6  -1   2    7.70    1.80
  -6  -1   2    5.70    1.60
  -6  -1   2    7.60    1.90
  -6  -1   2    7.30    2.10
  -6   1   2    4.50    1.80
  -6   1   2    5.50    2.00
  -5  -1   2  336.37   18.00
  -5  -1   2  347.87   18.10
  -5  -1   2  339.97   17.70
   5  -1  -2  333.67   18.00
  -5  -1   2  347.77   17.80
  -5   1   2  325.37   17.90
  -5   1   2  316.67   17.90
  -4  -1   2  204.68   11.00
  -4  -1   2  198.08   10.80
   4  -1  -2  201.38   10.10
   4  -1  -2  209.48   11.10
   4   1  -2  194.28   11.00
   4   1  -2  188.18   10.90
  -4   1   2  202.48   11.10
  -4   1   2  205.48   10.10
  -3  -1   2 1191.48   56.99
  -3  -1   2 1165.48   57.59
   3  -1  -2 1174.68   57.19
  -3   1   2 1137.09   57.09
   3   1  -2 1087.29   57.59
   3   1  -2 1114.29   56.99
  -2  -1   2   16.20    1.70
   2  -1  -2   20.50    1.20
   2  -1  -2   17.90    1.50
  -2  -1   2   18.50    1.40
   2   1  -2   17.20    1.50
   2   1  -2   15.70    1.70
  -2   1   2   18.50    1.30
  -2   1   2   15.90    1.60
  -1  -1   2 1900.21   95.09
  -1  -1   2 2023.80   94.49
   1  -1  -2 1953.20   94.79
   1   1  -2 1966.90   94.09
  -1   1   2 1905.51   95.39
  -1   1   2 1835.72   94.29
   1   1  -2 1771.02   95.09
   0  -1   2  140.89    7.00
   0  -1   2  128.59    7.30
   0  -1  -2  134.19    7.30
   0   1  -2  133.89    7.40
   0   1  -2  149.09    7.00
   0   1   2  138.59    7.40
  -1  -1  -2 4122.59  201.28
   1  -1   2 4158.68  202.38
  -1  -1  -2 3887.01  202.78
   1  -1   2 4208.48  203.68
  -1   1  -2 3935.51  203.48
  -1   1  -2 4353.56  202.58
   1   1   2 4124.59  201.38
   1   1   2 3864.81  203.68
  -2  -1  -2  511.95   26.80
  -2  -1  -2  524.95   26.30
   2  -1   2  529.65   26.50
  -2   1  -2  549.05   26.50
   2   1   2  539.75   26.40
  -2   1  -2  529.55   26.40
   2   1   2  501.35   26.90
   3  -1   2  121.09    7.20
  -3  -1  -2  127.29    7.20
  -3  -1  -2  125.59    7.00
  -3   1  -2  130.79    7.20
   3   1   2  125.69    7.30
   3   1   2  132.49    7.10
  -3   1  -2  128.29    6.60
  -4  -1  -2   15.30    2.10
   4  -1   2   15.30    2.10
  -4  -1  -2   14.90    1.90
   4  -1   2   16.70    1.20
   4   1   2   18.50    2.30
  -4   1  -2   16.20    2.20
   4   1   2   22.00    2.20
  -4   1  -2   17.90    1.20
   5  -1   2  114.99    6.50
  -5  -1  -2  126.29    7.60
  -5  -1  -2  132.79    7.70
   5  -1   2  124.19    7.90
  -5  -1  -2  126.29    7.40
   5   1   2  132.39    7.70
  -5   1  -2  127.39    6.40
   5   1   2  124.69    7.70
  -5   1  -2  130.89    7.80
  -6  -1  -2    5.90    1.60
   6  -1   2    7.20    1.90
  -6  -1  -2    5.40    2.00
   6   1   2    5.00    1.90
  -6   1  -2    6.00    2.10
  -7  -1  -2    9.10    2.70
  -7  -1  -2    9.90    2.50
  -7  -1  -2   10.40    2.50
   7  -1   2    7.50    2.70
  -8  -1  -2   17.10    3.30
  -8  -1  -2   21.40    3.90
  -8  -1  -2   30.60    4.90
  -8  -1  -2   18.00    2.70
   8  -1   2   21.90    4.00
  -8   1  -2   17.30    3.80
  -9  -1  -2   37.70    6.50
  -9  -1  -2   37.60    4.90
  -9  -1  -2   35.00    4.10
  -9   1  -2   38.90    5.70
 -10  -1  -2    8.10    2.40
 -10   1  -2    0.70    4.20
 -11  -1  -2    6.20    5.90
 -11  -2   2   -2.10    5.10
 -11  -2   2    4.10    3.60
 -10  -2   2   32.60    5.90
 -10  -2   2   38.40    5.60
 -10  -2   2   34.70    6.00
 -10   2   2   31.80    6.10
  -9  -2   2    4.60    3.90
  -9  -2   2   12.10    3.30
  -9  -2   2   11.60    4.40
  -9   2   2   20.10    4.70
  -8  -2   2   22.10    4.20
  -8  -2   2   12.90    3.20
  -8  -2   2   22.80    4.40
  -8  -2   2   23.30    3.50
  -8   2   2   12.50    3.70
  -7  -2   2   24.90    4.20
  -7  -2   2   23.70    3.40
  -7  -2   2   31.70    5.00
  -7  -2   2   22.50    3.90
  -6  -2   2   66.79    6.20
  -6  -2   2   64.69    5.70
   6  -2  -2   78.29    5.70
  -6  -2   2   70.39    5.10
  -6  -2   2   73.59    5.90
  -6   2   2   79.39    6.10
   5  -2  -2   47.50    4.10
  -5  -2   2   43.00    4.60
  -5  -2   2   43.60    3.40
  -5  -2   2   44.90    4.30
   5   2  -2   39.70    3.80
  -5   2   2   52.79    4.40
   4  -2  -2   86.39    4.20
   4  -2  -2   78.49    5.30
  -4  -2   2   80.79    4.80
  -4  -2   2   74.29    5.70
  -4  -2   2   74.69    5.80
  -4   2   2   83.59    5.40
   4   2  -2   68.29    4.90
  -4   2   2   76.09    4.60
  -3  -2   2  333.67   17.90
  -3  -2   2  337.47   17.80
   3  -2  -2  325.17   16.80
   3  -2  -2  313.77   17.10
  -3  -2   2  358.36   16.80
  -3   2   2  330.37   17.00
   3   2  -2  305.27   17.70
   3   2  -2  320.97   17.00
  -3   2   2  325.17   17.00
   2  -2  -2  158.18    8.60
  -2  -2   2  179.58    8.30
   2  -2  -2  157.58    8.60
  -2  -2   2  158.98    9.30
  -2   2   2  153.88    8.80
   2   2  -2  146.19    9.20
   2   2  -2  162.68    8.50
  -2   2   2  157.68    8.50
   1  -2  -2  185.78    9.80
  -1  -2   2  194.98    9.70
  -1  -2   2  189.38   10.70
   1  -2  -2  182.78   10.30
  -1   2   2  193.28    9.70
  -1   2   2  179.28   10.40
   1   2  -2  203.28    9.80
   0  -2  -2    1.30    1.00
   0  -2   2    1.70    1.10
   0  -2   2    1.40    0.40
   0   2  -2    1.30    0.90
   0   2   2    1.60    0.20
   0   2  -2    1.60    0.50
   0   2   2    1.50    0.90
  -1  -2  -2  251.47   11.80
   1  -2   2  233.68   12.70
   1  -2   2  234.58   12.30
  -1   2  -2  263.37   12.20
  -1   2  -2  216.68   12.70
   1   2   2  223.18   13.00
   2  -2   2  290.67   14.90
  -2  -2  -2  293.77   14.50
   2  -2   2  278.77   14.90
  -2  -2  -2  274.47   15.40
  -2  -2  -2  304.97   14.30
  -2   2  -2  275.37   15.00
   2   2   2  261.77   15.50
  -2   2  -2  304.67   14.70
  -3  -2  -2    6.30    1.80
   3  -2   2    8.50    1.50
   3  -2   2    9.40    1.20
  -3  -2  -2   12.00    1.60
  -3  -2  -2    8.80    1.20
  -3   2  -2    8.30    1.40
  -3   2  -2    7.00    1.20
   3   2   2    9.00    1.90
   4  -2   2   82.39    5.70
  -4  -2  -2   87.09    6.10
  -4  -2  -2   86.79    5.40
  -4  -2  -2   87.19    5.20
  -4   2  -2   88.59    5.50
  -4   2  -2   86.39    5.00
   4   2   2   85.59    6.20
   5  -2   2   62.29    3.80
  -5  -2  -2   69.89    4.90
  -5  -2  -2   69.69    5.40
   5  -2   2   69.99    5.20
  -5  -2  -2   63.89    4.50
  -5   2  -2   69.39    5.00
  -6  -2  -2   69.89    5.20
  -6  -2  -2   68.49    5.40
  -6  -2  -2   72.89    5.80
   6  -2   2   67.99    5.90
  -6  -2  -2   73.89    6.10
  -6   2  -2   72.69    5.70
  -7  -2  -2   32.80    4.20
  -7  -2  -2   34.90    5.00
  -7  -2  -2   26.20    4.50
  -7  -2  -2   33.10    4.20
   7  -2   2   25.70    4.10
  -7   2  -2   32.20    4.70
  -8  -2  -2   12.70    3.50
  -8  -2  -2   11.40    3.70
  -8  -2  -2   15.80    3.30
  -8  -2  -2   15.20    3.20
  -8   2  -2   11.30    3.50
  -9  -2  -2   16.40    4.30
  -9  -2  -2   15.70    3.70
  -9  -2  -2   20.00    3.90
  -9   2  -2   22.80    4.80
 -10  -2  -2   22.00    5.00
 -10  -2  -2   25.80    4.70
 -10   2  -2   22.00    5.70
 -11  -2  -2   32.80    7.80
 -10  -3   2    2.00    4.40
 -10  -3   2    4.70    4.90
 -10   3   2    3.50    4.90
  -9  -3   2   18.80    4.90
  -9  -3   2   10.60    4.40
  -9   3   2   10.90    4.40
  -8  -3   2   11.50    2.70
  -8  -3   2   16.00    4.00
  -8  -3   2    7.40    3.70
  -8  -3   2    8.70    4.40
  -8   3   2    8.00    3.70
  -7  -3   2    8.40    4.00
  -7  -3   2    2.30    2.90
  -7  -3   2    9.70    2.20
  -7   3   2    7.10    3.00
  -6  -3   2   29.90    4.70
   6  -3  -2   24.90    2.10
   6  -3  -2   32.10    4.70
  -6  -3   2   30.00    4.90
  -6  -3   2   30.50    3.00
   6   3  -2   24.80    3.80
  -6   3   2   25.30    4.00
   5  -3  -2  104.59    5.70
  -5  -3   2  111.59    8.10
   5  -3  -2   99.69    6.20
   5  -3  -2   96.99    7.30
  -5  -3   2  112.49    6.20
  -5  -3   2  101.19    8.20
  -5   3   2  101.69    6.90
   5   3  -2   94.89    6.60
   4  -3  -2   74.49    5.20
   4  -3  -2   68.49    4.60
   4  -3  -2   76.29    5.40
  -4  -3   2   69.19    6.40
  -4  -3   2   75.69    6.30
  -4  -3   2   82.09    4.50
   4   3  -2   70.29    5.00
  -4   3   2   75.49    5.00
  -3  -3   2    1.30    2.10
   3  -3  -2    1.00    1.20
  -3  -3   2    2.40    2.00
  -3  -3   2    2.10    0.70
   3  -3  -2    1.40    1.40
   3  -3  -2    4.60    1.30
   3   3  -2    0.60    1.10
  -3   3   2    1.70    1.00
  -2  -3   2  289.67   15.90
  -2  -3   2  283.37   14.20
   2  -3  -2  283.47   15.10
   2  -3  -2  284.67   14.70
  -2  -3   2  270.27   15.90
  -2   3   2  278.57   14.20
   2   3  -2  276.07   14.40
  -2   3   2  260.97   15.20
  -1  -3   2  236.58   14.00
  -1  -3   2  246.38   12.40
  -1  -3   2  242.88   13.90
   1  -3  -2  238.38   12.60
  -1   3   2  225.28   13.60
  -1   3   2  254.07   12.20
   1   3  -2  250.57   12.50
   0  -3   2  591.44   31.40
   0  -3   2  608.04   29.90
   0  -3  -2  595.14   29.70
   0  -3  -2  586.94   31.20
   0  -3   2  583.64   31.20
   0   3   2  539.25   31.10
   0   3  -2  611.14   29.80
   0   3   2  651.93   29.50
  -1  -3  -2   53.29    4.70
   1  -3   2   53.39    3.50
   1  -3   2   48.40    4.30
  -1  -3  -2   54.79    2.90
   1   3   2   50.89    3.00
  -1   3  -2   53.79    3.20
   1   3   2   54.99    5.00
  -2  -3  -2  163.68   10.10
   2  -3   2  169.28    9.50
  -2  -3  -2  165.78    8.20
   2  -3   2  157.68    9.70
  -2   3  -2  174.18    8.70
   2   3   2  152.28    8.50
   2   3   2  153.78   10.10
   3  -3   2   42.20    3.40
  -3  -3  -2   42.50    3.10
  -3  -3  -2   46.10    2.60
  -3  -3  -2   42.90    4.60
   3  -3   2   37.90    3.50
   3  -3   2   40.70    3.90
  -3   3  -2   45.40    3.20
   3   3   2   39.90    4.60
   4  -3   2   44.60    3.90
  -4  -3  -2   47.50    3.00
  -4  -3  -2   45.70    3.70
  -4  -3  -2   51.79    5.30
   4  -3   2   46.40    3.40
  -4  -3  -2   48.00    5.30
  -4   3  -2   47.20    3.80
   5  -3   2   65.09    3.60
   5  -3   2   55.79    5.30
  -5  -3  -2   58.59    6.20
  -5  -3  -2   61.79    4.10
  -5  -3  -2   55.59    6.00
   5  -3   2   54.59    4.20
  -5  -3  -2   59.59    4.70
  -5   3  -2   65.89    4.80
  -6  -3  -2  132.99    9.40
  -6  -3  -2  134.79    8.10
   6  -3   2  101.99    8.50
  -6  -3  -2  120.19    7.20
   6  -3   2  113.79    6.50
  -6  -3  -2  116.89    9.40
  -6   3  -2  127.49    8.00
  -7  -3  -2   23.30    4.60
  -7  -3  -2   16.20    3.20
  -7  -3  -2   20.50    4.50
   7  -3   2   12.20    3.90
  -7  -3  -2   20.60    3.50
  -7   3  -2   18.90    3.30
  -8  -3  -2   -7.30    4.10
  -8  -3  -2    0.80    2.40
  -8  -3  -2   -2.60    3.80
  -8  -3  -2    1.80    2.90
  -8   3  -2    1.10    2.80
  -9  -3  -2    3.60    4.60
  -9  -3  -2    0.90    3.10
  -9  -3  -2   -0.90    3.80
  -9   3  -2    2.80    3.60
 -10  -3  -2   77.79   10.50
  -9  -4   2   61.19    9.30
  -9  -4   2   39.10    7.20
  -9   4   2   40.40    6.20
  -8  -4   2   13.00    5.20
  -8  -4   2   15.60    3.00
  -8  -4   2   25.90    4.80
  -8   4   2   19.30    4.40
   7  -4  -2   70.49    8.10
  -7  -4   2   62.19    4.70
  -7  -4   2   45.50    7.10
  -7   4   2   52.89    6.20
   6  -4  -2   18.90    3.90
  -6  -4   2   13.10    2.10
  -6  -4   2    9.10    4.10
   6  -4  -2   12.20    2.30
   6  -4  -2   16.10    2.30
   6   4  -2   13.30    3.00
  -6   4   2   12.20    2.90
  -5  -4   2   48.30    3.30
   5  -4  -2   46.10    3.90
   5  -4  -2   41.20    5.10
  -5  -4   2   38.40    6.50
  -5  -4   2   47.30    7.50
   5  -4  -2   47.30    4.70
   5   4  -2   34.00    4.40
  -5   4   2   40.20    4.20
   4  -4  -2   36.80    4.20
  -4  -4   2   28.80    5.30
  -4  -4   2   29.30    2.40
  -4  -4   2   29.80    5.20
   4  -4  -2   28.20    4.30
   4  -4  -2   25.80    3.60
  -4   4   2   28.10    3.10
   4   4  -2   22.40    3.40
  -3  -4   2  183.38   12.10
   3  -4  -2  186.68   11.50
  -3  -4   2  180.58    9.70
  -3  -4   2  182.38   12.50
   3  -4  -2  176.78   10.90
  -3   4   2  189.48    9.80
   3   4  -2  178.28   10.20
   2  -4  -2    4.90    1.70
  -2  -4   2    2.20    2.90
   2  -4  -2    7.80    2.50
   2  -4  -2    5.10    2.60
  -2  -4   2    4.80    1.00
  -2  -4   2    3.50    2.90
  -2   4   2    7.50    1.30
   2   4  -2    6.00    1.40
   1  -4  -2   26.00    4.60
   1  -4  -2   35.40    4.50
  -1  -4   2   33.70    4.80
   1  -4  -2   37.90    2.90
  -1  -4   2   34.30    5.20
   1   4  -2   32.90    2.70
  -1   4   2   33.40    2.20
   0  -4   2   27.40    4.50
   0  -4  -2   21.30    3.90
   0  -4   2   18.90    2.20
   0  -4  -2   22.40    3.70
   0  -4   2   18.20    3.60
   0   4  -2   23.40    2.10
   0   4   2   20.10    1.60
  -1  -4  -2    6.60    2.90
  -1  -4  -2    4.00    0.90
   1  -4   2    0.80    1.20
   1  -4   2    0.20    2.10
   1  -4   2    3.80    2.60
  -1   4  -2    3.20    1.00
   1   4   2    2.60    0.80
   2  -4   2   20.20    3.10
   2  -4   2   18.90    3.40
  -2  -4  -2   21.20    4.30
   2  -4   2   22.40    2.90
  -2  -4  -2   19.80    1.50
  -2  -4  -2   18.00    3.80
   2   4   2   17.00    1.90
  -2   4  -2   18.10    2.00
  -3  -4  -2  152.38   10.80
   3  -4   2  142.09    9.00
   3  -4   2  146.59    9.80
  -3  -4  -2  131.39   10.70
  -3  -4  -2  152.98    7.70
  -3  -4  -2  152.68    8.30
  -3   4  -2  161.18    8.40
  -4  -4  -2    8.50    3.80
   4  -4   2    4.80    2.40
  -4  -4  -2    4.80    3.50
  -4  -4  -2    5.00    0.90
   4  -4   2    6.70    1.90
  -4  -4  -2    6.10    1.80
   4  -4   2    0.00    2.30
  -4   4  -2    5.70    1.70
   5  -4   2   65.19    5.60
  -5  -4  -2   66.89    4.10
  -5  -4  -2   58.89    7.80
  -5  -4  -2   61.39    5.10
   5  -4   2   69.89    4.80
   5  -4   2   61.99    6.20
  -5   4  -2   69.09    5.20
  -6  -4  -2    1.90    1.40
  -6  -4  -2    4.70    4.20
  -6  -4  -2    5.60    2.50
   6  -4   2    5.50    2.10
   6  -4   2   -5.60    3.30
   6  -4   2    5.20    1.30
  -6   4  -2    3.20    2.20
  -7  -4  -2    8.20    3.10
  -7  -4  -2   17.50    3.00
  -7  -4  -2    4.90    5.10
  -7   4  -2   13.00    3.20
  -8  -4  -2   18.80    4.30
  -8  -4  -2   22.80    6.30
  -8   4  -2   14.20    3.90
  -9  -4  -2   37.90    7.40
  -9  -4  -2   30.10    6.00
  -7  -5   2    3.70    4.00
  -7   5   2    0.80    2.90
  -6  -5   2    0.50    1.70
   6  -5  -2   -4.20    4.30
   6   5  -2    5.50    3.10
  -6   5   2    2.50    2.40
   5  -5  -2   19.40    4.30
  -5  -5   2   15.80    2.70
   5  -5  -2    9.50    3.70
  -5  -5   2   10.80    4.80
   5  -5  -2   16.80    3.60
   5   5  -2   13.40    3.20
  -5   5   2   12.80    2.40
   4  -5  -2   28.90    4.50
  -4  -5   2   32.20    2.90
   4  -5  -2   32.30    5.00
   4  -5  -2   24.10    4.50
  -4  -5   2   32.90    6.10
   4   5  -2   29.60    4.30
  -4   5   2   28.80    3.10
   3  -5  -2    8.50    3.80
  -3  -5   2    4.60    3.90
   3  -5  -2    9.50    3.40
  -3  -5   2   12.70    2.10
   3  -5  -2    4.00    2.80
  -3   5   2    8.80    1.50
   3   5  -2   11.50    2.40
  -2  -5   2    9.40    1.70
   2  -5  -2    9.30    4.10
  -2  -5   2   14.00    4.40
   2  -5  -2    9.40    3.60
  -2   5   2    9.50    1.30
   2   5  -2   12.00    2.10
   1  -5  -2    9.70    3.80
   1  -5  -2    5.50    3.90
   1  -5  -2    3.00    1.90
  -1  -5   2    6.10    3.60
  -1  -5   2    6.90    1.70
  -1   5   2    9.40    1.50
   1   5  -2    7.30    1.70
   0  -5   2  140.79   11.70
   0  -5  -2  154.28    8.10
   0  -5   2  140.89    8.50
   0  -5   2  136.89   10.70
   0  -5  -2  144.19   11.20
   0  -5  -2  147.09   11.10
   0   5   2  144.29    7.70
   0   5  -2  141.79    8.00
   1  -5   2   -0.40    3.20
   1  -5   2    0.10    1.90
  -1  -5  -2    2.00    4.00
   1  -5   2    1.30    4.10
  -1   5  -2    0.30    1.00
   1   5   2    0.00    1.00
   2  -5   2   36.90    4.30
   2  -5   2   31.50    5.30
   2  -5   2   25.40    4.40
  -2  -5  -2   33.70    6.10
  -2  -5  -2   35.70    2.70
  -2   5  -2   32.40    3.00
  -3  -5  -2   12.30    1.70
  -3  -5  -2   17.60    5.10
   3  -5   2    4.90    3.00
   3  -5   2   14.50    4.30
   3  -5   2   10.80    3.20
   4  -5   2   30.00    4.20
  -4  -5  -2   28.60    2.20
  -4  -5  -2   21.20    3.50
  -4  -5  -2   25.90    6.10
   4  -5   2   18.10    4.30
   4  -5   2   26.50    5.00
  -4   5  -2   27.10    3.30
   5  -5   2    0.80    2.50
  -5  -5  -2   -0.10    5.00
  -5  -5  -2    6.90    2.70
  -5   5  -2    3.40    2.10
  -6  -5  -2    3.30    5.80
  -6   5  -2    3.40    2.60
  -7   5  -2    1.20    3.10
   3  -6  -2    5.90    5.50
  -2  -6   2  -10.90    5.40
   2  -6  -2    0.80    5.20
  -1  -6   2   -3.40    5.10
   1  -6  -2    1.60    5.10
   0  -6   2   -6.10    4.50
   0  -6  -2   -1.90    5.50
   0   6  -2   -0.50    1.90
   1  -6   2    7.00    5.10
  -1  -6  -2   12.90    6.10
   2  -6   2    0.90    4.50
  -2  -6  -2    3.70    6.30
  -2   6  -2    1.40    1.80
   3  -6   2   10.80    4.50
   4  -6   2    3.10    4.40
  -4   6  -2    3.50    2.20
 -11   0   3    1.20    4.80
 -10   0   3    0.40    3.40
 -10   0   3    5.50    1.70
  -9   0   3    7.80    2.00
  -9   0   3   11.80    3.40
  -9   0   3    8.60    1.20
  -8   0   3  152.08   10.20
  -8   0   3  150.08   10.40
  -8   0   3  153.58    9.20
  -8   0   3  180.48    8.50
  -7   0   3   39.60    4.50
  -7   0   3   30.30    2.10
  -7   0   3   26.00    3.00
  -7   0   3   24.10    3.60
   6   0  -3  242.78   13.80
  -6   0   3  255.77   14.70
  -6   0   3  278.07   13.40
  -6   0   3  264.07   14.50
   5   0  -3   -0.40    0.90
  -5   0   3   -0.50    1.00
  -5   0   3    0.70    0.50
  -5   0   3   -0.90    1.00
  -4   0   3 1186.48   59.59
   4   0  -3 1099.19   59.59
  -4   0   3 1208.58   59.89
  -4   0   3 1275.47   59.39
   3   0  -3   69.59    4.30
   3   0  -3   70.49    4.00
  -3   0   3   69.69    4.20
   2   0  -3  987.80   47.70
  -2   0   3  951.40   47.50
   2   0  -3  928.31   47.50
   1   0  -3   24.40    1.60
  -1   0   3   25.50    1.50
   0   0   3   15.40    0.90
   0   0  -3   14.10    0.90
  -1   0  -3   37.90    2.30
   1   0   3   47.20    2.40
   1   0   3   38.60    2.40
   2   0   3 2739.93  132.69
   2   0   3 2524.95  131.59
  -2   0  -3 2738.93  131.59
   3   0   3   75.69    4.60
  -3   0  -3   79.49    4.60
   3   0   3   74.09    4.30
   4   0   3  142.99    8.20
   4   0   3  142.09    7.80
  -5   0  -3    0.10    1.20
  -5   0  -3   -0.20    0.60
   5   0   3   -0.70    1.00
   5   0   3   -0.50    1.00
  -7   0  -3   10.80    2.90
  -7   0  -3   12.60    1.60
   7   0   3   12.10    2.80
   7   0   3    9.50    2.00
   8   0   3    1.50    2.80
  -8   0  -3    6.20    1.30
  -8   0  -3    4.90    1.90
  -8   0  -3    2.40    2.80
  -9   0  -3   -1.70    3.30
  -9   0  -3    1.20    1.90
  -9   0  -3    2.70    1.40
 -10   0  -3   -3.90    4.20
 -10   0  -3    2.80    1.80
 -11   0  -3   -4.30    5.30
 -11  -1   3   -6.70    4.70
 -10  -1   3   24.60    4.10
 -10  -1   3   22.60    4.90
 -10   1   3   19.00    4.90
  -9  -1   3   31.10    3.40
  -9  -1   3   30.10    4.10
  -9  -1   3   18.00    4.20
  -9   1   3   26.70    4.40
  -8  -1   3   60.39    5.50
  -8  -1   3   61.79    5.40
  -8  -1   3   57.99    4.50
  -8  -1   3   53.39    5.90
  -8   1   3   52.49    5.70
  -8   1   3   57.49    6.00
  -7  -1   3   18.60    2.60
  -7  -1   3   16.80    2.70
  -7  -1   3   19.30    3.30
  -7   1   3   14.90    2.80
  -7   1   3   18.50    3.10
  -6  -1   3   21.60    2.80
  -6  -1   3   20.30    3.00
  -6  -1   3   23.30    2.60
   6  -1  -3   18.80    1.60
  -6  -1   3   15.60    2.80
  -6   1   3   20.20    3.20
  -6   1   3   18.90    3.30
  -6   1   3   18.90    1.30
   5  -1  -3  128.19    6.90
  -5  -1   3  133.99    7.70
  -5  -1   3  134.69    7.60
   5   1  -3  120.69    7.80
  -5   1   3  134.09    8.00
  -5   1   3  133.99    8.10
   5   1  -3  131.49    7.90
  -4  -1   3  151.18    8.50
  -4  -1   3  152.88    8.40
   4  -1  -3  166.88    7.70
   4   1  -3  139.09    8.60
   4   1  -3  141.39    8.50
  -4   1   3  144.79    8.60
  -4   1   3  146.29    8.60
  -4   1   3  156.18    7.70
  -3  -1   3  329.27   16.40
  -3  -1   3  318.27   16.70
   3   1  -3  295.87   16.70
  -3   1   3  321.37   16.60
  -3   1   3  347.77   16.20
   3   1  -3  309.77   16.50
  -3   1   3  309.97   16.50
  -2  -1   3  416.46   20.90
  -2  -1   3  432.86   20.50
   2   1  -3  402.26   20.50
  -2   1   3  389.16   20.50
  -2   1   3  422.86   20.50
   2   1  -3  370.86   20.90
  -2   1   3  410.16   20.60
  -1  -1   3   11.90    0.90
  -1  -1   3   11.00    1.30
   1  -1  -3   11.00    1.10
  -1   1   3   10.60    0.90
   1   1  -3   11.30    1.40
   1   1  -3   12.80    1.00
  -1   1   3   11.90    1.20
   0  -1  -3  225.98   11.00
   0  -1   3  221.78   11.20
   0  -1   3  224.28   11.50
   0   1   3  217.08   11.60
   0   1  -3  212.48   11.60
   0   1  -3  224.38   11.20
   0   1   3  223.88   11.00
  -1  -1  -3  310.07   15.90
   1  -1   3  346.37   15.70
  -1  -1  -3  317.57   15.30
   1  -1   3  317.47   15.70
  -1   1  -3  300.57   15.80
   1   1   3  280.37   15.40
  -1   1  -3  308.07   15.60
   1   1   3  292.97   16.00
   2  -1   3   69.59    4.30
  -2  -1  -3   73.69    4.10
  -2  -1  -3   69.29    4.40
  -2   1  -3   77.49    4.10
   2   1   3   72.59    4.10
   2   1   3   74.89    4.60
  -2   1  -3   79.19    4.30
  -3  -1  -3 1018.20   51.59
  -3  -1  -3 1070.49   51.09
  -3   1  -3 1038.20   51.19
  -3   1  -3 1067.19   51.09
   3   1   3  977.20   51.69
   3   1   3  980.80   51.09
   4  -1   3   77.09    3.90
  -4  -1  -3   77.29    4.80
  -4  -1  -3   69.39    4.60
   4   1   3   71.19    4.70
  -4   1  -3   71.99    3.90
   4   1   3   66.99    4.80
  -4   1  -3   73.39    4.80
  -5  -1  -3  123.29    7.10
   5  -1   3  116.99    7.40
  -5  -1  -3  125.39    7.40
   5  -1   3  119.59    6.40
   5   1   3  112.29    7.30
  -5   1  -3  120.39    6.20
   5   1   3  117.59    7.50
   6  -1   3   20.20    1.80
  -6  -1  -3   17.30    2.50
   6  -1   3   19.90    3.10
   6   1   3   21.70    3.40
   6   1   3   20.00    3.10
  -6   1  -3   20.20    1.40
  -6   1  -3   23.20    3.40
  -7  -1  -3   14.40    2.60
  -7  -1  -3   12.40    2.80
  -7  -1  -3   15.10    3.10
   7   1   3   10.90    2.50
  -7   1  -3   14.20    3.00
  -7   1  -3   11.30    1.40
  -8  -1  -3   20.00    3.50
  -8  -1  -3   19.00    3.40
   8  -1   3   16.80    4.10
  -8  -1  -3   24.80    3.20
  -8   1  -3   20.60    3.70
  -9  -1  -3   56.09    7.50
  -9  -1  -3   48.60    4.50
  -9  -1  -3   38.00    6.60
  -9   1  -3   52.19    6.50
 -10  -1  -3    3.30    4.80
 -10  -1  -3    6.60    3.10
 -10  -1  -3    6.20    2.40
 -10   1  -3   10.70    4.50
 -11  -1  -3    5.40    6.00
 -11  -2   3    0.10    3.30
 -11  -2   3   11.50    5.90
 -10  -2   3   10.70    5.10
 -10  -2   3    0.40    4.10
 -10  -2   3   11.90    3.30
  -9  -2   3   12.70    4.40
  -9  -2   3    1.40    4.00
  -9   2   3   21.50    5.10
  -8  -2   3   13.60    3.80
  -8  -2   3   11.90    2.80
  -8  -2   3   13.10    2.80
  -8  -2   3    5.80    3.40
  -8   2   3    9.10    3.20
  -7  -2   3   33.00    4.30
  -7  -2   3   27.00    4.30
  -7  -2   3   30.90    3.70
  -7   2   3   36.70    4.70
  -7   2   3   36.50    4.60
  -6  -2   3   34.00    3.30
  -6  -2   3   36.40    4.60
  -6  -2   3   30.90    3.80
  -6   2   3   26.30    3.80
  -6   2   3   25.60    4.00
   6   2  -3   30.70    3.70
  -5  -2   3   59.29    4.00
  -5  -2   3   57.09    5.00
   5  -2  -3   51.29    4.60
  -5   2   3   50.79    4.50
  -5   2   3   56.29    3.50
  -4  -2   3   18.80    2.80
  -4   2   3   16.90    1.90
   4   2  -3   15.80    2.80
   4   2  -3   12.30    2.20
  -4   2   3   13.20    2.40
   3  -2  -3  152.78    7.80
  -3  -2   3  147.59    8.80
  -3  -2   3  154.28    7.90
   3  -2  -3  150.68    8.30
   3   2  -3  140.49    8.10
  -3   2   3  135.89    8.10
  -3   2   3  140.29    8.10
  -2  -2   3  192.98    9.50
  -2  -2   3  176.08   10.30
   2  -2  -3  183.48    9.80
   2  -2  -3  186.38    9.70
  -2   2   3  179.98    9.70
   2   2  -3  168.28   10.40
   2   2  -3  191.68    9.70
  -2   2   3  182.08   10.10
  -1  -2   3  330.07   18.30
   1  -2  -3  337.97   18.00
  -1  -2   3  362.16   17.50
   1   2  -3  377.56   17.50
  -1   2   3  343.97   18.20
   1   2  -3  328.27   18.40
  -1   2   3  342.77   17.40
   0  -2   3  111.19    6.70
   0  -2   3  119.59    6.10
   0  -2  -3  116.39    6.70
   0   2  -3  117.29    6.10
   0   2  -3  107.19    6.80
   0   2   3  111.19    6.80
   1  -2   3  151.88    8.00
   1  -2   3  143.89    8.20
  -1  -2  -3  146.49    8.50
   1   2   3  139.39    8.60
  -1   2  -3  140.39    8.40
  -1   2  -3  164.58    7.80
   2  -2   3  388.46   19.30
   2  -2   3  362.76   19.30
  -2  -2  -3  380.86   18.70
  -2  -2  -3  380.16   19.90
  -2   2  -3  349.87   19.50
  -2   2  -3  397.86   19.10
   2   2   3  365.16   20.00
  -3  -2  -3   54.69    3.50
  -3  -2  -3   54.89    3.40
  -3  -2  -3   53.39    4.30
   3  -2   3   60.59    3.40
   3   2   3   53.19    4.40
  -3   2  -3   51.59    3.70
  -3   2  -3   58.69    3.70
   4  -2   3    2.70    0.70
  -4  -2  -3    0.50    1.40
  -4  -2  -3    2.10    1.00
  -4  -2  -3    1.30    1.00
   4   2   3    1.70    1.50
  -4   2  -3    1.20    0.90
  -5  -2  -3   29.20    3.00
   5  -2   3   18.10    3.30
  -5  -2  -3   20.60    3.20
  -5  -2  -3   25.10    2.70
  -5   2  -3   24.00    2.20
  -5   2  -3   28.20    3.20
   5   2   3   26.10    3.70
  -6  -2  -3  147.59    8.80
   6  -2   3  127.89    8.80
  -6  -2  -3  136.19    8.30
  -6  -2  -3  131.59    8.40
   6   2   3  131.39    9.10
  -7  -2  -3    9.20    2.80
  -7  -2  -3    7.50    2.90
   7  -2   3    9.60    2.90
  -7  -2  -3    4.20    2.60
  -7  -2  -3    7.10    2.40
  -7   2  -3    8.40    2.50
  -8  -2  -3   14.10    3.50
  -8  -2  -3    9.50    3.60
  -8  -2  -3   12.00    3.00
  -8   2  -3   13.00    3.10
  -9  -2  -3   11.20    4.20
  -9  -2  -3   10.70    3.50
  -9  -2  -3   11.10    3.80
  -9   2  -3   13.20    3.60
 -10  -2  -3   33.20    5.90
 -10  -2  -3   60.09   10.10
 -10  -2  -3   35.20    5.30
 -10   2  -3   49.50    7.30
 -11  -2  -3    3.80    6.50
 -10  -3   3   14.40    5.70
 -10  -3   3   12.60    4.80
  -9  -3   3   22.10    5.20
  -9  -3   3   12.00    4.20
  -9   3   3   10.40    4.40
  -8  -3   3    4.10    3.50
  -8  -3   3    2.00    2.30
  -8  -3   3    5.90    4.70
  -8  -3   3    1.80    2.90
  -8   3   3   -3.80    3.00
  -7  -3   3   21.00    3.30
  -7  -3   3   21.20    4.00
  -7  -3   3   28.00    5.00
  -7  -3   3   17.30    3.50
  -7   3   3   17.00    3.80
  -7   3   3   21.70    4.10
  -6  -3   3    3.90    2.80
   6  -3  -3    6.50    1.50
  -6  -3   3    7.50    1.70
  -6  -3   3    3.30    3.40
   6  -3  -3    7.70    1.20
   6   3  -3    4.90    2.10
  -6   3   3    0.50    2.40
   5  -3  -3   46.60    2.80
  -5  -3   3   39.20    3.20
   5  -3  -3   34.10    3.50
  -5  -3   3   38.40    5.40
  -5  -3   3   39.40    4.90
   5   3  -3   42.30    3.90
  -5   3   3   37.70    4.10
  -4  -3   3   34.40    4.90
  -4  -3   3   27.40    4.10
  -4  -3   3   38.20    2.70
   4  -3  -3   36.80    2.80
   4   3  -3   33.30    3.30
  -4   3   3   31.80    3.40
  -4   3   3   35.70    3.40
  -3  -3   3   25.10    3.60
   3  -3  -3   22.90    2.60
  -3  -3   3   25.00    4.00
   3  -3  -3   27.40    2.80
  -3  -3   3   22.90    2.00
  -3   3   3   24.90    3.10
   3   3  -3   23.00    2.60
  -3   3   3   25.10    2.40
   2  -3  -3   45.30    3.90
  -2  -3   3   51.29    3.00
  -2  -3   3   42.60    4.40
   2  -3  -3   45.30    3.40
  -2   3   3   48.70    3.00
   2   3  -3   48.90    3.30
  -2   3   3   46.50    4.20
   2   3  -3   45.00    4.60
  -1  -3   3   16.10    1.50
   1  -3  -3   14.70    1.60
   1  -3  -3   13.60    2.30
  -1   3   3   19.50    2.90
  -1   3   3   18.00    1.20
   1   3  -3   15.20    1.70
   1   3  -3   14.00    2.60
   0  -3   3  589.64   27.90
   0  -3   3  583.34   29.10
   0  -3  -3  574.24   27.50
   0  -3  -3  554.84   29.00
   0   3   3  522.55   29.10
   0   3   3  502.35   27.30
   0   3  -3  515.25   29.00
   0   3  -3  588.44   27.80
  -1  -3  -3   38.60    3.80
   1  -3   3   29.80    3.20
  -1   3  -3   32.60    3.50
  -1   3  -3   34.90    2.40
   1   3   3   30.60    3.90
   2  -3   3   93.89    6.00
  -2  -3  -3  102.69    5.00
  -2  -3  -3  103.39    7.00
   2  -3   3  106.99    6.40
  -2  -3  -3   94.39    5.30
  -2   3  -3   92.79    6.60
   2   3   3   91.19    6.90
  -2   3  -3  109.39    5.70
  -3  -3  -3   76.99    6.10
   3  -3   3   73.09    5.30
  -3  -3  -3   79.89    4.50
   3  -3   3   81.79    5.00
  -3  -3  -3   76.89    4.10
  -3   3  -3   68.79    5.40
   3   3   3   75.19    6.40
  -3   3  -3   80.19    4.80
   4  -3   3   80.99    4.80
   4  -3   3   74.09    5.50
  -4  -3  -3   73.39    4.90
  -4  -3  -3   79.29    4.50
  -4   3  -3   81.09    5.20
   4   3   3   74.49    6.60
  -5  -3  -3   78.59    4.90
   5  -3   3   72.49    5.30
   5  -3   3   82.39    6.30
  -5  -3  -3   80.09    5.40
  -5  -3  -3   79.59    6.80
  -5   3  -3   82.99    5.80
   6  -3   3   30.20    2.90
  -6  -3  -3   32.30    5.20
  -6  -3  -3   31.70    3.90
  -6  -3  -3   33.80    5.60
  -6  -3  -3   30.30    3.30
   6  -3   3   38.00    4.80
  -6   3  -3   33.50    4.10
  -7  -3  -3   21.60    4.50
  -7  -3  -3   12.00    3.90
  -7  -3  -3   15.90    3.20
  -7  -3  -3   15.90    2.60
  -7   3  -3   15.00    3.10
  -8  -3  -3    6.60    2.60
  -8  -3  -3    0.00    4.30
  -8  -3  -3    6.80    4.40
  -8   3  -3    8.20    3.30
  -9  -3  -3    0.00    5.10
  -9  -3  -3   12.90    3.60
  -9  -3  -3   20.40    5.10
  -9   3  -3   11.00    4.10
 -10  -3  -3    2.20    5.80
  -9  -4   3   34.80    7.00
  -9   4   3   55.29    7.60
  -8  -4   3   17.10    4.20
  -8   4   3   17.20    4.10
  -7  -4   3   26.20    3.40
  -7  -4   3   17.50    4.60
   7  -4  -3   12.70    4.40
  -7   4   3   25.30    4.10
   7   4  -3   21.10    3.70
  -6  -4   3   -1.20    1.50
  -6  -4   3   -3.60    3.20
   6  -4  -3    1.80    2.20
   6  -4  -3    0.60    3.10
   6  -4  -3    1.00    1.40
   6   4  -3    1.50    2.60
  -6   4   3   -0.40    2.30
   5  -4  -3  112.69    8.00
  -5  -4   3  112.69    6.20
   5  -4  -3   94.29    7.40
  -5  -4   3   98.49    8.90
  -5   4   3  107.89    7.00
   5   4  -3   95.39    7.20
   4  -4  -3   31.20    4.20
  -4  -4   3   28.60    2.50
  -4  -4   3   27.10    4.70
   4  -4  -3   27.10    3.70
   4  -4  -3   29.20    4.50
  -4  -4   3   27.40    5.30
  -4   4   3   33.20    3.20
   4   4  -3   28.90    3.60
   3  -4  -3  303.17   16.10
  -3  -4   3  280.97   18.00
  -3  -4   3  298.77   15.40
  -3  -4   3  291.77   17.60
   3  -4  -3  298.67   16.40
   3  -4  -3  297.07   17.00
  -3   4   3  307.17   15.40
   3   4  -3  293.97   15.90
   2  -4  -3   12.40    2.10
   2  -4  -3   16.70    2.80
  -2  -4   3   13.50    1.80
   2  -4  -3   15.00    3.10
  -2  -4   3   19.00    4.40
  -2  -4   3   15.00    3.30
  -2   4   3   16.10    1.50
   2   4  -3   12.90    2.20
  -1  -4   3   89.49    7.70
   1  -4  -3   91.29    5.40
  -1  -4   3   95.39    5.50
   1  -4  -3   88.29    7.10
   1   4  -3   95.79    5.50
  -1   4   3   84.09    7.10
  -1   4   3   93.49    4.80
   0  -4   3    2.70    2.80
   0  -4  -3    2.20    0.80
   0  -4  -3    2.50    2.20
   0  -4   3    3.20    2.40
   0  -4   3    2.00    1.10
   0   4  -3    1.90    1.00
   0   4   3    0.20    2.30
   1  -4   3   14.80    2.90
   1  -4   3   14.30    2.30
   1  -4   3   13.90    3.30
  -1   4  -3   19.40    2.00
   2  -4   3    9.80    2.40
   2  -4   3    6.90    1.90
   2  -4   3    6.40    2.80
  -2  -4  -3   11.20    3.20
  -2  -4  -3    3.60    2.90
   2   4   3    7.20    3.20
  -2   4  -3    6.30    1.30
   3  -4   3    6.10    2.90
  -3  -4  -3    7.30    3.70
   3  -4   3    5.90    2.10
  -3  -4  -3    6.10    3.20
  -3  -4  -3    7.20    0.90
  -3  -4  -3    6.90    1.20
   3  -4   3   10.30    2.30
  -3   4  -3    7.60    1.40
   4  -4   3    3.30    1.80
   4  -4   3    5.60    2.60
  -4  -4  -3    3.80    0.70
  -4  -4  -3    8.60    3.20
  -4  -4  -3    1.70    1.30
  -4  -4  -3    5.90    3.60
  -4   4  -3    4.20    1.60
  -5  -4  -3    7.60    1.20
  -5  -4  -3    9.30    2.00
   5  -4   3    9.80    2.90
   5  -4   3   11.30    2.00
  -5  -4  -3    7.60    4.40
  -5   4  -3    8.20    2.00
  -6  -4  -3    2.30    2.40
  -6  -4  -3   -0.30    4.20
   6  -4   3    0.80    1.20
   6  -4   3    0.40    2.20
  -6  -4  -3    3.30    1.40
  -6   4  -3    0.90    2.20
  -7  -4  -3   22.70    3.20
  -7  -4  -3   17.80    3.70
  -7  -4  -3   15.50    5.40
  -7   4  -3   19.50    3.60
  -8  -4  -3    8.10    6.30
  -8   4  -3   16.50    3.70
  -9  -4  -3   19.50    7.10
  -7   5   3    5.10    3.20
  -6  -5   3    0.70    1.70
  -6  -5   3   -1.10    4.80
  -6   5   3   -2.30    2.40
   6   5  -3   -2.50    3.10
  -5  -5   3   11.90    2.00
   5  -5  -3   14.70    3.20
  -5  -5   3    2.10    4.70
   5  -5  -3   14.40    4.00
  -5   5   3    9.60    2.40
   5   5  -3   10.00    3.10
   4  -5  -3   34.60    5.50
  -4  -5   3   25.60    5.50
   4  -5  -3   32.60    4.50
  -4  -5   3   32.10    3.10
  -4   5   3   29.60    3.10
   4   5  -3   26.70    4.50
   3  -5  -3    9.60    3.00
  -3  -5   3    7.40    1.60
   3  -5  -3    5.00    3.80
  -3  -5   3    4.80    4.20
   3  -5  -3    5.30    3.40
  -3   5   3    5.10    1.30
   3   5  -3    6.90    2.30
  -2  -5   3   48.20    3.70
   2  -5  -3   48.60    7.10
  -2  -5   3   36.90    6.60
   2  -5  -3   48.90    4.30
   2  -5  -3   45.50    6.30
  -2   5   3   43.70    2.90
   2   5  -3   41.30    4.10
   1  -5  -3    0.60    3.60
  -1  -5   3    8.70    1.90
  -1  -5   3    9.20    3.60
   1  -5  -3    6.30    4.20
   1  -5  -3    6.20    1.60
  -1   5   3    9.40    1.40
   1   5  -3    6.80    1.70
   0  -5  -3   53.39    7.80
   0  -5  -3   63.69    7.30
   0  -5   3   53.89    6.70
   0  -5   3   63.99    8.10
   0  -5   3   59.19    4.70
   0   5  -3   61.29    4.30
  -1  -5  -3   -2.70    3.50
   1  -5   3    3.10    3.90
   1  -5   3    2.90    2.00
   1  -5   3    0.50    2.90
  -1   5  -3    0.40    1.20
   2  -5   3   13.90    4.70
   2  -5   3    8.50    3.40
  -2  -5  -3    9.80    5.00
   2  -5   3    9.80    2.70
   3  -5   3    4.90    2.50
   3  -5   3    7.70    4.10
   3  -5   3    6.00    3.10
  -3  -5  -3    6.10    4.60
  -3   5  -3    4.90    1.60
   4  -5   3   20.80    4.70
   4  -5   3   33.90    5.30
  -4  -5  -3   45.60    8.20
  -4   5  -3   33.80    3.70
   5  -5   3   12.90    2.90
  -5  -5  -3   12.70    5.70
  -5   5  -3    9.80    2.50
  -6  -5  -3    3.80    6.40
  -6   5  -3    6.30    2.70
  -7   5  -3    0.80    3.00
   4  -6  -3   -0.30    5.40
   3  -6  -3    9.40    5.60
   2  -6  -3    2.80    5.50
  -2  -6   3   -4.80    5.10
   1  -6  -3    3.60    5.50
  -1  -6   3   -3.80    4.50
   1   6  -3    2.50    2.40
   0  -6  -3   -0.10    5.70
   0  -6   3    1.80    4.60
   0   6  -3    0.70    2.10
  -1  -6  -3   -2.60    6.00
   1  -6   3    7.00    4.50
  -1   6  -3    3.50    2.10
   2  -6   3   12.30    4.70
  -2   6  -3    5.80    2.10
   3  -6   3    3.70    4.30
  -3   6  -3    5.10    2.20
 -10   0   4   20.80    3.00
 -10   0   4   27.90    5.10
  -9   0   4    3.50    1.90
  -9   0   4   -3.70    2.80
  -9   0   4    2.10    1.10
  -8   0   4   14.00    2.50
  -8   0   4   16.80    3.40
  -8   0   4   13.20    3.00
  -7   0   4    1.30    1.90
  -7   0   4    3.00    1.90
   7   0  -4    2.40    1.50
  -7   0   4    3.80    0.90
  -6   0   4   14.60    2.60
  -6   0   4   12.00    2.30
  -6   0   4   17.20    1.50
   6   0  -4   13.60    2.30
   5   0  -4   85.29    5.20
  -5   0   4   91.59    5.70
  -5   0   4   86.19    5.90
   4   0  -4  320.97   16.20
   4   0  -4  303.17   16.40
   3   0  -4    9.00    1.10
  -3   0   4    8.80    1.30
   3   0  -4    8.30    1.30
   2   0  -4  171.98    8.40
   2   0  -4  150.88    8.50
  -2   0   4  157.88    8.40
   0   0  -4 8130.69  397.36
   0   0   4 7987.20  397.26
  -1   0  -4  157.08    7.90
   1   0   4  153.18    8.00
   2   0   4  364.36   19.70
   2   0   4  415.06   19.70
  -2   0  -4  388.26   19.70
  -3   0  -4   24.40    2.10
   3   0   4   24.80    1.90
   3   0   4   18.10    2.10
   4   0   4    3.30    1.20
   4   0   4    2.20    0.90
  -4   0  -4    4.00    0.80
  -4   0  -4    1.90    1.20
   5   0   4    2.40    1.40
  -5   0  -4    4.20    1.60
   5   0   4    5.00    1.20
  -5   0  -4    7.30    1.10
  -6   0  -4  101.39    6.90
   6   0   4  101.59    6.80
   6   0   4   96.79    6.10
  -7   0  -4    0.60    2.10
   7   0   4    3.50    1.70
   7   0   4   -0.70    2.30
  -8   0  -4    1.00    1.30
  -8   0  -4    1.90    2.80
   8   0   4    5.70    2.70
   8   0   4    2.90    1.90
  -9   0  -4    2.20    2.10
  -9   0  -4   -3.60    3.40
  -9   0  -4   -2.50    1.60
 -10   0  -4    5.80    4.20
 -11  -1   4   14.10    5.70
 -10  -1   4   18.70    3.20
 -10  -1   4   18.60    4.10
 -10  -1   4   16.00    4.70
 -10   1   4   14.90    4.40
  -9  -1   4   12.60    3.60
  -9  -1   4   14.70    3.50
  -9   1   4    7.60    3.40
  -8  -1   4   19.80    3.50
  -8  -1   4   27.60    4.40
  -8  -1   4   30.30    4.00
  -8  -1   4   19.30    2.80
  -8   1   4   20.50    3.60
  -7  -1   4  137.89    8.70
  -7  -1   4  142.99    9.00
   7  -1  -4  134.79    7.50
  -7  -1   4  140.99    8.10
  -7   1   4  142.49    7.20
  -7   1   4  136.19    9.00
  -7   1   4  129.79    9.30
  -6  -1   4   11.70    2.00
   6  -1  -4   13.10    1.60
  -6  -1   4   11.00    2.00
  -6   1   4   10.20    1.10
  -6   1   4    7.20    2.40
   6   1  -4   11.30    2.20
  -6   1   4   11.60    2.40
   6   1  -4   10.50    2.20
   5  -1  -4   23.10    1.80
  -5  -1   4   25.20    2.40
  -5  -1   4   25.30    2.60
  -5   1   4   26.40    1.60
  -5   1   4   19.30    2.90
   5   1  -4   22.70    2.80
   5   1  -4   24.70    3.00
  -5   1   4   20.50    2.70
  -4  -1   4  133.39    7.70
  -4  -1   4  135.19    7.70
   4   1  -4  126.79    7.90
   4   1  -4  124.29    7.80
  -4   1   4  139.59    7.90
  -4   1   4  151.18    7.10
  -4   1   4  135.99    8.00
  -3  -1   4 1168.68   57.39
  -3  -1   4 1182.88   56.79
   3   1  -4 1091.09   56.89
  -3   1   4 1151.88   57.09
  -3   1   4 1112.19   56.89
   3   1  -4 1063.29   57.49
  -3   1   4 1219.98   56.89
  -2  -1   4   22.60    1.90
   2  -1  -4   20.40    1.80
  -2  -1   4   25.00    1.70
  -2   1   4   25.20    1.70
  -2   1   4   23.90    1.80
   2   1  -4   23.30    1.90
   2   1  -4   22.00    2.10
   1  -1  -4  331.77   17.70
  -1  -1   4  360.66   18.10
  -1  -1   4  368.46   17.70
  -1   1   4  342.67   18.00
  -1   1   4  359.36   17.60
   1   1  -4  340.87   18.20
   1   1  -4  361.86   17.70
   0  -1  -4  298.67   14.30
   0  -1  -4  271.27   13.90
   0  -1   4  304.87   14.40
   0  -1   4  277.47   14.10
   0   1  -4  280.37   14.10
   0   1   4  258.87   14.40
   0   1  -4  256.47   14.40
   0   1   4  279.37   13.80
  -1  -1  -4 1178.08   57.29
   1  -1   4 1166.78   56.69
  -1   1  -4 1185.18   56.69
   1   1   4 1104.29   57.39
   1   1   4 1065.89   56.49
  -1   1  -4 1165.58   57.19
  -2  -1  -4   12.60    1.20
   2  -1   4   12.20    1.50
  -2  -1  -4   12.90    1.50
  -2   1  -4    9.50    1.20
   2   1   4   11.10    1.20
   2   1   4   11.40    1.60
  -2   1  -4   11.40    1.10
   3  -1   4  419.56   23.10
  -3  -1  -4  461.85   22.90
  -3  -1  -4  475.65   23.30
   3   1   4  437.26   23.40
  -3   1  -4  470.15   23.10
  -3   1  -4  477.65   22.80
   3   1   4  418.96   22.90
  -4  -1  -4   20.30    2.20
   4  -1   4   21.90    1.60
  -4  -1  -4   19.80    2.30
   4   1   4   21.90    2.60
  -4   1  -4   23.40    2.40
  -4   1  -4   24.30    1.60
   4   1   4   15.00    2.40
  -5  -1  -4   63.99    4.80
   5  -1   4   59.59    4.80
   5  -1   4   62.49    3.80
  -5  -1  -4   69.59    4.50
  -5   1  -4   68.09    3.70
   5   1   4   62.99    4.90
  -5   1  -4   69.39    4.90
  -6  -1  -4    1.50    1.90
   6  -1   4    1.10    1.00
  -6  -1  -4    3.00    1.30
   6  -1   4    1.40    1.70
  -6   1  -4    2.90    1.70
  -6   1  -4    2.80    0.70
   6   1   4    3.20    1.80
   6   1   4    4.10    1.80
  -7  -1  -4   58.09    4.40
   7  -1   4   55.39    3.80
   7  -1   4   51.59    5.50
  -7  -1  -4   53.99    5.70
  -7   1  -4   55.99    5.50
   7   1   4   59.99    5.30
   7   1   4   65.99    5.60
  -7   1  -4   54.09    3.20
  -8  -1  -4   33.40    3.40
   8  -1   4   35.30    5.00
  -8  -1  -4   27.30    4.10
  -8  -1  -4   27.70    4.30
  -8   1  -4   28.50    4.40
   8   1   4   20.90    4.30
  -8   1  -4   29.30    2.00
  -9  -1  -4   23.20    4.90
  -9  -1  -4   20.50    3.90
  -9   1  -4   19.40    4.50
 -10  -1  -4    5.80    4.80
 -10  -1  -4    3.30    3.50
 -10   1  -4    5.90    4.30
 -11  -1  -4   -3.30    5.50
 -11  -2   4   -3.10    3.20
 -10  -2   4    9.10    3.30
 -10  -2   4   17.10    5.20
 -10  -2   4    8.70    5.20
 -10   2   4   14.10    4.90
  -9  -2   4   11.80    4.30
  -9  -2   4    6.50    2.80
  -9   2   4   16.60    4.00
  -8  -2   4    6.90    2.60
  -8  -2   4    9.30    2.90
  -8  -2   4    7.20    2.40
  -8  -2   4    5.90    3.50
  -8   2   4    1.60    2.90
  -8   2   4    8.50    3.30
  -7  -2   4   11.20    2.60
  -7  -2   4    6.90    3.30
  -7  -2   4    6.90    2.30
  -7  -2   4   13.60    3.20
  -7   2   4    7.70    2.80
   7   2  -4    8.80    2.40
  -7   2   4    9.80    2.80
  -6  -2   4  100.99    7.70
  -6  -2   4  107.79    7.20
  -6  -2   4  109.89    6.60
   6  -2  -4  100.59    5.40
  -6   2   4  101.09    7.20
  -6   2   4  105.99    7.20
  -6   2   4   99.99    5.80
   6   2  -4   96.49    7.00
  -5  -2   4   23.90    3.10
  -5  -2   4   21.30    2.40
  -5   2   4   18.60    2.90
  -5   2   4   24.20    2.20
   5   2  -4   24.10    3.00
   5   2  -4   23.90    3.60
  -5   2   4   23.40    3.10
  -4  -2   4  157.68    9.20
  -4  -2   4  166.28    8.40
   4   2  -4  147.79    8.70
  -4   2   4  152.28    8.80
  -4   2   4  152.58    8.40
  -4   2   4  149.69    8.80
   4   2  -4  139.09    9.30
   3  -2  -4   49.20    2.80
  -3  -2   4   46.10    2.80
  -3  -2   4   41.70    3.60
   3   2  -4   40.40    3.90
  -3   2   4   36.60    3.10
  -3   2   4   40.40    3.10
   3   2  -4   36.90    3.10
  -3   2   4   40.10    3.10
  -2  -2   4  699.53   31.50
  -2  -2   4  622.44   32.50
   2  -2  -4  677.63   31.90
  -2   2   4  600.54   31.60
  -2   2   4  610.74   31.60
   2   2  -4  656.53   31.70
  -2   2   4  608.54   32.20
   2   2  -4  561.64   32.50
   1  -2  -4  331.17   16.90
  -1  -2   4  324.97   17.10
  -1  -2   4  340.87   16.40
  -1   2   4  307.97   17.10
  -1   2   4  319.17   16.20
   1   2  -4  334.37   16.40
   1   2  -4  298.57   17.20
   0  -2  -4  100.29    6.00
   0  -2   4  100.49    6.00
   0  -2   4  102.79    5.50
   0   2  -4  100.79    5.40
   0   2   4   95.69    6.20
   0   2  -4   95.89    6.10
   1  -2   4  565.84   28.20
  -1  -2  -4  550.14   28.50
   1  -2   4  560.34   27.80
  -1   2  -4  603.34   27.70
  -1   2  -4  505.35   28.30
   1   2   4  524.55   28.60
   2  -2   4  320.87   17.10
   2  -2   4  354.26   17.10
  -2  -2  -4  322.27   16.50
  -2   2  -4  314.77   17.30
  -2   2  -4  354.76   17.00
   2   2   4  312.77   17.80
   3  -2   4  156.58    9.40
  -3  -2  -4  167.78    9.70
  -3  -2  -4  158.58    8.80
  -3  -2  -4  176.88    8.90
  -3   2  -4  162.88    9.20
  -3   2  -4  187.68    9.20
   3   2   4  159.38    9.90
   4  -2   4   25.40    2.70
  -4  -2  -4   26.30    2.50
  -4  -2  -4   29.80    2.80
  -4  -2  -4   24.80    3.20
  -4   2  -4   29.40    2.50
  -4   2  -4   28.40    2.80
  -5  -2  -4   47.90    4.30
  -5  -2  -4   43.30    3.70
   5  -2   4   39.20    4.10
   5   2   4   43.70    4.60
  -5   2  -4   48.10    4.00
  -5   2  -4   42.00    3.10
   6  -2   4   62.49    3.50
  -6  -2  -4   68.59    5.40
   6  -2   4   55.99    5.40
  -6  -2  -4   63.69    4.90
   6   2   4   62.99    5.80
  -6   2  -4   55.19    3.80
  -6   2  -4   63.79    5.20
  -7  -2  -4   12.10    2.80
   7  -2   4   12.80    3.10
  -7  -2  -4   15.80    2.80
   7   2   4   13.20    3.40
  -7   2  -4   15.40    2.90
  -8  -2  -4   -3.60    2.80
  -8  -2  -4    0.90    2.80
  -8  -2  -4    0.20    2.50
  -8   2  -4    0.50    2.50
  -9  -2  -4   27.20    4.40
  -9  -2  -4   31.30    5.50
  -9  -2  -4   27.30    4.80
  -9  -2  -4   34.30    5.40
  -9   2  -4   23.00    4.50
 -10  -2  -4   13.40    5.30
 -10  -2  -4   15.40    5.70
 -10  -2  -4   18.70    4.30
 -10   2  -4   12.90    5.00
 -10  -3   4   -1.40    5.20
 -10  -3   4    3.10    4.30
 -10   3   4   -7.00    5.00
  -9  -3   4   -1.00    3.70
  -9  -3   4    6.80    3.70
  -9   3   4    3.70    4.00
  -8  -3   4    3.10    4.50
  -8  -3   4    2.90    3.50
  -8  -3   4    1.80    3.00
  -8   3   4    1.00    3.30
  -7  -3   4   20.60    3.40
  -7  -3   4   11.00    4.60
  -7  -3   4   19.20    3.80
   7   3  -4   13.70    3.30
  -7   3   4   18.00    3.70
  -7   3   4   17.50    3.70
  -6  -3   4   66.99    4.70
  -6  -3   4   55.19    6.00
  -6  -3   4   63.49    7.30
   6  -3  -4   55.09    4.40
  -6   3   4   59.59    5.60
  -6   3   4   62.79    5.80
  -5  -3   4   41.00    3.00
  -5  -3   4   36.10    5.40
  -5   3   4   33.30    3.50
  -5   3   4   31.50    4.20
  -5   3   4   30.40    4.00
   5   3  -4   31.00    3.70
   4  -3  -4   20.20    2.10
  -4  -3   4   19.00    3.40
  -4  -3   4   19.30    2.00
   4   3  -4   17.50    2.60
  -4   3   4   20.00    3.00
  -4   3   4   16.20    2.80
   4   3  -4   16.60    3.40
  -3  -3   4   65.89    5.50
  -3  -3   4   76.19    4.10
   3  -3  -4   69.99    4.50
  -3   3   4   58.69    4.40
   3   3  -4   64.69    4.50
  -3   3   4   68.49    4.40
   3   3  -4   56.49    5.40
  -3   3   4   61.99    5.00
  -2  -3   4   24.50    2.00
   2  -3  -4   22.20    2.70
  -2  -3   4   21.60    3.10
  -2   3   4   22.40    1.90
  -2   3   4   24.90    2.30
   2   3  -4   24.20    3.60
   2   3  -4   25.10    2.30
  -2   3   4   24.70    3.20
  -1  -3   4  109.19    7.20
  -1  -3   4  110.19    6.20
   1  -3  -4  108.29    6.90
  -1   3   4  108.19    7.30
   1   3  -4  104.69    7.40
   1   3  -4  114.59    6.20
  -1   3   4  108.09    5.80
  -1   3   4  114.59    5.70
   0  -3   4    6.70    1.20
   0  -3   4    6.90    1.90
   0  -3  -4    6.60    1.80
   0   3  -4    7.10    1.30
   0   3  -4    6.30    2.00
   1  -3   4   64.49    4.70
  -1  -3  -4   64.69    5.00
   1  -3   4   60.19    4.00
   1   3   4   56.49    5.20
  -1   3  -4   55.19    4.90
  -1   3  -4   66.09    3.80
   2  -3   4  137.29    7.90
   2  -3   4  128.29    7.70
  -2  -3  -4  133.49    8.50
   2   3   4  129.39    8.80
   3  -3   4   13.50    2.20
   3  -3   4   15.40    2.10
  -3  -3  -4   10.90    2.70
  -3  -3  -4   13.60    1.10
  -3  -3  -4   10.30    1.50
  -3   3  -4   12.80    2.40
   3   3   4   11.10    2.80
  -3   3  -4   14.90    1.90
  -4  -3  -4   38.20    2.70
  -4  -3  -4   40.90    4.60
   4  -3   4   35.50    3.80
   4  -3   4   38.90    2.80
  -4   3  -4   38.00    3.80
   4   3   4   36.70    5.00
  -4   3  -4   39.70    3.40
  -5  -3  -4   90.79    5.80
  -5  -3  -4   95.49    7.40
  -5  -3  -4  112.89    6.60
   5   3   4   96.99    8.20
  -5   3  -4  102.69    6.60
  -6  -3  -4   45.50    5.80
  -6  -3  -4   49.00    4.00
  -6  -3  -4   60.89    5.30
   6  -3   4   46.90    5.60
   6  -3   4   41.90    3.90
   6   3   4   37.40    5.90
  -6   3  -4   47.70    4.60
  -7  -3  -4    8.50    2.20
  -7  -3  -4   10.40    4.00
  -7  -3  -4    7.30    3.70
  -7   3  -4   10.00    2.70
  -8  -3  -4   -1.10    2.40
  -8   3  -4    0.70    3.10
  -9  -3  -4   21.10    5.20
  -9  -3  -4   11.50    3.70
  -9  -3  -4   18.80    5.60
  -9   3  -4   13.20    4.10
 -10  -3  -4   -7.80    5.30
 -10  -3  -4    2.30    5.80
  -9  -4   4   12.30    5.40
  -9  -4   4    9.50    5.20
  -9   4   4    8.70    5.00
  -8  -4   4    6.80    4.60
  -8  -4   4    2.60    4.10
  -8   4   4    4.10    3.90
  -7  -4   4   -2.20    4.00
  -7  -4   4   -1.10    1.80
  -7   4   4    1.40    2.90
   7   4  -4   -4.90    2.80
  -7   4   4    4.50    4.10
   6  -4  -4    0.40    1.40
  -6  -4   4    0.90    1.60
  -6  -4   4   -2.50    3.30
   6  -4  -4   -1.30    2.30
  -6   4   4    3.30    3.20
   6   4  -4    0.50    2.40
   5  -4  -4  146.09    7.70
  -5  -4   4  140.69    7.60
  -5  -4   4  120.79    9.60
   5  -4  -4  119.79    8.80
  -5   4   4  116.69    8.70
  -5   4   4  133.19    8.20
  -4  -4   4   11.80    2.10
  -4  -4   4   11.10    4.00
  -4  -4   4    7.70    2.90
   4  -4  -4   13.40    3.10
   4  -4  -4   14.60    2.40
  -4   4   4   13.70    2.00
  -4   4   4    9.90    2.40
   4   4  -4   10.90    2.20
  -3  -4   4  288.57   14.40
  -3  -4   4  264.77   17.20
   3  -4  -4  281.07   15.30
  -3  -4   4  260.27   16.30
   3   4  -4  275.47   14.90
  -3   4   4  275.57   14.20
  -3   4   4  267.77   15.90
  -2  -4   4    1.40    2.60
  -2  -4   4    3.80    3.40
  -2  -4   4    3.40    1.10
   2  -4  -4    3.40    2.20
  -2   4   4    4.60    0.80
  -2   4   4    6.60    2.60
  -2   4   4    2.20    1.30
   2   4  -4    6.30    1.60
  -1  -4   4   17.70    3.90
  -1  -4   4   17.60    2.10
   1  -4  -4   14.90    3.20
  -1  -4   4   11.00    2.90
  -1   4   4   14.40    1.60
  -1   4   4   13.90    3.30
   1   4  -4   17.80    2.20
  -1   4   4   14.60    1.10
   0  -4  -4   11.20    2.60
   0  -4   4   11.00    2.70
   0  -4   4   13.30    3.50
   0  -4   4   13.90    2.00
   0   4   4   10.00    3.10
   0   4  -4   10.90    1.90
  -1  -4  -4   52.69    5.60
   1  -4   4   48.50    4.00
   1  -4   4   46.60    5.60
   1  -4   4   56.79    5.00
   1   4   4   45.80    5.80
  -1   4  -4   50.49    3.50
   2  -4   4    9.00    3.10
   2  -4   4    7.70    2.30
  -2  -4  -4    4.30    2.80
   2  -4   4    2.80    1.70
  -2   4  -4    6.40    1.40
   2   4   4    7.30    3.20
   3  -4   4   12.30    3.30
   3  -4   4   15.80    2.60
  -3  -4  -4   11.10    3.70
   3  -4   4   20.70    3.30
   3   4   4   12.70    3.60
  -3   4  -4   13.40    2.20
  -4  -4  -4   27.60    2.70
  -4  -4  -4   26.90    4.90
   4  -4   4   27.70    3.90
  -4  -4  -4   30.10    1.80
   4  -4   4   30.60    4.80
   4   4   4   29.80    5.20
  -4   4  -4   31.10    3.10
  -5  -4  -4   21.50    2.00
  -5  -4  -4   22.90    5.00
   5  -4   4   24.40    2.80
   5  -4   4   24.10    3.80
  -5   4  -4   22.80    3.30
   6  -4   4    2.70    1.50
   6  -4   4    1.90    2.50
  -6  -4  -4    7.90    2.70
  -6  -4  -4    0.30    4.40
  -6   4  -4    1.30    2.20
  -7  -4  -4   22.20    3.90
  -7  -4  -4   15.80    5.80
  -7   4  -4   21.60    3.80
  -8  -4  -4   12.40    4.40
  -8  -4  -4   18.10    6.40
  -8   4  -4   13.40    3.50
   7   5  -4    0.30    4.10
  -7   5   4   12.30    3.70
  -6  -5   4    6.00    2.10
  -6  -5   4    0.70    5.00
  -6   5   4    5.20    2.70
   6   5  -4    1.80    3.30
  -5  -5   4   -3.50    4.00
   5  -5  -4    3.20    3.80
  -5  -5   4    2.50    1.60
   5  -5  -4    1.10    2.50
   5   5  -4   -0.50    2.70
  -5   5   4    2.30    2.00
   4  -5  -4   52.09    7.00
   4  -5  -4   41.30    5.70
  -4  -5   4   38.40    6.20
  -4  -5   4   46.00    3.90
   4   5  -4   39.90    4.90
  -4   5   4   42.90    5.40
  -3  -5   4    9.90    1.90
  -3  -5   4    8.90    4.40
   3  -5  -4   12.60    3.60
   3  -5  -4   13.00    4.40
  -3   5   4   12.10    1.50
  -3   5   4   12.50    2.60
   2  -5  -4   40.10    6.90
  -2  -5   4   49.20    6.80
   2  -5  -4   54.99    6.40
  -2  -5   4   52.19    4.20
   2   5  -4   48.50    4.50
  -2   5   4   51.19    3.00
  -2   5   4   51.99    3.90
  -1  -5   4    3.30    1.60
   1  -5  -4   -2.80    3.40
  -1  -5   4    0.40    3.40
   1  -5  -4   -3.50    3.50
   1   5  -4    0.30    1.50
   0  -5   4   25.80    3.50
   0  -5  -4   27.70    5.60
   0  -5   4   33.40    5.50
   0   5  -4   28.00    3.00
  -1  -5  -4    6.80    4.40
   1  -5   4    4.00    4.10
   1  -5   4    8.90    3.30
   1  -5   4    0.50    2.00
  -1   5  -4    5.30    1.60
   2  -5   4   25.10    5.40
   2  -5   4   30.30    5.20
  -2  -5  -4   21.00    5.30
   2  -5   4   21.60    3.40
  -2   5  -4   21.40    2.80
   3  -5   4    0.30    2.70
   3  -5   4    2.30    2.60
   3  -5   4    8.70    4.10
  -3  -5  -4   -0.40    4.70
  -3   5  -4   -1.30    1.40
  -4  -5  -4   32.80    6.80
   4  -5   4   57.29    8.00
   4  -5   4   52.39    5.60
  -4   5  -4   45.40    4.30
   5  -5   4    7.20    2.60
  -5  -5  -4    2.90    5.30
  -5   5  -4    3.90    2.20
  -6   5  -4    6.60    2.60
   4  -6  -4    0.50    5.60
   3  -6  -4    3.00    5.90
   2  -6  -4  -10.00    5.80
   2   6  -4    3.20    2.70
   1  -6  -4    9.00    6.20
  -1  -6   4    5.50    4.70
   1   6  -4    3.50    2.40
   0  -6  -4    6.80    6.00
   0  -6   4    2.20    4.60
   0   6  -4   -2.50    2.10
  -1  -6  -4    5.90    6.50
   1  -6   4    0.00    4.50
  -1   6  -4    1.00    2.10
   2  -6   4    6.40    4.70
  -2   6  -4    6.20    2.30
   3  -6   4    1.60    4.20
  -3   6  -4    4.90    2.20
 -11   0   5   12.80    6.10
 -10   0   5   38.00    6.10
 -10   0   5   33.90    4.60
  -9   0   5   24.00    4.20
  -9   0   5   22.90    3.40
  -8   0   5   34.30    4.80
  -8   0   5   37.60    5.40
   8   0  -5   26.50    3.60
  -7   0   5   42.40    4.50
   7   0  -5   44.60    4.00
  -6   0   5    7.50    2.10
   6   0  -5    7.20    1.60
  -6   0   5    6.80    2.10
   5   0  -5   91.69    5.60
  -5   0   5   99.39    5.90
   5   0  -5   83.99    6.00
   4   0  -5   38.50    2.80
   4   0  -5   38.90    3.10
  -4   0   5   41.50    3.10
  -3   0   5  338.77   17.30
   3   0  -5  343.47   17.30
   3   0  -5  327.37   17.40
   2   0  -5  738.83   34.40
  -2   0   5  674.63   34.10
   2   0  -5  640.64   34.30
  -1   0   5  321.27   16.00
   1   0  -5  313.87   16.00
   0   0  -5 2103.49  102.29
   0   0   5 2041.20  102.19
  -1   0  -5  109.29    5.80
   1   0   5  113.29    5.90
   2   0   5  386.46   18.80
  -2   0  -5  376.76   18.70
   2   0   5  346.37   18.80
   3   0   5    1.30    0.70
  -3   0  -5    1.40    0.80
   3   0   5    2.60    0.90
  -4   0  -5  457.45   22.00
   4   0   5  396.06   22.10
   4   0   5  417.96   21.80
   5   0   5    8.20    1.80
   5   0   5    7.20    1.50
   6   0   5   69.49    5.00
  -6   0  -5   79.19    5.70
   6   0   5   74.19    5.70
   7   0   5    6.00    3.00
   7   0   5   12.70    2.30
  -8   0  -5   -0.70    2.60
   8   0   5   -6.60    3.20
  -8   0  -5    0.50    1.60
   8   0   5    2.60    2.20
  -9   0  -5    0.80    1.90
  -9   0  -5    0.30    3.50
  -9   0  -5    1.30    2.20
 -10   0  -5    5.10    4.40
 -10  -1   5   15.30    4.70
 -10  -1   5    7.40    4.00
 -10  -1   5    3.60    1.80
 -10   1   5   -1.90    4.00
  -9  -1   5   22.80    4.50
  -9  -1   5   23.80    3.10
  -9  -1   5   14.30    3.80
  -8  -1   5   61.09    5.80
   8  -1  -5   53.59    3.90
  -8  -1   5   56.19    5.10
  -8  -1   5   56.79    5.70
  -8   1   5   56.99    6.00
  -8   1   5   60.19    3.30
  -8   1   5   56.69    5.90
  -7  -1   5  153.68    9.60
  -7  -1   5  162.08    9.00
  -7  -1   5  142.99   10.00
   7  -1  -5  145.49    8.60
   7   1  -5  155.58    9.70
  -7   1   5  161.48   10.00
  -7   1   5  167.18    8.10
   6  -1  -5   45.70    3.30
  -6  -1   5   51.59    4.20
  -6  -1   5   52.29    3.80
  -6   1   5   50.39    4.40
   6   1  -5   46.00    4.40
   6   1  -5   51.79    4.60
  -6   1   5   45.60    4.70
  -6   1   5   55.19    3.00
  -5  -1   5   61.19    4.00
  -5  -1   5   60.19    3.90
   5  -1  -5   52.99    3.40
   5   1  -5   52.89    4.30
   5   1  -5   48.10    4.30
  -5   1   5   53.19    4.50
  -5   1   5   61.19    3.30
  -5   1   5   56.29    4.30
  -4  -1   5   50.09    3.40
  -4  -1   5   53.39    3.50
   4   1  -5   49.99    3.90
  -4   1   5   50.79    3.70
   4   1  -5   47.70    3.70
  -4   1   5   54.89    3.00
  -4   1   5   44.10    3.80
  -3  -1   5  839.42   41.20
  -3  -1   5  849.61   40.70
   3  -1  -5  739.23   40.80
   3   1  -5  758.42   41.30
  -3   1   5  822.32   40.80
  -3   1   5  912.11   40.80
   3   1  -5  775.72   40.90
  -2  -1   5  459.25   22.80
   2  -1  -5  420.16   22.60
  -2  -1   5  477.35   22.50
  -2   1   5  446.96   22.50
  -2   1   5  467.65   22.60
   2   1  -5  435.66   22.60
   2   1  -5  414.76   23.00
  -1  -1   5  129.79    6.50
   1  -1  -5  121.19    6.50
  -1  -1   5  138.89    6.80
   1   1  -5  112.19    6.80
   1   1  -5  118.59    6.50
  -1   1   5  119.69    6.30
  -1   1   5  114.19    6.60
   0  -1  -5  253.87   11.60
   0  -1   5  215.68   11.40
   0  -1  -5  217.98   11.20
   0   1   5  202.68   11.70
   0   1  -5  222.98   11.70
   0   1  -5  223.78   11.40
   0   1   5  219.08   11.10
   1  -1   5  817.52   40.20
  -1  -1  -5  803.62   39.80
  -1  -1  -5  901.61   40.60
   1   1   5  756.22   39.90
   1   1   5  738.43   40.60
  -1   1  -5  815.22   40.10
  -1   1  -5  806.02   40.50
  -2  -1  -5   62.59    3.40
  -2  -1  -5   62.39    3.80
   2  -1   5   59.89    3.80
  -2   1  -5   62.49    3.60
   2   1   5   59.69    4.10
  -2   1  -5   59.39    3.60
   2   1   5   53.99    3.50
  -3  -1  -5   52.89    3.50
  -3  -1  -5   53.89    3.40
  -3   1  -5   52.09    3.50
   3   1   5   46.70    3.40
  -3   1  -5   56.79    3.20
   3   1   5   51.69    3.90
   4  -1   5   27.80    2.70
  -4  -1  -5   29.00    2.60
  -4  -1  -5   30.50    2.60
   4  -1   5   31.90    2.10
   4   1   5   27.80    2.80
  -4   1  -5   30.70    2.10
  -4   1  -5   30.40    2.80
   4   1   5   26.50    2.90
  -5  -1  -5   52.59    3.70
   5  -1   5   47.20    3.10
   5  -1   5   38.70    4.20
  -5  -1  -5   51.29    4.00
   5   1   5   42.80    4.20
  -5   1  -5   50.29    2.90
   5   1   5   41.10    4.00
  -5   1  -5   52.19    4.10
  -6  -1  -5   -1.70    1.20
  -6  -1  -5    0.10    1.60
   6  -1   5    1.00    1.70
   6  -1   5    0.30    1.10
  -6   1  -5   -0.50    0.60
   6   1   5   -0.50    1.70
  -6   1  -5   -0.10    1.60
  -7  -1  -5   85.19    6.50
   7  -1   5   76.89    5.10
   7  -1   5   73.39    6.90
  -7   1  -5   82.99    6.30
   7   1   5   80.19    6.60
  -7   1  -5   83.79    4.50
  -8  -1  -5   11.40    3.50
  -8  -1  -5   22.30    3.20
   8  -1   5   19.50    2.70
  -8   1  -5   18.00    3.70
   8   1   5   15.20    3.50
  -8   1  -5   14.30    1.70
   8   1   5   14.00    3.70
  -9  -1  -5    8.90    3.70
  -9  -1  -5   11.60    3.50
  -9  -1  -5   10.50    2.50
  -9   1  -5   11.90    3.60
 -10  -1  -5    3.90    3.70
 -10  -1  -5    2.30    4.30
 -10   1  -5   11.60    4.50
 -11  -1  -5    2.60    5.90
 -11  -2   5    3.80    3.30
 -10  -2   5    8.40    3.20
 -10  -2   5   11.60    5.70
 -10  -2   5   21.70    5.70
 -10   2   5   18.70    5.20
  -9  -2   5   12.60    4.70
  -9  -2   5   14.60    3.20
  -9  -2   5   13.90    4.20
  -9   2   5   14.40    4.30
  -8  -2   5   17.50    3.90
  -8  -2   5   20.00    4.60
  -8  -2   5   14.40    3.00
  -8   2   5   11.60    3.50
  -8   2   5   15.80    3.80
   7  -2  -5    9.10    1.20
  -7  -2   5   12.50    2.60
  -7  -2   5    8.70    2.20
  -7  -2   5   11.20    3.30
   7   2  -5    6.80    2.40
  -7   2   5    9.60    2.80
  -7   2   5   10.30    1.40
  -7   2   5    4.00    2.50
   6  -2  -5   44.40    2.60
  -6  -2   5   43.50    4.20
  -6  -2   5   40.60    3.60
  -6   2   5   41.40    4.40
   6   2  -5   41.50    4.90
  -6   2   5   37.30    4.30
  -6   2   5   39.30    3.10
   6   2  -5   35.20    4.10
  -5  -2   5   42.40    3.20
  -5  -2   5   39.70    3.80
  -5   2   5   42.70    4.00
  -5   2   5   35.00    3.00
   5   2  -5   35.40    3.60
   5   2  -5   27.80    4.20
  -5   2   5   35.70    3.60
  -4  -2   5   38.00    2.70
  -4   2   5   37.30    3.30
  -4   2   5   35.10    2.90
   4   2  -5   32.40    3.90
  -4   2   5   34.80    3.40
  -3  -2   5   14.30    2.20
  -3  -2   5   13.30    1.50
  -3   2   5   14.30    1.80
  -3   2   5   13.30    2.00
  -3   2   5   11.40    2.00
   3   2  -5   10.40    2.20
   3   2  -5   12.80    1.90
  -2  -2   5  335.27   16.20
   2  -2  -5  353.16   16.40
  -2  -2   5  316.27   16.90
  -2   2   5  300.67   16.20
   2   2  -5  282.27   17.00
   2   2  -5  324.47   16.40
  -2   2   5  304.47   16.70
  -2   2   5  311.37   16.10
  -1  -2   5  183.18   10.10
   1  -2  -5  194.08    9.80
  -1  -2   5  190.18    9.40
  -1   2   5  169.38    9.30
   1   2  -5  165.38   10.30
  -1   2   5  170.58   10.10
   1   2  -5  183.28    9.50
  -1   2   5  182.18    9.10
   0  -2   5   24.60    2.00
   0  -2  -5   27.50    2.50
   0  -2   5   27.80    2.40
   0   2   5   23.60    2.80
   0   2  -5   30.70    2.00
   0   2  -5   27.40    2.70
   1  -2   5  266.37   13.60
   1  -2   5  265.77   13.50
   1   2   5  241.08   14.10
  -1   2  -5  236.68   13.80
  -1   2  -5  272.87   13.30
   2  -2   5  390.46   21.00
   2  -2   5  462.85   20.90
  -2  -2  -5  412.16   21.50
  -2   2  -5  376.46   21.20
  -2   2  -5  419.46   20.80
   2   2   5  382.26   21.70
  -3  -2  -5  100.59    6.50
   3  -2   5  103.39    6.40
  -3  -2  -5  110.29    5.70
  -3   2  -5   99.09    6.10
  -4  -2  -5   53.09    4.30
  -4  -2  -5   58.29    3.80
  -4  -2  -5   48.20    3.70
   4  -2   5   52.89    4.20
  -4   2  -5   50.49    3.70
   4   2   5   51.39    4.90
  -4   2  -5   53.89    3.80
  -5  -2  -5  130.89    8.00
  -5  -2  -5  127.99    7.60
  -5  -2  -5  128.49    7.50
   5  -2   5  104.99    8.00
  -5   2  -5  137.39    7.80
  -5   2  -5  121.69    7.10
   5   2   5  113.49    8.50
  -6  -2  -5   47.30    4.40
   6  -2   5   28.40    4.70
   6  -2   5   40.10    2.70
  -6  -2  -5   37.50    4.30
  -6  -2  -5   46.20    4.20
  -6   2  -5   37.20    4.10
  -6   2  -5   41.40    3.10
   6   2   5   40.90    5.10
  -7  -2  -5   29.30    4.40
   7  -2   5   16.90    3.60
  -7  -2  -5   26.40    3.70
  -7  -2  -5   23.40    4.20
   7  -2   5   23.50    2.30
   7   2   5   26.50    4.40
  -7   2  -5   24.10    3.70
  -7   2  -5   20.70    2.30
  -8  -2  -5    6.70    3.30
  -8  -2  -5    8.60    2.90
  -8  -2  -5    5.60    2.90
  -8   2  -5    8.00    3.10
   8   2   5    1.70    3.30
  -9  -2  -5   17.00    4.60
  -9  -2  -5   23.90    4.00
  -9  -2  -5   20.90    4.90
  -9  -2  -5   20.90    4.50
  -9   2  -5   24.60    4.60
 -10  -2  -5   -5.70    4.50
 -10  -2  -5    1.30    4.50
 -10  -3   5    5.70    4.20
 -10   3   5    5.80    5.50
  -9  -3   5   10.00    3.90
  -9  -3   5   11.40    4.00
  -9   3   5    2.90    4.30
  -8  -3   5   43.30    6.40
  -8  -3   5   24.10    4.60
   8   3  -5   24.20    4.20
  -8   3   5   28.60    5.00
  -7  -3   5    4.60    2.10
  -7  -3   5    4.20    4.50
  -7  -3   5    6.30    2.90
   7  -3  -5    2.70    0.90
   7  -3  -5    3.00    1.60
  -7   3   5    5.40    3.20
   7   3  -5    1.40    2.60
  -7   3   5   10.30    3.40
  -6  -3   5   84.49    6.70
  -6  -3   5   73.59    5.30
  -6  -3   5   70.39    7.50
   6   3  -5   68.69    6.00
  -6   3   5   75.49    5.40
  -6   3   5   91.29    6.90
  -6   3   5   74.89    6.50
  -5  -3   5   15.40    2.90
  -5  -3   5   19.00    2.40
  -5   3   5   25.90    3.90
  -5   3   5   18.60    3.00
   5   3  -5   14.70    3.60
   5   3  -5   16.60    2.80
  -5   3   5   16.00    2.70
   4  -3  -5   18.20    2.10
  -4  -3   5   16.30    1.90
  -4  -3   5   17.50    3.00
  -4   3   5   16.20    2.60
  -4   3   5   16.50    2.80
  -4   3   5   17.70    3.00
   4   3  -5   13.50    3.10
   4   3  -5   13.00    2.20
  -3  -3   5   22.40    2.00
  -3  -3   5   18.80    3.30
   3  -3  -5   21.60    2.40
   3   3  -5   24.00    3.80
  -3   3   5   23.70    3.30
  -3   3   5   18.20    2.50
  -3   3   5   21.20    2.40
   3   3  -5   22.30    2.70
  -2  -3   5   63.09    5.00
  -2  -3   5   60.79    3.70
   2  -3  -5   65.39    4.40
  -2   3   5   58.79    5.00
  -2   3   5   54.49    3.60
   2   3  -5   50.69    5.30
  -2   3   5   61.89    3.70
  -1  -3   5   11.50    2.20
  -1  -3   5   14.40    1.60
   1  -3  -5   13.70    2.20
   1   3  -5   13.60    1.80
  -1   3   5   13.50    0.90
  -1   3   5   14.00    1.00
   1   3  -5   13.90    2.90
   0  -3   5   63.39    4.60
   0  -3  -5   58.49    4.70
   0  -3   5   57.89    3.80
   0   3   5   54.39    5.00
   0   3  -5   60.79    3.70
   0   3  -5   49.30    4.80
   1  -3   5   62.19    4.50
   1  -3   5   55.19    3.90
  -1  -3  -5   57.59    4.80
  -1   3  -5   54.59    4.90
  -1   3  -5   62.19    3.80
   1   3   5   52.69    5.30
   2  -3   5  112.69    6.90
  -2  -3  -5  112.89    7.70
   2  -3   5  120.69    7.00
  -2   3  -5  122.29    6.50
   2   3   5  110.79    8.10
  -2   3  -5  103.19    7.40
  -3  -3  -5    9.40    0.90
   3  -3   5    8.30    1.50
  -3  -3  -5    4.50    2.30
   3  -3   5    7.90    2.10
  -3   3  -5    6.80    2.00
  -3   3  -5    8.70    1.60
   3   3   5    7.30    2.60
  -4  -3  -5    4.00    1.00
  -4  -3  -5    3.10    2.30
   4  -3   5    5.10    1.30
   4  -3   5    8.60    2.20
  -4  -3  -5    3.50    1.20
   4   3   5    3.00    2.60
  -4   3  -5    2.90    1.50
  -4   3  -5    5.00    2.00
  -5  -3  -5   75.29    5.10
  -5  -3  -5   65.69    6.30
  -5  -3  -5   72.29    4.70
  -5   3  -5   69.99    5.40
   5   3   5   75.39    7.00
  -5   3  -5   78.19    5.30
   6  -3   5   96.09    7.50
  -6  -3  -5   88.29    7.50
  -6  -3  -5   87.89    5.80
  -6  -3  -5   86.19    6.40
  -6   3  -5   94.29    6.40
   6   3   5   76.89    8.10
  -6   3  -5   82.49    5.90
   7  -3   5    9.90    1.70
  -7  -3  -5   13.30    2.60
  -7  -3  -5    7.50    3.00
   7  -3   5    9.40    2.00
  -7  -3  -5    5.90    3.40
  -7   3  -5    7.80    2.50
   7   3   5   10.20    4.30
  -8  -3  -5    4.00    2.70
  -8  -3  -5    6.50    4.30
  -8   3  -5    2.00    2.90
  -9  -3  -5   10.70    4.50
  -9  -3  -5   12.20    4.00
  -9  -3  -5    6.20    5.70
  -9   3  -5   18.00    4.70
  -9  -4   5   -0.10    4.60
  -9  -4   5    4.60    5.10
  -9   4   5    7.00    5.10
  -8  -4   5    8.80    4.70
  -8   4   5    4.70    4.10
   8   4  -5   11.00    4.00
  -7  -4   5    7.80    4.20
  -7   4   5    9.30    3.60
   7   4  -5    8.40    3.40
  -7   4   5    9.40    4.10
  -6  -4   5    0.50    3.30
   6  -4  -5   -1.10    2.50
  -6  -4   5    1.50    1.60
  -6   4   5    2.50    3.10
   6   4  -5    2.80    2.50
  -5  -4   5   70.69    7.30
  -5  -4   5   79.39    5.10
   5  -4  -5   87.09    5.30
   5   4  -5   71.49    6.30
  -5   4   5   70.39    6.30
  -5   4   5   77.69    5.80
  -4  -4   5    4.30    3.10
  -4  -4   5    4.60    3.90
   4  -4  -5    3.90    1.80
  -4  -4   5    4.10    1.30
  -4   4   5    7.40    2.80
   4   4  -5    3.20    2.00
  -4   4   5    3.30    2.00
  -4   4   5    3.20    1.50
   3  -4  -5   59.79    4.90
  -3  -4   5   54.29    7.00
  -3  -4   5   47.00    5.30
  -3  -4   5   57.29    3.80
  -3   4   5   51.39    4.10
  -3   4   5   50.29    5.80
   3   4  -5   52.89    4.30
  -3   4   5   51.89    3.60
   2  -4  -5    5.50    2.50
  -2  -4   5    5.30    2.50
  -2  -4   5    4.10    1.20
  -2   4   5    4.90    0.80
  -2   4   5    6.60    1.20
   2   4  -5    4.90    1.50
  -2   4   5    6.80    2.70
   2   4  -5    0.30    2.80
   1  -4  -5   61.89    5.50
  -1  -4   5   58.99    5.60
  -1  -4   5   61.49    4.10
   1   4  -5   51.09    6.00
  -1   4   5   57.79    6.10
   1   4  -5   61.39    4.10
   0  -4   5   11.50    1.80
   0  -4  -5    9.70    2.90
   0   4   5   10.70    3.20
   0   4  -5    8.80    3.10
   0   4  -5   11.00    1.70
  -1  -4  -5   84.79    7.10
   1  -4   5   86.39    5.80
   1  -4   5   93.19    6.70
  -1   4  -5   73.89    7.00
   1   4   5   86.79    7.70
  -1   4  -5   92.19    5.30
   2  -4   5   -1.40    1.60
   2  -4   5    2.10    1.80
  -2  -4  -5   -0.30    2.60
  -2   4  -5   -1.60    2.50
  -2   4  -5    0.80    1.20
   2   4   5    4.10    3.20
   3  -4   5   33.70    4.10
  -3  -4  -5   30.00    5.40
   3  -4   5   39.00    4.00
  -3   4  -5   34.40    3.20
   3   4   5   30.30    5.60
  -3   4  -5   30.60    4.80
   4  -4   5   12.50    2.80
   4  -4   5   12.90    2.30
   4  -4   5   13.10    3.30
  -4   4  -5   11.70    2.10
   4   4   5   12.60    3.90
  -5  -4  -5   23.60    2.90
  -5  -4  -5   18.70    1.80
   5  -4   5   23.90    3.80
  -5   4  -5   21.50    3.40
   5   4   5   25.20    5.40
  -6  -4  -5    5.90    2.30
  -6  -4  -5    7.90    1.50
  -6  -4  -5   10.20    5.20
  -6   4  -5    5.60    2.50
  -7  -4  -5    9.20    5.60
  -7   4  -5    9.80    3.30
  -8  -4  -5   -2.20    6.10
  -8   4  -5    8.00    4.10
  -7   5   5    3.70    3.40
   7   5  -5    3.30    4.10
  -6  -5   5    9.00    5.30
  -6   5   5    9.10    2.90
   6   5  -5   10.40    3.60
  -5  -5   5    1.90    1.80
  -5  -5   5   -1.00    3.90
  -5   5   5    2.00    1.90
   5   5  -5    0.00    2.90
   4  -5  -5    4.10    3.00
   4  -5  -5    2.20    4.20
  -4  -5   5    8.70    4.30
  -4  -5   5    7.60    1.90
  -4   5   5    4.80    1.50
   4   5  -5    5.40    2.60
  -3  -5   5    1.50    3.20
   3  -5  -5    3.20    3.90
  -3  -5   5    1.30    1.60
   3  -5  -5    2.80    3.20
   3   5  -5    2.80    2.30
  -3   5   5    2.40    1.00
   2  -5  -5    8.50    3.80
  -2  -5   5   13.80    4.10
  -2  -5   5   13.70    2.30
   2  -5  -5   14.60    4.40
   2   5  -5   14.00    2.60
  -2   5   5   16.70    1.90
  -2   5   5   15.30    1.30
   1  -5  -5   -3.50    4.00
  -1  -5   5    2.00    1.60
  -1  -5   5    4.10    3.20
  -1   5   5    3.90    3.80
   1   5  -5   -1.40    1.60
   0  -5   5    9.20    2.20
   0  -5   5   14.40    4.00
   0   5  -5    7.20    1.90
   0   5   5   12.80    4.40
   1  -5   5    7.80    3.30
   1  -5   5    9.50    2.50
   1  -5   5    5.60    4.40
  -1   5  -5    8.20    1.80
   1   5   5    9.50    4.40
  -2  -5  -5   16.60    4.90
   2  -5   5   16.30    3.40
   2  -5   5   20.10    3.90
   2  -5   5   13.80    4.90
  -2   5  -5   18.00    2.80
   2   5   5   21.20    5.30
  -3  -5  -5    3.80    4.60
   3  -5   5    7.80    3.10
   3  -5   5    1.60    4.60
   3  -5   5    4.00    3.00
  -3   5  -5    5.30    1.80
  -4  -5  -5   58.49    9.00
   4  -5   5   48.40    5.50
   4  -5   5   39.40    6.20
  -4   5  -5   38.60    4.00
  -5  -5  -5    3.10    5.70
  -5   5  -5    1.20    2.20
  -6   5  -5    5.60    2.70
   3  -6  -5   -3.50    5.90
   3   6  -5    0.40    3.20
   2  -6  -5    5.60    6.20
   2   6  -5   -1.70    2.80
   1  -6  -5    6.00    6.40
  -1  -6   5    4.80    5.00
   1   6  -5    8.00    2.80
   0  -6   5    3.70    4.90
   0  -6  -5   -0.60    6.00
   0   6  -5   -1.80    2.30
   1  -6   5    1.10    4.70
  -1   6  -5    2.50    2.40
   2  -6   5    2.50    4.30
  -2   6  -5    3.30    2.30
   3  -6   5    2.00    4.30
 -10   0   6   -5.20    3.90
  -9   0   6   28.60    4.50
  -9   0   6   28.30    5.10
  -8   0   6   91.39    6.80
  -8   0   6   88.09    7.20
   8   0  -6   77.49    6.20
  -7   0   6   82.09    6.10
  -7   0   6   83.19    6.60
   7   0  -6   73.59    5.60
   6   0  -6  223.88   13.30
   6   0  -6  236.28   13.00
  -6   0   6  248.78   13.30
   5   0  -6    1.00    1.10
  -5   0   6    2.00    1.30
   5   0  -6    1.80    1.40
  -5   0   6    2.80    0.90
   4   0  -6  214.38   12.40
   4   0  -6  224.88   12.10
  -4   0   6  242.98   12.30
  -3   0   6  533.35   26.40
   3   0  -6  500.05   26.60
   3   0  -6  532.25   26.50
   2   0  -6  740.03   40.30
   2   0  -6  877.21   40.50
  -2   0   6  801.52   40.10
   1   0  -6    3.00    0.80
  -1   0   6    4.40    1.00
   0   0   6 3132.59  154.38
   0   0  -6 3120.69  154.48
  -1   0  -6  424.06   21.20
   1   0   6  420.56   21.30
   2   0   6    3.70    0.80
  -2   0  -6    3.30    0.70
   2   0   6    4.30    0.90
   3   0   6   10.00    1.70
   3   0   6    7.30    1.20
  -3   0  -6    6.50    1.20
   4   0   6  710.83   39.50
  -4   0  -6  855.01   39.50
   4   0   6  776.92   39.50
   5   0   6   32.30    3.10
  -5   0  -6   34.50    3.30
   5   0   6   30.10    3.50
   6   0   6   36.10    4.40
   6   0   6   37.30    3.70
  -6   0  -6   45.40    4.10
  -7   0  -6    1.60    2.10
   7   0   6    0.70    2.20
   7   0   6    0.50    1.90
  -8   0  -6    6.50    2.10
  -8   0  -6    6.80    2.90
   8   0   6   10.00    3.10
   8   0   6    1.40    2.30
  -9   0  -6    5.40    3.20
  -9   0  -6    6.00    2.30
   9   0   6   -1.30    2.50
 -10   0  -6   12.60    4.30
 -10  -1   6   -4.30    3.80
 -10  -1   6   -3.10    4.00
 -10  -1   6    3.40    1.80
 -10   1   6   -0.80    4.10
  -9  -1   6   12.50    3.80
  -9  -1   6   13.70    4.00
  -9  -1   6   13.40    2.30
  -9   1   6   12.40    2.20
  -9   1   6   13.00    1.70
  -9   1   6   11.40    3.80
  -8  -1   6   53.89    5.20
  -8  -1   6   58.79    4.10
  -8   1   6   37.10    5.70
   8   1  -6   49.80    5.60
  -8   1   6   51.39    3.20
  -8   1   6   48.40    5.40
   7  -1  -6   95.39    5.90
  -7  -1   6   95.99    6.60
  -7   1   6  109.29    5.40
  -7   1   6   91.29    7.40
  -7   1   6   98.99    7.10
   7   1  -6   87.09    7.00
   7   1  -6   90.89    7.10
   6  -1  -6   96.79    6.10
  -6  -1   6  109.89    6.90
  -6  -1   6  115.29    6.50
  -6   1   6  111.89    7.60
  -6   1   6  122.39    5.90
  -6   1   6  108.29    7.10
   6   1  -6   93.79    7.10
   6   1  -6   95.39    7.10
  -5  -1   6  176.58    9.40
   5  -1  -6  163.38    9.00
  -5  -1   6  169.08    9.50
   5   1  -6  148.29    9.70
  -5   1   6  168.88    9.70
  -5   1   6  192.08    8.90
   5   1  -6  156.38    9.80
  -4  -1   6  178.98    9.50
  -4  -1   6  185.08    9.60
   4  -1  -6  156.78    9.70
  -4   1   6  189.38    9.20
   4   1  -6  162.88    9.80
  -4   1   6  167.68    9.70
   3  -1  -6  718.33   39.60
  -3  -1   6  859.31   39.90
   3   1  -6  761.12   39.70
  -3   1   6  848.72   39.60
   3   1  -6  759.82   40.20
  -3   1   6  781.92   39.50
  -2  -1   6  166.88    8.30
   2  -1  -6  137.59    8.10
  -2  -1   6  155.08    8.00
   2   1  -6  144.49    8.10
  -2   1   6  155.88    8.10
   2   1  -6  143.79    8.50
  -2   1   6  150.48    8.00
   1  -1  -6  470.85   23.70
  -1  -1   6  485.65   23.80
  -1   1   6  475.65   23.60
   1   1  -6  462.45   23.80
   1   1  -6  474.55   24.30
  -1   1   6  468.55   24.10
   0  -1   6  184.78    9.10
   0  -1  -6  175.98    8.90
   0   1  -6  176.48    9.10
   0   1   6  174.48    8.90
   0   1  -6  168.18    9.40
   0   1   6  165.68    9.40
  -1  -1  -6  322.87   16.70
   1  -1   6  335.57   17.20
  -1   1  -6  353.06   17.10
  -1   1  -6  347.57   17.30
   1   1   6  329.67   17.50
   1   1   6  324.97   16.90
  -2  -1  -6  255.77   12.60
   2  -1   6  251.37   13.10
  -2   1  -6  261.97   12.90
   2   1   6  225.38   12.70
   2   1   6  233.78   13.30
  -2   1  -6  256.37   12.90
  -3  -1  -6   10.10    1.40
   3  -1   6   11.70    1.80
  -3   1  -6    9.30    1.20
  -3   1  -6    8.30    1.40
   3   1   6    9.00    1.80
   4  -1   6   58.19    4.50
  -4  -1  -6   68.89    4.20
   4  -1   6   62.89    3.70
  -4  -1  -6   63.89    4.20
  -4   1  -6   59.69    4.20
   4   1   6   55.69    4.70
   4   1   6   57.69    4.30
  -4   1  -6   62.59    3.70
  -5  -1  -6   27.20    3.10
  -5  -1  -6   33.40    2.80
   5  -1   6   19.10    3.30
   5  -1   6   25.70    2.30
   5   1   6   26.90    3.30
  -5   1  -6   26.00    2.00
  -5   1  -6   27.50    3.10
   5   1   6   19.00    3.40
  -6  -1  -6    4.30    1.40
   6  -1   6    3.70    1.40
   6  -1   6    5.30    2.20
  -6  -1  -6    4.00    1.90
   6   1   6    1.40    2.10
   6   1   6    5.10    2.10
  -6   1  -6    3.10    0.90
   7  -1   6   27.90    3.30
   7  -1   6   35.10    5.10
  -7  -1  -6   38.30    4.70
   7   1   6   36.80    4.80
  -7   1  -6   36.30    2.50
  -7   1  -6   36.10    4.20
   7   1   6   31.50    5.10
   8  -1   6    2.60    1.80
  -8  -1  -6    1.90    2.90
  -8  -1  -6    2.60    1.90
  -8   1  -6    1.60    1.10
   8   1   6   -1.20    3.20
  -8   1  -6    3.00    2.40
   8   1   6    3.00    3.10
  -9  -1  -6   18.00    2.90
  -9  -1  -6    6.30    4.00
   9  -1   6   10.30    2.50
   9   1   6   12.70    3.80
  -9   1  -6    9.80    3.60
 -10  -1  -6    0.30    3.90
 -10  -1  -6   -1.90    4.10
 -10   1  -6    2.10    4.00
 -11  -2   6    5.90    3.50
 -10  -2   6   16.30    4.80
 -10  -2   6    6.00    5.50
 -10  -2   6   13.40    3.30
 -10   2   6   10.30    5.20
  -9  -2   6    4.40    2.60
  -9  -2   6    5.90    4.30
  -9  -2   6   -0.20    3.60
  -9   2   6   -1.50    3.40
  -8  -2   6   14.50    4.20
   8  -2  -6   13.10    2.10
  -8  -2   6   14.90    2.90
  -8   2   6   19.30    3.50
   8   2  -6   14.30    3.30
  -8   2   6   12.10    2.00
  -8   2   6    7.90    3.30
  -7  -2   6    1.10    1.90
   7  -2  -6    1.90    1.10
  -7  -2   6   -2.40    1.90
  -7   2   6    0.60    1.30
   7   2  -6    3.80    3.00
  -7   2   6    1.20    2.30
  -7   2   6    6.30    2.60
   7   2  -6    3.30    2.40
  -6  -2   6    1.90    1.80
   6  -2  -6    1.20    0.80
  -6  -2   6    2.00    1.40
   6   2  -6    0.70    2.50
  -6   2   6    3.00    1.30
  -6   2   6    5.50    2.10
  -6   2   6    4.50    2.20
  -5  -2   6  141.79    7.60
  -5  -2   6  129.89    8.00
   5   2  -6  121.29    7.90
  -5   2   6  131.69    7.90
   5   2  -6  118.79    8.50
  -5   2   6  121.49    7.30
  -4  -2   6   80.79    4.60
  -4  -2   6   74.29    5.20
  -4   2   6   74.59    5.20
   4   2  -6   68.69    5.00
  -4   2   6   71.69    4.90
   4   2  -6   64.49    5.60
  -4   2   6   70.19    4.70
  -3  -2   6   82.49    4.70
  -3   2   6   77.29    5.00
   3   2  -6   77.79    5.80
   3   2  -6   73.79    5.30
  -3   2   6   81.89    4.80
  -3   2   6   78.49    5.10
   2  -2  -6    0.90    0.90
  -2  -2   6    0.00    0.60
  -2  -2   6    0.60    1.10
   2   2  -6    4.40    1.60
  -2   2   6    0.10    1.00
  -2   2   6    1.20    0.60
  -2   2   6    1.50    0.80
   2   2  -6    0.50    0.80
   1  -2  -6   62.19    3.80
  -1  -2   6   57.79    3.40
  -1  -2   6   55.69    3.90
  -1   2   6   49.10    3.20
   1   2  -6   52.59    3.50
  -1   2   6   53.79    2.90
  -1   2   6   51.09    4.00
   1   2  -6   50.79    4.20
   0  -2   6   75.79    4.40
   0  -2  -6   76.79    4.80
   0  -2  -6   70.99    3.90
   0  -2   6   76.69    4.70
   0   2   6   75.19    5.20
   0   2  -6   78.49    4.40
   0   2   6   72.49    3.80
  -1  -2  -6   15.50    2.10
   1  -2   6   15.20    1.70
   1  -2   6   16.40    1.80
  -1  -2  -6   15.50    1.00
   1   2   6   13.10    1.10
   1   2   6   14.90    2.40
  -1   2  -6   14.20    2.30
  -1   2  -6   15.30    1.60
   2  -2   6   32.80    2.70
  -2  -2  -6   31.00    1.80
  -2  -2  -6   34.30    3.00
  -2   2  -6   33.60    2.90
   2   2   6   29.50    2.20
  -3  -2  -6   88.89    5.60
  -3  -2  -6   88.59    4.60
   3  -2   6   77.69    5.40
  -3   2  -6   74.89    5.10
   3   2   6   75.19    5.90
  -3   2  -6   87.99    5.00
   3   2   6   75.19    4.90
  -4  -2  -6   53.59    3.50
   4  -2   6   47.80    4.10
  -4  -2  -6   56.59    4.40
  -4   2  -6   42.00    3.60
   4   2   6   47.40    3.80
  -4   2  -6   52.09    3.90
   4   2   6   44.50    4.80
   5  -2   6   39.80    4.60
  -5  -2  -6   61.09    4.10
  -5  -2  -6   57.19    4.60
   5   2   6   60.19    4.40
   5   2   6   49.10    5.20
  -5   2  -6   43.30    3.70
   6  -2   6    6.80    1.30
   6  -2   6    8.70    2.60
  -6  -2  -6    4.80    2.00
  -6  -2  -6   10.40    2.40
  -6   2  -6    9.50    1.70
   6   2   6    5.30    2.90
  -6   2  -6    4.50    1.90
  -7  -2  -6   37.60    4.40
   7  -2   6   33.30    3.00
  -7  -2  -6   40.60    4.90
  -7  -2  -6   42.10    4.90
  -7   2  -6   33.50    3.20
   7   2   6   38.90    5.90
  -7   2  -6   36.70    4.60
  -8  -2  -6   16.90    3.30
   8  -2   6   17.30    2.40
  -8  -2  -6   16.40    3.70
  -8  -2  -6   17.00    3.70
  -8   2  -6   14.20    3.40
   8   2   6   16.00    4.30
  -8   2  -6   13.60    2.30
  -9  -2  -6    9.20    4.00
  -9  -2  -6   13.30    3.80
   9   2   6    6.90    4.50
  -9   2  -6    9.60    3.70
 -10  -2  -6   -5.50    4.70
 -10  -2  -6    1.80    4.80
 -10  -3   6   -4.50    4.90
 -10  -3   6    3.50    4.30
 -10   3   6    0.30    5.90
  -9  -3   6    5.60    4.20
  -9  -3   6    8.20    3.70
  -7  -3   6    1.10    2.00
   7  -3  -6    3.90    1.10
  -7  -3   6    3.90    2.70
  -7  -3   6    0.70    3.90
  -7   3   6    6.30    3.30
  -7   3   6    2.00    3.20
   7   3  -6    3.50    2.60
  -7   3   6    3.40    1.90
  -6  -3   6   53.99    5.60
  -6  -3   6   63.39    4.40
   6   3  -6   43.90    6.40
   6   3  -6   47.20    5.20
  -6   3   6   51.59    5.50
  -6   3   6   68.19    6.00
  -6   3   6   46.50    4.60
  -5  -3   6   40.50    3.50
  -5  -3   6   41.50    4.80
  -5   3   6   51.39    4.70
  -5   3   6   40.30    4.30
   5   3  -6   44.60    5.60
  -5   3   6   36.80    4.20
  -4  -3   6    3.50    2.10
   4  -3  -6    8.10    1.60
  -4  -3   6    6.20    1.30
   4   3  -6    4.00    2.90
  -4   3   6    5.40    1.70
   4   3  -6    4.40    1.60
  -4   3   6    3.20    1.90
  -4   3   6    9.60    2.00
  -3  -3   6   13.70    1.80
  -3  -3   6   18.50    3.30
   3  -3  -6   20.90    2.40
  -3   3   6   20.50    2.30
   3   3  -6   14.60    2.60
  -3   3   6   19.70    3.40
   3   3  -6   14.90    3.40
   2  -3  -6  235.48   12.30
  -2  -3   6  233.18   11.80
  -2  -3   6  227.28   12.90
   2   3  -6  222.88   12.00
   2   3  -6  198.98   13.10
  -2   3   6  228.38   11.50
  -2   3   6  210.18   11.50
  -1  -3   6   56.59    4.60
  -1  -3   6   56.29    3.60
   1  -3  -6   61.59    4.40
   1   3  -6   53.29    3.70
   1   3  -6   43.50    4.80
  -1   3   6   56.39    5.10
   0  -3  -6   79.39    5.60
   0  -3   6   74.29    4.80
   0  -3   6   80.59    5.60
   0   3   6   75.29    6.20
   0   3  -6   82.09    4.70
   0   3  -6   73.69    5.90
  -1  -3  -6    0.60    1.90
   1  -3   6    1.50    1.40
   1  -3   6    2.70    1.00
  -1   3  -6   -1.00    1.70
   1   3   6    1.30    1.90
  -1   3  -6    0.30    0.90
   2  -3   6   66.89    4.70
  -2  -3  -6   67.59    5.40
  -2   3  -6   72.69    4.30
   2   3   6   60.39    5.70
  -2   3  -6   59.99    5.30
  -3  -3  -6   12.30    2.80
  -3  -3  -6   12.40    0.80
   3  -3   6   10.80    2.20
  -3   3  -6   17.80    2.20
  -3   3  -6   11.80    2.40
   4  -3   6   10.30    2.30
  -4  -3  -6   12.10    1.60
  -4  -3  -6   14.20    3.00
  -4  -3  -6   12.30    1.70
  -4   3  -6   10.40    2.40
   4   3   6    9.50    3.20
  -4   3  -6   12.90    2.00
  -5  -3  -6    6.90    2.80
   5  -3   6    9.30    2.30
  -5  -3  -6   10.60    1.80
  -5  -3  -6   12.30    2.20
  -5   3  -6   11.10    2.40
  -5   3  -6    8.40    2.00
   5   3   6   10.50    3.80
  -6  -3  -6   89.49    6.00
  -6  -3  -6   80.09    7.40
  -6  -3  -6   84.99    5.70
   6   3   6   77.59    7.90
  -6   3  -6   84.19    6.20
  -6   3  -6   71.39    5.90
  -7  -3  -6    6.50    2.50
   7  -3   6    7.10    1.40
  -7  -3  -6    5.70    2.80
  -7   3  -6    4.10    2.10
  -7   3  -6    7.70    2.30
   7   3   6    5.90    4.30
  -8  -3  -6    7.00    3.30
  -8   3  -6    1.40    2.70
   8   3   6    5.50    4.60
  -9  -3  -6    7.70    5.50
  -9  -3  -6    7.50    4.40
  -8  -4   6    7.80    4.60
   8   4  -6    1.70    4.30
  -8   4   6    4.20    4.00
  -7  -4   6   18.10    4.80
   7   4  -6   14.60    4.00
  -7   4   6   15.20    3.90
  -7   4   6   20.10    4.60
  -6  -4   6    9.80    3.90
  -6  -4   6    8.40    1.90
  -6   4   6    8.00    2.90
   6   4  -6    9.00    3.10
  -6   4   6    5.80    2.90
  -6   4   6   11.20    3.40
  -5  -4   6   21.70    2.90
  -5  -4   6   24.20    4.60
  -5   4   6   22.30    3.40
  -5   4   6   21.30    3.10
  -5   4   6   25.80    4.00
   5   4  -6   21.70    3.50
  -4  -4   6   14.00    2.40
  -4  -4   6   12.30    3.30
   4  -4  -6   20.90    3.20
  -4   4   6   13.10    2.20
  -4   4   6   13.40    3.30
   4   4  -6   13.10    2.60
   3  -4  -6   13.30    2.60
  -3  -4   6   10.60    3.20
  -3  -4   6   17.00    2.30
  -3   4   6   11.50    2.00
   3   4  -6    9.10    3.80
  -3   4   6   14.30    2.40
  -3   4   6   13.90    3.50
  -2  -4   6    2.80    2.50
  -2  -4   6    0.70    1.20
   2  -4  -6    6.10    2.30
  -2   4   6    2.30    0.90
  -2   4   6    1.90    0.60
   2   4  -6    2.00    3.10
   2   4  -6    0.70    1.40
  -2   4   6    3.10    2.70
  -1  -4   6   43.80    4.80
   1  -4  -6   50.49    5.00
  -1  -4   6   40.10    3.40
   1   4  -6   48.10    5.80
  -1   4   6   39.10    5.50
   1   4  -6   41.90    3.40
   0  -4   6   29.80    4.10
   0  -4  -6   20.00    3.50
   0  -4   6   19.20    2.70
   0   4  -6   29.90    5.20
   0   4  -6   24.70    2.70
   0   4   6   17.80    3.90
  -1  -4  -6   28.00    4.30
   1  -4   6   20.20    3.00
   1   4   6   29.90    5.30
  -1   4  -6   24.50    4.30
   2  -4   6    3.30    2.10
   2  -4   6    3.90    2.00
  -2  -4  -6    7.40    3.10
  -2   4  -6    5.30    2.90
   2   4   6    2.20    3.00
  -2   4  -6    3.70    1.30
   3  -4   6   21.90    3.60
   3  -4   6   23.00    3.40
  -3   4  -6   22.10    2.70
   3   4   6   20.10    4.40
  -3   4  -6   24.30    4.00
   4  -4   6    1.70    1.70
   4  -4   6    6.60    2.70
  -4   4  -6    1.70    1.60
  -4   4  -6   -2.10    2.70
   4   4   6    1.80    3.70
  -5  -4  -6    7.70    1.30
   5  -4   6   11.40    2.10
   5  -4   6    7.00    3.40
  -5  -4  -6    5.60    0.90
  -5   4  -6    6.00    2.00
   5   4   6    7.40    4.50
   6  -4   6    1.20    2.00
  -6  -4  -6    0.30    1.80
   6   4   6   -0.80    4.20
  -6   4  -6    0.60    2.20
  -7  -4  -6    1.20    5.10
  -7   4  -6   -2.70    2.70
  -8  -4  -6    2.10    6.20
   6   5  -6    0.90    3.70
   5  -5  -6   -3.90    4.20
  -5  -5   6    1.50    4.20
  -5   5   6   -0.30    2.20
   5   5  -6    3.40    3.20
  -4  -5   6   17.70    3.20
  -4  -5   6   15.60    4.80
   4  -5  -6   16.60    3.50
   4  -5  -6   17.40    4.90
  -4   5   6   14.60    2.00
   4   5  -6   14.00    3.30
  -3  -5   6    6.00    4.10
  -3  -5   6    2.70    1.80
   3  -5  -6    2.10    3.20
   3   5  -6    4.30    2.40
  -3   5   6    3.90    1.10
  -3   5   6    4.70    4.10
   2  -5  -6    6.20    3.80
  -2  -5   6    9.20    3.70
  -2  -5   6    7.20    2.20
  -2   5   6    8.10    4.20
   2   5  -6    7.10    2.30
  -1  -5   6    2.00    1.80
  -1  -5   6    3.10    3.10
   1   5  -6    0.90    1.80
  -1   5   6    5.40    3.90
   0  -5   6   16.10    3.90
   0  -5   6   12.10    2.60
   0   5  -6   13.50    2.40
   0   5   6   18.70    4.90
   1  -5   6    6.50    3.20
   1  -5   6    2.50    2.20
   1   5   6    4.10    4.40
  -1   5  -6    6.80    1.90
   2  -5   6    1.20    4.70
   2  -5   6    7.00    3.00
   2  -5   6    7.60    3.20
  -2   5  -6    5.90    1.80
   2   5   6    0.90    4.30
   3  -5   6    7.30    4.80
   3  -5   6    5.50    3.00
  -3   5  -6    5.40    2.10
   3   5   6    3.70    5.00
   4  -5   6    6.70    2.90
   4  -5   6   -0.50    4.70
  -4  -5  -6   -4.20    4.90
   4   5   6   -1.40    4.90
  -4   5  -6    4.10    2.10
   5  -5   6    3.40    2.50
  -5   5  -6   -0.40    2.50
  -6   5  -6    3.90    2.80
   2  -6  -6    0.90    6.50
   2   6  -6    7.90    3.40
   1  -6  -6   -4.70    6.00
   1   6  -6    3.40    2.70
   0  -6   6    0.00    4.80
   0  -6  -6   -4.80    6.80
   0   6  -6   -0.50    2.50
   1  -6   6   16.40    5.20
  -1   6  -6   11.90    3.00
   2  -6   6   -1.30    4.10
  -2   6  -6    3.10    2.50
 -10   0   7   11.20    4.70
 -10   0   7    0.70    1.90
  -9   0   7   12.60    4.20
  -9   0   7   11.00    2.00
   9   0  -7   10.70    3.10
   8   0  -7  151.58    9.60
  -8   0   7  156.98   10.20
  -8   0   7  157.48   10.80
  -7   0   7   52.39    4.90
  -7   0   7   50.29    5.40
   7   0  -7   48.40    4.50
  -6   0   7  213.68   11.60
   6   0  -7  188.08   11.70
  -5   0   7   20.20    2.50
   5   0  -7   14.80    2.30
   5   0  -7   16.30    2.50
  -4   0   7    4.00    1.20
   4   0  -7    1.50    1.20
   4   0  -7    3.20    1.10
  -4   0   7    6.30    1.20
  -3   0   7    3.90    1.10
   3   0  -7    1.30    0.80
  -3   0   7    2.10    0.90
   3   0  -7    1.20    0.90
   2   0  -7  612.44   30.00
   2   0  -7  568.84   29.90
  -2   0   7  595.84   29.70
  -1   0   7  161.18    8.20
   1   0  -7  150.88    8.30
   0   0  -7  208.98   10.70
   0   0   7  208.08   10.70
   1   0   7  210.18   11.00
  -1   0  -7  214.48   10.90
   2   0   7   28.50    2.30
  -2   0  -7   31.60    2.20
   2   0   7   30.70    2.40
  -3   0  -7  146.19    7.70
   3   0   7  132.39    8.00
   3   0   7  138.49    7.70
  -4   0  -7  360.96   17.40
   4   0   7  308.87   17.50
   4   0   7  324.57   17.40
   5   0   7    7.80    2.10
  -5   0  -7   11.30    1.90
  -5   0  -7    6.50    1.70
   5   0   7    7.90    1.80
   6   0   7   20.10    3.20
  -6   0  -7   19.00    3.30
   6   0   7   24.30    3.70
  -7   0  -7    4.40    1.90
   7   0   7    1.10    2.00
   7   0   7    2.70    2.40
  -7   0  -7    3.20    2.20
  -8   0  -7   19.90    3.60
  -9   0  -7    7.20    3.30
  -9   0  -7    6.60    2.50
 -10   0  -7    4.90    4.10
 -10  -1   7   24.60    5.60
 -10  -1   7   12.00    2.50
 -10  -1   7   12.60    4.90
 -10   1   7   13.90    4.80
  -9  -1   7   14.40    2.30
  -9  -1   7    8.00    3.40
   9  -1  -7    7.20    2.40
  -9   1   7   10.30    1.50
   9   1  -7    6.40    3.60
  -9   1   7    9.30    4.00
   8  -1  -7   26.50    3.40
  -8   1   7   30.30    5.20
   8   1  -7   25.50    4.20
  -8   1   7   22.60    3.80
  -8   1   7   26.40    2.30
  -7  -1   7   27.80    2.80
   7  -1  -7   23.50    2.80
  -7  -1   7   26.50    3.70
   7   1  -7   20.70    3.40
  -7   1   7   25.70    4.00
  -7   1   7   24.00    2.10
   7   1  -7   15.90    3.10
  -6  -1   7    6.30    1.50
  -6  -1   7    7.40    1.90
   6  -1  -7    5.20    1.40
  -6   1   7   10.70    2.20
   6   1  -7    5.30    2.10
  -6   1   7    5.20    1.10
  -6   1   7    6.10    2.10
   6   1  -7    5.70    2.10
  -5  -1   7  292.17   15.30
   5  -1  -7  277.77   14.90
  -5  -1   7  318.27   15.30
  -5   1   7  293.37   15.50
   5   1  -7  265.67   15.70
   5   1  -7  269.97   15.80
  -5   1   7  286.97   14.80
  -5   1   7  291.17   16.00
  -4  -1   7   54.69    3.50
  -4  -1   7   53.69    3.60
   4  -1  -7   42.20    3.80
   4   1  -7   43.50    3.90
   4   1  -7   47.00    3.80
  -4   1   7   46.40    3.10
  -4   1   7   48.10    3.60
  -3  -1   7  319.27   15.50
   3  -1  -7  284.27   15.70
   3   1  -7  282.97   16.10
  -3   1   7  321.97   15.50
   3   1  -7  280.27   15.70
  -3   1   7  308.87   15.50
   2  -1  -7  120.29    7.00
  -2   1   7  128.89    7.00
  -2   1   7  129.49    6.70
   2   1  -7  123.49    7.00
  -1  -1   7  205.98   10.80
   1  -1  -7  200.18   10.80
  -1   1   7  202.78   11.00
   1   1  -7  210.38   11.30
   1   1  -7  208.98   10.90
  -1   1   7  215.38   10.60
   0  -1   7   89.29    4.80
   0  -1  -7   80.79    4.60
   0   1  -7   80.89    5.10
   0   1  -7   86.79    4.80
   0   1   7   86.79    4.50
   0   1   7   84.49    5.10
   1  -1   7  893.81   45.30
  -1  -1  -7  900.11   44.80
  -1   1  -7  945.11   45.10
   1   1   7  881.31   45.70
   1   1   7  880.61   44.90
  -1   1  -7  928.61   45.60
   2  -1   7   52.39    3.70
  -2  -1  -7   57.29    3.20
  -2   1  -7   55.59    3.50
   2   1   7   51.99    3.90
   2   1   7   50.09    3.40
  -2   1  -7   61.29    3.50
  -3  -1  -7   24.00    1.90
   3  -1   7   19.40    2.40
  -3   1  -7   20.70    1.90
   3   1   7   23.20    2.70
   3   1   7   16.40    2.20
   4  -1   7   16.80    2.70
  -4  -1  -7   21.00    2.30
   4  -1   7   20.90    2.00
   4   1   7   17.70    2.70
  -4   1  -7   16.80    1.70
  -4   1  -7   20.40    2.30
  -5  -1  -7    6.40    1.60
   5  -1   7    4.70    1.20
  -5  -1  -7    4.50    1.60
   5   1   7    3.40    2.00
  -5   1  -7    2.80    1.00
   5   1   7    1.00    1.70
  -5   1  -7    4.10    1.50
   6  -1   7   10.50    2.50
  -6  -1  -7   10.30    1.90
  -6  -1  -7    9.20    2.20
   6  -1   7    9.30    1.80
   6   1   7    8.50    2.60
  -6   1  -7    9.80    2.20
  -6   1  -7    6.60    1.30
   7  -1   7   14.20    2.30
   7   1   7    6.10    3.20
  -7   1  -7   14.20    2.80
   7   1   7   13.30    3.20
  -7   1  -7   10.40    1.90
  -8  -1  -7    3.40    2.10
  -8  -1  -7   -4.40    2.50
   8  -1   7    0.30    2.00
   8   1   7    3.60    3.40
  -8   1  -7   -0.20    1.10
   8   1   7    0.50    2.90
  -8   1  -7   -2.20    2.80
  -9  -1  -7    9.60    3.10
  -9  -1  -7    3.70    3.50
  -9   1  -7    7.40    3.30
 -10  -1  -7   -3.90    4.20
 -10  -2   7    0.30    4.50
 -10  -2   7    8.90    3.00
 -10  -2   7    3.60    5.70
 -10   2   7    0.20    4.50
  -9  -2   7    4.90    3.90
  -9  -2   7    8.30    4.70
  -9  -2   7    4.10    2.50
  -9   2   7   -0.90    3.60
  -8  -2   7    1.70    2.10
   8  -2  -7    2.10    1.50
  -8   2   7    1.10    3.10
  -8   2   7    2.90    3.20
   8   2  -7    0.30    3.30
  -8   2   7   -1.10    1.50
   8   2  -7   -1.20    2.60
  -7  -2   7    3.70    2.10
   7  -2  -7    3.40    1.30
  -7  -2   7    3.80    2.00
  -7   2   7    1.40    1.40
  -7   2   7    4.50    2.70
   7   2  -7    4.20    3.30
  -7   2   7    5.20    2.60
   7   2  -7    2.80    2.40
  -6  -2   7   21.20    3.00
   6  -2  -7   17.00    1.90
  -6  -2   7   20.00    3.20
   6   2  -7   20.40    3.80
   6   2  -7   17.10    3.10
  -6   2   7   20.60    3.60
  -6   2   7   16.80    3.10
  -6   2   7   21.00    2.60
  -5  -2   7   22.40    3.00
  -5  -2   7   16.50    2.30
   5   2  -7   18.30    3.30
  -5   2   7   19.00    2.80
  -5   2   7   21.10    2.50
   5   2  -7   18.00    3.00
  -4  -2   7   95.19    6.20
  -4  -2   7   93.09    5.50
  -4   2   7   87.69    5.70
  -4   2   7   98.69    6.30
   4   2  -7   90.79    6.10
   4   2  -7   84.19    6.50
  -3  -2   7  122.69    7.30
  -3  -2   7  128.39    6.70
  -3   2   7  114.09    7.00
  -3   2   7  118.39    6.70
  -3   2   7  111.09    7.00
   3   2  -7  116.39    7.00
   3   2  -7  114.29    7.70
  -2  -2   7   14.00    1.50
  -2  -2   7   16.30    2.20
  -2   2   7   16.80    2.30
  -2   2   7   14.60    1.40
   2   2  -7   12.00    2.20
  -2   2   7   12.90    1.70
  -1  -2   7  188.18   10.90
  -1  -2   7  199.58   10.20
   1  -2  -7  177.98   10.00
  -1   2   7  191.78   10.90
   1   2  -7  203.28   10.40
   1   2  -7  192.88   11.20
  -1   2   7  200.38    9.80
   0  -2   7   76.89    4.70
   0  -2  -7   88.99    5.10
   0  -2  -7   75.19    4.30
   0  -2   7   86.09    5.00
   0   2  -7   82.39    4.70
   0   2   7   73.89    5.40
   0   2   7   74.29    4.10
   0   2  -7   73.99    5.30
  -1  -2  -7   27.70    2.70
   1  -2   7   23.40    2.30
  -1  -2  -7   24.20    1.60
  -1   2  -7   22.80    2.70
   1   2   7   26.40    3.30
   1   2   7   25.80    1.70
   2  -2   7    2.70    1.10
  -2  -2  -7    1.40    1.30
   2  -2   7    0.80    1.10
  -2  -2  -7    1.80    0.50
  -2   2  -7    0.60    1.30
  -2   2  -7    1.70    0.90
   2   2   7   -0.20    1.60
   2   2   7    2.90    0.80
  -3  -2  -7   14.00    2.40
  -3  -2  -7   12.00    1.30
   3  -2   7    8.70    1.90
   3   2   7   10.00    2.50
   3   2   7   15.20    2.00
  -3   2  -7   10.50    1.80
   4  -2   7    5.50    1.70
  -4  -2  -7    3.20    1.10
  -4  -2  -7    6.00    1.90
  -4   2  -7    4.20    1.40
   4   2   7    0.20    1.50
   4   2   7    4.80    2.10
  -4   2  -7    3.20    1.30
   5  -2   7    2.80    2.00
  -5  -2  -7    5.90    2.10
  -5  -2  -7    4.40    1.50
   5  -2   7    7.30    1.40
  -5   2  -7    3.80    1.50
  -5   2  -7    3.10    1.60
   5   2   7   -0.50    2.50
   6  -2   7    9.40    1.50
  -6  -2  -7   10.00    2.40
  -6  -2  -7    9.70    2.30
  -6   2  -7    6.40    1.70
   6   2   7   11.40    3.50
   6   2   7   12.30    2.60
  -7  -2  -7   12.40    3.10
  -7  -2  -7   11.40    2.80
   7  -2   7    9.90    1.90
  -7  -2  -7   11.00    3.00
  -7   2  -7   12.80    2.90
   7   2   7   11.50    3.60
  -7   2  -7   12.30    2.00
  -8  -2  -7   17.60    3.80
  -8  -2  -7   16.00    3.30
  -8  -2  -7   13.10    3.40
  -8   2  -7   17.20    2.90
  -8   2  -7   11.00    3.30
   8   2   7   13.50    4.50
  -9  -2  -7   11.00    4.10
   9   2   7    6.60    4.80
  -9   2  -7    5.50    3.50
 -10  -2  -7    8.20    5.10
 -10  -2  -7   11.80    5.50
 -10   3   7   29.40    7.70
  -9  -3   7    6.30    3.90
  -9  -3   7    7.70    4.80
  -9   3   7   13.60    5.10
  -8  -3   7    2.60    3.50
  -8   3   7    5.50    2.20
   8   3  -7    2.40    3.40
   7  -3  -7    1.80    1.30
  -7  -3   7    3.70    2.90
  -7   3   7    0.30    2.10
  -7   3   7    2.30    2.80
   7   3  -7   -0.20    2.70
  -7   3   7    2.50    3.00
  -6  -3   7    0.80    1.70
  -6  -3   7    3.00    2.40
  -6   3   7   -2.50    2.20
   6   3  -7   -1.10    2.20
  -6   3   7    4.20    2.40
   6   3  -7    7.00    3.70
  -6   3   7    0.50    2.00
  -5  -3   7   29.30    3.00
  -5  -3   7   31.90    4.30
   5   3  -7   27.60    4.00
  -5   3   7   32.70    4.00
  -5   3   7   27.90    4.00
  -5   3   7   30.20    3.70
   5   3  -7   31.10    5.60
  -4  -3   7    1.90    2.10
   4  -3  -7    0.90    1.30
  -4  -3   7    1.20    1.10
  -4   3   7   -0.50    1.50
  -4   3   7   -0.20    1.80
   4   3  -7    1.90    3.00
  -3  -3   7   58.69    3.80
  -3   3   7   55.49    3.70
  -3   3   7   50.79    4.00
   3   3  -7   53.99    4.30
   3   3  -7   47.70    5.50
  -3   3   7   50.29    4.80
  -2  -3   7   51.59    3.50
   2  -3  -7   55.19    4.00
  -2  -3   7   49.70    4.60
   2   3  -7   44.30    5.20
  -2   3   7   48.50    3.00
   2   3  -7   46.50    3.70
  -2   3   7   55.49    3.50
  -2   3   7   47.00    4.80
  -1  -3   7   24.70    2.30
  -1  -3   7   25.20    3.10
   1  -3  -7   25.60    2.90
   1   3  -7   24.10    2.50
  -1   3   7   21.80    3.70
   1   3  -7   23.10    3.60
   0  -3   7   66.09    4.50
   0  -3  -7   70.99    5.20
   0  -3   7   73.29    5.10
   0   3  -7   69.79    4.40
   0   3   7   64.49    5.70
   1  -3   7    3.00    1.30
  -1  -3  -7    2.90    1.70
   1  -3   7    0.50    1.30
  -1   3  -7    1.50    1.90
   1   3   7    1.70    2.40
  -1   3  -7    1.60    1.10
   2  -3   7   68.59    4.50
  -2  -3  -7   64.29    5.40
   2  -3   7   58.99    4.60
  -2   3  -7   56.69    5.20
  -2   3  -7   63.69    4.10
  -3  -3  -7   19.40    3.20
   3  -3   7   14.30    2.60
  -3   3  -7   18.40    2.40
  -3   3  -7   15.90    2.80
   3   3   7   19.80    3.80
  -4  -3  -7    7.70    2.80
  -4  -3  -7    6.90    1.00
  -4  -3  -7    6.50    1.20
   4  -3   7   10.10    2.60
  -4   3  -7    7.80    1.70
   4   3   7    6.10    3.00
  -4   3  -7    5.80    2.30
  -5  -3  -7   19.80    3.70
   5  -3   7   13.90    3.00
  -5  -3  -7   19.10    2.50
  -5  -3  -7   19.50    2.60
  -5   3  -7   17.30    2.70
   5   3   7   16.20    4.00
  -5   3  -7   14.60    2.90
  -6  -3  -7   30.00    3.80
  -6  -3  -7   30.30    3.60
   6   3   7   26.90    5.40
  -6   3  -7   24.80    4.00
  -7  -3  -7   17.30    3.00
   7  -3   7   13.20    2.40
  -7  -3  -7   16.20    3.00
   7   3   7   17.50    4.70
  -7   3  -7   17.20    3.20
  -7   3  -7   13.30    2.90
  -8  -3  -7    4.70    3.30
   8   3   7    4.20    5.00
  -8   3  -7   -0.50    3.00
  -9  -3  -7    3.80    5.60
  -9  -3  -7   -0.90    3.90
  -8  -4   7    8.50    4.50
  -8   4   7    4.90    4.20
   8   4  -7    9.90    4.10
  -7  -4   7   16.20    4.60
   7   4  -7   10.80    3.80
  -7   4   7   14.10    4.20
  -7   4   7    6.90    3.60
  -6  -4   7    2.60    3.70
   6  -4  -7    7.20    2.70
  -6   4   7    6.40    3.20
   6   4  -7    1.50    3.00
  -6   4   7    4.50    3.00
  -6   4   7    1.70    2.70
  -5  -4   7   24.30    4.20
  -5  -4   7   20.80    3.00
  -5   4   7   32.80    5.40
  -5   4   7   24.50    4.00
  -5   4   7   26.60    4.10
   5   4  -7   22.80    3.70
  -4  -4   7   18.00    2.80
   4  -4  -7   26.20    3.60
  -4  -4   7   18.30    3.60
  -4   4   7   19.30    3.10
  -4   4   7   21.70    3.80
   4   4  -7   18.90    3.10
  -4   4   7   21.40    3.10
  -3  -4   7   76.79    4.90
  -3  -4   7   67.29    6.60
   3  -4  -7   81.29    5.60
  -3   4   7   70.39    4.60
  -3   4   7   65.69    6.90
  -3   4   7   68.39    4.40
   3   4  -7   72.69    5.50
   2  -4  -7    9.60    2.50
  -2  -4   7    5.40    1.50
  -2  -4   7    8.10    2.90
   2   4  -7    4.80    3.50
  -2   4   7    9.00    3.40
  -2   4   7    9.60    0.90
   2   4  -7    7.90    2.00
  -1  -4   7   55.79    4.30
  -1  -4   7   63.09    5.70
   1  -4  -7   70.19    5.70
   1   4  -7   55.19    6.80
  -1   4   7   55.89    6.60
   1   4  -7   58.99    4.40
   0  -4   7   14.50    3.00
   0  -4   7   11.70    2.10
   0  -4  -7   17.60    3.40
   0   4   7    5.60    3.50
   0   4  -7    7.80    3.80
   0   4  -7   11.70    2.00
  -1  -4  -7   10.20    3.00
   1  -4   7    4.10    1.80
   1  -4   7    8.70    2.60
  -1   4  -7    5.60    1.50
   1   4   7    7.90    3.60
  -1   4  -7    5.80    3.40
   2  -4   7   -0.20    2.00
  -2  -4  -7    1.40    2.90
   2  -4   7   -1.60    1.70
  -2   4  -7    0.50    1.30
  -2   4  -7   -0.60    3.00
   2   4   7   -3.20    2.90
   3  -4   7   -0.10    1.70
   3  -4   7    6.00    2.70
   3   4   7    1.90    3.50
  -3   4  -7    1.10    1.50
  -3   4  -7   -1.70    2.80
   4  -4   7    2.40    1.80
  -4   4  -7    3.60    3.20
   4   4   7    5.10    4.20
  -4   4  -7    0.30    1.70
   5  -4   7    1.70    2.00
  -5   4  -7    3.30    2.00
   5   4   7    4.80    4.60
  -5   4  -7    4.40    3.30
   6  -4   7    8.70    2.70
   6   4   7    6.60    4.90
  -6   4  -7    3.30    2.30
  -7   4  -7    6.20    2.90
   7   4   7    0.70    5.30
   6   5  -7    1.80    3.60
  -5  -5   7    2.50    4.40
   5  -5  -7    8.10    4.80
   5   5  -7    0.70    3.20
  -4  -5   7   18.10    4.60
   4  -5  -7   29.70    5.10
   4   5  -7   16.90    3.60
  -4   5   7   18.70    5.20
  -3  -5   7    6.80    3.80
   3  -5  -7    4.70    3.20
  -3   5   7    9.20    4.50
   3   5  -7   -1.10    2.40
  -2  -5   7   52.39    7.00
  -2  -5   7   54.79    4.90
   2   5  -7   54.79    5.10
  -2   5   7   48.10    8.10
  -1  -5   7    5.20    3.50
  -1  -5   7   -1.10    2.00
  -1   5   7    2.60    4.10
   1   5  -7   -1.40    2.00
   0  -5   7   23.50    4.30
   0  -5   7   16.60    3.10
   0   5  -7   19.70    3.40
   0   5   7   17.00    5.10
   1  -5   7    0.80    2.80
   1   5   7   -0.10    4.60
  -1   5  -7    0.50    1.80
   2  -5   7    8.10    3.30
   2   5   7   -0.60    4.40
  -2   5  -7    8.50    2.10
   3  -5   7    6.90    5.00
   3  -5   7    8.80    3.10
   3   5   7   11.40    5.60
   4  -5   7    4.70    5.40
   4  -5   7   11.30    3.00
  -4   5  -7    4.80    2.30
   4   5   7    8.20    5.90
   5  -5   7    6.10    3.00
  -5   5  -7    2.50    2.40
   1  -6  -7    8.90    6.90
   1   6  -7    3.90    3.00
   0   6  -7    9.30    3.00
   1  -6   7    9.90    4.90
 -10   0   8    2.70    4.70
   9   0  -8    0.00    2.80
  -9   0   8    2.00    3.70
  -8   0   8  126.19    9.30
   8   0  -8  123.59    8.50
   7   0  -8   16.80    2.70
   7   0  -8   15.50    3.00
  -7   0   8   19.10    3.00
   6   0  -8   13.80    2.20
  -6   0   8   13.80    2.30
   6   0  -8   15.30    2.90
   5   0  -8    3.20    1.40
  -5   0   8    5.70    1.60
   5   0  -8    3.70    1.60
   4   0  -8    4.40    1.30
  -4   0   8    6.90    1.40
  -3   0   8   42.50    2.90
   3   0  -8   41.30    3.30
   3   0  -8   39.70    3.00
   2   0  -8    1.30    0.90
  -2   0   8    1.40    0.70
  -2   0   8    3.80    1.10
  -1   0   8   77.79    4.30
   1   0  -8   74.49    4.40
   0   0  -8  499.25   25.10
   0   0   8  501.85   25.10
   1   0   8   12.00    1.60
  -1   0  -8   10.50    1.30
   1   0   8   11.10    1.40
  -2   0  -8  312.97   15.60
   2   0   8  296.87   15.90
   2   0   8  302.77   15.90
   3   0   8   81.69    5.50
  -3   0  -8   92.09    5.20
   3   0   8   86.09    5.30
   4   0   8   87.89    5.70
   4   0   8   85.99    5.90
  -4   0  -8  101.29    5.70
   5   0   8    8.00    2.00
  -5   0  -8    5.10    1.60
   6   0   8    0.60    2.10
   6   0   8    1.60    1.80
  -6   0  -8    6.10    2.00
   7   0   8   -1.60    2.60
  -7   0  -8    2.10    2.00
  -7   0  -8    0.90    2.20
   7   0   8   -1.20    2.20
  -8   0  -8   14.40    3.30
   8   0   8   17.50    3.70
  -9   0  -8    1.90    3.50
   9   0   8    1.40    3.30
 -10   0  -8    2.10    4.30
 -10  -1   8   -1.20    4.30
 -10  -1   8    7.30    2.70
 -10  -1   8    5.00    4.40
 -10   1   8   -1.60    4.00
  -9  -1   8   10.10    2.20
   9  -1  -8    6.70    2.60
   9   1  -8   10.30    3.90
  -9   1   8   10.50    4.10
  -8  -1   8    7.60    1.90
   8  -1  -8    7.10    2.20
  -8   1   8    6.20    1.30
  -8   1   8   10.50    3.80
   8   1  -8    6.00    2.90
   8   1  -8    9.10    3.40
  -7  -1   8   12.90    2.60
   7   1  -8    9.60    2.90
   7   1  -8    6.70    2.90
  -7   1   8   13.60    2.90
  -7   1   8    9.80    3.20
  -7   1   8    9.60    1.50
  -6  -1   8    3.90    1.60
  -6  -1   8    6.80    1.50
   6   1  -8    4.60    1.90
   6   1  -8    6.20    2.20
  -6   1   8    0.40    1.90
  -6   1   8    3.80    1.10
  -6   1   8    6.80    2.30
  -5  -1   8   42.90    3.40
   5  -1  -8   39.20    4.00
  -5   1   8   40.00    2.90
   5   1  -8   37.60    4.10
   5   1  -8   33.60    3.70
  -5   1   8   41.70    3.50
  -4  -1   8  108.99    6.20
   4  -1  -8  102.89    6.50
   4   1  -8   99.89    6.70
  -4   1   8  112.49    6.30
  -4   1   8   99.89    5.90
   4   1  -8   95.09    6.50
   3  -1  -8  279.57   15.60
  -3  -1   8  315.77   15.30
  -3   1   8  270.77   15.30
   3   1  -8  284.27   15.90
  -3   1   8  321.17   15.30
   3   1  -8  295.67   15.70
  -2  -1   8   68.49    3.90
   2  -1  -8   61.59    4.10
   2   1  -8   62.59    4.10
  -2   1   8   60.89    4.00
   2   1  -8   66.09    4.50
  -2   1   8   68.89    3.80
  -1  -1   8   31.50    2.20
   1  -1  -8   31.50    2.30
  -1   1   8   30.00    2.50
   1   1  -8   29.40    2.70
  -1   1   8   31.00    2.00
   1   1  -8   28.20    2.30
   0  -1  -8  121.29    6.80
   0  -1   8  132.09    7.00
   0   1  -8  130.29    7.40
   0   1   8  125.79    6.70
   0   1  -8  130.99    7.00
   0   1   8  129.19    7.30
   1  -1   8  456.35   23.40
  -1  -1  -8  465.95   23.00
   1   1   8  461.35   23.80
  -1   1  -8  463.15   23.60
   1   1   8  448.56   23.10
  -1   1  -8  459.45   23.20
   2  -1   8   16.50    2.10
  -2  -1  -8   16.10    1.40
  -2   1  -8   16.50    1.70
  -2   1  -8   16.10    1.80
   2   1   8   12.60    1.70
   2   1   8   13.70    2.10
  -3  -1  -8   90.79    4.70
   3  -1   8   79.29    5.40
  -3   1  -8   86.99    5.00
   3   1   8   75.89    5.50
   3   1   8   77.79    5.00
  -3   1  -8   70.89    4.80
  -4  -1  -8   15.80    2.10
   4  -1   8   13.60    1.90
   4  -1   8   14.50    2.30
  -4   1  -8   11.10    1.70
   4   1   8   12.20    2.30
   4   1   8   14.30    2.30
  -4   1  -8   15.00    2.20
  -5  -1  -8   15.90    2.50
   5  -1   8    9.00    2.10
   5  -1   8   11.20    2.00
  -5  -1  -8   10.90    2.00
   5   1   8   13.10    2.20
   5   1   8   11.20    2.70
  -5   1  -8    8.70    1.50
   6  -1   8   10.70    3.30
   6  -1   8   18.50    2.70
  -6  -1  -8   20.50    3.30
   6   1   8   17.30    3.30
  -6   1  -8   16.00    2.10
   6   1   8   24.50    4.10
  -6   1  -8   14.90    2.50
   7  -1   8   10.10    2.40
  -7  -1  -8    9.20    2.70
   7   1   8    6.20    3.10
  -7   1  -8    6.60    1.50
  -7   1  -8    8.40    2.60
   7   1   8    5.70    3.10
  -8  -1  -8    7.30    2.70
   8  -1   8    6.20    2.40
  -8  -1  -8    5.60    2.90
  -8   1  -8    4.50    1.60
  -8   1  -8    5.40    3.10
   8   1   8    5.20    3.50
  -9  -1  -8    3.10    3.30
  -9  -1  -8    1.10    3.50
   9   1   8    5.30    4.30
  -9   1  -8    0.70    3.00
 -10  -1  -8    3.00    4.30
 -10  -2   8    5.00    2.90
 -10   2   8   -0.90    4.60
  -9  -2   8    8.80    2.80
  -9  -2   8    7.20    4.40
  -9   2   8    4.30    4.30
   9   2  -8    1.50    4.60
   8  -2  -8   -0.30    1.70
  -8  -2   8    2.70    2.30
   8   2  -8    1.10    3.90
   8   2  -8    0.30    2.60
  -8   2   8    5.00    3.50
  -8   2   8    0.50    1.60
   7  -2  -8   30.80    3.00
  -7  -2   8   35.80    4.00
   7   2  -8   28.30    4.50
  -7   2   8   33.40    3.30
  -7   2   8   32.20    5.30
  -7   2   8   44.80    4.90
   7   2  -8   35.40    5.90
  -6  -2   8   26.10    3.10
  -6  -2   8   18.50    3.30
   6   2  -8   17.50    3.10
   6   2  -8   21.10    4.00
  -6   2   8   34.30    4.50
  -6   2   8   23.90    2.90
  -6   2   8   22.80    3.70
  -5  -2   8   54.39    4.40
  -5  -2   8   54.99    4.00
  -5   2   8   48.80    3.90
   5   2  -8   45.80    4.50
  -5   2   8   55.09    4.90
   5   2  -8   44.80    5.30
  -5   2   8   54.59    4.40
  -4  -2   8    1.80    1.10
  -4  -2   8    1.30    1.30
  -4   2   8    3.50    1.40
   4   2  -8    3.10    1.70
   4   2  -8    1.70    2.10
  -4   2   8    1.20    1.50
  -4   2   8    1.90    1.20
  -3  -2   8   44.40    3.60
  -3  -2   8   38.70    2.80
  -3   2   8   33.70    3.40
  -3   2   8   39.30    2.80
   3   2  -8   37.80    3.40
   3   2  -8   37.10    4.30
  -3   2   8   38.00    3.40
   2  -2  -8  273.37   15.80
  -2  -2   8  351.16   16.60
  -2  -2   8  314.07   15.90
  -2   2   8  303.07   16.60
   2   2  -8  294.67   16.10
   2   2  -8  288.27   16.90
  -2   2   8  322.77   15.60
   1  -2  -8   53.69    3.60
  -1  -2   8   62.59    3.80
  -1  -2   8   65.89    4.10
   1   2  -8   56.19    4.70
  -1   2   8   57.19    4.50
   1   2  -8   59.39    3.80
  -1   2   8   53.69    3.20
   0  -2  -8   49.99    3.10
   0  -2   8   52.69    3.50
   0   2   8   49.99    2.90
   0   2   8   54.79    4.40
   0   2  -8   47.50    4.20
   0   2  -8   53.39    3.40
   1  -2   8   89.19    5.40
  -1  -2  -8   80.59    4.50
   1   2   8   79.79    4.60
  -1   2  -8   83.89    5.70
   1   2   8   87.59    6.10
  -1   2  -8   91.69    5.10
  -2  -2  -8   60.09    3.20
   2  -2   8   57.89    4.30
   2   2   8   49.99    3.60
  -2   2  -8   60.09    4.40
   2   2   8   60.09    5.10
  -2   2  -8   68.29    4.00
  -3  -2  -8   35.30    3.20
  -3  -2  -8   28.70    2.00
   3  -2   8   28.90    3.30
  -3   2  -8   25.00    2.90
   3   2   8   21.00    4.00
  -3   2  -8   29.50    2.70
  -4  -2  -8   13.40    1.80
  -4  -2  -8   16.10    2.80
   4  -2   8   10.10    2.20
  -4   2  -8    8.90    1.80
   4   2   8    8.50    2.00
  -4   2  -8   10.20    1.90
   4   2   8   11.10    3.20
   5  -2   8    7.70    1.60
  -5  -2  -8    6.30    1.60
   5  -2   8    4.90    2.20
  -5  -2  -8    6.00    1.90
  -5   2  -8    4.20    1.70
   5   2   8    3.40    2.80
  -5   2  -8    4.60    1.70
   6  -2   8   19.90    2.40
  -6   2  -8   18.70    3.20
  -6   2  -8   16.20    2.90
   6   2   8   21.30    3.20
   6   2   8   16.70    3.70
   7  -2   8    7.50    2.00
  -7  -2  -8    9.70    2.80
  -7  -2  -8   13.00    3.00
   7   2   8   14.20    3.30
   7   2   8    8.80    4.00
  -7   2  -8   11.50    2.70
   8  -2   8    0.30    2.20
  -8  -2  -8    6.10    3.10
  -8  -2  -8   -4.60    3.30
  -8  -2  -8    1.30    3.00
   8   2   8   -0.70    4.00
  -8   2  -8   -1.50    2.50
  -9  -2  -8    2.10    3.80
   9   2   8    1.80    5.00
  -9  -3   8    9.50    3.90
   9   3  -8   15.80    4.80
  -8  -3   8    9.00    3.50
   8   3  -8    4.80    3.70
  -8   3   8   -4.00    3.40
  -7  -3   8   -2.50    2.70
  -7   3   8    7.10    3.00
  -7   3   8    3.50    3.10
   7   3  -8   -0.50    2.80
  -7   3   8   -2.00    2.30
  -6  -3   8   30.80    3.80
  -6  -3   8   37.80    4.90
  -6   3   8   34.20    4.70
  -6   3   8   39.80    4.60
   6   3  -8   33.40    6.20
  -6   3   8   34.40    4.30
   6   3  -8   29.20    4.60
  -5  -3   8   12.30    2.00
  -5  -3   8   14.20    3.10
   5   3  -8   10.90    3.70
  -5   3   8   11.80    2.90
  -5   3   8   10.00    2.40
   5   3  -8   11.80    2.60
  -5   3   8   13.70    2.40
  -4  -3   8   88.19    6.60
  -4  -3   8   99.79    5.70
  -4   3   8   82.39    5.90
   4   3  -8   78.29    7.60
  -4   3   8   86.49    6.50
   4   3  -8   88.29    6.30
  -3  -3   8   36.10    2.90
  -3  -3   8   30.40    3.70
  -3   3   8   35.80    2.70
   3   3  -8   33.30    5.00
  -3   3   8   35.60    4.20
  -3   3   8   27.00    3.00
  -2  -3   8   20.10    2.10
  -2  -3   8   13.00    2.50
   2  -3  -8   18.70    2.80
  -2   3   8   19.10    1.50
  -2   3   8   20.90    3.60
  -2   3   8   17.50    2.10
   2   3  -8   14.70    2.60
   2   3  -8   16.90    3.60
  -1  -3   8    1.70    1.00
   1  -3  -8    3.30    1.50
  -1  -3   8    3.00    1.90
  -1   3   8    1.50    0.60
   1   3  -8    1.40    1.30
  -1   3   8    1.90    0.30
   1   3  -8    0.50    2.00
  -1   3   8    4.40    2.30
   0  -3   8    5.40    1.80
   0  -3   8    4.50    1.30
   0  -3  -8    3.80    1.80
   0   3  -8    4.20    2.40
   0   3  -8    3.80    1.30
   0   3   8    2.70    2.30
   1  -3   8   11.20    2.10
  -1  -3  -8   10.20    2.20
   1  -3   8   10.10    1.90
  -1   3  -8    9.40    1.70
  -1   3  -8   12.00    2.60
   2  -3   8    8.50    1.90
  -2  -3  -8   11.60    2.50
   2  -3   8   10.80    1.90
  -2   3  -8    8.80    1.70
   2   3   8    7.10    2.80
  -2   3  -8   14.60    2.80
   3  -3   8   30.90    4.00
  -3  -3  -8   38.40    4.40
  -3   3  -8   37.80    4.30
   3   3   8   28.20    5.20
  -3   3  -8   32.70    3.20
  -4  -3  -8   22.50    1.70
   4  -3   8   21.60    3.60
  -4  -3  -8   20.10    2.20
  -4  -3  -8   30.00    4.20
  -4   3  -8   26.70    3.00
  -4   3  -8   24.40    3.80
   4   3   8   20.30    4.00
  -5  -3  -8   36.80    2.90
  -5  -3  -8   30.80    3.40
   5   3   8   31.10    5.20
  -5   3  -8   32.50    4.40
  -5   3  -8   29.10    3.50
   6  -3   8    8.70    2.20
  -6  -3  -8    5.70    2.30
  -6  -3  -8    4.30    1.80
  -6   3  -8    2.50    2.60
   6   3   8    0.90    4.00
  -6   3  -8    4.10    2.20
   7  -3   8   17.20    2.30
  -7  -3  -8   17.80    3.10
  -7  -3  -8   18.50    3.50
   7   3   8   21.40    5.50
  -7   3  -8   18.20    3.30
   8   3   8   -1.50    5.10
  -8  -4   8    6.90    5.00
   8   4  -8    7.40    4.40
  -8   4   8    2.90    4.50
  -7  -4   8    1.20    4.20
   7   4  -8    1.00    3.70
  -7   4   8    4.60    3.80
  -7   4   8    1.20    3.50
   6  -4  -8   12.40    3.10
  -6  -4   8    3.50    3.70
   6   4  -8    5.70    3.10
  -6   4   8    6.20    2.80
  -6   4   8    7.60    3.60
  -5  -4   8   34.30    5.20
   5   4  -8   25.40    4.60
  -5   4   8   24.00    4.40
  -5   4   8   33.20    4.20
  -5   4   8   32.10    5.70
  -4  -4   8   12.60    2.30
  -4  -4   8   11.60    3.30
  -4   4   8   16.70    2.50
  -4   4   8   15.20    2.30
   4   4  -8   16.40    3.30
  -3  -4   8  144.79    8.00
  -3  -4   8  139.69    9.60
  -3   4   8  131.99    7.20
  -3   4   8  124.99    9.80
   3   4  -8  134.59    8.60
  -3   4   8  120.19    7.30
   2  -4  -8    6.20    2.30
  -2  -4   8    2.70    2.60
  -2  -4   8    2.90    1.40
  -2   4   8    4.60    3.00
   2   4  -8    2.70    1.80
  -1  -4   8    9.90    2.00
   1  -4  -8    9.40    2.70
  -1  -4   8   11.20    3.00
   1   4  -8   10.10    2.00
   1   4  -8   10.20    4.10
  -1   4   8   10.40    3.60
   0  -4  -8   14.10    3.00
   0  -4   8    6.90    1.90
   0  -4   8   11.20    2.70
   0   4  -8   14.80    4.10
   0   4   8   11.30    3.70
   0   4  -8   11.90    2.00
   1  -4   8    6.90    2.40
   1  -4   8    6.40    2.30
  -1   4  -8    8.60    1.90
  -1   4  -8   13.00    4.00
   1   4   8   12.00    3.80
   2  -4   8    0.10    1.90
   2  -4   8    2.60    2.00
  -2   4  -8    3.20    3.30
   2   4   8   -2.90    3.40
  -2   4  -8    2.10    1.40
   3  -4   8    6.70    2.10
  -3   4  -8    2.20    1.70
  -3   4  -8    8.20    3.50
   3   4   8    5.10    4.10
  -4   4  -8    0.60    3.40
  -4   4  -8    0.40    1.60
   4   4   8    1.60    3.90
   5  -4   8    3.70    2.50
   5   4   8    1.40    4.70
  -5   4  -8    3.40    2.10
  -5   4  -8   -0.90    3.50
   6  -4   8    4.70    2.80
  -6   4  -8    1.50    2.20
   6   4   8    5.10    5.40
   7   4   8   18.40    7.00
   6   5  -8   -0.30    4.00
  -5   5   8   -2.90    4.70
   5   5  -8   -0.80    3.40
  -4  -5   8   12.30    4.30
   4   5  -8    8.90    3.60
  -4   5   8    4.90    4.70
  -3  -5   8    4.10    3.60
   3   5  -8    2.70    2.90
  -3   5   8    8.80    4.60
  -2  -5   8   32.30    5.20
   2   5  -8   37.60    4.60
  -2   5   8   34.20    6.20
  -1  -5   8    4.20    3.60
  -1   5   8    5.30    4.80
   0  -5   8   22.10    4.60
   0   5   8   28.00    6.20
   0   5  -8   19.30    3.00
   1  -5   8    0.50    3.20
   1   5   8    3.40    4.60
  -1   5  -8    1.50    2.00
   2  -5   8   12.40    3.60
   2   5   8   12.10    5.60
   3  -5   8   -0.70    2.70
  -3   5  -8    0.40    2.10
   3   5   8   -1.60    4.70
   4  -5   8   25.40    3.90
  -4   5  -8   24.90    4.10
 -10   0   9   59.69    5.10
   9   0  -9    6.30    3.30
  -9   0   9    0.60    3.60
  -9   0   9   12.70    2.30
   8   0  -9    7.20    2.80
  -8   0   9    8.20    3.30
  -8   0   9    9.70    2.10
   7   0  -9    1.50    2.50
   7   0  -9    4.00    2.20
  -7   0   9    4.40    1.70
  -7   0   9    2.10    2.10
   6   0  -9    7.40    2.20
  -6   0   9    7.90    2.00
   6   0  -9    4.00    1.80
  -6   0   9    9.30    1.90
  -5   0   9   35.40    3.20
   5   0  -9   31.30    3.10
   5   0  -9   28.10    3.50
  -4   0   9  123.49    6.60
   4   0  -9  103.59    7.00
   4   0  -9  105.19    6.70
   3   0  -9    0.10    0.80
   3   0  -9    1.20    1.00
  -3   0   9    1.50    0.80
  -3   0   9    0.90    1.20
  -2   0   9    3.40    1.30
   2   0  -9    0.20    0.80
  -2   0   9    1.10    0.70
   2   0  -9    1.00    1.00
   1   0  -9    1.60    0.90
  -1   0   9    4.20    1.20
   1   0  -9    2.30    1.00
   0   0   9   75.79    4.40
   0   0  -9   73.39    4.30
  -1   0  -9   43.80    3.10
   1   0   9   60.09    3.70
   2   0   9  211.68   11.80
  -2   0  -9  228.58   11.50
   3   0   9   19.00    2.30
   3   0   9   17.80    2.50
  -4   0  -9   18.80    2.30
   4   0   9   20.70    2.90
   4   0   9   16.00    2.40
   5   0   9    1.40    1.60
  -5   0  -9   -1.00    1.40
  -5   0  -9    0.30    1.70
   6   0   9   27.30    4.00
  -6   0  -9   29.40    3.70
   7   0   9    2.50    3.10
   7   0   9   -3.60    2.50
  -7   0  -9    0.50    2.20
  -7   0  -9   -0.80    2.10
  -8   0  -9    8.50    3.20
   8   0   9    6.90    3.30
   9   0   9    0.20    3.50
  -9   0  -9    5.70    3.70
 -10  -1   9    2.20    2.70
 -10  -1   9   -0.80    4.40
  -9  -1   9    5.90    4.00
  -9  -1   9   11.70    2.70
  -9   1   9    9.20    1.80
  -9   1   9   11.40    4.50
   9   1  -9    2.30    4.00
   8  -1  -9   11.00    2.70
   8   1  -9    4.60    3.10
  -8   1   9   14.50    3.80
  -8   1   9    7.70    1.60
   8   1  -9    9.20    3.60
   7  -1  -9   10.70    2.20
  -7  -1   9   10.90    2.50
  -7   1   9   12.30    2.90
  -7   1   9   11.70    2.10
   7   1  -9   11.70    3.10
   7   1  -9    9.80    2.80
  -7   1   9   15.70    3.20
   6  -1  -9    5.10    1.40
  -6  -1   9    7.90    1.70
  -6  -1   9    7.00    1.90
  -6   1   9    4.40    2.00
  -6   1   9    5.00    1.40
   6   1  -9    4.80    2.40
   6   1  -9    1.20    1.90
   5  -1  -9   46.40    4.60
  -5  -1   9   56.79    4.10
   5  -1  -9   52.69    3.70
  -5   1   9   57.09    4.30
  -5   1   9   53.49    3.70
   5   1  -9   49.40    4.80
   4  -1  -9   15.10    2.00
  -4  -1   9   20.00    2.30
  -4  -1   9   15.10    1.90
   4   1  -9   13.90    2.50
  -4   1   9   12.10    2.00
   4   1  -9   10.50    2.10
  -4   1   9   15.10    2.10
   3  -1  -9   24.80    2.90
  -3  -1   9   28.00    2.30
   3   1  -9   27.70    3.10
  -3   1   9   31.00    2.40
   3   1  -9   30.90    2.90
  -3   1   9   25.70    2.40
   2  -1  -9   65.89    4.30
  -2  -1   9   70.79    4.10
   2   1  -9   63.99    4.60
   2   1  -9   63.79    4.30
  -2   1   9   72.49    3.90
  -2   1   9   53.49    4.10
   1  -1  -9  234.08   12.70
  -1  -1   9  255.57   12.70
   1   1  -9  241.88   13.30
  -1   1   9  241.88   12.50
   0  -1   9  121.39    6.50
   0  -1  -9  109.39    6.20
   0   1  -9  108.49    6.70
   0   1   9  118.89    6.20
   0   1   9  116.29    6.90
   1  -1   9  193.48   10.40
  -1  -1  -9  193.38    9.90
   1   1   9  195.48   10.70
  -1   1  -9  176.68   10.40
  -1   1  -9  206.98   10.30
   1   1   9  185.28   10.10
  -2  -1  -9   25.10    1.90
   2  -1   9   21.30    2.40
   2   1   9   24.30    2.30
  -2   1  -9   24.60    2.20
  -2   1  -9   22.00    2.30
   2   1   9   24.70    2.90
  -3  -1  -9  157.48    7.90
   3  -1   9  144.89    8.70
   3   1   9  136.89    8.80
  -3   1  -9  145.39    8.20
  -3   1  -9  161.38    8.30
   3   1   9  133.39    8.30
   4  -1   9    2.50    1.80
  -4  -1  -9    6.50    1.70
  -4  -1  -9    4.40    1.20
  -4   1  -9    3.70    1.20
   4   1   9    6.10    2.00
   4   1   9    0.80    1.50
  -4   1  -9    2.50    1.30
   5  -1   9    3.70    1.50
   5  -1   9    5.40    2.20
  -5  -1  -9    7.40    2.00
  -5  -1  -9    4.70    1.60
  -5   1  -9    4.20    1.30
  -5   1  -9    4.30    1.70
   5   1   9    2.00    1.90
   5   1   9    6.50    2.40
   6  -1   9    7.10    2.70
   6  -1   9   10.80    2.10
  -6  -1  -9    8.40    2.20
   6   1   9    6.90    2.80
  -6   1  -9    9.70    2.40
  -6   1  -9    9.50    1.70
   7  -1   9   15.40    2.80
  -7  -1  -9   17.30    3.20
  -7   1  -9   12.30    2.60
   7   1   9   14.90    3.70
  -7   1  -9   14.70    2.60
   7   1   9   14.70    3.20
   8  -1   9    7.60    3.20
  -8  -1  -9   14.20    3.50
  -8   1  -9    7.60    3.10
   8   1   9   13.40    4.30
  -8   1  -9   11.70    2.10
  -9  -1  -9    0.80    3.80
  -9  -1  -9    0.10    4.00
  -9   1  -9   -0.90    3.50
   9   1   9   -1.90    4.30
 -10  -2   9   13.10    3.40
 -10   2   9    2.00    5.20
  -9  -2   9    7.10    3.00
  -9   2   9   13.80    5.00
   9   2  -9    9.00    3.90
  -8  -2   9   -0.40    2.10
   8   2  -9   -5.20    4.00
  -8   2   9    4.70    2.00
  -8   2   9    0.40    3.50
   8   2  -9    0.00    3.00
   7  -2  -9   28.10    3.20
  -7  -2   9   31.90    3.90
   7   2  -9   28.40    5.10
   7   2  -9   31.50    4.70
  -7   2   9   28.40    3.40
  -7   2   9   33.30    4.80
  -7   2   9   39.80    5.70
   6  -2  -9    1.20    1.20
  -6  -2   9    2.50    1.40
  -6  -2   9    3.70    2.00
  -6   2   9    7.40    3.00
  -6   2   9    2.50    1.60
   6   2  -9   -0.20    2.00
  -6   2   9    2.00    2.10
   6   2  -9    0.70    2.80
   5  -2  -9   13.50    2.30
  -5  -2   9    9.30    2.00
  -5  -2   9    6.10    1.70
  -5   2   9    8.10    2.10
   5   2  -9    5.20    2.60
   5   2  -9    6.90    1.90
  -5   2   9    6.80    2.30
  -4  -2   9   75.99    5.30
  -4  -2   9   74.39    4.60
   4   2  -9   66.69    6.10
  -4   2   9   63.89    4.90
  -4   2   9   77.99    4.80
  -4   2   9   59.29    5.20
   3  -2  -9  136.29    8.60
  -3  -2   9  172.38    9.00
  -3  -2   9  151.88    8.40
   3   2  -9  144.09    8.80
   3   2  -9  142.99    9.70
  -3   2   9  145.19    8.80
  -3   2   9  160.88    8.30
  -2  -2   9  101.79    5.90
   2  -2  -9   96.09    5.90
  -2   2   9  101.39    6.50
   2   2  -9   98.69    7.10
  -2   2   9  103.19    5.50
   2   2  -9   97.49    6.20
   1  -2  -9    9.30    1.60
  -1  -2   9   11.60    1.80
  -1  -2   9   15.60    2.20
   1   2  -9    5.50    1.90
  -1   2   9   10.50    1.10
   1   2  -9   11.50    1.70
  -1   2   9   10.70    2.10
   0  -2   9  118.99    6.50
   0  -2  -9  103.89    6.00
   0   2  -9  117.89    6.40
   0   2  -9  103.49    7.10
   0   2   9  108.59    7.20
   0   2   9  104.69    5.80
   1  -2   9   14.00    2.20
  -1  -2  -9   11.20    1.30
   1   2   9   15.10    2.70
  -1   2  -9   12.80    2.20
   1   2   9   12.10    1.50
  -1   2  -9   12.00    1.70
   2  -2   9  259.97   14.10
  -2  -2  -9  271.97   13.10
   2   2   9  245.08   14.70
  -2   2  -9  291.67   13.80
   2   2   9  236.28   13.40
  -2   2  -9  244.48   14.20
  -3  -2  -9   36.00    2.40
  -3  -2  -9   46.10    3.50
   3  -2   9   35.80    3.80
   3   2   9   33.90    3.10
  -3   2  -9   33.10    3.50
  -4  -2  -9   43.90    2.90
   4  -2   9   35.40    4.60
  -4   2  -9   37.50    3.70
   4   2   9   42.90    3.90
   4   2   9   35.80    5.10
  -4   2  -9   41.20    3.50
  -5  -2  -9   10.70    2.40
  -5  -2  -9    5.40    1.50
   5  -2   9    9.30    2.60
   5  -2   9    6.90    1.60
   5   2   9    6.50    2.20
   5   2   9    3.90    2.80
  -5   2  -9    5.00    1.60
  -5   2  -9    5.40    1.80
   6  -2   9   26.40    3.10
  -6  -2  -9   34.40    4.10
  -6  -2  -9   30.60    3.60
  -6   2  -9   23.10    3.40
   6   2   9   26.00    4.80
   6   2   9   28.10    4.80
  -6   2  -9   26.10    3.80
  -7  -2  -9   17.40    3.10
   7   2   9   19.50    4.00
  -7   2  -9   15.30    3.20
  -7   2  -9   14.80    2.70
   7   2   9   18.00    4.70
  -8  -2  -9    7.20    3.30
   8   2   9    6.30    4.40
  -8   2  -9    5.50    3.10
  -9  -2  -9    8.70    4.10
   9   2   9   11.40    6.10
  -9  -3   9    5.90    3.90
  -8  -3   9    4.80    3.50
  -8   3   9    4.70    3.70
   8   3  -9    3.50    3.60
   7  -3  -9    1.20    1.70
  -7  -3   9    2.40    3.00
  -7   3   9    3.60    3.00
   7   3  -9   -0.40    2.90
  -7   3   9    3.00    2.90
  -6  -3   9   56.99    5.50
  -6   3   9   51.59    5.30
  -6   3   9   38.30    5.30
   6   3  -9   41.30    5.40
  -6   3   9   54.69    5.30
  -5  -3   9   12.60    2.80
  -5  -3   9   16.10    2.50
  -5   3   9   12.70    2.70
  -5   3   9   12.50    2.40
  -5   3   9   12.60    3.00
   5   3  -9   12.40    4.20
   5   3  -9    9.20    2.70
  -4  -3   9    6.40    2.40
  -4  -3   9    6.80    1.60
  -4   3   9    8.20    1.70
   4   3  -9    8.10    2.20
  -4   3   9    8.40    2.10
   4   3  -9    7.50    3.50
  -4   3   9    3.30    2.40
  -3  -3   9   12.60    2.60
   3  -3  -9   16.80    2.80
  -3  -3   9    9.00    1.80
  -3   3   9   10.00    2.80
  -3   3   9   14.60    1.90
   3   3  -9    9.70    2.30
  -3   3   9   15.70    2.80
   3   3  -9   10.70    3.70
  -2  -3   9  135.69    8.20
  -2  -3   9  132.89    7.40
   2   3  -9  118.39    9.00
  -2   3   9  121.79    7.10
  -2   3   9  113.89    8.50
   2   3  -9  123.79    7.70
  -2   3   9  128.59    6.60
  -1  -3   9   26.90    2.70
   1  -3  -9   33.40    3.30
  -1  -3   9   32.70    3.50
   1   3  -9   19.30    3.60
  -1   3   9   24.00    1.50
   1   3  -9   23.90    2.90
   0  -3   9    3.20    1.40
   0  -3  -9    4.60    1.90
   0   3   9    4.60    2.40
   0   3  -9    3.30    1.50
   0   3  -9    6.30    2.50
  -1  -3  -9    3.60    1.90
   1  -3   9    1.60    1.40
   1  -3   9    2.10    1.50
   1   3   9    0.80    2.60
  -1   3  -9    3.90    2.50
  -1   3  -9    1.30    1.10
   2  -3   9   11.40    2.10
   2  -3   9    7.70    2.00
  -2  -3  -9   10.70    2.60
  -2   3  -9    8.50    1.70
  -2   3  -9   10.40    2.90
   2   3   9    7.60    3.20
   3  -3   9   26.10    3.40
  -3  -3  -9   20.10    1.60
  -3  -3  -9   25.40    3.90
  -3   3  -9   18.30    2.70
  -3   3  -9   20.80    3.40
   3   3   9   20.30    4.20
  -4  -3  -9    5.10    1.30
  -4  -3  -9    3.60    0.90
   4  -3   9    9.30    2.20
  -4  -3  -9    8.40    2.90
  -4   3  -9    3.90    1.50
  -4   3  -9    5.30    2.60
   4   3   9    4.40    3.40
  -5  -3  -9   27.80    3.30
  -5  -3  -9   30.50    2.50
  -5   3  -9   28.00    3.60
   5   3   9   18.80    4.50
  -5   3  -9   33.80    4.50
  -6  -3  -9    0.90    1.60
   6  -3   9    5.70    2.00
  -6  -3  -9    2.50    2.10
  -6   3  -9    1.10    1.90
  -6   3  -9    2.60    2.80
   6   3   9   -0.70    4.20
  -7  -3  -9    7.00    2.40
  -7   3  -9    6.20    2.60
   7   3   9    7.30    5.50
   8   3   9   11.30    6.10
  -8   4   9    3.20    4.60
  -7  -4   9    0.50    4.20
  -7   4   9   -3.80    3.70
   7   4  -9    4.40    3.90
   6  -4  -9    0.20    3.30
  -6  -4   9   -0.90    3.70
  -6   4   9   -0.80    3.60
   6   4  -9    3.10    3.00
  -6   4   9   -0.10    3.10
  -6   4   9    3.30    3.30
  -5  -4   9   15.40    3.90
   5   4  -9   13.10    3.30
  -5   4   9   16.00    4.20
  -5   4   9   12.90    3.10
  -5   4   9   21.10    3.70
  -4  -4   9    0.50    2.90
   4  -4  -9    9.90    2.50
  -4   4   9    6.00    3.50
  -4   4   9    1.30    1.90
   4   4  -9    3.70    2.50
  -4   4   9    3.80    1.60
  -3  -4   9   55.99    6.10
   3   4  -9   58.99    5.40
  -3   4   9   55.49    6.90
  -3   4   9   56.29    3.40
  -3   4   9   56.99    3.90
  -2  -4   9    6.00    2.50
   2  -4  -9    9.90    2.60
  -2  -4   9    3.90    1.80
   2   4  -9    5.70    2.20
  -2   4   9    4.70    3.10
   1  -4  -9   10.30    2.80
  -1  -4   9    4.10    1.80
  -1  -4   9    9.20    3.00
  -1   4   9    3.90    3.30
   1   4  -9    7.50    2.00
   0  -4   9    8.50    2.80
   0  -4   9    4.70    2.10
   0   4  -9    3.80    3.70
   0   4  -9   11.00    2.10
   0   4   9    9.80    3.60
   1  -4   9   26.40    3.90
   1  -4   9   25.00    4.40
  -1   4  -9   16.10    4.20
  -1   4  -9   25.60    2.90
   1   4   9   21.30    4.80
   2  -4   9    9.90    2.50
   2   4   9    6.70    4.10
  -2   4  -9    0.50    3.40
  -2   4  -9    4.70    1.70
   3  -4   9    5.60    2.30
   3   4   9   -4.30    4.10
  -3   4  -9    4.50    1.80
  -3   4  -9    0.20    3.40
   4  -4   9   -1.80    2.30
  -4   4  -9   -1.70    1.80
  -4   4  -9    2.30    3.70
   4   4   9    6.50    4.70
   5  -4   9    6.80    2.80
  -5   4  -9    0.10    2.20
  -5   4  -9    6.40    4.10
   5   4   9    1.70    4.90
  -6   4  -9    1.50    2.70
   6   4   9   -1.30    5.70
  -5   5   9    1.40    5.00
   5   5  -9    3.20    3.60
   4   5  -9    2.30    3.70
  -4   5   9    6.30    5.00
  -3  -5   9   -0.90    3.60
   3   5  -9    3.70    3.20
  -3   5   9    5.60    4.90
  -2  -5   9    1.50    4.00
  -2   5   9   11.60    5.20
   2   5  -9    7.30    2.90
  -1  -5   9   -1.20    3.20
   1   5  -9   -1.50    2.40
  -1   5   9    3.30    4.90
   0  -5   9    9.50    3.90
   0   5  -9    7.10    2.60
   0   5   9   11.00    5.00
   1  -5   9    9.50    3.60
  -1   5  -9    4.60    2.50
   1   5   9    7.20    5.00
   2  -5   9   -5.40    2.90
  -2   5  -9    0.80    2.10
   2   5   9    5.50    5.50
   3  -5   9    6.30    3.10
  -3   5  -9    3.50    2.30
  -4   5  -9   16.90    3.20
 -10   0  10   41.20    4.80
  -9   0  10    5.90    3.80
   9   0 -10   -0.40    3.40
  -9   0  10    9.10    2.40
   8   0 -10   11.80    3.20
  -7   0  10   10.00    2.50
   7   0 -10   14.90    3.10
   7   0 -10    5.80    2.90
   6   0 -10  106.59    7.80
   6   0 -10  102.29    7.20
  -6   0  10  117.79    7.10
  -5   0  10   -0.10    1.50
  -5   0  10    1.00    1.50
   5   0 -10   -0.30    1.50
   5   0 -10   -1.00    1.50
   4   0 -10    7.20    1.90
  -4   0  10   12.80    1.90
  -3   0  10  232.78   11.60
   3   0 -10  211.28   12.00
   3   0 -10  207.08   11.80
  -2   0  10   13.90    1.60
   2   0 -10   11.00    1.80
   1   0 -10   18.60    2.10
  -1   0  10   22.40    1.90
   0   0 -10   93.29    5.30
   0   0  10   91.89    5.30
  -1   0 -10    0.80    1.10
   1   0  10   -0.50    1.10
  -1   0 -10    0.70    0.80
   1   0  10    1.00    0.90
   2   0  10   21.60    2.50
   2   0  10   21.40    2.50
   3   0  10   -1.20    1.30
  -3   0 -10    1.10    1.60
   3   0  10    0.70    1.30
  -3   0 -10   -0.40    0.90
   4   0  10    8.80    2.20
   4   0  10    9.70    2.20
  -4   0 -10   18.10    3.00
  -4   0 -10   13.00    2.20
   5   0  10   26.90    3.90
   5   0  10   29.80    3.80
  -6   0 -10   18.30    2.90
   6   0  10   26.90    4.60
   6   0  10   13.80    3.00
   7   0  10    5.30    3.00
  -7   0 -10    4.20    2.50
  -7   0 -10    4.00    2.50
   8   0  10   -0.50    3.70
  -8   0 -10   -2.80    2.50
  -8   0 -10    4.70    2.90
   9   0  10   -2.90    4.20
  -9   0 -10   -3.80    3.30
 -10  -1  10    7.90    3.30
 -10   1  10   11.30    5.90
  -9  -1  10    0.80    2.40
  -9  -1  10    1.10    4.50
  -9   1  10   11.60    5.00
   9   1 -10    4.30    4.50
  -9   1  10    2.50    1.60
  -8  -1  10    9.30    2.50
   8  -1 -10    7.20    2.50
   8   1 -10    2.70    3.40
  -8   1  10    6.20    1.60
  -8   1  10    4.00    3.70
   8   1 -10    4.10    3.50
   7  -1 -10   83.99    6.20
  -7   1  10  101.89    5.70
   7   1 -10   83.39    7.10
  -7   1  10   93.09    6.90
  -7   1  10   84.39    7.50
   7   1 -10   90.09    7.50
   6  -1 -10   55.69    4.60
   6  -1 -10   64.69    5.80
  -6  -1  10   70.49    5.10
  -6   1  10   68.89    4.30
   6   1 -10   51.99    5.20
  -6   1  10   69.89    5.30
   6   1 -10   61.09    5.80
   5  -1 -10   14.80    2.20
  -5  -1  10   19.50    2.50
   5  -1 -10   12.60    2.60
   5   1 -10   14.30    2.90
  -5   1  10   12.60    2.10
  -5   1  10   14.30    1.90
   5   1 -10   11.60    2.70
   4  -1 -10   10.90    2.10
   4  -1 -10   14.80    2.10
  -4  -1  10    9.70    1.80
  -4   1  10   16.20    2.30
  -4   1  10   11.40    1.70
   4   1 -10   11.50    2.30
   4   1 -10   10.10    2.20
   3  -1 -10  324.97   18.50
  -3  -1  10  364.16   18.10
   3   1 -10  333.27   18.50
   3   1 -10  331.57   18.80
  -3   1  10  374.66   18.40
  -3   1  10  370.86   18.10
  -2  -1  10   57.69    3.60
   2  -1 -10   50.49    3.80
  -2   1  10   49.10    3.80
   2   1 -10   52.39    4.20
   2   1 -10   53.69    3.90
  -1  -1  10    6.30    1.10
   1  -1 -10    5.90    1.30
   1   1 -10    4.20    1.50
  -1   1  10    4.40    1.50
  -1   1  10    8.60    1.20
   1   1 -10    7.10    1.30
   0  -1 -10    1.80    0.90
   0  -1  10    2.10    0.90
   0  -1  10    6.10    1.60
   0   1  10    1.70    1.20
   0   1 -10    3.10    1.10
   0   1  10    2.10    0.70
   0   1 -10    0.30    1.20
   1  -1  10   14.30    1.90
  -1  -1 -10   15.70    1.60
   1   1  10   15.70    1.70
   1   1  10   12.50    2.30
  -1   1 -10   14.60    1.80
  -1   1 -10   10.40    1.90
   2  -1  10    6.50    1.70
  -2  -1 -10    6.60    1.10
   2   1  10    6.90    1.40
   2   1  10    7.50    1.90
  -2   1 -10    6.00    1.50
  -2   1 -10    6.30    1.30
  -3  -1 -10   42.30    3.00
   3  -1  10   40.70    3.90
  -3   1 -10   46.00    3.40
   3   1  10   44.20    4.20
  -3   1 -10   41.80    3.40
   3   1  10   41.80    3.60
   4  -1  10   27.00    2.80
  -4  -1 -10   29.30    2.70
   4  -1  10   23.90    3.80
  -4   1 -10   23.60    2.80
  -4   1 -10   23.70    2.70
   4   1  10   25.20    3.80
  -5  -1 -10    4.00    1.60
   5  -1  10    5.20    1.70
   5  -1  10    8.60    2.60
   5   1  10    1.00    2.20
  -5   1 -10    4.30    1.60
   5   1  10    5.80    2.70
  -5   1 -10    2.60    1.50
   6  -1  10   -0.70    1.70
  -6  -1 -10    1.70    2.30
  -6   1 -10   -0.90    1.80
   6   1  10   -0.20    2.60
  -6   1 -10   -1.80    1.40
   7  -1  10    9.40    2.90
  -7  -1 -10   10.70    2.70
  -7   1 -10    7.80    1.90
   7   1  10    9.20    3.60
  -7   1 -10    5.60    2.70
   7   1  10    7.20    3.60
  -8  -1 -10   -1.40    2.80
   8  -1  10    5.80    3.40
  -8  -1 -10    8.20    3.90
   8   1  10    1.20    4.10
  -8   1 -10    4.60    3.10
  -8   1 -10    2.90    1.90
  -9  -1 -10    1.40    3.70
   9   1  10   -5.80    4.90
 -10  -2  10   11.80    3.80
  -9  -2  10   13.60    3.40
   9   2 -10    3.10    4.20
  -9   2  10    7.50    5.10
   8  -2 -10   12.00    2.60
  -8  -2  10   16.40    3.10
   8   2 -10   10.00    3.40
   7  -2 -10    3.40    1.80
  -7  -2  10    6.90    2.40
  -7   2  10   -2.20    3.10
  -7   2  10    7.60    2.80
   7   2 -10    5.00    3.90
  -7   2  10    7.70    2.10
   7   2 -10    2.60    2.90
   6  -2 -10   37.30    3.30
  -6  -2  10   45.50    4.20
   6   2 -10   26.10    4.60
  -6   2  10   40.80    4.50
  -6   2  10   48.60    5.40
   6   2 -10   31.80    4.60
  -6   2  10   31.20    3.70
  -5  -2  10   33.50    3.60
  -5  -2  10   27.00    3.10
  -5   2  10   24.10    3.40
   5   2 -10   30.50    4.90
   5   2 -10   20.30    3.70
  -5   2  10   32.70    4.10
  -5   2  10   30.90    3.50
  -4  -2  10   60.89    4.10
  -4   2  10   59.19    4.10
   4   2 -10   53.49    5.60
  -4   2  10   52.39    4.40
   4   2 -10   54.29    4.80
   3  -2 -10   34.70    3.50
  -3  -2  10   43.40    3.20
   3   2 -10   39.30    3.70
  -3   2  10   38.70    3.90
   3   2 -10   43.50    5.00
   2  -2 -10  162.68    9.60
  -2  -2  10  180.38    9.60
  -2   2  10  169.78   10.20
   2   2 -10  166.08    9.90
  -2   2  10  186.98    9.10
   2   2 -10  175.18   10.80
  -1  -2  10   31.80    2.60
   1  -2 -10   29.30    2.60
   1   2 -10   31.60    2.80
  -1   2  10   33.00    2.10
   1   2 -10   31.10    3.90
  -1   2  10   29.80    3.50
   0  -2 -10   13.40    1.80
   0  -2  10   15.50    2.00
   0   2 -10   15.50    2.70
   0   2  10   13.60    1.40
   0   2 -10   17.60    2.20
   0   2  10   13.90    2.70
   1  -2  10    4.00    1.40
  -1  -2 -10    3.70    1.00
   1  -2  10    8.20    1.80
  -1  -2 -10    8.90    1.80
  -1   2 -10    4.90    1.90
   1   2  10    5.10    1.00
   1   2  10    6.70    2.20
  -1   2 -10    5.20    1.30
  -2  -2 -10   61.79    3.40
   2  -2  10   52.79    4.40
  -2   2 -10   61.19    4.10
   2   2  10   55.89    5.30
   2   2  10   59.09    3.90
  -2   2 -10   57.99    4.70
   3  -2  10    5.50    2.00
  -3  -2 -10    7.50    1.30
  -3   2 -10    5.50    1.90
   3   2  10    8.10    2.80
  -3   2 -10    4.50    1.40
   3   2  10    8.00    1.60
   4  -2  10   35.90    4.60
  -4  -2 -10   36.80    2.70
  -4   2 -10   36.30    3.40
  -4   2 -10   33.80    3.70
   4   2  10   25.40    3.80
   4   2  10   29.60    4.60
   5  -2  10   18.20    2.80
  -5  -2 -10   14.90    2.50
   5   2  10   13.50    4.00
  -5   2 -10   18.60    3.00
  -5   2 -10   12.30    2.50
  -6  -2 -10   25.70    3.50
   6  -2  10   18.30    3.10
   6   2  10   12.10    3.60
  -6   2 -10   19.50    3.00
   6   2  10   24.60    4.70
  -6   2 -10   22.50    3.30
   7  -2  10    5.50    2.40
  -7  -2 -10    7.70    2.70
  -7   2 -10    6.10    2.40
  -7   2 -10    4.50    2.50
   7   2  10   13.00    3.90
   7   2  10   13.30    4.60
  -8  -2 -10    6.20    3.20
   8   2  10   -2.00    5.00
   8   2  10    8.50    4.70
  -8   2 -10    2.30    3.10
   9   2  10    8.40    6.30
  -9  -3  10    0.20    3.70
  -9   3  10   11.90    5.20
  -8  -3  10    2.60    3.40
   8   3 -10   -2.00    3.80
  -8   3  10   -2.00    3.50
   7  -3 -10    8.40    2.10
  -7  -3  10    8.50    3.40
  -7   3  10    7.60    3.00
  -7   3  10    6.20    3.30
  -7   3  10    1.20    3.20
   7   3 -10    3.20    3.20
  -6  -3  10   20.00    3.70
  -6   3  10    9.50    3.00
  -6   3  10   16.00    3.10
   6   3 -10   11.20    3.20
  -5  -3  10    1.70    2.40
   5  -3 -10    2.00    2.50
  -5   3  10    2.60    2.30
  -5   3  10    0.10    1.80
  -5   3  10    0.20    2.40
   5   3 -10    0.90    2.10
   4  -3 -10   10.30    2.60
  -4  -3  10    5.80    2.50
  -4  -3  10    4.90    1.70
  -4   3  10    4.60    2.10
  -4   3  10    7.90    1.70
   4   3 -10    5.70    2.20
  -4   3  10    7.40    2.70
  -3  -3  10   28.80    3.00
  -3  -3  10   30.00    3.90
   3   3 -10   22.50    4.20
   3   3 -10   24.30    3.70
  -3   3  10   33.30    2.40
  -2  -3  10   35.90    3.10
  -2  -3  10   36.90    3.50
  -2   3  10   27.10    3.10
  -2   3  10   29.70    2.10
   2   3 -10   28.60    3.50
   2   3 -10   23.90    4.10
  -2   3  10   32.90    4.60
  -1  -3  10   39.20    3.50
  -1  -3  10   50.19    4.10
   1   3 -10   40.80    3.60
  -1   3  10   37.80    2.30
  -1   3  10   34.10    2.90
   1   3 -10   43.20    5.50
  -1   3  10   38.10    5.00
   0  -3  10   29.10    3.30
   0  -3  10   22.10    2.90
   0   3 -10   22.50    2.70
   0   3  10   18.50    3.60
   0   3 -10   20.80    3.90
   1  -3  10   19.00    2.90
   1   3  10   18.90    3.60
  -1   3 -10   18.30    2.60
  -1   3 -10   22.20    3.80
   2  -3  10   -0.60    1.60
  -2  -3 -10    2.50    1.90
   2  -3  10    1.90    1.70
  -2   3 -10   -0.40    1.40
   2   3  10   -3.30    3.10
  -2   3 -10    1.40    2.50
  -3  -3 -10    1.90    0.90
  -3  -3 -10    0.10    0.60
  -3   3 -10   -1.20    1.30
   3   3  10    0.70    3.30
  -3   3 -10    4.10    2.60
  -4  -3 -10    4.60    0.90
  -4  -3 -10    4.70    1.50
  -4   3 -10    3.50    1.80
   4   3  10    5.40    4.00
  -4   3 -10    6.80    2.80
  -5  -3 -10    6.50    2.10
  -5  -3 -10    5.80    1.30
  -5   3 -10    6.10    2.20
  -5   3 -10    4.40    3.10
   5   3  10    5.70    4.00
  -6  -3 -10    9.40    1.80
   6  -3  10   11.30    2.40
  -6   3 -10   11.40    3.40
  -6   3 -10    6.80    2.50
   6   3  10    5.20    4.60
  -7   3 -10   -2.50    2.80
   7   3  10    2.40    5.20
   8   3  10    5.70    6.50
  -7   4  10    0.50    4.10
   7   4 -10    3.80    4.10
  -6  -4  10    0.40    3.90
  -6   4  10    1.60    3.70
   6   4 -10   -0.20    3.50
  -5  -4  10    7.20    3.60
   5  -4 -10   13.20    3.70
  -5   4  10    5.90    3.00
  -5   4  10    5.50    3.90
   5   4 -10    8.10    3.20
   4  -4 -10    5.30    3.00
  -4  -4  10    5.90    3.20
  -4   4  10   -2.00    3.40
   4   4 -10    5.10    2.70
  -4   4  10   -1.70    2.10
   3  -4 -10    6.20    2.40
  -3  -4  10    5.40    3.00
  -3   4  10    1.10    0.80
  -3   4  10    0.80    1.40
  -3   4  10   -0.80    3.40
   3   4 -10    1.30    2.40
  -2  -4  10    0.70    2.70
   2  -4 -10    2.40    2.50
  -2   4  10    2.40    3.60
   2   4 -10    0.00    2.00
  -1  -4  10   14.60    3.20
  -1   4  10    9.70    4.10
   1   4 -10   20.70    3.40
   0  -4  10    5.30    2.70
   0   4  10    4.10    3.60
   0   4 -10    8.40    2.20
   1  -4  10   23.70    4.00
  -1   4 -10   13.90    2.40
   1   4  10   13.70    4.50
   2  -4  10   12.80    2.80
  -2   4 -10   11.30    2.30
  -2   4 -10    8.40    4.00
   2   4  10   10.70    4.90
   3  -4  10   -0.10    2.50
   3   4  10    3.00    4.30
  -3   4 -10    0.80    1.80
  -3   4 -10    4.60    3.90
   4  -4  10   -0.40    2.80
   4   4  10   -1.70    4.80
  -4   4 -10   -1.30    1.90
  -4   4 -10   -0.50    4.00
   5  -4  10   -5.30    3.10
  -5   4 -10   -1.40    2.20
   5   4  10   -8.80    4.70
  -5   4 -10   -1.20    4.30
  -5   5  10    9.40    5.90
  -4   5  10    3.00    5.20
   4   5 -10    1.70    3.70
  -3   5  10   -2.60    5.00
   3   5 -10    2.40    3.30
  -2  -5  10    7.00    4.30
   2   5 -10   -1.30    2.80
  -2   5  10   -7.90    4.70
  -1  -5  10    2.20    3.60
   1   5 -10    1.90    2.70
  -1   5  10   -4.10    4.60
   0  -5  10    2.70    3.60
   0   5 -10   -0.90    2.40
   1  -5  10    1.30    3.40
   1   5  10    4.00    5.40
  -1   5 -10    9.20    2.90
   2  -5  10    6.40    3.40
  -2   5 -10    2.40    2.30
   3  -5  10    1.20    3.40
  -3   5 -10    4.50    2.60
  -9   0  11    0.10    2.30
   9   0 -11    1.70    3.60
   8   0 -11   13.50    3.60
   8   0 -11   12.40    3.70
   7   0 -11   11.60    3.00
   7   0 -11   11.80    3.20
   6   0 -11  195.98   12.80
   6   0 -11  200.58   12.50
  -6   0  11  251.27   12.50
   5   0 -11    4.70    1.90
   5   0 -11   -0.60    1.90
  -5   0  11    0.70    1.70
  -4   0  11   23.50    2.60
   4   0 -11   28.20    3.50
   4   0 -11   20.60    3.00
  -3   0  11    7.10    1.80
   3   0 -11    1.10    1.60
   3   0 -11    1.60    1.20
  -3   0  11    3.60    1.10
  -2   0  11   74.59    4.50
   2   0 -11   66.79    4.90
   2   0 -11   76.69    4.90
  -1   0  11   96.99    5.80
   1   0 -11   88.49    5.90
   1   0 -11  118.89    6.40
   0   0 -11   18.20    2.40
   0   0 -11   17.30    2.00
  -1   0 -11   46.30    3.30
   1   0  11   46.20    3.50
   1   0  11   57.59    3.90
   2   0  11   -1.60    1.20
  -2   0 -11   -0.30    1.00
  -2   0 -11   -1.60    1.30
   2   0  11    0.90    1.30
   3   0  11   -0.70    1.40
  -3   0 -11   -1.10    1.00
   3   0  11   -2.90    1.40
  -3   0 -11   -1.80    1.60
   4   0  11   46.20    4.80
   4   0  11   39.80    4.20
  -4   0 -11   53.69    3.80
   5   0  11   22.10    3.80
  -5   0 -11   22.60    3.00
  -6   0 -11   15.90    3.00
   6   0  11   10.10    2.90
   7   0  11   10.40    3.50
  -7   0 -11    7.70    2.80
  -7   0 -11   16.50    3.20
  -8   0 -11    2.20    2.80
   8   0  11    3.70    4.00
  -8   0 -11   -0.20    3.20
  -9   0 -11    0.80    3.80
 -10  -1  11    6.40    3.70
  -9  -1  11    7.90    3.20
  -9   1  11    3.20    1.90
   9   1 -11    6.10    4.70
   9   1 -11    5.60    4.20
  -8  -1  11    5.90    2.60
   8  -1 -11    1.90    2.60
  -8   1  11    5.90    1.80
   8   1 -11    4.30    3.60
   8   1 -11    7.50    3.70
  -8   1  11    5.00    3.50
   7  -1 -11   26.00    4.00
  -7   1  11   26.50    4.30
   7   1 -11   22.30    3.90
  -7   1  11   29.20    3.20
   7   1 -11   28.80    4.60
  -6  -1  11   25.10    3.20
   6  -1 -11   13.70    3.10
   6  -1 -11   18.30    2.80
   6   1 -11   23.00    4.00
  -6   1  11   23.30    2.80
  -6   1  11   25.60    3.60
   5  -1 -11  135.59    8.90
  -5  -1  11  140.79    8.20
   5  -1 -11  140.89    8.20
   5   1 -11  120.59    8.80
   5   1 -11  121.49    9.10
  -5   1  11  152.68    8.20
  -5   1  11  154.18    8.40
   4  -1 -11   37.20    3.10
  -4  -1  11   31.40    2.90
   4  -1 -11   28.50    3.70
  -4   1  11   31.00    3.00
   4   1 -11   26.20    3.90
  -4   1  11   36.50    2.90
   4   1 -11   29.30    3.60
   3  -1 -11  108.29    7.20
  -3  -1  11  120.79    6.80
   3   1 -11  109.29    7.50
   3   1 -11  104.49    7.20
  -3   1  11  122.89    6.60
  -3   1  11  126.89    7.10
  -2  -1  11   95.49    5.60
   2  -1 -11   86.79    5.90
   2   1 -11   95.09    6.00
  -2   1  11   94.89    5.90
  -2   1  11   96.29    5.40
   2   1 -11   95.09    6.40
  -1  -1  11   48.30    3.40
   1  -1 -11   41.80    3.50
  -1   1  11   42.70    3.70
  -1   1  11   49.99    3.10
   1   1 -11   53.89    3.60
   1   1 -11   39.30    4.00
   0  -1 -11   59.09    3.80
   0  -1  11   63.39    4.00
   0   1 -11   49.90    4.30
   0   1 -11   63.29    4.00
   0   1  11   50.29    4.30
   1  -1  11  114.79    6.90
  -1  -1 -11  119.79    6.40
   1   1  11  111.09    6.60
  -1   1 -11  118.39    6.60
   1   1  11  107.79    7.10
  -1   1 -11  110.79    6.90
   2  -1  11   82.29    5.70
  -2  -1 -11   84.09    4.90
  -2   1 -11   90.29    5.30
  -2   1 -11   91.79    5.60
   2   1  11   75.39    5.30
   3  -1  11    0.50    1.60
   3  -1  11    0.80    1.40
  -3  -1 -11    0.70    1.80
  -3   1 -11    0.50    1.10
  -3   1 -11    1.20    1.40
   3   1  11   -0.10    1.50
   3   1  11    1.90    2.00
   4  -1  11   20.40    2.80
   4  -1  11   18.70    3.20
  -4  -1 -11   19.40    2.40
  -4   1 -11   15.60    2.70
   4   1  11   16.40    2.60
   4   1  11   16.90    3.00
  -4   1 -11   22.90    2.80
  -5  -1 -11   10.30    1.90
   5  -1  11    9.80    2.20
   5  -1  11   12.90    3.20
  -5   1 -11    8.20    2.00
   5   1  11    4.90    2.80
   5   1  11   13.90    2.80
  -5   1 -11    9.40    2.00
  -6  -1 -11   11.90    2.30
   6  -1  11    6.90    2.30
  -6  -1 -11   18.30    3.40
   6   1  11   11.70    3.20
  -6   1 -11    9.30    2.40
  -6   1 -11   10.70    2.30
   6   1  11    7.00    3.70
  -7  -1 -11    3.20    3.70
  -7  -1 -11    2.80    2.50
   7   1  11    7.60    4.20
  -7   1 -11    2.00    2.50
  -7   1 -11    7.10    2.20
   7   1  11    9.10    3.70
  -8  -1 -11    1.20    3.20
   8   1  11    1.60    4.50
  -8   1 -11    0.60    3.20
  -9  -1 -11    2.50    4.00
   9   1  11    0.30    5.30
  -9  -2  11    5.20    3.20
  -9   2  11    9.00    5.10
  -8  -2  11   -2.20    2.60
  -8   2  11    1.10    2.20
   8   2 -11   -0.60    3.50
  -7  -2  11    3.30    2.40
   7  -2 -11    0.00    1.90
  -7   2  11    0.20    2.70
  -7   2  11    0.40    2.00
   7   2 -11    4.50    2.80
  -6  -2  11   45.60    4.40
   6  -2 -11   37.40    3.60
   6   2 -11   28.90    5.10
  -6   2  11   30.60    5.20
  -6   2  11   37.60    4.30
  -6   2  11   39.20    4.00
   6   2 -11   31.60    4.90
  -5  -2  11   54.19    4.20
  -5   2  11   43.20    5.30
  -5   2  11   62.89    4.50
   5   2 -11   42.60    4.80
  -5   2  11   48.10    4.40
   5   2 -11   47.70    6.30
   4  -2 -11   28.10    3.70
  -4  -2  11   35.20    3.60
  -4  -2  11   31.30    3.00
   4   2 -11   23.70    3.60
   4   2 -11   32.00    5.20
  -4   2  11   27.20    3.40
  -4   2  11   22.60    2.80
  -3  -2  11   18.50    2.80
  -3  -2  11   14.10    2.20
   3  -2 -11   11.90    2.10
  -3   2  11   14.40    2.50
   3   2 -11   14.90    3.40
  -3   2  11   10.70    1.80
   3   2 -11   11.10    2.40
   2  -2 -11   74.99    5.00
  -2  -2  11   79.09    4.80
   2   2 -11   74.39    5.30
  -2   2  11   69.29    5.70
   2   2 -11   64.49    6.10
  -2   2  11   75.29    4.30
   1  -2 -11  129.59    7.80
  -1  -2  11  139.89    7.90
   1   2 -11  150.38    8.20
  -1   2  11  142.29    7.40
   1   2 -11  129.99    8.90
   0  -2 -11   31.10    2.70
   0  -2  11   37.50    3.20
   0   2 -11   31.90    4.00
   0   2  11   35.20    4.10
   0   2  11   35.20    2.50
   0   2 -11   34.80    3.20
   1  -2  11   33.60    3.20
  -1  -2 -11   33.30    2.60
  -1   2 -11   36.60    3.10
   1   2  11   33.50    2.70
  -1   2 -11   31.10    4.00
   1   2  11   37.70    4.20
  -2  -2 -11   44.20    2.70
   2  -2  11   33.10    3.70
   2   2  11   41.70    4.90
  -2   2 -11   32.50    4.00
   2   2  11   39.40    3.20
  -2   2 -11   38.30    3.30
   3  -2  11    5.60    2.20
  -3  -2 -11    6.40    1.10
  -3   2 -11    7.80    2.20
  -3   2 -11    6.90    1.70
   3   2  11    7.20    2.80
  -4  -2 -11    0.50    1.10
   4  -2  11    3.00    1.90
  -4   2 -11    0.30    1.50
   4   2  11    0.70    2.90
  -4   2 -11    3.00    2.10
   4   2  11    3.40    1.90
   5  -2  11    2.20    1.90
  -5  -2 -11    3.90    1.50
   5   2  11    6.90    2.50
  -5   2 -11    5.30    2.40
  -5   2 -11    6.20    2.00
   5   2  11    9.30    3.70
  -6  -2 -11    9.80    2.20
   6  -2  11    8.80    2.30
  -6   2 -11    7.40    2.30
   6   2  11   11.50    3.20
  -6   2 -11    9.20    2.70
   6   2  11   10.10    4.20
   7  -2  11    2.90    2.60
  -7  -2 -11    2.80    2.50
   7   2  11    6.10    4.00
  -7   2 -11    1.60    2.60
   7   2  11    2.40    4.60
  -7   2 -11    2.80    2.70
  -8  -2 -11    0.50    3.10
   8   2  11    4.90    5.60
  -8  -3  11    0.50    3.40
  -8   3  11   -5.60    4.00
  -7  -3  11    1.50    3.20
   7   3 -11    3.00    3.50
  -7   3  11    4.80    3.30
  -7   3  11   10.00    3.90
  -7   3  11    0.50    3.10
  -6  -3  11   -3.80    2.40
   6  -3 -11    2.70    2.50
  -6   3  11    3.40    2.60
   6   3 -11   -1.30    2.80
  -6   3  11    3.30    3.00
   5  -3 -11   -1.10    2.60
  -5  -3  11   -2.10    2.00
  -5   3  11    1.00    2.50
  -5   3  11    3.10    2.70
   5   3 -11    1.60    2.60
  -5   3  11    3.00    1.90
  -4  -3  11    2.70    2.10
   4   3 -11    5.30    2.50
  -4   3  11    3.10    1.50
  -4   3  11    7.20    2.80
  -4   3  11    0.70    2.30
  -3  -3  11   31.40    3.90
  -3   3  11   29.20    3.90
  -3   3  11   28.00    2.40
   3   3 -11   20.50    3.50
  -3   3  11   32.60    4.70
  -2  -3  11   46.20    3.90
  -2  -3  11   53.79    4.60
  -2   3  11   49.80    4.20
   2   3 -11   52.29    6.30
  -2   3  11   41.70    2.80
  -2   3  11   46.50    5.40
   2   3 -11   42.80    4.30
  -1  -3  11   35.20    3.70
  -1  -3  11   25.00    3.10
  -1   3  11   26.70    1.90
   1   3 -11   31.40    5.40
  -1   3  11   28.50    5.00
   1   3 -11   24.00    3.20
  -1   3  11   29.70    2.80
   0  -3  11   27.10    3.40
   0   3  11   20.90    3.90
   0   3 -11   31.10    3.30
   0   3  11   26.30    1.90
   0   3 -11   29.60    5.20
   1  -3  11    3.50    2.10
   1  -3  11    4.80    2.00
  -1   3 -11    2.30    1.40
   1   3  11   -0.90    2.90
  -1   3 -11    7.80    3.30
  -2   3 -11   10.50    3.40
   2   3  11   14.40    3.60
  -2   3 -11    9.50    2.00
  -3  -3 -11   14.70    1.60
   3   3  11   21.30    4.70
  -3   3 -11   23.70    3.10
  -3   3 -11   18.10    3.80
  -4  -3 -11    0.70    0.80
   4  -3  11   -0.20    2.40
   4   3  11   -0.10    4.00
  -4   3 -11    6.80    3.30
  -4   3 -11    0.30    1.60
   5  -3  11    3.50    2.50
  -5  -3 -11    1.00    1.10
   5   3  11   -2.80    4.30
  -5   3 -11    6.30    3.40
  -5   3 -11   -0.60    2.10
   6  -3  11   12.60    2.80
   6   3  11    6.50    5.50
  -6   3 -11    9.10    2.90
  -6   3 -11   11.30    4.00
   7   3  11   -5.60    5.60
   6   4 -11   -0.50    3.80
  -6   4  11    0.80    4.00
  -5  -4  11    5.90    3.90
   5  -4 -11    2.40    3.70
   5   4 -11    3.10    3.40
  -5   4  11    2.10    4.20
  -4  -4  11    1.70    3.30
  -4   4  11   -0.70    2.60
  -4   4  11    2.40    3.70
   4   4 -11    2.40    2.80
  -3  -4  11    4.20    2.90
  -3   4  11    3.20    3.70
   3   4 -11    1.30    2.60
  -2  -4  11    3.00    2.60
   2   4 -11    1.30    2.20
  -2   4  11    3.50    3.70
  -1  -4  11   48.00    5.20
   1   4 -11   51.39    4.80
  -1   4  11   44.50    7.40
   0  -4  11    2.60    2.40
   0   4  11    0.00    4.10
   0   4 -11    2.70    2.10
   1  -4  11   12.10    3.00
  -1   4 -11   10.90    2.40
   1   4  11    3.70    4.40
   2  -4  11   -1.70    2.50
  -2   4 -11   -0.20    1.80
   2   4  11   -2.70    4.20
   3  -4  11   -1.40    2.60
   3   4  11    0.80    4.90
  -3   4 -11    3.80    2.20
   4  -4  11    3.10    3.40
  -4   4 -11    2.70    2.30
   4   4  11    3.90    5.40
   5  -4  11    0.30    3.70
  -4   5  11    1.00    5.90
   3   5 -11   -0.80    3.50
  -3   5  11   -2.00    5.30
  -2   5  11   -0.40    5.50
   2   5 -11    2.70    3.20
  -1  -5  11    6.00    3.70
   1   5 -11   -0.30    2.60
  -1   5  11   -9.50    5.30
   0  -5  11   -2.40    3.40
   0   5 -11   -0.30    2.40
   0   5  11   -0.50    5.30
   1  -5  11   13.70    4.00
  -1   5 -11    9.60    3.10
   2  -5  11    3.60    3.70
  -9   0  12    3.00    2.60
  -9   0  12   -1.10    4.90
   8   0 -12   17.60    4.40
   8   0 -12   21.80    4.50
   7   0 -12    1.40    2.90
   7   0 -12    6.00    3.10
  -6   0  12   10.10    2.50
   6   0 -12   12.60    3.10
   6   0 -12   11.40    2.80
   5   0 -12    4.90    2.20
  -5   0  12    6.90    1.80
   5   0 -12    6.80    2.20
  -4   0  12   37.90    3.20
   4   0 -12   26.40    3.50
   4   0 -12   33.60    3.90
  -3   0  12    0.70    1.10
   3   0 -12   -1.10    1.30
   3   0 -12   -0.30    1.50
   2   0 -12    1.50    1.50
  -2   0  12    1.60    1.10
   2   0 -12   -0.80    1.10
   1   0 -12   43.80    3.80
  -1   0  12   47.60    3.40
   1   0 -12   55.89    4.00
  -1   0 -12   19.10    2.60
   1   0  12   13.20    2.30
  -1   0 -12   13.70    2.00
   2   0  12   19.10    3.00
   2   0  12   22.70    2.80
  -2   0 -12   21.30    2.40
  -3   0 -12   -0.20    1.20
  -3   0 -12   -0.70    1.70
   3   0  12    2.00    1.70
   3   0  12   -2.30    1.70
   4   0  12   41.20    4.80
   4   0  12   35.50    4.30
  -4   0 -12   46.50    3.70
   5   0  12   -3.50    2.20
  -5   0 -12   -1.20    2.10
   5   0  12    0.10    2.40
  -5   0 -12    1.10    1.70
   6   0  12    1.40    2.80
  -6   0 -12    1.00    2.30
  -6   0 -12    0.70    2.00
  -7   0 -12   11.50    3.20
  -7   0 -12    6.50    2.70
   7   0  12    9.60    3.80
  -8   0 -12    0.60    3.10
  -8   0 -12    7.20    3.60
   8   0  12   -4.40    4.20
  -9   1  12    6.90    5.20
  -9   1  12    3.30    2.30
   8  -1 -12    7.00    3.30
  -8  -1  12   18.40    3.50
  -8   1  12   13.70    2.50
  -8   1  12    8.60    4.20
   8   1 -12   12.10    3.70
   7  -1 -12   15.90    3.20
   7   1 -12   13.80    4.10
   7   1 -12   13.30    3.40
  -7   1  12   19.50    2.90
   6  -1 -12    6.40    2.30
   6  -1 -12    5.00    2.80
   6   1 -12    6.70    3.30
  -6   1  12   11.30    2.60
   6   1 -12    6.20    2.70
  -5  -1  12    8.10    1.90
   5  -1 -12    6.00    1.70
   5  -1 -12    8.30    2.50
  -5   1  12    3.70    1.90
   5   1 -12    7.00    2.60
   5   1 -12    6.60    3.00
  -4  -1  12   13.50    2.20
   4  -1 -12    8.30    2.30
   4  -1 -12   10.60    2.10
  -4   1  12    9.00    1.80
   4   1 -12    5.30    2.10
   4   1 -12    8.40    2.60
   3  -1 -12   45.20    4.20
  -3  -1  12   47.60    3.40
  -3   1  12   49.60    3.30
   3   1 -12   46.10    4.60
   3   1 -12   43.20    4.30
   2  -1 -12   13.60    2.20
  -2  -1  12   18.90    2.20
   2   1 -12   13.40    2.60
   2   1 -12   15.50    2.60
  -2   1  12   16.80    2.00
   1  -1 -12    8.70    1.80
   1  -1 -12   17.00    3.00
  -1  -1  12    9.20    1.70
  -1   1  12   10.10    2.20
  -1   1  12   10.80    1.70
   1   1 -12    6.90    2.10
   0  -1  12   76.09    4.80
   0  -1 -12   67.49    4.50
   0   1 -12   60.99    5.10
   0   1  12   65.09    5.10
   0   1 -12   77.19    4.80
   0   1  12   71.99    4.40
   1  -1  12   13.60    2.50
  -1  -1 -12   13.70    2.00
   1   1  12   11.70    2.40
  -1   1 -12    8.60    1.80
   1   1  12   14.30    2.10
   2  -1  12   45.80    4.30
   2   1  12   42.40    4.40
  -2   1 -12   54.19    4.00
   2   1  12   42.00    3.80
  -2   1 -12   52.69    3.70
   3  -1  12    6.00    1.90
  -3  -1 -12    9.30    2.50
   3  -1  12    5.00    2.20
  -3  -1 -12    5.00    1.30
   3   1  12    3.80    2.30
  -3   1 -12    3.30    1.50
   3   1  12    4.70    1.90
  -3   1 -12    4.50    1.70
   4  -1  12   16.10    3.30
   4  -1  12   21.30    3.20
  -4  -1 -12   16.70    2.50
   4   1  12   19.30    3.50
  -4   1 -12   18.20    3.10
  -4   1 -12   18.70    2.90
   4   1  12   19.00    2.90
   5  -1  12   11.20    2.40
  -5  -1 -12   17.10    3.30
  -5   1 -12    9.60    2.20
   5   1  12    8.60    3.30
   5   1  12    1.90    3.00
  -5   1 -12   10.30    2.30
  -6  -1 -12   10.70    2.40
   6  -1  12    5.80    2.70
  -6   1 -12    6.40    2.20
  -6   1 -12    8.30    2.40
   6   1  12   13.20    3.40
   6   1  12    7.50    3.80
   7  -1  12    1.70    3.10
  -7  -1 -12    1.80    2.50
  -7   1 -12    5.70    2.40
  -7   1 -12   -1.10    2.30
   7   1  12    7.30    4.30
  -8  -1 -12   -0.60    3.20
   8  -1  12   -0.20    4.20
  -8   1 -12    4.20    3.10
   8   1  12    6.10    5.20
  -9  -2  12    1.90    3.70
  -8  -2  12    1.50    3.20
   8   2 -12   -0.10    3.40
  -8   2  12   -2.10    4.20
   7  -2 -12    2.50    2.40
  -7  -2  12    3.00    2.60
  -7   2  12    1.40    2.50
   7   2 -12    3.40    2.90
  -6  -2  12   14.40    3.10
   6  -2 -12    7.90    2.20
  -6   2  12   12.50    2.60
  -6   2  12   12.20    3.30
  -6   2  12   14.10    3.00
   6   2 -12    8.50    3.00
   5  -2 -12   25.90    3.50
  -5  -2  12   26.00    3.80
  -5   2  12   17.70    2.90
  -5   2  12   22.20    3.30
   5   2 -12   17.00    3.30
  -4  -2  12    3.70    2.10
   4  -2 -12    6.10    2.20
   4  -2 -12    0.50    2.00
  -4   2  12    3.50    1.70
  -4   2  12    4.60    2.10
   4   2 -12    3.40    2.20
   4   2 -12    6.40    3.50
  -3  -2  12   14.40    2.50
  -3  -2  12    9.40    1.90
  -3   2  12   12.00    1.80
   3   2 -12   11.00    3.10
   3   2 -12    9.10    2.40
  -3   2  12    9.80    2.40
   2  -2 -12   42.00    3.90
  -2  -2  12   55.79    3.80
   2   2 -12   45.20    4.20
  -2   2  12   50.09    3.20
  -2   2  12   40.00    4.50
   2   2 -12   46.80    5.40
   1  -2 -12   45.90    3.60
  -1  -2  12   44.00    3.50
  -1   2  12   41.50    4.50
   1   2 -12   44.30    5.00
   1   2 -12   46.90    3.90
  -1   2  12   45.40    3.00
   0  -2  12    2.80    2.10
   0  -2 -12    2.30    1.30
   0  -2  12    2.30    1.40
   0  -2 -12    6.20    2.10
   0   2  12    4.10    2.30
   0   2  12    2.60    1.00
   0   2 -12    4.20    1.60
   0   2 -12    1.70    2.20
   1  -2  12   45.30    4.00
  -1  -2 -12   45.40    3.20
   1   2  12   36.90    3.20
  -1   2 -12   43.80    3.50
   1   2  12   40.90    4.80
  -1   2 -12   36.80    4.50
  -2  -2 -12    2.20    1.10
   2  -2  12    5.60    2.30
   2  -2  12   -1.00    1.90
  -2   2 -12    0.00    1.40
   2   2  12    6.50    2.80
  -2   2 -12    3.80    2.20
   2   2  12    4.70    1.50
  -3  -2 -12   20.70    2.10
   3   2  12   21.10    3.90
  -3   2 -12   18.00    3.10
  -3   2 -12   19.50    2.80
  -4  -2 -12   15.30    2.10
   4   2  12    9.20    2.50
   4   2  12   12.90    3.60
  -4   2 -12    8.30    2.00
  -4   2 -12   14.40    3.10
  -5  -2 -12   -0.90    1.40
   5  -2  12    2.10    2.00
  -5   2 -12   -0.40    2.00
   5   2  12   -3.30    2.70
   5   2  12   -2.40    3.60
  -5   2 -12    1.80    2.50
   6  -2  12    2.40    2.30
  -6  -2 -12    4.40    2.10
  -6   2 -12    7.70    2.50
   6   2  12    1.60    4.20
  -6   2 -12    4.70    2.90
  -7  -2 -12    3.00    2.50
   7  -2  12   -1.00    3.00
  -7   2 -12    1.10    2.80
   7   2  12    5.30    5.40
  -8  -3  12    5.30    3.60
  -8   3  12   -4.50    4.50
  -7  -3  12    6.30    3.50
   7   3 -12   -5.30    3.60
  -7   3  12   -0.30    3.30
  -7   3  12    3.90    4.10
   6  -3 -12   16.20    3.10
  -6  -3  12   16.70    3.40
   6   3 -12    5.50    3.60
  -6   3  12   12.90    3.00
  -6   3  12    6.20    3.40
  -6   3  12   14.00    3.60
   5  -3 -12   19.70    3.50
  -5  -3  12   13.60    3.00
  -5   3  12    9.50    2.30
  -5   3  12   11.80    3.30
  -5   3  12    5.00    3.10
   5   3 -12    8.60    3.30
  -4  -3  12   12.20    2.80
   4  -3 -12   16.10    3.40
   4   3 -12    7.10    2.50
  -4   3  12    8.00    2.70
  -4   3  12    6.50    1.80
  -4   3  12    8.50    3.10
   3  -3 -12   15.90    3.10
  -3  -3  12   15.90    3.00
   3   3 -12    9.50    2.70
  -3   3  12    8.30    2.90
  -2  -3  12    3.70    2.20
   2  -3 -12    8.40    2.60
  -2   3  12    4.30    0.90
   2   3 -12    2.00    2.00
  -2   3  12    2.30    1.70
  -2   3  12    6.50    3.10
  -1  -3  12   16.00    2.80
  -1   3  12    9.10    1.80
  -1   3  12   13.50    3.70
   1   3 -12   12.40    2.40
  -1   3  12   13.30    1.60
   0  -3  12   20.90    3.70
   0   3  12   13.60    1.80
   0   3 -12   21.30    3.20
   0   3  12   20.40    4.10
  -1   3 -12    1.60    3.40
   1   3  12   -6.50    3.10
  -1   3 -12   -0.70    1.50
   1   3  12   -0.30    1.00
  -2  -3 -12    1.80    0.90
   2  -3  12    3.60    2.50
  -2   3 -12    3.70    3.30
  -2   3 -12    4.10    1.80
   2   3  12   -1.10    3.40
   2   3  12    3.00    1.30
  -3  -3 -12   10.60    1.60
   3   3  12   13.20    4.50
  -3   3 -12    7.40    2.10
   3   3  12    9.40    1.90
  -3   3 -12   11.00    3.60
  -4  -3 -12    2.80    1.10
   4  -3  12    5.80    2.80
   4   3  12    0.70    4.40
  -4   3 -12   -0.80    1.70
  -4   3 -12    3.40    3.60
   5   3  12    5.40    4.70
  -5   3 -12   13.70    4.30
  -5   3 -12    6.70    2.30
   6  -3  12    2.00    2.70
   6   3  12    2.40    5.50
  -6   4  12    8.00    5.00
  -5   4  12    2.70    4.30
   5   4 -12    1.70    3.60
  -4  -4  12   -1.90    2.90
  -4   4  12    3.00    4.10
   4   4 -12    2.30    3.10
  -3  -4  12    5.60    2.90
  -3   4  12   12.50    4.60
   3   4 -12   10.60    3.30
  -2  -4  12    4.90    2.80
   2   4 -12   -0.60    2.40
  -2   4  12    1.20    4.10
  -1  -4  12   19.90    3.50
   1   4 -12   13.10    2.90
  -1   4  12   15.60    4.90
   0  -4  12   -1.00    2.60
   0   4 -12   -0.50    2.20
   0   4  12    1.90    4.30
   1  -4  12    5.20    2.90
  -1   4 -12    7.20    2.40
   1   4  12    8.60    4.80
   2  -4  12   -0.40    3.00
  -2   4 -12    0.00    2.10
   2   4  12   -2.00    4.70
   3  -4  12   -0.70    3.40
  -3   4 -12    3.70    2.40
   3   4  12    3.00    5.00
   5  -4  12   15.40    4.30
  -2   5  12    5.80    6.00
   1  -5  12    2.00    4.00
  -9   0  13    0.30    2.80
   8   0 -13    4.20    4.10
  -8   0  13    5.40    2.70
   8   0 -13   -2.00    3.50
   7   0 -13   -0.80    3.10
   7   0 -13    0.80    3.10
  -7   0  13   -0.70    2.20
   6   0 -13   -2.50    2.50
   6   0 -13   -0.80    2.70
  -6   0  13    3.70    2.20
  -5   0  13    2.40    2.00
   5   0 -13    6.10    2.30
   5   0 -13    4.40    2.50
  -5   0  13   10.10    2.40
   4   0 -13   37.00    4.30
   4   0 -13   33.00    4.20
   3   0 -13   16.20    2.60
  -3   0  13   15.00    2.30
   3   0 -13   17.40    2.80
  -2   0  13    1.30    1.10
   2   0 -13   -1.10    1.60
   2   0 -13   -2.50    1.30
  -2   0  13    3.50    1.70
  -1   0  13   62.59    4.30
   1   0 -13   74.99    5.10
   1   0 -13   61.59    4.80
   0   0 -13   25.60    2.70
   0   0  13   23.10    2.70
   0   0 -13   30.00    3.10
   1   0  13   48.30    4.00
  -1   0 -13   38.80    3.40
   1   0  13   32.40    3.40
  -2   0 -13   16.60    2.60
   2   0  13   13.50    2.40
  -2   0 -13   12.00    2.20
   2   0  13   12.70    2.30
   3   0  13    7.80    2.50
  -3   0 -13   11.50    1.90
   3   0  13   17.70    3.20
   4   0  13   22.10    4.00
   4   0  13   22.80    3.70
  -4   0 -13   25.10    3.20
   5   0  13    2.90    2.80
  -5   0 -13    8.80    2.70
  -5   0 -13    6.90    2.20
   5   0  13    3.40    2.90
   6   0  13   -1.10    3.10
  -6   0 -13    1.40    2.40
   7   0  13   -4.20    3.80
  -7   0 -13    1.60    2.80
   8   0  13   -4.50    5.10
  -8   0 -13    7.00    3.60
  -9  -1  13   -5.40    3.70
  -9   1  13   -0.50    2.40
  -9   1  13   -1.30    5.30
   8  -1 -13    1.00    3.40
  -8  -1  13    4.30    3.30
  -8   1  13    4.10    2.20
   8   1 -13    3.30    3.60
  -8   1  13   -7.60    3.80
   7  -1 -13    5.10    3.50
  -7  -1  13   -1.00    2.60
   7  -1 -13    2.90    2.80
   7   1 -13    0.10    3.10
  -7   1  13    2.00    1.80
   6  -1 -13    0.20    2.30
  -6  -1  13    2.50    2.60
   6  -1 -13    2.10    2.70
   6   1 -13    2.60    2.90
  -6   1  13    3.50    1.90
  -5  -1  13   -0.30    2.20
   5  -1 -13    0.40    2.20
   5  -1 -13    1.00    1.70
  -5   1  13    4.10    1.80
  -5   1  13    1.90    1.90
   5   1 -13   -1.30    2.80
   5   1 -13    2.80    2.40
   4  -1 -13   29.00    3.40
  -4  -1  13   32.60    3.20
   4   1 -13   25.00    3.80
  -4   1  13   34.40    3.40
  -4   1  13   32.40    3.10
   4   1 -13   26.10    4.50
  -3  -1  13   23.80    3.60
   3  -1 -13   10.50    2.50
   3  -1 -13   16.20    3.00
  -3  -1  13   18.80    2.50
  -3   1  13   13.60    2.10
   3   1 -13   13.40    2.70
  -3   1  13   15.60    2.40
   3   1 -13   12.40    3.00
   2  -1 -13    8.10    2.10
   2  -1 -13   10.80    2.20
  -2  -1  13    7.00    1.50
  -2   1  13    7.10    2.10
  -2   1  13    6.30    1.30
   2   1 -13    5.00    2.30
   2   1 -13    7.20    2.10
   1  -1 -13   67.89    4.80
  -1  -1  13   71.19    4.70
  -1   1  13   64.29    5.10
   1   1 -13   69.99    5.00
  -1   1  13   71.09    4.40
   1   1 -13   59.19    5.40
   0  -1 -13   14.20    2.50
   0  -1  13   17.00    2.50
   0   1  13   15.10    2.70
   0   1 -13   14.60    2.70
   0   1  13   18.00    2.30
   0   1 -13   21.30    2.70
   1  -1  13    5.80    1.80
   1  -1  13    2.80    1.70
  -1  -1 -13   -2.00    2.10
  -1  -1 -13    0.80    1.20
  -1   1 -13    0.60    1.70
   1   1  13    3.00    1.70
  -1   1 -13    2.20    1.30
   1   1  13    3.00    1.40
   2  -1  13    5.10    2.40
  -2  -1 -13   11.70    2.00
  -2  -1 -13   13.80    2.40
   2   1  13    8.50    2.50
  -2   1 -13   10.90    1.90
   2   1  13    7.90    1.90
  -2   1 -13    9.00    2.00
   3  -1  13   16.60    2.60
  -3  -1 -13   18.40    3.10
  -3  -1 -13   13.70    2.20
   3  -1  13    9.90    2.70
  -3   1 -13   10.70    2.00
   3   1  13    9.70    2.50
  -3   1 -13   12.60    2.30
   3   1  13   10.40    2.90
  -4  -1 -13    4.70    1.60
   4  -1  13    7.40    2.10
   4   1  13    2.90    3.10
   4   1  13    5.90    2.50
  -4   1 -13    5.60    2.10
  -4   1 -13    7.30    2.00
   5  -1  13    4.00    2.30
  -5  -1 -13    0.40    1.70
   5   1  13    5.70    3.40
  -5   1 -13    3.60    2.20
  -5   1 -13    2.20    2.20
  -6  -1 -13    1.80    2.10
   6  -1  13    0.50    2.70
  -6   1 -13    5.00    2.50
   6   1  13   -1.20    3.50
   6   1  13    3.80    4.10
  -6   1 -13    1.80    2.30
  -7  -1 -13    7.50    2.90
   7  -1  13    3.90    3.50
   7   1  13    0.20    4.80
  -7   1 -13    4.40    3.00
  -7   1 -13    2.70    2.80
  -8  -2  13   -2.70    3.50
  -8   2  13   -1.00    2.80
  -8   2  13    9.70    5.60
   7  -2 -13   -0.70    2.60
  -7  -2  13   -0.10    3.10
  -7   2  13    2.90    2.60
  -7   2  13   -3.60    3.60
   7   2 -13   -2.10    3.30
  -6  -2  13    1.70    2.90
   6  -2 -13   -0.10    2.20
  -6   2  13    4.40    2.40
  -6   2  13    5.80    2.50
   6   2 -13    2.70    2.70
  -6   2  13   -5.10    2.80
   5  -2 -13    7.70    2.70
   5  -2 -13    7.00    2.30
  -5  -2  13    9.20    3.00
  -5   2  13    9.90    2.20
  -5   2  13    6.20    2.50
   5   2 -13    7.00    2.70
   4  -2 -13   11.80    2.70
  -4  -2  13   18.40    3.10
  -4   2  13    7.80    2.50
  -4   2  13   15.20    2.60
   4   2 -13   10.90    2.80
   3  -2 -13   -1.10    2.40
   3  -2 -13   -1.30    1.70
  -3   2  13    0.00    2.00
  -3   2  13   -0.40    1.20
   3   2 -13    0.70    2.10
  -2  -2  13    8.10    2.10
  -2  -2  13    8.10    1.90
   2  -2 -13    4.90    1.90
  -2   2  13    5.80    2.40
  -2   2  13    6.00    1.30
   2   2 -13    6.10    2.10
   1  -2 -13   10.40    2.00
  -1  -2  13    8.00    1.80
   1  -2 -13   13.10    2.50
   1   2 -13    7.30    2.70
  -1   2  13    8.00    2.70
  -1   2  13    9.40    1.40
   0  -2 -13    7.00    1.70
   0  -2  13    9.50    1.90
   0  -2 -13   11.70    2.70
   0  -2  13   14.00    2.80
   0   2 -13    9.20    2.00
   0   2 -13    2.80    2.40
   0   2  13    9.30    2.90
  -1  -2 -13    7.10    1.50
   1  -2  13   11.30    2.60
   1   2  13    3.90    2.80
  -1   2 -13    5.60    2.60
  -1   2 -13    4.20    1.60
  -2  -2 -13   12.70    2.10
   2   2  13   11.70    2.10
  -2   2 -13    9.00    2.70
  -2   2 -13   10.70    1.90
   2   2  13   11.30    3.10
  -3  -2 -13    6.80    1.50
  -3   2 -13    6.10    1.80
  -3   2 -13    7.70    3.00
   3   2  13    5.50    3.30
   4  -2  13    4.20    2.30
  -4  -2 -13    2.10    1.40
   4   2  13    1.60    2.50
   4   2  13    5.20    3.90
  -4   2 -13    0.90    2.70
  -4   2 -13    3.00    2.10
  -5  -2 -13   -0.50    1.60
   5  -2  13    4.50    2.40
   5   2  13   -3.90    3.00
  -5   2 -13    5.50    3.20
  -5   2 -13    0.10    1.90
   5   2  13   -0.70    4.20
   6  -2  13    4.20    2.70
  -6  -2 -13    6.00    2.30
   6   2  13    2.50    5.10
  -6   2 -13    6.40    3.30
  -6   2 -13    6.40    2.60
   7  -2  13    0.70    3.30
  -7  -2 -13    4.70    2.70
   7   2  13   -0.50    5.40
  -7  -3  13   -0.60    3.60
  -7   3  13   -2.30    4.10
  -7   3  13    6.90    4.00
   6  -3 -13    5.80    3.00
  -6  -3  13    3.20    3.30
  -6   3  13    2.30    3.40
   6   3 -13    5.10    4.00
  -5  -3  13   19.70    3.90
   5   3 -13   11.50    3.40
  -5   3  13   12.20    3.60
  -5   3  13   33.40    5.70
  -5   3  13   21.70    3.60
  -4  -3  13   -0.80    2.20
  -4   3  13   -1.50    2.70
  -4   3  13    1.40    1.50
   4   3 -13    0.40    2.30
  -4   3  13    5.50    3.00
  -3  -3  13    4.50    2.50
  -3   3  13   -0.70    2.70
  -3   3  13    0.30    2.10
  -3   3  13    2.30    1.20
   3   3 -13    0.60    2.60
  -2  -3  13   33.00    4.40
  -2   3  13   20.10    2.90
   2   3 -13   28.60    4.20
  -2   3  13   24.00    4.50
  -2   3  13   24.50    2.20
  -1  -3  13   17.80    3.30
  -1   3  13   11.50    1.80
  -1   3  13   16.30    4.10
   0  -3 -13    1.90    1.20
   0  -3  13   -2.10    2.30
   0   3  13    4.50    3.50
   0   3  13    0.50    1.10
   0   3 -13    5.90    2.10
  -1  -3 -13    1.00    1.10
   1  -3  13   -1.30    2.50
   1   3  13    3.70    3.90
  -1   3 -13    1.80    1.90
  -2  -3 -13    1.30    1.10
   2  -3  13    0.20    2.90
   2   3  13    0.70    4.00
  -2   3 -13    1.60    2.00
  -3  -3 -13    3.00    1.20
   3  -3  13    0.10    3.00
   3   3  13    5.00    4.10
  -3   3 -13    1.50    2.10
   4  -3  13    7.20    3.10
   4   3  13    2.50    4.70
  -4   3 -13    4.70    2.30
   5  -3  13   16.70    3.40
   5   3  13    9.20    5.90
   6  -3  13    3.40    3.10
  -5   4  13   -2.10    4.50
   4   4 -13   12.20    3.90
  -4   4  13    8.70    4.70
  -3  -4  13   15.20    3.70
   3   4 -13    8.40    3.70
  -3   4  13   10.30    4.80
  -2  -4  13    2.40    3.10
  -2   4  13    7.40    4.30
   2   4 -13   -2.00    2.70
  -1  -4  13   10.30    3.50
  -1   4  13    8.40    4.60
   1   4 -13    2.70    2.90
   0  -4  13    5.90    3.50
   0   4  13    4.50    4.60
   0   4 -13    1.30    2.40
   1  -4  13   -2.70    3.20
   1   4  13   -0.50    5.30
  -1   4 -13    1.70    2.40
   2  -4  13    1.20    3.30
   2   4  13    8.70    5.60
  -2   4 -13    0.90    2.50
   3  -4  13    0.90    3.90
   4  -4  13    3.20    4.30
  -9   0  14    6.80    3.30
  -8   0  14   10.00    3.10
   8   0 -14   -5.10    4.00
   7   0 -14    1.60    3.50
  -7   0  14    5.50    2.70
  -6   0  14   45.00    4.80
   5   0 -14   15.70    3.40
   5   0 -14   16.60    3.30
   4   0 -14   14.50    2.90
   4   0 -14   16.70    3.10
   3   0 -14   13.20    2.90
  -3   0  14   18.80    2.60
   3   0 -14   13.30    2.90
   2   0 -14   10.80    2.30
   2   0 -14   10.30    2.20
  -2   0  14   13.20    2.40
  -1   0  14    5.70    1.60
   1   0 -14    6.00    1.90
   1   0 -14    4.60    1.70
   0   0 -14    5.80    2.00
   0   0  14    5.50    1.70
  -1   0 -14   46.30    4.20
   1   0  14   34.40    3.80
   1   0  14   53.79    4.30
  -1   0 -14   43.20    3.70
  -2   0 -14    1.80    1.40
  -2   0 -14    2.70    2.10
   2   0  14    5.20    2.10
   2   0  14    0.80    1.90
   3   0  14    2.10    2.00
  -3   0 -14   -0.70    1.50
   3   0  14   -3.00    2.30
   4   0  14    8.40    3.20
  -4   0 -14   11.30    2.20
   4   0  14    3.80    2.70
   5   0  14    0.80    3.10
  -5   0 -14    2.40    2.10
   6   0  14   -3.30    3.50
  -6   0 -14   -1.30    2.50
  -7   0 -14    2.00    3.00
   7   0  14   -4.50    4.30
  -8  -1  14   -4.20    3.50
  -8   1  14    1.50    4.90
  -8   1  14    1.70    2.30
   7  -1 -14   11.10    4.00
  -7  -1  14    7.00    3.30
   7   1 -14    2.30    3.80
  -7   1  14    7.30    2.50
  -6  -1  14   21.20    3.60
   6  -1 -14   11.20    3.20
   6  -1 -14   12.10    3.50
  -6   1  14   19.30    3.00
   6   1 -14   15.70    4.10
   5  -1 -14    2.10    2.50
  -5  -1  14   -3.10    2.50
   5  -1 -14   -0.80    2.10
  -5   1  14    3.30    1.90
  -5   1  14    1.40    2.00
   5   1 -14    1.80    2.60
   4  -1 -14    6.10    2.70
  -4  -1  14   16.50    2.90
   4  -1 -14    9.00    2.40
  -4   1  14   12.50    2.50
   4   1 -14    5.90    2.90
  -4   1  14   10.30    1.90
  -3  -1  14    1.30    1.60
   3  -1 -14    2.60    1.90
  -3  -1  14    3.30    2.30
  -3   1  14    5.80    1.90
  -3   1  14    3.50    1.50
   3   1 -14    1.50    2.20
   2  -1 -14   26.80    3.70
  -2  -1  14   21.90    2.60
   2  -1 -14   18.10    2.90
   2   1 -14   23.60    3.40
  -2   1  14   19.30    2.90
  -2   1  14   20.70    2.60
   2   1 -14   13.00    3.10
  -1  -1  14    5.00    1.70
   1  -1 -14   11.60    2.40
   1  -1 -14    9.00    2.00
  -1   1  14    5.70    1.50
   1   1 -14    3.20    2.30
  -1   1  14    7.60    2.10
   1   1 -14    5.90    2.10
   0  -1  14    1.10    1.50
   0  -1  14    3.00    1.60
   0  -1 -14    0.20    1.40
   0   1 -14    0.00    1.60
   0   1  14    0.70    1.70
   0   1  14    0.40    1.30
   0   1 -14    1.60    2.20
   1  -1  14    4.70    2.10
  -1  -1 -14    7.70    1.70
  -1   1 -14    8.20    1.90
   1   1  14    6.90    1.90
  -1   1 -14    6.50    2.40
   1   1  14    8.00    2.40
  -2  -1 -14    5.20    1.60
   2  -1  14    2.50    2.30
  -2   1 -14    5.80    1.70
  -2   1 -14    3.80    2.20
   2   1  14    2.40    2.30
   2   1  14    3.70    1.90
  -3  -1 -14   10.20    1.90
  -3   1 -14   11.30    2.30
  -3   1 -14   11.10    2.60
   3   1  14    8.30    3.10
   3   1  14    8.90    2.70
   4  -1  14    1.00    2.30
  -4  -1 -14    0.10    1.60
   4   1  14    3.00    2.60
   4   1  14   -0.80    3.10
  -4   1 -14    0.50    2.00
   5  -1  14    4.50    2.60
  -5   1 -14   -0.70    2.10
   5   1  14    6.70    3.90
   6  -1  14    0.80    3.10
  -6  -1 -14   -2.00    2.40
  -6   1 -14   -0.10    2.60
   6   1  14    8.60    4.60
  -7  -1 -14    4.90    3.00
   7  -1  14    5.40    4.00
   7   1  14   -8.00    5.40
  -8  -2  14    2.90    3.90
  -8   2  14   -0.50    3.30
  -7  -2  14   11.10    3.50
  -7   2  14    5.20    4.10
  -7   2  14    9.00    3.30
  -6  -2  14    2.50    3.00
   6   2 -14    3.40    3.30
  -6   2  14    2.80    2.60
  -6   2  14    3.30    3.80
   5  -2 -14   18.60    3.40
  -5   2  14   13.60    3.30
   5   2 -14   15.70    3.80
  -5   2  14   12.70    2.70
   4  -2 -14    3.40    2.50
  -4  -2  14    0.80    2.50
  -4   2  14    4.50    1.70
   4   2 -14    4.90    2.80
  -4   2  14    2.20    2.50
  -3  -2  14   -2.00    2.40
   3  -2 -14    1.40    2.20
   3   2 -14    3.70    2.20
  -3   2  14    1.70    2.40
  -3   2  14    3.80    1.50
  -2  -2  14   10.20    2.60
   2  -2 -14    5.40    2.10
  -2   2  14   11.50    2.10
   2   2 -14    8.20    2.50
  -2   2  14    7.10    2.80
  -1   2  14   -0.70    2.40
  -1   2  14    2.10    1.20
   1   2 -14    1.20    1.80
   0  -2 -14    1.30    1.50
   0   2  14    2.70    2.60
   0   2  14    1.10    1.30
   0   2 -14    0.60    1.80
   1  -2  14   -1.00    2.10
  -1  -2 -14    3.60    1.60
   1   2  14   -1.30    2.90
  -1   2 -14    1.20    1.50
   1   2  14   -0.80    1.40
  -2  -2 -14    5.80    1.70
   2   2  14    8.60    3.50
  -2   2 -14    6.30    2.00
   2   2  14    3.50    2.00
   3  -2  14    5.40    2.50
  -3  -2 -14    1.70    1.50
   3   2  14   -3.90    3.30
  -3   2 -14    0.30    1.80
   4  -2  14    5.20    2.50
  -4  -2 -14    1.80    1.60
  -4   2 -14    4.10    2.20
   4   2  14    0.50    2.90
   4   2  14    5.70    3.90
  -5  -2 -14    0.50    1.80
   5  -2  14    7.10    2.80
  -5   2 -14    2.30    2.40
   5   2  14   -6.30    4.60
   6  -2  14    3.30    3.20
  -6  -2 -14   -1.20    2.20
   6   2  14    1.50    5.40
  -6   3  14    9.00    4.00
  -6   3  14   14.80    4.30
  -5  -3  14   -5.00    2.90
  -5   3  14   -3.80    3.20
  -5   3  14   -5.50    3.10
   5   3 -14    4.00    3.60
  -4  -3  14   -5.60    2.80
  -4   3  14    0.10    3.30
   4   3 -14    0.90    2.80
  -3  -3  14   -4.10    2.60
  -3   3  14   -1.20    3.10
   3   3 -14    1.70    3.10
  -2  -3  14   -3.10    2.60
   2   3 -14    0.20    2.30
  -2   3  14   -1.80    3.10
  -1  -3  14    6.60    2.80
   1  -3 -14    3.60    1.80
   1   3 -14    7.50    2.70
  -1   3  14    5.60    3.50
   0  -3 -14   -1.50    1.40
   0   3 -14   -1.00    2.10
   0   3  14    6.90    3.80
  -1  -3 -14   -0.70    1.30
   1  -3  14   -1.70    2.80
  -1   3 -14    1.50    2.30
   1   3  14    1.20    3.70
   2  -3  14    0.70    3.30
  -2   3 -14    4.00    2.10
   2   3  14   -3.10    4.30
   3  -3  14    7.00    3.40
   3   3  14    1.40    4.30
  -3   3 -14    2.90    2.20
   4  -3  14    4.70    3.40
   4   3  14   -0.70    5.60
   5  -3  14    0.60    3.30
  -4   4  14   -1.00    5.10
  -3   4  14    0.50    5.10
  -2   4  14   -3.60    5.00
  -1  -4  14   -1.70    3.50
  -1   4  14   -3.10    5.00
   0  -4  14   -5.80    3.50
   0   4  14    5.20    4.70
   1  -4  14   -6.00    3.20
   2  -4  14    5.50    4.20
  -8   0  15   19.00    3.80
   7   0 -15    0.10    3.80
  -7   0  15   10.30    3.10
   5   0 -15   -1.10    2.90
   3   0 -15   14.30    3.00
  -3   0  15   20.90    3.10
   2   0 -15    2.40    2.10
  -2   0  15    0.60    1.50
  -1   0  15    7.40    1.80
   1   0 -15    6.40    2.10
  -1   0  15   12.40    2.50
   0   0  15    5.60    1.80
   0   0 -15    4.20    1.90
  -1   0 -15    6.70    2.00
   1   0  15    6.30    2.10
   1   0  15    4.00    2.20
   2   0  15    5.00    2.40
  -2   0 -15    4.50    1.80
   2   0  15    6.10    2.30
  -3   0 -15    0.30    1.70
   3   0  15    5.10    2.60
   3   0  15   -3.50    2.70
   4   0  15    0.70    2.80
  -4   0 -15    1.10    2.00
   5   0  15    0.30    3.50
  -5   0 -15    0.60    2.30
  -6   0 -15   -3.90    2.60
   6   0  15   -4.80    4.00
  -8  -1  15   -3.90    3.90
  -8   1  15   -4.20    2.70
  -7  -1  15   -0.70    3.30
   7  -1 -15   -4.30    3.90
   7   1 -15    5.40    4.30
  -7   1  15    3.10    2.40
  -6  -1  15   -1.20    3.00
   6  -1 -15    2.90    3.40
  -6   1  15    2.00    2.20
   6   1 -15    3.40    3.00
   5  -1 -15   17.60    3.90
   5   1 -15   28.80    5.20
  -5   1  15   29.70    3.90
   4  -1 -15   18.40    3.60
  -4   1  15   26.30    3.30
   4   1 -15   22.60    4.00
   3  -1 -15    4.60    2.40
  -3   1  15    7.40    2.50
  -3   1  15    3.20    1.70
   3   1 -15    4.50    2.70
   2  -1 -15    8.60    2.60
  -2   1  15   14.90    2.70
  -2   1  15   14.50    2.80
   2   1 -15   14.70    2.90
  -1  -1  15    0.70    1.90
   1  -1 -15    0.40    1.90
   1   1 -15   -0.20    1.90
  -1   1  15   -0.40    1.40
  -1   1  15    3.20    2.30
   0  -1 -15    6.40    1.90
   0   1 -15    4.00    1.90
   0   1  15    8.10    2.50
   0   1  15    7.20    1.90
  -1  -1 -15    9.20    2.10
   1   1  15    5.00    2.20
   1   1  15    9.80    3.00
  -1   1 -15    9.60    2.20
   2   1  15    5.80    2.40
  -2   1 -15    5.30    1.90
   2   1  15    9.20    3.00
  -3  -1 -15    3.60    1.80
   3  -1  15    5.90    2.50
  -3   1 -15    4.10    1.80
   3   1  15    1.80    2.80
   3   1  15    3.70    3.30
  -4  -1 -15    6.50    2.00
   4  -1  15    3.10    2.70
  -4   1 -15    1.60    2.20
   4   1  15    8.50    3.20
   4   1  15    3.30    3.70
  -5  -1 -15    0.40    2.20
   5  -1  15    2.90    3.10
  -5   1 -15   -2.30    2.30
   5   1  15    7.70    4.40
  -6  -1 -15    0.60    2.60
   6  -1  15    0.70    3.60
  -6   1 -15   -4.30    2.60
   6   1  15   11.10    5.20
  -7  -2  15   -7.80    3.70
  -7   2  15    2.40    3.40
  -7   2  15    1.00    4.10
  -6  -2  15   -5.90    3.50
   6   2 -15    1.90    4.10
  -6   2  15    0.50    3.00
  -5  -2  15   27.40    4.40
   5  -2 -15   12.50    3.70
  -5   2  15   15.00    3.60
  -5   2  15   15.80    2.70
   5   2 -15   16.70    4.10
   4  -2 -15    7.40    2.90
  -4  -2  15   11.10    3.50
   4   2 -15   11.30    3.10
  -4   2  15    7.70    2.10
  -4   2  15    7.70    3.30
  -3  -2  15   25.90    4.50
   3  -2 -15   12.20    3.00
   3   2 -15   14.40    3.20
  -3   2  15   16.40    3.30
  -3   2  15   17.50    2.90
   2  -2 -15   10.60    2.60
  -2  -2  15   13.10    3.30
  -2   2  15    4.70    2.80
   2   2 -15    9.80    2.70
  -2   2  15   10.30    1.80
  -1  -2  15   16.10    3.10
   1  -2 -15    7.60    2.30
  -1   2  15   10.90    1.80
  -1   2  15    6.50    3.10
   1   2 -15    9.30    2.70
   0  -2 -15    4.30    2.00
   0  -2  15    5.60    3.10
   0   2 -15    5.00    2.50
   0   2  15    3.90    2.90
   0   2  15    4.70    1.70
   1  -2  15    8.30    2.60
  -1  -2 -15    2.70    1.90
   1   2  15    1.90    3.50
  -1   2 -15    5.00    2.40
   1   2  15    2.60    1.80
  -2  -2 -15    2.30    1.80
  -2   2 -15    4.70    2.10
   2   2  15    4.60    3.90
   2   2  15    2.00    2.20
   3  -2  15    5.60    2.80
  -3  -2 -15    0.40    1.70
  -3   2 -15    1.70    2.10
   3   2  15    0.60    4.10
  -4  -2 -15    3.20    1.80
   4  -2  15    2.30    2.90
  -4   2 -15    0.20    2.50
   4   2  15    7.50    4.70
  -5  -2 -15    1.40    2.10
   5  -2  15    0.20    3.00
   5   2  15   -5.10    5.20
  -6   3  15   -2.70    4.00
  -5   3  15    3.30    4.00
  -4  -3  15   19.50    4.60
  -4   3  15   13.30    4.30
  -3  -3  15    2.30    3.10
   3   3 -15    5.30    3.50
  -3   3  15    6.90    4.00
   2   3 -15    2.50    2.90
  -2   3  15   -0.10    3.40
  -1  -3  15    4.20    3.20
   1   3 -15    2.90    2.80
  -1   3  15    4.80    4.30
   0  -3  15    7.70    3.60
   0   3 -15    1.90    2.60
   0   3  15   14.60    4.50
   1   3  15    2.90    4.60
  -1   3 -15    3.70    2.70
   2  -3  15   -3.00    3.40
   2   3  15   -5.40    4.60
  -2   3 -15    2.30    2.50
   3  -3  15   10.80    3.90
   4  -3  15    6.70    3.80
  -7   0  16   11.40    3.60
   7   0 -16    1.40    4.30
   6   0 -16   -0.50    3.70
  -4   0  16    9.80    2.90
   4   0 -16    1.10    2.70
   3   0 -16   -0.60    2.60
  -3   0  16    6.60    2.60
  -2   0  16    7.10    2.40
   2   0 -16    2.30    2.30
  -1   0  16   12.60    2.40
   1   0 -16   22.70    3.90
  -1   0 -16   -1.80    1.90
   1   0  16    2.90    2.20
   1   0  16    7.10    2.50
  -2   0 -16    1.20    2.00
   2   0  16    0.50    2.60
  -3   0 -16   -0.60    2.00
   3   0  16    1.00    2.80
  -4   0 -16    3.80    2.40
   4   0  16   -1.10    3.30
   5   0  16    0.20    3.90
  -5   0 -16   -2.60    2.60
   7  -1 -16   -6.30    4.40
  -7  -1  16   10.10    3.90
  -7   1  16   -0.50    3.00
   6  -1 -16    4.60    4.00
  -6   1  16    9.80    3.00
   6   1 -16    3.00    3.90
   5  -1 -16   -2.30    3.00
  -5  -1  16    7.80    3.20
   5   1 -16    2.20    3.10
  -5   1  16    3.80    2.50
   4  -1 -16    6.10    3.10
  -4   1  16    7.80    2.90
   4   1 -16    2.90    3.00
   3  -1 -16    2.20    2.50
  -3   1  16    3.30    1.80
   3   1 -16    3.00    2.80
  -3   1  16    3.20    2.50
   2  -1 -16    2.80    2.50
   2   1 -16   10.50    2.90
  -2   1  16   10.50    3.20
  -2   1  16    6.60    1.90
   1  -1 -16    2.70    2.40
  -1   1  16    5.50    1.90
  -1   1  16    6.10    2.70
   1   1 -16    3.30    2.40
   0  -1 -16    6.70    2.20
   0   1 -16    7.60    2.40
   0   1  16    6.00    2.20
   0   1  16    8.40    3.00
  -1  -1 -16   -2.10    2.00
  -1   1 -16    4.70    2.00
   1   1  16    2.40    2.80
   1   1  16    1.50    2.30
  -2  -1 -16    2.60    2.10
   2   1  16    9.30    2.80
  -2   1 -16    6.30    2.20
   2   1  16    9.50    3.50
   3  -1  16   -0.30    2.60
  -3  -1 -16    2.10    2.20
  -3   1 -16   -0.40    2.10
   3   1  16    0.00    3.20
   3   1  16    4.50    3.80
  -4  -1 -16    0.20    2.20
   4  -1  16    1.90    3.00
  -4   1 -16    1.90    2.50
   4   1  16   -0.30    4.30
   4   1  16    6.60    3.60
   5  -1  16    6.10    3.70
  -5   1 -16    2.60    2.90
   5   1  16   13.40    5.30
  -6   2  16    7.60    3.60
   5  -2 -16   -6.60    3.20
  -5   2  16    3.80    3.30
  -4  -2  16    1.50    3.50
   4  -2 -16    5.40    3.10
  -4   2  16    8.40    2.40
  -4   2  16    5.30    3.30
   4   2 -16    8.80    3.80
   3  -2 -16   -1.20    2.60
   3   2 -16    1.70    2.90
  -3   2  16    1.10    3.20
  -3   2  16    2.80    1.80
  -2  -2  16   12.10    3.20
   2  -2 -16    7.10    2.70
  -2   2  16    9.50    3.80
   2   2 -16   11.00    3.10
  -2   2  16    8.10    2.00
   1  -2 -16    0.30    2.10
  -1   2  16    0.20    3.50
  -1   2  16    1.10    1.80
   1   2 -16   -0.70    2.50
   0  -2  16    7.70    3.30
   0  -2 -16    1.80    2.20
   0   2  16    1.50    3.40
   0   2 -16    1.30    2.30
   0   2  16    0.20    2.00
  -1  -2 -16    5.10    2.20
   1  -2  16   11.30    3.30
   1   2  16    3.40    4.10
  -1   2 -16    9.80    2.90
   2  -2  16   14.50    3.50
  -2  -2 -16    2.20    2.10
   2   2  16    8.90    4.30
  -2   2 -16    6.70    2.60
  -3  -2 -16   -0.10    2.00
   3  -2  16    4.40    3.00
  -3   2 -16    2.20    2.40
   3   2  16    0.40    4.90
   4  -2  16    8.30    3.40
  -4   3  16    4.80    4.00
  -3   3  16    8.20    4.40
  -2   3  16    3.30    4.40
  -1  -3  16   -0.60    3.30
  -1   3  16    3.70    4.30
   0  -3  16   -3.40    3.60
   1  -3  16   -4.10    3.70
   2  -3  16    9.70    4.10
   3  -3  16   11.30    4.40
  -5   0  17   33.40    5.20
  -4   0  17   11.80    3.20
   4   0 -17   -0.10    3.20
   3   0 -17   13.70    3.60
  -2   0  17   25.30    4.20
  -1   0  17   30.60    4.70
   0   0  17   15.50    3.30
   0   0 -17    3.00    2.60
  -1   0 -17    1.40    2.40
   1   0  17    3.50    2.60
   2   0  17    3.50    3.10
  -2   0 -17    3.50    2.40
   3   0  17    7.00    3.50
  -3   0 -17    4.20    2.60
  -4   0 -17    3.50    2.70
   4   0  17    3.50    3.90
   6  -1 -17    0.40    4.30
  -6   1  17    1.60    3.00
  -5  -1  17    7.90    3.60
   5  -1 -17   -2.10    3.70
  -5   1  17    0.30    2.90
   5   1 -17    4.40    3.50
   4  -1 -17    4.00    3.50
  -4  -1  17   13.20    3.80
   4   1 -17    6.50    3.50
  -4   1  17    7.40    3.00
   3  -1 -17    5.50    3.30
  -3   1  17   10.00    3.00
   3   1 -17    3.50    3.00
   2  -1 -17   16.10    3.40
   2   1 -17   17.10    3.80
  -2   1  17   22.20    3.90
  -2   1  17   12.00    2.60
   1  -1 -17   -1.50    2.60
  -1   1  17   -0.50    2.10
   1   1 -17    1.80    2.60
  -1   1  17    6.40    2.90
   0  -1 -17    1.90    2.50
   0   1  17   -0.80    2.20
   0   1  17    6.90    3.20
   0   1 -17   -1.10    2.60
   1  -1  17    4.70    2.60
  -1  -1 -17   -1.10    2.40
   1   1  17    1.80    2.70
   1   1  17   -0.20    3.10
  -1   1 -17   -3.60    2.30
  -2  -1 -17    1.00    2.30
   2  -1  17    9.20    3.20
  -2   1 -17    0.10    2.60
   2   1  17    3.80    3.00
   2   1  17    6.80    3.70
  -3  -1 -17    6.30    2.70
   3  -1  17    7.70    3.20
   3   1  17    8.50    4.50
  -4  -1 -17    0.10    2.60
   4  -1  17    8.00    3.80
  -4   1 -17    1.50    2.80
   5  -2 -17   -5.10    3.80
  -5   2  17    3.60    3.90
   4  -2 -17   -1.60    3.30
  -4   2  17    6.80    3.70
   3  -2 -17   -1.00    3.20
   3   2 -17    1.10    3.30
  -3   2  17    5.50    3.90
   2  -2 -17    2.30    2.80
  -2  -2  17    1.60    3.10
   2   2 -17    9.40    3.60
  -2   2  17   -0.90    3.90
  -1  -2  17   21.40    3.90
  -1   2  17   14.90    4.50
   0  -2 -17   -1.90    2.50
   0  -2  17    5.40    3.30
   0   2  17    1.00    3.90
   0   2 -17    8.30    3.10
  -1  -2 -17    0.00    2.50
   1  -2  17    5.60    3.10
  -1   2 -17    3.00    2.80
   3  -2  17    3.00    3.40
   5   0 -18    0.10    4.00
  -4   0  18   12.20    4.10
   4   0 -18    7.10    3.80
   3   0 -18   14.70    4.00
  -2   0  18   29.30    5.30
   1   0 -18   -2.00    3.00
   0   0 -18    4.40    3.00
  -1   0 -18    0.30    2.80
   1   0  18    4.70    3.50
  -2   0 -18   -2.40    2.80
  -3   0 -18    4.20    3.10
   5  -1 -18    3.90    4.50
   4  -1 -18    4.30    4.00
  -4   1  18    7.80    3.90
   3  -1 -18   -2.10    3.40
  -3   1  18    5.20    3.70
   3   1 -18    4.30    3.60
   2  -1 -18    1.80    3.00
   2   1 -18   -0.30    3.20
  -2   1  18    4.70    3.40
   1  -1 -18    3.80    3.00
  -1   1  18    6.70    3.60
   1   1 -18    2.80    3.10
   0  -1 -18    1.00    2.90
   0   1 -18    2.20    3.00
  -1  -1 -18   -1.70    2.70
  -1   1 -18   -3.30    2.70
  -2  -1 -18   -2.00    2.80
  -2   1 -18    3.30    3.10
  -3  -1 -18   -5.30    2.90
   3  -2 -18   -1.10    3.50
   2  -2 -18   -0.60    3.20
   3   0 -19    5.80    3.70
   2   0 -19    2.40    3.50
   1   0 -19   14.90    4.10
   0   0 -19    3.10    3.40
  -1   0 -19   -2.40    3.30
   2  -1 -19    2.60    3.50
   1  -1 -19    4.30    3.70
   0  -1 -19    6.30    3.60
;
_shelx_hkl_checksum              89843
loop_
_space_group_symop_operation_xyz
'x, y, z'
'-x, y+1/2, -z'
loop_
_atom_site_label
_atom_site_type_symbol
_atom_site_fract_x
_atom_site_fract_y
_atom_site_fract_z
_atom_site_U_iso_or_equiv
_atom_site_adp_type
_atom_site_occupancy
_atom_site_site_symmetry_order
_atom_site_calc_flag
_atom_site_refinement_flags_posn
_atom_site_refinement_flags_adp
_atom_site_refinement_flags_occupancy
_atom_site_disorder_assembly
_atom_site_disorder_group
O1A O 0.8856(3) 0.5962(6) 0.0764(2) 0.0499(8) Uani 1 1 d . U . . .
O2A O 0.8166(3) 0.9612(6) 0.1325(2) 0.0581(9) Uani 1 1 d . U . . .
N1A N 0.6360(3) 0.3724(7) 0.0704(2) 0.0437(8) Uani 1 1 d . U . . .
H1A H 0.6449 0.4145 0.0157 0.066 Uiso 1 1 calc R U . A 1
H2A H 0.5527 0.2986 0.0744 0.066 Uiso 1 1 calc R U . A 1
H3A H 0.7039 0.2626 0.0885 0.066 Uiso 1 1 calc R U . A 1
C1A C 0.7970(4) 0.7305(8) 0.1079(3) 0.0409(10) Uani 1 1 d . U . . .
C21A C 0.6469(17) 0.606(3) 0.1239(4) 0.0404(10) Uani 0.313(6) 1 d D U P B 1
H21A H 0.5732 0.7264 0.1018 0.049 Uiso 0.313(6) 1 calc R U P B 1
C31A C 0.6261(16) 0.5481(17) 0.2176(4) 0.0578(13) Uani 0.313(6) 1 d D U P B 1
H31A H 0.6907 0.4127 0.2381 0.069 Uiso 0.313(6) 1 calc R U P B 1
H32A H 0.5312 0.4849 0.2214 0.069 Uiso 0.313(6) 1 calc R U P B 1
C41A C 0.6499(17) 0.7833(17) 0.2755(4) 0.088(2) Uani 0.313(6) 1 d D U P B 1
H41A H 0.5848 0.9184 0.2555 0.105 Uiso 0.313(6) 1 calc R U P B 1
H42A H 0.7446 0.8474 0.2716 0.105 Uiso 0.313(6) 1 calc R U P B 1
S11A S 0.6261(11) 0.7101(15) 0.3847(3) 0.1530(16) Uani 0.313(6) 1 d D U P B 1
C51A C 0.657(3) 0.974(2) 0.4325(7) 0.213(8) Uani 0.313(6) 1 d D U P B 1
H51A H 0.6449 0.9538 0.4926 0.320 Uiso 0.313(6) 1 calc R U P B 1
H52A H 0.5934 1.1031 0.4082 0.320 Uiso 0.313(6) 1 calc R U P B 1
H53A H 0.7521 1.0259 0.4258 0.320 Uiso 0.313(6) 1 calc R U P B 1
C22A C 0.6567(8) 0.6137(14) 0.1206(3) 0.0404(10) Uani 0.687(6) 1 d D U P B 2
H22A H 0.5831 0.7365 0.1004 0.049 Uiso 0.687(6) 1 calc R U P B 2
C32A C 0.6431(9) 0.5562(12) 0.2152(3) 0.0578(13) Uani 0.687(6) 1 d D U P B 2
H33A H 0.7324 0.4927 0.2413 0.069 Uiso 0.687(6) 1 calc R U P B 2
H34A H 0.5737 0.4211 0.2196 0.069 Uiso 0.687(6) 1 calc R U P B 2
C42A C 0.5999(10) 0.7918(13) 0.2649(4) 0.088(2) Uani 0.687(6) 1 d D U P B 2
H43A H 0.5226 0.8784 0.2321 0.105 Uiso 0.687(6) 1 calc R U P B 2
H44A H 0.6782 0.9113 0.2721 0.105 Uiso 0.687(6) 1 calc R U P B 2
S12A S 0.5474(5) 0.7061(9) 0.3678(2) 0.1530(16) Uani 0.687(6) 1 d D U P B 2
C52A C 0.5478(19) 0.9699(19) 0.4175(6) 0.213(8) Uani 0.687(6) 1 d D U P B 2
H54A H 0.5032 0.9480 0.4699 0.320 Uiso 0.687(6) 1 calc R U P B 2
H55A H 0.4974 1.0968 0.3820 0.320 Uiso 0.687(6) 1 calc R U P B 2
H56A H 0.6429 1.0264 0.4308 0.320 Uiso 0.687(6) 1 calc R U P B 2
O1B O 0.3700(3) 0.1845(6) 0.0807(2) 0.0505(8) Uani 1 1 d . U . . .
O2B O 0.3048(3) 0.5810(6) 0.1099(3) 0.0690(10) Uani 1 1 d . U . . .
N1B N 0.1108(3) 0.0000(7) 0.0992(3) 0.0529(10) Uani 1 1 d . U . . .
H1B H 0.0952 0.0427 0.0439 0.079 Uiso 1 1 calc R U . C 1
H2B H 0.0317 -0.0595 0.1183 0.079 Uiso 1 1 calc R U . C 1
H3B H 0.1768 -0.1216 0.1051 0.079 Uiso 1 1 calc R U . C 1
C1B C 0.2866(4) 0.3447(9) 0.1082(3) 0.0430(10) Uani 1 1 d . U . . .
C21B C 0.1588(15) 0.231(3) 0.1498(3) 0.0437(11) Uani 0.406(2) 1 d D U P D 1
H21B H 0.0829 0.3585 0.1461 0.052 Uiso 0.406(2) 1 calc R U P D 1
C31B C 0.1933(11) 0.1573(15) 0.2446(4) 0.0759(18) Uani 0.406(2) 1 d D U P D 1
H31B H 0.1209 0.0405 0.2611 0.091 Uiso 0.406(2) 1 calc R U P D 1
H32B H 0.2813 0.0628 0.2494 0.091 Uiso 0.406(2) 1 calc R U P D 1
C41B C 0.2050(7) 0.3639(16) 0.3052(5) 0.102(4) Uani 0.406(2) 1 d D U P D 1
H41B H 0.2658 0.4946 0.2837 0.122 Uiso 0.406(2) 1 calc R U P D 1
H42B H 0.2515 0.2988 0.3587 0.122 Uiso 0.406(2) 1 calc R U P D 1
S11B S 0.0442(6) 0.5168(10) 0.3290(4) 0.131(2) Uani 0.406(2) 1 d D U P D 1
C51B C -0.0332(10) 0.324(2) 0.3943(6) 0.149(8) Uani 0.406(2) 1 d D U P D 1
H51B H -0.1202 0.3994 0.4081 0.224 Uiso 0.406(2) 1 calc R U P D 1
H52B H 0.0271 0.2988 0.4462 0.224 Uiso 0.406(2) 1 calc R U P D 1
H53B H -0.0516 0.1602 0.3666 0.224 Uiso 0.406(2) 1 calc R U P D 1
C22B C 0.1644(18) 0.246(4) 0.1542(4) 0.0437(11) Uani 0.241(2) 1 d D U P D 2
H22B H 0.0902 0.3772 0.1535 0.052 Uiso 0.241(2) 1 calc R U P D 2
C32B C 0.2094(8) 0.163(3) 0.2469(4) 0.0759(18) Uani 0.241(2) 1 d D U P D 2
H33B H 0.2713 0.0151 0.2447 0.091 Uiso 0.241(2) 1 calc R U P D 2
H34B H 0.2640 0.3018 0.2750 0.091 Uiso 0.241(2) 1 calc R U P D 2
C42B C 0.0998(9) 0.0970(14) 0.2995(5) 0.101(5) Uiso 0.241(2) 1 d D U P D 2
H43B H 0.1419 0.0102 0.3506 0.121 Uiso 0.241(2) 1 calc R U P D 2
H44B H 0.0384 -0.0261 0.2682 0.121 Uiso 0.241(2) 1 calc R U P D 2
S12B S -0.0063(7) 0.3570(15) 0.3335(5) 0.151(4) Uani 0.241(2) 1 d D U P D 2
C52B C 0.0836(17) 0.502(2) 0.4145(7) 0.190(11) Uiso 0.241(2) 1 d D U P D 2
H54B H 0.0288 0.6408 0.4350 0.285 Uiso 0.241(2) 1 calc R U P D 2
H55B H 0.1694 0.5695 0.3957 0.285 Uiso 0.241(2) 1 calc R U P D 2
H56B H 0.1051 0.3804 0.4603 0.285 Uiso 0.241(2) 1 calc R U P D 2
C23B C 0.153(3) 0.244(5) 0.1278(4) 0.0437(11) Uani 0.148(2) 1 d D U P D 3
H23B H 0.0783 0.3695 0.1124 0.052 Uiso 0.148(2) 1 calc R U P D 3
C33B C 0.1845(17) 0.234(2) 0.2259(4) 0.0759(18) Uani 0.148(2) 1 d D U P D 3
H35B H 0.1523 0.0685 0.2459 0.091 Uiso 0.148(2) 1 calc R U P D 3
H36B H 0.2858 0.2386 0.2386 0.091 Uiso 0.148(2) 1 calc R U P D 3
C43B C 0.1248(16) 0.4312(18) 0.2747(4) 0.101(5) Uiso 0.148(2) 1 d D U P D 3
H45B H 0.0249 0.4393 0.2570 0.121 Uiso 0.148(2) 1 calc R U P D 3
H46B H 0.1654 0.5946 0.2593 0.121 Uiso 0.148(2) 1 calc R U P D 3
S13B S 0.1458(13) 0.4013(17) 0.3898(4) 0.140(6) Uani 0.148(2) 1 d D U P D 3
C53B C 0.0644(18) 0.1359(19) 0.4154(8) 0.190(11) Uiso 0.148(2) 1 d D U P D 3
H57B H 0.0710 0.1176 0.4769 0.285 Uiso 0.148(2) 1 calc R U P D 3
H58B H 0.1075 -0.0102 0.3904 0.285 Uiso 0.148(2) 1 calc R U P D 3
H59B H -0.0327 0.1455 0.3937 0.285 Uiso 0.148(2) 1 calc R U P D 3
C24B C 0.1463(18) 0.232(6) 0.1371(4) 0.0437(11) Uani 0.203(2) 1 d D U P D 4
H24B H 0.0701 0.3562 0.1234 0.052 Uiso 0.203(2) 1 calc R U P D 4
C34B C 0.1649(9) 0.189(5) 0.2347(4) 0.0759(18) Uani 0.203(2) 1 d D U P D 4
H37B H 0.2024 0.0165 0.2450 0.091 Uiso 0.203(2) 1 calc R U P D 4
H38B H 0.2352 0.3095 0.2590 0.091 Uiso 0.203(2) 1 calc R U P D 4
C44B C 0.0432(9) 0.215(3) 0.2807(4) 0.101(5) Uiso 0.203(2) 1 d D U P D 4
H47B H -0.0119 0.0583 0.2723 0.121 Uiso 0.203(2) 1 calc R U P D 4
H48B H -0.0131 0.3550 0.2548 0.121 Uiso 0.203(2) 1 calc R U P D 4
S14B S 0.0710(12) 0.2748(16) 0.3942(4) 0.170(6) Uani 0.203(2) 1 d D U P D 4
C54B C 0.143(2) 0.5624(17) 0.4069(10) 0.190(11) Uiso 0.203(2) 1 d D U P D 4
H60B H 0.0882 0.6660 0.4426 0.285 Uiso 0.203(2) 1 calc R U P D 4
H61B H 0.1458 0.6436 0.3518 0.285 Uiso 0.203(2) 1 calc R U P D 4
H62B H 0.2368 0.5454 0.4339 0.285 Uiso 0.203(2) 1 calc R U P D 4
loop_
_atom_site_aniso_label
_atom_site_aniso_U_11
_atom_site_aniso_U_22
_atom_site_aniso_U_33
_atom_site_aniso_U_23
_atom_site_aniso_U_13
_atom_site_aniso_U_12
O1A 0.0264(14) 0.0482(17) 0.076(2) 0.0003(16) 0.0077(13) -0.0018(13)
O2A 0.0421(16) 0.0365(16) 0.096(2) -0.0066(17) 0.0090(15) -0.0129(14)
N1A 0.0263(16) 0.0373(17) 0.068(2) 0.0024(17) 0.0074(15) -0.0067(14)
C1A 0.0287(19) 0.039(2) 0.055(2) 0.007(2) 0.0008(16) -0.0030(17)
C21A 0.0257(19) 0.034(2) 0.062(2) 0.0021(19) 0.0057(17) -0.0037(17)
C31A 0.054(3) 0.051(3) 0.071(3) 0.006(2) 0.022(2) -0.015(2)
C41A 0.103(6) 0.083(4) 0.081(4) -0.015(3) 0.033(4) -0.021(4)
S11A 0.215(4) 0.163(3) 0.0920(14) -0.0276(17) 0.0752(19) -0.073(3)
C51A 0.31(2) 0.205(11) 0.129(8) -0.064(8) 0.073(12) -0.019(16)
C22A 0.0257(19) 0.034(2) 0.062(2) 0.0021(19) 0.0057(17) -0.0037(17)
C32A 0.054(3) 0.051(3) 0.071(3) 0.006(2) 0.022(2) -0.015(2)
C42A 0.103(6) 0.083(4) 0.081(4) -0.015(3) 0.033(4) -0.021(4)
S12A 0.215(4) 0.163(3) 0.0920(14) -0.0276(17) 0.0752(19) -0.073(3)
C52A 0.31(2) 0.205(11) 0.129(8) -0.064(8) 0.073(12) -0.019(16)
O1B 0.0301(13) 0.0416(16) 0.0820(19) -0.0136(15) 0.0172(13) -0.0113(13)
O2B 0.0524(19) 0.0336(16) 0.123(3) -0.0010(19) 0.0182(18) -0.0066(14)
N1B 0.0312(17) 0.050(2) 0.077(2) 0.0119(18) 0.0045(17) -0.0148(16)
C1B 0.030(2) 0.037(2) 0.063(3) 0.003(2) 0.0038(18) -0.0040(17)
C21B 0.0379(18) 0.0447(18) 0.0493(19) 0.0018(18) 0.0082(16) -0.0007(16)
C31B 0.083(4) 0.085(4) 0.061(3) 0.016(3) 0.017(3) -0.006(4)
C41B 0.112(9) 0.113(9) 0.081(8) -0.012(7) 0.013(7) -0.027(8)
S11B 0.189(6) 0.093(4) 0.117(4) -0.021(3) 0.046(4) 0.020(4)
C51B 0.177(15) 0.19(2) 0.087(11) -0.001(12) 0.065(10) 0.030(15)
C22B 0.0379(18) 0.0447(18) 0.0493(19) 0.0018(18) 0.0082(16) -0.0007(16)
C32B 0.083(4) 0.085(4) 0.061(3) 0.016(3) 0.017(3) -0.006(4)
S12B 0.131(7) 0.192(10) 0.137(8) -0.012(8) 0.053(6) 0.059(7)
C23B 0.0379(18) 0.0447(18) 0.0493(19) 0.0018(18) 0.0082(16) -0.0007(16)
C33B 0.083(4) 0.085(4) 0.061(3) 0.016(3) 0.017(3) -0.006(4)
S13B 0.182(13) 0.139(13) 0.105(10) -0.004(10) 0.047(9) -0.002(12)
C24B 0.0379(18) 0.0447(18) 0.0493(19) 0.0018(18) 0.0082(16) -0.0007(16)
C34B 0.083(4) 0.085(4) 0.061(3) 0.016(3) 0.017(3) -0.006(4)
S14B 0.211(12) 0.234(15) 0.073(6) 0.009(8) 0.057(7) 0.012(12)
loop_
_atom_type_symbol
_atom_type_description
_atom_type_scat_dispersion_real
_atom_type_scat_dispersion_imag
_atom_type_scat_source
C C 0.0033 0.0016 'International Tables Vol C Tables 4.2.6.8 and 6.1.1.4'
H H 0.0000 0.0000 'International Tables Vol C Tables 4.2.6.8 and 6.1.1.4'
N N 0.0061 0.0033 'International Tables Vol C Tables 4.2.6.8 and 6.1.1.4'
O O 0.0106 0.0060 'International Tables Vol C Tables 4.2.6.8 and 6.1.1.4'
S S 0.1246 0.1234 'International Tables Vol C Tables 4.2.6.8 and 6.1.1.4'
loop_
_geom_angle_atom_site_label_1
_geom_angle_atom_site_label_2
_geom_angle_atom_site_label_3
_geom_angle
C21A N1A H1A 109.5
C21A N1A H2A 109.5
H1A N1A H2A 109.5
C21A N1A H3A 109.5
H1A N1A H3A 109.5
H2A N1A H3A 109.5
O1A C1A O2A 124.6(4)
O1A C1A C22A 118.5(4)
O2A C1A C22A 116.9(4)
O1A C1A C21A 119.1(6)
O2A C1A C21A 116.2(6)
N1A C21A C31A 112.0(8)
N1A C21A C1A 105.2(8)
C31A C21A C1A 114.8(8)
N1A C21A H21A 108.2
C31A C21A H21A 108.2
C1A C21A H21A 108.2
C21A C31A C41A 112.7(6)
C21A C31A H31A 109.1
C41A C31A H31A 109.1
C21A C31A H32A 109.1
C41A C31A H32A 109.1
H31A C31A H32A 107.8
C31A C41A S11A 111.8(5)
C31A C41A H41A 109.3
S11A C41A H41A 109.3
C31A C41A H42A 109.3
S11A C41A H42A 109.3
H41A C41A H42A 107.9
C51A S11A C41A 103.5(5)
S11A C51A H51A 109.5
S11A C51A H52A 109.5
H51A C51A H52A 109.5
S11A C51A H53A 109.5
H51A C51A H53A 109.5
H52A C51A H53A 109.5
N1A C22A C1A 110.6(4)
N1A C22A C32A 109.2(5)
C1A C22A C32A 111.1(5)
N1A C22A H22A 108.6
C1A C22A H22A 108.6
C32A C22A H22A 108.6
C22A C32A C42A 112.7(5)
C22A C32A H33A 109.1
C42A C32A H33A 109.0
C22A C32A H34A 109.1
C42A C32A H34A 109.1
H33A C32A H34A 107.8
C32A C42A S12A 111.6(4)
C32A C42A H43A 109.3
S12A C42A H43A 109.3
C32A C42A H44A 109.3
S12A C42A H44A 109.3
H43A C42A H44A 108.0
C52A S12A C42A 103.8(4)
S12A C52A H54A 109.5
S12A C52A H55A 109.5
H54A C52A H55A 109.5
S12A C52A H56A 109.5
H54A C52A H56A 109.5
H55A C52A H56A 109.5
C21B N1B H1B 109.5
C21B N1B H2B 109.5
H1B N1B H2B 109.5
C21B N1B H3B 109.5
H1B N1B H3B 109.5
H2B N1B H3B 109.5
O2B C1B O1B 124.9(4)
O2B C1B C23B 118.8(9)
O1B C1B C23B 115.7(8)
O2B C1B C22B 115.9(8)
O1B C1B C22B 118.7(8)
O2B C1B C21B 118.9(6)
O1B C1B C21B 116.0(6)
O2B C1B C24B 119.0(10)
O1B C1B C24B 116.0(10)
N1B C21B C31B 110.1(8)
N1B C21B C1B 107.6(6)
C31B C21B C1B 112.8(9)
N1B C21B H21B 108.7
C31B C21B H21B 108.7
C1B C21B H21B 108.7
C41B C31B C21B 116.7(6)
C41B C31B H31B 108.1
C21B C31B H31B 108.1
C41B C31B H32B 108.1
C21B C31B H32B 108.1
H31B C31B H32B 107.3
C31B C41B S11B 116.7(5)
C31B C41B H41B 108.1
S11B C41B H41B 108.1
C31B C41B H42B 108.1
S11B C41B H42B 108.1
H41B C41B H42B 107.3
C51B S11B C41B 107.3(5)
S11B C51B H51B 109.5
S11B C51B H52B 109.5
H51B C51B H52B 109.5
S11B C51B H53B 109.5
H51B C51B H53B 109.5
H52B C51B H53B 109.5
C1B C22B C32B 112.2(10)
C1B C22B N1B 103.8(8)
C32B C22B N1B 109.3(11)
C1B C22B H22B 110.4
C32B C22B H22B 110.4
N1B C22B H22B 110.4
C42B C32B C22B 116.7(7)
C42B C32B H33B 108.1
C22B C32B H33B 108.1
C42B C32B H34B 108.1
C22B C32B H34B 108.1
H33B C32B H34B 107.3
C32B C42B S12B 116.8(6)
C32B C42B H43B 108.1
S12B C42B H43B 108.1
C32B C42B H44B 108.1
S12B C42B H44B 108.1
H43B C42B H44B 107.3
C52B S12B C42B 107.4(5)
S12B C52B H54B 109.5
S12B C52B H55B 109.5
H54B C52B H55B 109.5
S12B C52B H56B 109.5
H54B C52B H56B 109.5
H55B C52B H56B 109.5
N1B C23B C1B 120.0(13)
N1B C23B C33B 108.5(14)
C1B C23B C33B 97.0(15)
N1B C23B H23B 110.1
C1B C23B H23B 110.1
C33B C23B H23B 110.1
C43B C33B C23B 117.0(7)
C43B C33B H35B 108.0
C23B C33B H35B 108.0
C43B C33B H36B 108.0
C23B C33B H36B 108.0
H35B C33B H36B 107.3
C33B C43B S13B 117.1(6)
C33B C43B H45B 108.0
S13B C43B H45B 108.0
C33B C43B H46B 108.0
S13B C43B H46B 108.0
H45B C43B H46B 107.3
C53B S13B C43B 107.5(5)
S13B C53B H57B 109.5
S13B C53B H58B 109.5
H57B C53B H58B 109.5
S13B C53B H59B 109.5
H57B C53B H59B 109.5
H58B C53B H59B 109.5
N1B C24B C34B 107.5(16)
N1B C24B C1B 112.9(10)
C34B C24B C1B 108.2(11)
N1B C24B H24B 109.4
C34B C24B H24B 109.4
C1B C24B H24B 109.4
C44B C34B C24B 117.1(7)
C44B C34B H37B 108.0
C24B C34B H37B 108.0
C44B C34B H38B 108.0
C24B C34B H38B 108.0
H37B C34B H38B 107.3
C34B C44B S14B 117.1(6)
C34B C44B H47B 108.0
S14B C44B H47B 108.0
C34B C44B H48B 108.0
S14B C44B H48B 108.0
H47B C44B H48B 107.3
C54B S14B C44B 107.5(5)
S14B C54B H60B 109.5
S14B C54B H61B 109.5
H60B C54B H61B 109.5
S14B C54B H62B 109.5
H60B C54B H62B 109.5
H61B C54B H62B 109.5
loop_
_geom_bond_atom_site_label_1
_geom_bond_atom_site_label_2
_geom_bond_distance
O1A C1A 1.230(5)
O2A C1A 1.265(5)
N1A C21A 1.469(12)
N1A C22A 1.479(7)
N1A H1A 0.8900
N1A H2A 0.8900
N1A H3A 0.8900
C1A C22A 1.499(8)
C1A C21A 1.610(16)
C21A C31A 1.521(7)
C21A H21A 0.9800
C31A C41A 1.521(8)
C31A H31A 0.9700
C31A H32A 0.9700
C41A S11A 1.778(6)
C41A H41A 0.9700
C41A H42A 0.9700
S11A C51A 1.573(10)
C51A H51A 0.9600
C51A H52A 0.9600
C51A H53A 0.9600
C22A C32A 1.521(6)
C22A H22A 0.9800
C32A C42A 1.522(8)
C32A H33A 0.9700
C32A H34A 0.9700
C42A S12A 1.777(6)
C42A H43A 0.9700
C42A H44A 0.9700
S12A C52A 1.571(9)
C52A H54A 0.9600
C52A H55A 0.9600
C52A H56A 0.9600
O1B C1B 1.251(5)
O2B C1B 1.237(5)
N1B C24B 1.37(3)
N1B C23B 1.39(3)
N1B C21B 1.482(13)
N1B C22B 1.597(18)
N1B H1B 0.8900
N1B H2B 0.8900
N1B H3B 0.8900
C1B C23B 1.44(3)
C1B C22B 1.510(15)
C1B C21B 1.549(14)
C1B C24B 1.56(2)
C21B C31B 1.533(6)
C21B H21B 0.9800
C31B C41B 1.426(8)
C31B H31B 0.9700
C31B H32B 0.9700
C41B S11B 1.795(6)
C41B H41B 0.9700
C41B H42B 0.9700
S11B C51B 1.647(8)
C51B H51B 0.9600
C51B H52B 0.9600
C51B H53B 0.9600
C22B C32B 1.533(6)
C22B H22B 0.9800
C32B C42B 1.425(8)
C32B H33B 0.9700
C32B H34B 0.9700
C42B S12B 1.793(6)
C42B H43B 0.9700
C42B H44B 0.9700
S12B C52B 1.646(8)
C52B H54B 0.9600
C52B H55B 0.9600
C52B H56B 0.9600
C23B C33B 1.533(6)
C23B H23B 0.9800
C33B C43B 1.424(8)
C33B H35B 0.9700
C33B H36B 0.9700
C43B S13B 1.794(6)
C43B H45B 0.9700
C43B H46B 0.9700
S13B C53B 1.646(8)
C53B H57B 0.9600
C53B H58B 0.9600
C53B H59B 0.9600
C24B C34B 1.532(6)
C24B H24B 0.9800
C34B C44B 1.424(8)
C34B H37B 0.9700
C34B H38B 0.9700
C44B S14B 1.794(6)
C44B H47B 0.9700
C44B H48B 0.9700
S14B C54B 1.646(8)
C54B H60B 0.9600
C54B H61B 0.9600
C54B H62B 0.9600
loop_
_geom_hbond_atom_site_label_D
_geom_hbond_atom_site_label_H
_geom_hbond_atom_site_label_A
_geom_hbond_distance_DH
_geom_hbond_distance_HA
_geom_hbond_distance_DA
_geom_hbond_angle_DHA
_geom_hbond_site_symmetry_A
N1A H1A O1B 0.89 2.05 2.853(5) 149.6 2_655
N1A H2A O1B 0.89 1.85 2.738(4) 173.1 .
N1A H3A O2A 0.89 1.98 2.857(5) 166.2 1_545
N1B H1B O1A 0.89 1.92 2.785(5) 163.7 2_645
N1B H2B O2A 0.89 2.09 2.908(4) 152.7 1_445
N1B H2B O1A 0.89 2.32 3.000(4) 132.7 1_445
N1B H3B O2B 0.89 1.96 2.850(5) 172.7 1_545
C21B H21B O1A 0.98 2.43 3.344(13) 155.7 1_455
loop_
_geom_torsion_atom_site_label_1
_geom_torsion_atom_site_label_2
_geom_torsion_atom_site_label_3
_geom_torsion_atom_site_label_4
_geom_torsion
O1A C1A C21A N1A -17.5(9)
O2A C1A C21A N1A 165.2(5)
O1A C1A C21A C31A 106.0(8)
O2A C1A C21A C31A -71.2(10)
N1A C21A C31A C41A 174.9(11)
C1A C21A C31A C41A 55.0(15)
C21A C31A C41A S11A -179.6(9)
C31A C41A S11A C51A 179.3(9)
O1A C1A C22A N1A -15.6(6)
O2A C1A C22A N1A 166.0(4)
O1A C1A C22A C32A 105.9(5)
O2A C1A C22A C32A -72.6(6)
N1A C22A C32A C42A -155.2(6)
C1A C22A C32A C42A 82.6(8)
C22A C32A C42A S12A 167.1(5)
C32A C42A S12A C52A 165.0(9)
O2B C1B C21B N1B 147.0(6)
O1B C1B C21B N1B -38.2(8)
O2B C1B C21B C31B -91.3(8)
O1B C1B C21B C31B 83.5(8)
N1B C21B C31B C41B -164.1(8)
C1B C21B C31B C41B 75.7(11)
C21B C31B C41B S11B 73.4(11)
C31B C41B S11B C51B 76.8(8)
O2B C1B C22B C32B -94.6(12)
O1B C1B C22B C32B 77.1(12)
O2B C1B C22B N1B 147.5(6)
O1B C1B C22B N1B -40.8(9)
C1B C22B C32B C42B 172.5(10)
N1B C22B C32B C42B -72.9(13)
C22B C32B C42B S12B -71.3(13)
C32B C42B S12B C52B -78.9(10)
O2B C1B C23B N1B 158.0(8)
O1B C1B C23B N1B -13.9(12)
O2B C1B C23B C33B -85.9(10)
O1B C1B C23B C33B 102.2(8)
N1B C23B C33B C43B -132.0(16)
C1B C23B C33B C43B 103.1(15)
C23B C33B C43B S13B 173.5(16)
C33B C43B S13B C53B -62.7(15)
O2B C1B C24B N1B 153.3(9)
O1B C1B C24B N1B -23.3(11)
O2B C1B C24B C34B -87.8(15)
O1B C1B C24B C34B 95.6(15)
N1B C24B C34B C44B -88.7(18)
C1B C24B C34B C44B 149.0(18)
C24B C34B C44B S14B -159.2(16)
C34B C44B S14B C54B 66.4(18)
