#------------------------------------------------------------------------------
#$Date: 2016-08-05 06:11:49 +0300 (Fri, 05 Aug 2016) $
#$Revision: 184877 $
#$URL: file:///home/coder/svn-repositories/cod/cif/1/54/37/1543793.cif $
#------------------------------------------------------------------------------
#
# This file is available in the Crystallography Open Database (COD),
# http://www.crystallography.net/
#
# All data on this site have been placed in the public domain by the
# contributors.
#
data_1543793
loop_
_publ_author_name
'Mandal, Anup'
'Sahoo, Harekrishna'
'Baidya, Mahiuddin'
_publ_section_title
;
 Copper-Catalyzed 8-Aminoquinoline-Directed Selenylation of Arene and
 Heteroarene C-H Bonds.
;
_journal_issue                   13
_journal_name_full               'Organic letters'
_journal_page_first              3202
_journal_page_last               3205
_journal_paper_doi               10.1021/acs.orglett.6b01420
_journal_volume                  18
_journal_year                    2016
_chemical_formula_sum            'C20 H14 N2 O S Se'
_chemical_formula_weight         409.35
_space_group_crystal_system      monoclinic
_space_group_IT_number           14
_space_group_name_Hall           '-P 2ybc'
_space_group_name_H-M_alt        'P 1 21/c 1'
_symmetry_space_group_name_Hall  '-P 2ybc'
_symmetry_space_group_name_H-M   'P 1 21/c 1'
_atom_sites_solution_hydrogens   mixed
_audit_creation_method           SHELXL-2014/7
_cell_angle_alpha                90
_cell_angle_beta                 91.3074(12)
_cell_angle_gamma                90
_cell_formula_units_Z            4
_cell_length_a                   15.1400(4)
_cell_length_b                   7.9011(2)
_cell_length_c                   14.1502(4)
_cell_measurement_reflns_used    5577
_cell_measurement_temperature    296(2)
_cell_measurement_theta_max      26.56
_cell_measurement_theta_min      2.88
_cell_volume                     1692.24(8)
_computing_cell_refinement       'Bruker SAINT'
_computing_data_collection       'Bruker APEX2'
_computing_data_reduction        'Bruker SAINT'
_computing_molecular_graphics    'Bruker SHELXTL'
_computing_publication_material  'Bruker SHELXTL'
_computing_structure_refinement  'SHELXL-2014/7 (Sheldrick, 2014)'
_computing_structure_solution    'SHELXS-97 (Sheldrick 2008)'
_diffrn_ambient_temperature      296(2)
_diffrn_measured_fraction_theta_full 0.999
_diffrn_measured_fraction_theta_max 0.999
_diffrn_measurement_device_type  'Bruker APEX-II CCD'
_diffrn_measurement_method       '\f and \w scans'
_diffrn_radiation_type           MoK\a
_diffrn_radiation_wavelength     0.71073
_diffrn_reflns_av_R_equivalents  0.0191
_diffrn_reflns_av_unetI/netI     0.0203
_diffrn_reflns_Laue_measured_fraction_full 0.999
_diffrn_reflns_Laue_measured_fraction_max 0.999
_diffrn_reflns_limit_h_max       18
_diffrn_reflns_limit_h_min       -17
_diffrn_reflns_limit_k_max       9
_diffrn_reflns_limit_k_min       -7
_diffrn_reflns_limit_l_max       16
_diffrn_reflns_limit_l_min       -14
_diffrn_reflns_number            10614
_diffrn_reflns_point_group_measured_fraction_full 0.999
_diffrn_reflns_point_group_measured_fraction_max 0.999
_diffrn_reflns_theta_full        24.999
_diffrn_reflns_theta_max         24.999
_diffrn_reflns_theta_min         1.345
_exptl_absorpt_coefficient_mu    2.352
_exptl_absorpt_correction_T_max  0.705
_exptl_absorpt_correction_T_min  0.591
_exptl_absorpt_correction_type   multi-scan
_exptl_absorpt_process_details   'SADABS V2014/5(Bruker AXS.Inc)'
_exptl_crystal_colour            colourless
_exptl_crystal_density_diffrn    1.607
_exptl_crystal_description       Rectangular
_exptl_crystal_F_000             824
_exptl_crystal_size_max          0.250
_exptl_crystal_size_mid          0.220
_exptl_crystal_size_min          0.160
_refine_diff_density_max         0.249
_refine_diff_density_min         -0.344
_refine_diff_density_rms         0.044
_refine_ls_extinction_method     none
_refine_ls_goodness_of_fit_ref   1.025
_refine_ls_hydrogen_treatment    mixed
_refine_ls_matrix_type           full
_refine_ls_number_parameters     230
_refine_ls_number_reflns         2978
_refine_ls_number_restraints     0
_refine_ls_restrained_S_all      1.025
_refine_ls_R_factor_all          0.0345
_refine_ls_R_factor_gt           0.0252
_refine_ls_shift/su_max          0.001
_refine_ls_shift/su_mean         0.000
_refine_ls_structure_factor_coef Fsqd
_refine_ls_weighting_details
'w=1/[\s^2^(Fo^2^)+(0.0275P)^2^+0.6337P] where P=(Fo^2^+2Fc^2^)/3'
_refine_ls_weighting_scheme      calc
_refine_ls_wR_factor_gt          0.0566
_refine_ls_wR_factor_ref         0.0597
_reflns_Friedel_coverage         0.000
_reflns_number_gt                2499
_reflns_number_total             2978
_reflns_threshold_expression     'I > 2\s(I)'
_cod_data_source_file            ol6b01420_si_003.cif
_cod_data_source_block           157
_cod_database_code               1543793
_shelx_shelxl_version_number     2014/7
_shelx_space_group_comment
; 
The symmetry employed for this shelxl refinement is uniquely defined 
by the following loop, which should always be used as a source of 
symmetry information in preference to the above space-group names. 
They are only intended as comments. 
;
_shelx_estimated_absorpt_t_min   0.591
_shelx_estimated_absorpt_t_max   0.705
_shelx_res_file
; 
  
    157.res created by SHELXL-2014/7 
  
TITL 157 in P2(1)/c 
CELL 0.71073  15.14000   7.90110  14.15020  90.0000  91.3074  90.0000 
ZERR    4.00   0.00040   0.00020   0.00040   0.0000   0.0012   0.0000 
LATT 1 
SYMM -X, 0.5+Y, 0.5-Z 
SFAC C  H  N  O  S  Se 
UNIT 80  56  8  4  4  4 
OMIT -3 50 
L.S. 8 
ACTA 
BOND $H 
FMAP 2 
PLAN 5 
CONF 
SIZE 0.16 0.22 0.25 
TEMP 23.000 
WGHT    0.027500    0.633700 
FVAR       0.08716 
MOLE 1 
C1    1    1.134900    0.239757    0.086533    11.00000    0.03801    0.06122 = 
         0.06752    0.00110    0.00606    0.00179 
AFIX  43 
H1    2    1.143759    0.355947    0.091300    11.00000   -1.20000 
AFIX   0 
C2    1    1.201968    0.141822    0.048103    11.00000    0.02974    0.08143 = 
         0.06480    0.00525    0.00797    0.00579 
AFIX  43 
H2    2    1.252722    0.193076    0.025822    11.00000   -1.20000 
AFIX   0 
C3    1    1.192466   -0.028008    0.043582    11.00000    0.03315    0.08147 = 
         0.04460   -0.00023    0.00441    0.01815 
AFIX  43 
H3    2    1.237106   -0.094922    0.019306    11.00000   -1.20000 
AFIX   0 
C4    1    1.113920   -0.103175    0.076143    11.00000    0.03519    0.06266 = 
         0.03015    0.00052    0.00000    0.01608 
C5    1    1.097328   -0.278416    0.075081    11.00000    0.04770    0.06196 = 
         0.04870   -0.00285    0.00590    0.02256 
AFIX  43 
H5    2    1.139573   -0.352309    0.052128    11.00000   -1.20000 
AFIX   0 
C6    1    1.019997   -0.340156    0.107382    11.00000    0.05765    0.04911 = 
         0.05540   -0.00086    0.00446    0.01265 
AFIX  43 
H6    2    1.010293   -0.456381    0.106718    11.00000   -1.20000 
AFIX   0 
C7    1    0.954183   -0.232270    0.141846    11.00000    0.04413    0.05243 = 
         0.04961   -0.00029    0.00767    0.00477 
AFIX  43 
H7    2    0.901775   -0.277133    0.164006    11.00000   -1.20000 
AFIX   0 
C8    1    0.967637   -0.061195    0.142603    11.00000    0.03294    0.05174 = 
         0.02902   -0.00357    0.00367    0.00904 
C9    1    1.049025    0.007277    0.110969    11.00000    0.03246    0.05259 = 
         0.02598    0.00024   -0.00068    0.00840 
C10   1    0.821619    0.041220    0.197167    11.00000    0.03473    0.04906 = 
         0.03287   -0.00297    0.00587    0.00192 
C11   1    0.773623    0.200255    0.213751    11.00000    0.03140    0.04262 = 
         0.03535   -0.00108    0.00428   -0.00151 
C12   1    0.697630    0.216934    0.264235    11.00000    0.03053    0.04193 = 
         0.03445   -0.00219    0.00264   -0.00230 
C13   1    0.668468    0.387160    0.268456    11.00000    0.03571    0.04320 = 
         0.04615   -0.00482    0.00734    0.00393 
AFIX  43 
H13   2    0.617870    0.420873    0.299407    11.00000   -1.20000 
AFIX   0 
C14   1    0.721731    0.495028    0.222929    11.00000    0.04732    0.04085 = 
         0.05292   -0.00173    0.00312    0.00329 
AFIX  43 
H14   2    0.712286    0.611186    0.219420    11.00000   -1.20000 
AFIX   0 
C15   1    0.564011    0.152411    0.403391    11.00000    0.03134    0.04120 = 
         0.04330    0.00101    0.00968   -0.00404 
C16   1    0.585194    0.172085    0.497960    11.00000    0.03667    0.05381 = 
         0.04952    0.00746    0.00053   -0.00320 
AFIX  43 
H16   2    0.638723    0.131258    0.522101    11.00000   -1.20000 
AFIX   0 
C17   1    0.527131    0.252243    0.556897    11.00000    0.05818    0.06661 = 
         0.03861   -0.00367    0.00720   -0.01048 
AFIX  43 
H17   2    0.541416    0.264365    0.620809    11.00000   -1.20000 
AFIX   0 
C18   1    0.448426    0.314136    0.521633    11.00000    0.04362    0.05713 = 
         0.05675   -0.01331    0.01935   -0.00348 
AFIX  43 
H18   2    0.409562    0.368533    0.561534    11.00000   -1.20000 
AFIX   0 
C19   1    0.427110    0.295773    0.427618    11.00000    0.03207    0.06094 = 
         0.06256   -0.00230    0.00713    0.00354 
AFIX  43 
H19   2    0.373920    0.338631    0.403742    11.00000   -1.20000 
AFIX   0 
C20   1    0.483942    0.214284    0.368303    11.00000    0.03839    0.05967 = 
         0.04005   -0.00270    0.00281   -0.00192 
AFIX  43 
H20   2    0.468732    0.200641    0.304711    11.00000   -1.20000 
AFIX   0 
N1    3    1.059795    0.177315    0.116448    11.00000    0.03219    0.05700 = 
         0.04880   -0.00204    0.00457    0.00571 
N2    3    0.906915    0.060476    0.171547    11.00000    0.03377    0.04666 = 
         0.04799   -0.00802    0.01055    0.00151 
O1    4    0.785182   -0.095206    0.206907    11.00000    0.04490    0.04472 = 
         0.06773    0.00159    0.01968    0.00198 
S1    5    0.808206    0.394628    0.172605    11.00000    0.04184    0.04853 = 
         0.05261    0.00347    0.01298   -0.00345 
SE1   6    0.642358    0.029089    0.323249    11.00000    0.04493    0.04160 = 
         0.06332   -0.00012    0.02267    0.00058 
H1N   2    0.926118    0.158480    0.171947    11.00000    0.04042 
HKLF 4 
  
REM  157 in P2(1)/c 
REM R1 =  0.0252 for    2499 Fo > 4sig(Fo)  and  0.0345 for all    2978 data 
REM    230 parameters refined using      0 restraints 
  
END 
  
WGHT      0.0279      0.6226 
  
REM Highest difference peak  0.249,  deepest hole -0.344,  1-sigma level  0.044 
Q1    1   0.7758  0.4697  0.2033  11.00000  0.05    0.25 
Q2    1   0.7286  0.1920  0.2186  11.00000  0.05    0.19 
Q3    1   0.5656  0.1248  0.4459  11.00000  0.05    0.17 
Q4    1   0.5974  0.0996  0.3751  11.00000  0.05    0.17 
Q5    1   0.5928  0.0537  0.2937  11.00000  0.05    0.16 
;
_shelx_res_checksum              38528
_shelx_hkl_file
; 
   0   0   1   -0.01    0.01 
   0   0  -2   64.90    1.05 
   0   0   2   64.84    1.05 
   0   0   3   -0.01    0.02 
   0   0  -3    0.00    0.02 
   0   0   4   42.71    0.71 
   0   0  -4   41.50    0.71 
   0   0  -5    0.04    0.04 
   0   0   5    0.00    0.04 
   0   0  -6   27.95    0.51 
   0   0   6   28.82    0.51 
   0   0   7   -0.04    0.05 
   0   0  -7   -0.05    0.05 
   0   0  -8   41.62    0.75 
   0   0   8   42.25    0.75 
   0   0   9   -0.06    0.07 
   0   0  10    1.40    0.12 
   0   0  11   -0.09    0.09 
   0   0  12    5.15    0.24 
   0   0  13   -0.11    0.11 
   0   0  14    3.11    0.24 
   0   0  15    0.09    0.14 
   0   0  16    0.29    0.15 
   0   0  17    0.02    0.16 
   0   1   0    0.01    0.01 
   0   1   0    0.00    0.01 
   0  -1   0    0.00    0.01 
   0  -1   0   -0.01    0.01 
   0   1  -1    1.37    0.04 
   0   1   1    1.38    0.04 
   0   1  -1    1.31    0.04 
   0   1   1    1.34    0.04 
   0  -1  -1    1.35    0.04 
   0  -1   1    1.37    0.03 
   0  -1  -1    1.46    0.04 
   0  -1   1    1.38    0.03 
   0   1   2   12.77    0.23 
   0   1   2   12.45    0.23 
   0   1  -2   12.96    0.22 
   0   1  -2   12.88    0.22 
   0  -1  -2   12.32    0.23 
   0  -1  -2   12.21    0.22 
   0  -1   2   12.87    0.22 
   0  -1   2   12.84    0.22 
   0   1  -3   74.49    1.22 
   0   1   3   73.73    1.23 
   0  -1  -3   77.10    1.23 
   0  -1  -3   72.57    1.22 
   0  -1   3   75.85    1.22 
   0  -1   3   75.22    1.22 
   0   1   4    0.06    0.03 
   0   1  -4    0.15    0.03 
   0  -1  -4    0.18    0.04 
   0  -1   4    0.15    0.03 
   0  -1  -4    0.14    0.03 
   0   1   5   32.21    0.57 
   0   1  -5   31.82    0.56 
   0  -1  -5   32.70    0.57 
   0  -1   5   32.68    0.56 
   0  -1  -5   32.44    0.57 
   0   1   6    4.82    0.15 
   0   1  -6    5.02    0.14 
   0  -1  -6    4.99    0.15 
   0  -1  -6    4.84    0.14 
   0  -1   6    4.94    0.14 
   0   1   7    5.18    0.17 
   0   1  -7    5.12    0.15 
   0  -1   7    5.27    0.15 
   0  -1  -7    5.45    0.16 
   0   1   8    5.58    0.19 
   0   1  -8    5.38    0.17 
   0  -1   8    5.75    0.18 
   0   1   9   18.22    0.39 
   0   1  -9   16.85    0.37 
   0  -1   9   16.98    0.37 
   0   1  10    0.16    0.09 
   0  -1  10    0.00    0.08 
   0   1  11   21.47    0.47 
   0  -1  11   20.92    0.46 
   0   1  12    1.31    0.14 
   0  -1  12    1.40    0.13 
   0   1  13   -0.10    0.11 
   0  -1  13   -0.03    0.11 
   0   1  14    0.15    0.13 
   0  -1  14    0.33    0.13 
   0   1  15    2.54    0.21 
   0  -1  15    2.10    0.18 
   0   1  16    0.15    0.16 
   0  -1  16    0.45    0.15 
   0   1  17    1.53    0.20 
   0  -1  17    1.88    0.21 
   0   2   0   12.09    0.21 
   0   2   0   12.34    0.21 
   0   2   0   12.44    0.21 
   0  -2   0   12.38    0.21 
   0   2  -1    2.35    0.06 
   0   2  -1    2.37    0.06 
   0   2   1    2.27    0.06 
   0   2   1    2.28    0.06 
   0   2   1    2.30    0.06 
   0  -2  -1    2.40    0.06 
   0  -2  -1    2.39    0.06 
   0  -2   1    2.40    0.05 
   0  -2  -1    2.40    0.06 
   0   2   2  127.03    2.06 
   0   2  -2  128.11    2.06 
   0   2   2  130.35    2.06 
   0   2  -2  123.20    2.06 
   0  -2  -2  127.22    2.06 
   0  -2  -2  128.61    2.06 
   0  -2   2  126.66    2.07 
   0  -2  -2  129.33    2.06 
   0   2  -3   13.62    0.25 
   0   2   3   13.55    0.26 
   0   2  -3   13.61    0.25 
   0   2   3   13.67    0.26 
   0  -2  -3   12.92    0.25 
   0  -2   3   13.74    0.24 
   0  -2  -3   13.28    0.25 
   0  -2   3   13.78    0.24 
   0   2  -4    0.54    0.04 
   0   2  -4    0.68    0.05 
   0   2   4    0.70    0.06 
   0   2   4    0.52    0.05 
   0  -2   4    0.61    0.04 
   0  -2   4    0.58    0.04 
   0  -2  -4    0.67    0.05 
   0  -2  -4    0.59    0.05 
   0   2  -5    0.34    0.05 
   0   2   5    0.25    0.05 
   0  -2   5    0.33    0.04 
   0  -2  -5    0.33    0.05 
   0  -2   5    0.31    0.04 
   0  -2  -5    0.25    0.04 
   0   2  -6   81.79    1.38 
   0   2   6   83.85    1.39 
   0  -2   6   81.53    1.37 
   0  -2  -6   84.35    1.39 
   0  -2  -6   83.03    1.39 
   0  -2   6   83.42    1.37 
   0   2   7    0.25    0.07 
   0   2  -7    0.27    0.06 
   0  -2   7    0.33    0.06 
   0   2   8   31.34    0.59 
   0   2  -8   30.14    0.57 
   0  -2   8   31.05    0.57 
   0   2  -9    0.07    0.07 
   0   2   9    0.03    0.09 
   0  -2   9    0.06    0.07 
   0   2  10    0.69    0.12 
   0   2 -10    0.70    0.10 
   0  -2  10    0.57    0.09 
   0   2  11    2.67    0.20 
   0  -2  11    2.95    0.17 
   0   2  12    1.62    0.15 
   0  -2  12    2.06    0.15 
   0   2  13    0.48    0.14 
   0  -2  13    0.28    0.11 
   0   2  14    6.72    0.31 
   0  -2  14    6.82    0.27 
   0   2  15    0.48    0.16 
   0  -2  15    0.22    0.13 
   0   2  16    0.05    0.16 
   0  -2  16   -0.05    0.14 
   0   2  17    0.09    0.18 
   0   3   0    0.03    0.02 
   0   3   0    0.00    0.03 
   0   3   0    0.01    0.02 
   0  -3   0    0.00    0.02 
   0  -3   0   -0.02    0.01 
   0   3  -1    1.77    0.06 
   0   3   1    1.62    0.06 
   0   3   1    1.58    0.06 
   0   3  -1    1.68    0.06 
   0   3   1    1.59    0.06 
   0  -3  -1    1.57    0.05 
   0  -3   1    1.62    0.04 
   0  -3   1    1.64    0.04 
   0  -3  -1    1.46    0.05 
   0   3  -2    2.90    0.08 
   0   3   2    2.76    0.08 
   0   3  -2    2.87    0.08 
   0   3   2    2.69    0.09 
   0  -3  -2    2.78    0.08 
   0  -3  -2    2.97    0.08 
   0  -3   2    2.86    0.06 
   0  -3  -2    2.73    0.08 
   0  -3   2    2.96    0.06 
   0   3   3   19.46    0.36 
   0   3   3   19.58    0.37 
   0   3  -3   19.40    0.35 
   0   3  -3   19.54    0.35 
   0  -3  -3   19.86    0.36 
   0  -3   3   19.81    0.34 
   0  -3  -3   19.87    0.36 
   0  -3  -3   20.29    0.36 
   0   3  -4    0.26    0.04 
   0   3   4    0.35    0.06 
   0   3   4    0.27    0.05 
   0   3  -4    0.32    0.04 
   0  -3   4    0.42    0.04 
   0  -3   4    0.33    0.03 
   0  -3  -4    0.27    0.04 
   0  -3  -4    0.30    0.05 
   0   3   5   24.11    0.45 
   0   3  -5   24.50    0.44 
   0   3  -5   23.75    0.44 
   0   3   5   24.58    0.46 
   0  -3  -5   24.01    0.45 
   0  -3   5   24.52    0.43 
   0  -3   5   24.35    0.43 
   0  -3  -5   25.14    0.45 
   0   3  -6    5.81    0.16 
   0   3   6    6.17    0.19 
   0  -3   6    5.77    0.14 
   0  -3   6    5.92    0.15 
   0   3   7    2.47    0.15 
   0   3  -7    2.47    0.12 
   0  -3   7    2.37    0.11 
   0   3   8    2.28    0.14 
   0   3  -8    1.88    0.12 
   0  -3   8    2.17    0.12 
   0   3   9    6.15    0.23 
   0   3  -9    6.27    0.20 
   0  -3   9    5.92    0.18 
   0   3  10   -0.05    0.10 
   0   3 -10    0.25    0.08 
   0  -3  10    0.05    0.07 
   0   3  11    0.62    0.13 
   0  -3  11    0.58    0.09 
   0   3  12   -0.10    0.13 
   0  -3  12   -0.06    0.09 
   0   3  13    0.03    0.14 
   0  -3  13   -0.04    0.10 
   0   3  14   -0.17    0.13 
   0  -3  14   -0.03    0.10 
   0   3  15    0.29    0.17 
   0   3  16   -0.17    0.16 
   0   3  17    0.11    0.18 
   0   4   0   21.12    0.37 
   0   4   0   20.62    0.37 
   0   4   0   20.58    0.37 
   0  -4   0   21.20    0.35 
   0  -4   0   20.94    0.35 
   0   4   1    1.15    0.07 
   0   4  -1    1.16    0.06 
   0   4  -1    1.13    0.07 
   0   4   1    1.19    0.07 
   0   4   1    0.99    0.06 
   0  -4  -1    1.10    0.05 
   0   4   2    4.49    0.12 
   0   4   2    4.34    0.13 
   0   4  -2    4.38    0.11 
   0   4  -2    4.60    0.12 
   0  -4  -2    4.42    0.11 
   0  -4  -2    4.41    0.11 
   0   4  -3    5.16    0.13 
   0   4   3    5.38    0.15 
   0   4  -3    5.28    0.13 
   0   4   3    5.52    0.14 
   0  -4   3    5.25    0.10 
   0  -4  -3    5.53    0.13 
   0  -4   3    5.40    0.10 
   0  -4  -3    5.42    0.14 
   0  -4  -3    5.45    0.14 
   0   4  -4    2.27    0.09 
   0   4  -4    2.33    0.10 
   0   4   4    1.97    0.11 
   0   4   4    2.12    0.12 
   0  -4  -4    2.21    0.10 
   0  -4  -4    2.18    0.10 
   0  -4   4    2.38    0.07 
   0  -4  -4    2.11    0.10 
   0  -4   4    2.34    0.06 
   0   4   5   12.04    0.28 
   0   4   5   11.68    0.27 
   0   4  -5   11.93    0.25 
   0   4  -5   12.00    0.25 
   0  -4  -5   11.84    0.26 
   0  -4   5   11.63    0.22 
   0  -4  -5   12.03    0.26 
   0  -4   5   12.07    0.22 
   0   4   6    2.05    0.14 
   0   4  -6    1.85    0.10 
   0   4  -6    2.06    0.12 
   0  -4   6    1.98    0.08 
   0   4  -7   13.64    0.30 
   0   4   7   13.47    0.33 
   0  -4   7   13.85    0.27 
   0   4  -8    2.44    0.14 
   0   4   8    2.33    0.17 
   0  -4   8    2.66    0.11 
   0   4  -9    3.95    0.17 
   0   4   9    4.05    0.21 
   0  -4   9    3.90    0.14 
   0   4  10    0.18    0.12 
   0   4 -10    0.08    0.08 
   0  -4  10    0.14    0.07 
   0   4  11    1.39    0.16 
   0  -4  11    1.30    0.11 
   0   4  12    0.04    0.13 
   0  -4  12   -0.04    0.08 
   0   4  13    1.55    0.20 
   0   4  14    0.02    0.17 
   0   4  15    0.74    0.20 
   0   4  16    0.20    0.18 
   0   5   0    0.03    0.04 
   0   5   0    0.00    0.05 
   0   5   0    0.01    0.04 
   0   5   1    0.16    0.04 
   0   5  -1    0.13    0.04 
   0   5   1    0.25    0.05 
   0   5  -1    0.21    0.04 
   0   5   1    0.23    0.06 
   0   5  -1    0.18    0.05 
   0  -5  -1    0.20    0.03 
   0  -5  -1    0.16    0.03 
   0   5  -2   12.15    0.24 
   0   5   2   11.35    0.25 
   0   5  -2   11.71    0.23 
   0   5   2   11.73    0.24 
   0  -5  -2   10.67    0.22 
   0  -5  -2   11.64    0.22 
   0   5   3    4.79    0.16 
   0   5   3    4.85    0.15 
   0   5  -3    4.91    0.13 
   0   5  -3    4.71    0.14 
   0  -5  -3    4.94    0.13 
   0   5   4   14.38    0.30 
   0   5  -4   14.42    0.29 
   0   5  -4   14.29    0.29 
   0   5   4   14.50    0.32 
   0  -5  -4   14.49    0.29 
   0  -5  -4   14.65    0.30 
   0   5   5    5.33    0.19 
   0   5   5    4.93    0.17 
   0   5  -5    4.61    0.14 
   0   5  -5    4.89    0.16 
   0  -5  -5    4.95    0.16 
   0   5  -6    0.60    0.08 
   0   5   6    0.54    0.09 
   0   5  -6    0.63    0.07 
   0  -5  -6    0.52    0.08 
   0  -5   6    0.62    0.05 
   0  -5   6    0.60    0.04 
   0   5  -7    1.07    0.09 
   0   5   7    1.09    0.12 
   0   5  -7    1.07    0.10 
   0  -5   7    1.07    0.07 
   0  -5  -7    1.04    0.10 
   0   5  -8    8.55    0.23 
   0   5   8    8.29    0.28 
   0  -5  -8    8.57    0.25 
   0  -5   8    8.05    0.18 
   0   5  -9    0.08    0.09 
   0   5   9    0.15    0.12 
   0  -5   9    0.03    0.04 
   0   5  10    1.26    0.16 
   0   5  11    0.02    0.13 
   0   5  12    0.08    0.14 
   0   5  13    0.80    0.18 
   0   5  14   -0.11    0.17 
   0   5  15    0.24    0.20 
   0   6   0    1.19    0.09 
   0   6   0    1.31    0.09 
   0   6   0    1.41    0.09 
   0   6   1   43.86    0.77 
   0   6  -1   44.25    0.75 
   0   6  -1   44.49    0.77 
   0   6   1   43.54    0.77 
   0   6  -1   43.92    0.76 
   0   6   1   44.29    0.75 
   0   6  -2    0.35    0.06 
   0   6   2    0.44    0.06 
   0   6  -2    0.43    0.07 
   0   6  -2    0.39    0.07 
   0   6   2    0.59    0.08 
   0  -6  -2    0.54    0.04 
   0  -6  -2    0.64    0.04 
   0   6  -3    4.49    0.15 
   0   6   3    4.54    0.17 
   0   6   3    4.24    0.15 
   0   6  -3    4.27    0.14 
   0  -6  -3    4.36    0.12 
   0   6   4    0.03    0.08 
   0   6  -4    0.00    0.05 
   0   6  -4    0.02    0.06 
   0   6   4    0.07    0.07 
   0  -6  -4   -0.01    0.04 
   0   6   5    6.39    0.20 
   0   6  -5    6.38    0.19 
   0   6  -5    6.18    0.18 
   0   6   5    6.23    0.22 
   0  -6  -5    6.16    0.18 
   0   6  -6    0.14    0.08 
   0   6   6    0.23    0.10 
   0   6  -6    0.17    0.06 
   0  -6  -6    0.20    0.07 
   0   6   7   11.40    0.33 
   0   6  -7   11.50    0.29 
   0  -6  -7   10.79    0.28 
   0   6   8    0.42    0.12 
   0  -6  -8    0.56    0.10 
   0   6   9    3.54    0.24 
   0  -6  -9    3.53    0.19 
   0   6  10    1.82    0.18 
   0  -6 -10    1.86    0.15 
   0   6  11    0.30    0.15 
   0  -6 -11    0.39    0.13 
   0   6  12   -0.16    0.15 
   0   6  13    2.17    0.23 
   0   6  14    0.56    0.19 
   0   7   0    0.04    0.06 
   0   7   0   -0.03    0.07 
   0   7   0   -0.05    0.05 
   0   7  -1    1.21    0.09 
   0   7   1    1.38    0.10 
   0   7  -1    1.35    0.10 
   0   7  -1    1.18    0.10 
   0   7   1    1.34    0.08 
   0   7   1    1.35    0.11 
   0   7  -2    8.62    0.20 
   0   7   2    8.62    0.21 
   0   7   2    8.79    0.25 
   0   7  -2    8.77    0.22 
   0   7  -2    9.03    0.23 
   0   7  -3    2.69    0.11 
   0   7   3    2.77    0.14 
   0   7   3    2.73    0.17 
   0   7  -3    2.49    0.14 
   0   7  -3    2.65    0.18 
   0   7  -4    6.02    0.20 
   0   7   4    6.42    0.23 
   0   7   4    6.15    0.19 
   0   7   5    1.04    0.12 
   0   7  -5    0.99    0.10 
   0   7   6    0.21    0.11 
   0   7  -6    0.26    0.09 
   0   7   7   -0.08    0.11 
   0   7  -7    0.00    0.09 
   0   7  -8    4.56    0.22 
   0   7   8    4.21    0.26 
   0   7   9    0.20    0.15 
   0   7  10    7.16    0.33 
   0   7  11    0.28    0.17 
   0   7  12    0.56    0.19 
   0   8   0    0.52    0.10 
   0   8   0    0.35    0.09 
   0   8   1   12.35    0.27 
   0   8  -1   12.96    0.31 
   0   8   1   12.32    0.32 
   0   8   2    0.17    0.07 
   0   8   2    0.36    0.10 
   0   8  -2    0.22    0.09 
   0   8   3   -0.05    0.07 
   0   8   3    0.03    0.10 
   0   8  -3    0.04    0.09 
   0   8   4   -0.05    0.10 
   0   8  -4   -0.07    0.08 
   0   8   5    4.60    0.24 
   0   8  -5    4.69    0.20 
   0   8   6    0.13    0.13 
   0   8  -6    0.06    0.09 
   0   8  -7    5.65    0.23 
   0   8   7    5.50    0.28 
   0   8   8    0.19    0.14 
   0   8  -8    0.45    0.12 
   0   8   9    2.19    0.21 
   0   8  10   -0.03    0.16 
   0   9   0    0.04    0.10 
   0   9  -1   -0.03    0.10 
   0   9   1   -0.14    0.10 
   0   9  -2    2.65    0.19 
   0   9   2    2.73    0.21 
   0   9  -3    0.68    0.11 
   0   9   3    0.84    0.14 
   0   9  -4    3.42    0.20 
   0   9   4    4.05    0.25 
   0   9   5    0.49    0.14 
   0   9  -5    0.32    0.11 
   0   9   6    0.17    0.14 
   0   9  -6    0.14    0.11 
   0   9  -7    0.09    0.11 
   0   9   7    0.09    0.15 
   0  10   0    0.09    0.12 
  -1   0  17   -0.01    0.16 
  -1   0  16    2.39    0.21 
  -1   0  15   -0.04    0.14 
  -1   0  14    1.52    0.17 
  -1   0  13    0.04    0.11 
  -1   0  12    0.07    0.10 
  -1   0  11    0.02    0.09 
  -1   0  10    2.78    0.16 
  -1   0   9   -0.05    0.07 
   1   0  -8   11.20    0.26 
  -1   0   8   11.18    0.27 
  -1   0   7    0.02    0.05 
   1   0  -7   -0.02    0.04 
   1   0  -6   10.72    0.23 
  -1   0   6   10.31    0.23 
   1   0  -5   -0.01    0.03 
  -1   0   5    0.00    0.04 
   1   0  -4    0.34    0.04 
  -1   0   4    0.26    0.04 
  -1   0   3   -0.02    0.02 
   1   0  -3    0.00    0.02 
  -1   0   2   18.83    0.32 
   1   0  -2   19.03    0.32 
   1   0  -1    0.01    0.01 
  -1   0   1    0.00    0.01 
  -1   0   0    0.57    0.02 
   1   0   1   -0.01    0.02 
   1   0   1   -0.01    0.02 
  -1   0  -2   18.68    0.34 
   1   0   2   18.89    0.34 
  -1   0  -2   18.08    0.34 
   1   0   2   19.02    0.34 
   1   0   3    0.03    0.02 
  -1   0  -3    0.11    0.02 
   1   0   3    0.00    0.02 
  -1   0  -3   -0.01    0.02 
  -1   0  -4  257.77    4.12 
   1   0   4  256.02    4.19 
  -1   0  -4  252.42    4.11 
  -1   0  -5   -0.01    0.04 
   1   0   5    0.02    0.04 
  -1   0  -5    0.10    0.04 
   1   0   6   10.06    0.23 
  -1   0  -6    9.96    0.22 
  -1   0  -6   10.18    0.22 
  -1   0  -7    0.03    0.05 
   1   0   7    0.02    0.05 
  -1   0  -8    0.22    0.07 
   1   0   8    0.06    0.07 
   1   0   9   -0.05    0.07 
   1   0  10    1.80    0.13 
   1   0  11    0.13    0.11 
   1   0  12    3.51    0.21 
   1   0  13    0.06    0.12 
   1   0  14    0.00    0.13 
   1   0  15   -0.10    0.14 
   1   0  16    0.32    0.16 
   1   0  17    0.05    0.16 
  -1   1  17   -0.03    0.16 
  -1  -1  17    0.01    0.14 
  -1   1  16    0.44    0.17 
  -1  -1  16    0.50    0.15 
  -1   1  15    0.07    0.13 
  -1  -1  15    0.00    0.13 
  -1   1  14    0.10    0.13 
  -1  -1  14    0.08    0.12 
  -1   1  13    2.55    0.18 
  -1  -1  13    2.68    0.18 
  -1   1  12    5.78    0.25 
  -1  -1  12    5.57    0.22 
  -1   1  11    2.52    0.18 
  -1  -1  11    2.45    0.17 
  -1   1  10    0.36    0.10 
  -1  -1  10    0.31    0.09 
  -1   1   9    1.96    0.15 
   1   1  -9    1.80    0.13 
  -1  -1   9    2.02    0.13 
  -1   1   8    6.32    0.20 
   1   1  -8    6.43    0.18 
  -1  -1   8    6.26    0.18 
   1   1  -7    7.72    0.19 
  -1   1   7    7.72    0.21 
  -1  -1   7    8.20    0.20 
   1  -1  -7    7.75    0.20 
   1   1  -6    0.63    0.06 
  -1   1   6    0.58    0.07 
  -1  -1   6    0.63    0.06 
   1  -1  -6    0.59    0.06 
  -1   1   5   76.13    1.27 
   1   1  -5   74.87    1.26 
   1  -1  -5   76.83    1.27 
  -1  -1   5   76.78    1.26 
  -1   1   4    2.26    0.08 
   1   1  -4    2.12    0.07 
   1  -1  -4    2.12    0.08 
  -1  -1   4    2.15    0.07 
   1   1  -3   29.46    0.49 
  -1   1   3   29.49    0.50 
  -1  -1   3   29.57    0.49 
   1  -1  -3   28.50    0.50 
   1   1  -2    9.13    0.16 
  -1   1   2    8.95    0.17 
  -1  -1   2    8.82    0.16 
   1  -1  -2    9.19    0.17 
  -1  -1   2    9.16    0.16 
  -1   1   1    6.57    0.13 
  -1   1   1    6.86    0.13 
   1  -1  -1    6.61    0.13 
   1  -1  -1    6.77    0.13 
  -1   1   0   44.35    0.72 
  -1   1   0   44.27    0.72 
   1  -1   0   44.25    0.72 
   1  -1   0   44.58    0.72 
  -1   1  -1  165.57    2.66 
   1   1   1  168.90    2.70 
  -1   1  -1  156.89    2.69 
   1   1   1  167.01    2.69 
  -1   1  -1  161.73    2.66 
  -1  -1  -1  167.93    2.67 
   1  -1   1  161.89    2.69 
   1  -1   1  161.61    2.67 
  -1  -1  -1  167.51    2.68 
   1   1   2   74.07    1.20 
  -1   1  -2   73.44    1.20 
   1   1   2   76.22    1.20 
  -1   1  -2   71.84    1.20 
  -1  -1  -2   73.46    1.20 
  -1  -1  -2   72.99    1.20 
   1  -1   2   74.69    1.20 
   1  -1   2   74.07    1.20 
   1   1   3  150.81    2.50 
   1   1   3  157.10    2.50 
  -1   1  -3  153.12    2.50 
  -1   1  -3  157.57    2.50 
  -1  -1  -3  160.49    2.50 
  -1  -1  -3  154.61    2.50 
   1  -1   3  152.76    2.50 
   1  -1   3  155.00    2.50 
   1   1   4   34.59    0.60 
  -1   1  -4   34.65    0.59 
   1   1   4   34.16    0.59 
  -1  -1  -4   34.28    0.60 
   1  -1   4   34.35    0.59 
  -1  -1  -4   34.14    0.59 
   1  -1   4   35.82    0.59 
   1   1   5    8.48    0.20 
  -1   1  -5    8.74    0.19 
  -1  -1  -5    8.58    0.20 
  -1  -1  -5    8.64    0.19 
   1  -1   5    8.59    0.19 
   1  -1   5    8.93    0.19 
  -1   1  -6    6.99    0.17 
  -1   1  -6    7.00    0.17 
   1   1   6    7.04    0.18 
  -1  -1  -6    7.01    0.17 
   1  -1   6    6.84    0.17 
   1  -1   6    6.99    0.18 
  -1   1  -7   19.82    0.39 
  -1   1  -7   21.06    0.43 
   1   1   7   20.32    0.40 
  -1  -1  -7   20.20    0.40 
   1  -1   7   20.01    0.39 
  -1   1  -8    0.03    0.06 
   1   1   8   -0.02    0.07 
   1  -1   8   -0.04    0.06 
  -1   1  -9   21.45    0.45 
   1   1   9   20.44    0.44 
   1  -1   9   20.98    0.43 
   1   1  10    0.30    0.10 
   1  -1  10    0.20    0.08 
   1   1  11    3.03    0.20 
   1  -1  11    3.06    0.18 
   1   1  12    0.38    0.12 
   1  -1  12    0.26    0.11 
   1   1  13    0.07    0.13 
   1  -1  13   -0.01    0.11 
   1   1  14    0.41    0.14 
   1  -1  14    0.49    0.14 
   1   1  15    0.30    0.15 
   1  -1  15    0.20    0.14 
   1   1  16    0.77    0.18 
   1  -1  16    0.34    0.15 
   1   1  17    0.76    0.19 
   1  -1  17    0.50    0.17 
  -1   2  17    0.88    0.19 
  -1   2  16    0.25    0.17 
  -1   2  15    0.17    0.16 
  -1  -2  15    0.21    0.12 
  -1   2  14    0.27    0.14 
  -1  -2  14    0.21    0.12 
  -1   2  13   -0.03    0.12 
  -1  -2  13    0.01    0.10 
  -1   2  12    0.04    0.11 
  -1  -2  12   -0.02    0.09 
  -1   2  11    1.29    0.14 
  -1  -2  11    1.32    0.11 
   1   2 -10    7.72    0.23 
  -1   2  10    7.86    0.26 
  -1  -2  10    8.08    0.23 
  -1   2   9    5.70    0.21 
   1   2  -9    5.34    0.18 
  -1  -2   9    5.64    0.18 
   1   2  -8   28.78    0.54 
  -1   2   8   29.11    0.56 
  -1  -2   8   29.41    0.54 
  -1   2   7   13.62    0.31 
   1   2  -7   13.17    0.28 
  -1  -2   7   14.03    0.30 
  -1  -2   7   13.55    0.28 
  -1   2   6    3.19    0.13 
   1   2  -6    3.06    0.11 
   1  -2  -6    3.21    0.12 
  -1  -2   6    3.08    0.10 
   1  -2  -6    3.20    0.12 
  -1  -2   6    2.99    0.10 
   1   2  -5    1.30    0.07 
  -1   2   5    1.17    0.09 
   1  -2  -5    1.35    0.08 
   1  -2  -5    1.43    0.08 
  -1  -2   5    1.33    0.07 
  -1  -2   5    1.20    0.06 
  -1   2   4    2.11    0.09 
   1   2  -4    2.09    0.07 
  -1  -2   4    1.99    0.06 
  -1  -2   4    1.93    0.06 
   1  -2  -4    1.93    0.08 
   1  -2  -4    2.00    0.08 
   1   2  -3   20.00    0.34 
  -1   2   3   19.99    0.36 
   1   2  -3   19.98    0.34 
   1  -2  -3   19.27    0.36 
   1  -2  -3   20.23    0.35 
  -1  -2   3   20.21    0.33 
   1   2  -2   62.81    0.99 
  -1   2   2   60.79    1.02 
   1   2  -2   61.50    0.99 
   1  -2  -2   61.26    1.01 
   1  -2  -2   62.69    1.01 
   1  -2  -2   60.85    1.02 
  -1   2   1   63.01    1.03 
  -1   2   1   62.95    1.03 
   1   2  -1   63.69    1.01 
   1   2  -1   63.27    1.01 
  -1   2   1   63.73    1.02 
   1  -2  -1   62.44    1.03 
   1  -2  -1   63.44    1.03 
   1  -2  -1   61.94    1.02 
  -1   2   0    0.77    0.04 
   1   2   0    0.72    0.02 
  -1   2   0    0.83    0.02 
  -1   2   0    0.78    0.04 
   1   2   0    0.69    0.03 
   1  -2   0    0.72    0.04 
   1  -2   0    0.83    0.04 
  -1   2  -1   14.47    0.25 
  -1   2  -1   14.03    0.25 
   1   2   1   14.20    0.25 
   1   2   1   13.77    0.24 
   1  -2   1   13.84    0.25 
   1  -2   1   14.08    0.25 
  -1  -2  -1   14.32    0.24 
   1   2   2    4.46    0.11 
  -1   2  -2    4.37    0.10 
   1   2   2    4.52    0.10 
  -1   2  -2    4.45    0.10 
  -1  -2  -2    4.63    0.11 
   1  -2   2    4.38    0.10 
  -1  -2  -2    4.52    0.10 
   1  -2   2    4.25    0.10 
   1   2   3   17.84    0.32 
   1   2   3   17.43    0.32 
  -1   2  -3   17.42    0.31 
  -1   2  -3   17.32    0.31 
  -1  -2  -3   17.06    0.32 
   1  -2   3   17.15    0.31 
  -1  -2  -3   16.83    0.31 
   1  -2   3   17.46    0.31 
   1   2   4   22.35    0.41 
  -1   2  -4   22.15    0.40 
   1   2   4   22.31    0.41 
  -1   2  -4   23.12    0.41 
  -1  -2  -4   22.57    0.41 
   1  -2   4   23.11    0.40 
  -1  -2  -4   23.20    0.41 
   1  -2   4   23.06    0.40 
   1   2   5   18.61    0.35 
   1   2   5   18.19    0.36 
  -1   2  -5   18.23    0.34 
   1  -2   5   18.17    0.34 
  -1  -2  -5   18.41    0.35 
  -1  -2  -5   18.17    0.35 
   1  -2   5   18.53    0.34 
  -1   2  -6    7.93    0.19 
   1   2   6    7.84    0.20 
   1   2   6    8.27    0.21 
  -1  -2  -6    8.02    0.19 
   1  -2   6    7.91    0.19 
   1  -2   6    7.95    0.19 
   1   2   7    1.81    0.13 
  -1   2  -7    1.81    0.11 
   1  -2   7    1.94    0.11 
  -1   2  -8    0.50    0.07 
   1   2   8    0.42    0.09 
   1  -2   8    0.59    0.07 
  -1   2  -9    3.88    0.16 
   1   2   9    3.99    0.19 
   1  -2   9    3.95    0.16 
   1   2  10    2.80    0.19 
   1  -2  10    2.90    0.16 
   1   2  11    5.79    0.25 
   1  -2  11    5.70    0.22 
   1   2  12    5.17    0.25 
   1  -2  12    5.13    0.23 
   1   2  13    1.07    0.16 
   1  -2  13    0.87    0.13 
   1   2  14    0.94    0.16 
   1  -2  14    0.99    0.14 
   1   2  15    0.71    0.17 
   1  -2  15    0.75    0.15 
   1   2  16    0.60    0.18 
   1  -2  16    0.40    0.14 
   1   2  17    0.06    0.17 
  -1   3  17   -0.03    0.18 
  -1   3  16    0.12    0.18 
  -1   3  15    0.01    0.17 
  -1   3  14    1.96    0.20 
  -1  -3  14    1.85    0.20 
  -1   3  13    5.77    0.29 
  -1  -3  13    6.04    0.23 
  -1   3  12    9.79    0.33 
  -1  -3  12    8.94    0.26 
  -1   3  11    7.52    0.28 
   1   3 -11    7.66    0.27 
  -1  -3  11    7.13    0.22 
   1   3 -10    3.93    0.18 
  -1   3  10    4.36    0.22 
  -1  -3  10    4.43    0.17 
  -1   3   9    1.14    0.12 
   1   3  -9    1.27    0.10 
  -1  -3   9    1.31    0.09 
   1   3  -8    1.22    0.09 
  -1   3   8    0.94    0.10 
  -1  -3   8    1.23    0.09 
  -1   3   7   34.39    0.65 
   1   3  -7   35.05    0.62 
  -1  -3   7   34.88    0.61 
   1   3  -6   45.80    0.78 
  -1   3   6   46.05    0.81 
  -1  -3   6   45.60    0.77 
  -1  -3   6   45.03    0.77 
   1  -3  -6   46.08    0.80 
  -1   3   5   61.73    1.08 
   1   3  -5   63.05    1.05 
  -1  -3   5   64.68    1.04 
   1  -3  -5   63.86    1.07 
   1  -3  -5   63.30    1.07 
   1   3  -4   53.48    0.87 
   1   3  -4   52.62    0.87 
  -1   3   4   51.56    0.90 
   1  -3  -4   52.02    0.89 
  -1  -3   4   53.53    0.85 
   1  -3  -4   51.02    0.89 
  -1  -3   4   51.82    0.85 
   1  -3  -4   52.36    0.88 
   1   3  -3   17.93    0.31 
   1   3  -3   18.26    0.31 
  -1   3   3   17.38    0.34 
   1  -3  -3   17.79    0.32 
   1  -3  -3   17.55    0.34 
   1  -3  -3   18.13    0.33 
  -1   3   2    1.39    0.08 
  -1   3   2    1.62    0.06 
   1   3  -2    1.40    0.05 
   1   3  -2    1.39    0.05 
   1  -3  -2    1.59    0.07 
   1  -3  -2    1.49    0.07 
   1  -3  -2    1.54    0.06 
  -1   3   1    1.99    0.07 
  -1   3   1    1.97    0.06 
   1   3  -1    1.84    0.05 
  -1   3   1    1.66    0.07 
   1   3  -1    1.76    0.05 
   1  -3  -1    1.90    0.05 
   1  -3  -1    1.80    0.07 
   1  -3  -1    1.98    0.07 
   1   3   0   54.99    0.90 
  -1   3   0   54.68    0.92 
   1   3   0   55.51    0.91 
  -1   3   0   55.17    0.90 
  -1   3   0   55.17    0.92 
   1   3   0   56.04    0.90 
   1  -3   0   54.87    0.91 
   1  -3   0   56.59    0.91 
   1   3   1   51.05    0.84 
   1   3   1   51.08    0.85 
   1   3   1   51.08    0.84 
  -1   3  -1   51.36    0.85 
  -1   3  -1   51.12    0.85 
   1  -3   1   51.54    0.84 
  -1  -3  -1   51.31    0.83 
  -1  -3  -1   52.10    0.83 
   1  -3   1   50.33    0.84 
   1   3   2   21.19    0.38 
   1   3   2   21.57    0.38 
  -1   3  -2   21.56    0.38 
  -1   3  -2   21.27    0.38 
  -1  -3  -2   21.41    0.37 
   1  -3   2   21.62    0.37 
  -1  -3  -2   22.02    0.38 
  -1  -3  -2   20.30    0.37 
   1  -3   2   21.47    0.37 
  -1   3  -3   20.68    0.37 
   1   3   3   20.03    0.38 
   1   3   3   20.49    0.38 
  -1   3  -3   20.43    0.37 
  -1  -3  -3   20.40    0.36 
   1  -3   3   20.72    0.36 
  -1  -3  -3   20.95    0.38 
  -1  -3  -3   20.37    0.37 
   1  -3   3   20.88    0.36 
   1   3   4    0.48    0.06 
   1   3   4    0.45    0.06 
  -1   3  -4    0.46    0.05 
  -1   3  -4    0.42    0.05 
  -1  -3  -4    0.53    0.06 
  -1  -3  -4    0.59    0.05 
   1  -3   4    0.48    0.04 
   1  -3   4    0.55    0.04 
   1   3   5    3.73    0.14 
  -1   3  -5    3.94    0.13 
  -1   3  -5    3.89    0.12 
   1   3   5    4.14    0.14 
   1  -3   5    3.65    0.11 
  -1  -3  -5    4.59    0.13 
  -1  -3  -5    3.79    0.12 
   1  -3   5    3.97    0.11 
  -1   3  -6    5.54    0.16 
   1   3   6    5.23    0.16 
  -1   3  -6    5.29    0.15 
   1  -3   6    5.13    0.15 
   1  -3   6    5.66    0.17 
   1   3   7   19.71    0.41 
  -1   3  -7   19.90    0.39 
   1  -3   7   19.85    0.38 
  -1   3  -8   24.17    0.48 
   1   3   8   24.52    0.50 
   1  -3   8   24.46    0.47 
   1   3   9   13.86    0.35 
  -1   3  -9   14.54    0.33 
   1  -3   9   14.33    0.32 
   1   3  10    3.37    0.21 
  -1   3 -10    3.21    0.17 
   1  -3  10    3.21    0.16 
   1   3  11    0.12    0.12 
   1  -3  11    0.23    0.09 
   1   3  12    1.05    0.15 
   1  -3  12    1.13    0.12 
   1   3  13    1.06    0.16 
   1  -3  13    1.36    0.14 
   1   3  14    2.25    0.20 
   1  -3  14    2.37    0.17 
   1   3  15    2.79    0.23 
   1   3  16    1.02    0.20 
   1   3  17    0.17    0.18 
  -1   4  16    1.97    0.23 
  -1   4  15    0.47    0.18 
  -1   4  14    1.32    0.20 
  -1   4  13    0.29    0.15 
  -1   4  12    0.76    0.15 
  -1  -4  12    0.80    0.14 
  -1   4  11    0.05    0.12 
  -1  -4  11    0.32    0.07 
  -1   4  10    5.97    0.26 
   1   4 -10    5.85    0.21 
  -1  -4  10    5.73    0.18 
  -1   4   9    9.33    0.29 
   1   4  -9    9.04    0.25 
  -1  -4   9    9.17    0.21 
   1   4  -8   23.80    0.47 
  -1   4   8   24.63    0.51 
  -1   4   7    2.38    0.16 
   1   4  -7    2.30    0.12 
  -1  -4   7    2.63    0.10 
  -1  -4   7    2.40    0.09 
  -1   4   6    2.71    0.15 
   1   4  -6    2.60    0.11 
  -1  -4   6    2.52    0.07 
  -1  -4   6    2.62    0.07 
   1  -4  -6    2.64    0.13 
   1   4  -5    4.50    0.13 
  -1   4   5    4.17    0.16 
   1   4  -5    4.45    0.13 
   1  -4  -5    4.31    0.15 
   1  -4  -5    4.04    0.13 
   1   4  -4   19.36    0.35 
   1   4  -4   19.53    0.35 
  -1   4   4   19.35    0.39 
   1  -4  -4   19.33    0.36 
   1  -4  -4   19.01    0.37 
  -1   4   3   16.19    0.30 
   1   4  -3   15.39    0.29 
   1   4  -3   15.57    0.29 
  -1   4   3   15.50    0.32 
   1  -4  -3   15.70    0.31 
   1  -4  -3   16.17    0.31 
   1  -4  -3   16.07    0.30 
   1   4  -2   41.81    0.70 
   1   4  -2   41.76    0.70 
  -1   4   2   41.80    0.73 
  -1   4   2   42.12    0.71 
  -1   4   2   42.23    0.73 
   1  -4  -2   41.88    0.72 
   1  -4  -2   42.59    0.71 
   1  -4  -2   42.39    0.71 
   1   4  -1    5.47    0.12 
   1   4  -1    5.43    0.12 
  -1   4   1    5.35    0.14 
  -1   4   1    5.47    0.12 
  -1   4   1    5.21    0.14 
   1  -4  -1    5.18    0.13 
   1  -4  -1    5.53    0.13 
  -1   4   0   10.88    0.19 
   1   4   0   10.43    0.20 
  -1   4   0   10.47    0.22 
  -1   4   0   10.49    0.22 
   1   4   0   10.56    0.21 
   1   4   0   10.72    0.20 
   1  -4   0   10.74    0.20 
   1  -4   0   10.70    0.20 
   1   4   1   13.49    0.26 
  -1   4  -1   13.56    0.26 
   1   4   1   13.20    0.25 
   1   4   1   13.13    0.25 
  -1   4  -1   13.83    0.26 
  -1   4  -1   13.65    0.24 
   1  -4   1   13.66    0.25 
  -1   4  -2    4.15    0.12 
   1   4   2    4.17    0.12 
   1   4   2    4.15    0.12 
  -1   4  -2    4.45    0.12 
  -1  -4  -2    4.14    0.09 
   1  -4   2    4.16    0.10 
  -1  -4  -2    4.21    0.10 
   1   4   3   44.82    0.77 
  -1   4  -3   43.54    0.76 
  -1   4  -3   44.36    0.76 
   1   4   3   44.77    0.77 
   1  -4   3   43.52    0.74 
  -1  -4  -3   44.32    0.75 
  -1  -4  -3   44.81    0.74 
  -1  -4  -3   45.53    0.77 
  -1   4  -4   29.02    0.51 
   1   4   4   28.77    0.52 
  -1   4  -4   28.09    0.51 
   1   4   4   28.50    0.52 
  -1  -4  -4   28.36    0.51 
   1  -4   4   28.89    0.49 
  -1  -4  -4   28.68    0.50 
  -1  -4  -4   28.23    0.52 
   1  -4   4   27.76    0.49 
   1   4   5   20.99    0.42 
  -1   4  -5   21.36    0.41 
  -1   4  -5   21.73    0.40 
   1   4   5   21.29    0.42 
  -1  -4  -5   20.71    0.40 
   1  -4   5   21.04    0.38 
   1  -4   5   21.74    0.38 
   1   4   6   11.43    0.28 
  -1   4  -6   11.12    0.25 
  -1   4  -6   11.55    0.26 
   1   4   6   11.20    0.27 
   1  -4   6   11.10    0.23 
  -1   4  -7    0.42    0.08 
   1   4   7    0.41    0.09 
   1   4   7    0.42    0.09 
  -1   4  -7    0.63    0.08 
   1  -4   7    0.46    0.06 
   1   4   8    0.12    0.09 
  -1   4  -8    0.14    0.07 
   1  -4   8    0.17    0.06 
  -1   4  -9    0.10    0.08 
   1   4   9   -0.05    0.10 
   1  -4   9    0.17    0.07 
  -1   4 -10   11.90    0.31 
   1   4  10   11.69    0.34 
   1  -4  10   11.74    0.29 
   1   4  11    3.61    0.24 
   1  -4  11    3.43    0.17 
   1   4  12    4.67    0.27 
   1  -4  12    4.21    0.20 
   1   4  13    0.51    0.16 
   1   4  14    0.21    0.17 
   1   4  15   -0.01    0.17 
   1   4  16    0.05    0.18 
  -1   5  15    0.17    0.19 
  -1   5  14    0.56    0.19 
  -1   5  13    3.96    0.26 
  -1   5  12    3.70    0.25 
  -1   5  11    4.20    0.27 
  -1   5  10    2.06    0.17 
  -1   5   9    1.32    0.15 
   1   5  -9    1.38    0.14 
   1  -5  -9    1.38    0.13 
  -1  -5   9    1.27    0.08 
   1   5  -8    3.68    0.16 
  -1   5   8    3.92    0.22 
  -1  -5   8    3.66    0.09 
   1  -5  -8    4.01    0.18 
   1   5  -7    2.18    0.12 
  -1   5   7    1.99    0.14 
   1  -5  -7    2.28    0.15 
   1   5  -6   12.11    0.26 
  -1   5   6   12.63    0.32 
   1   5  -6   12.57    0.27 
   1  -5  -6   11.86    0.29 
   1   5  -5   11.44    0.24 
   1   5  -5   11.36    0.24 
  -1   5   5   11.24    0.29 
   1  -5  -5   11.61    0.26 
   1  -5  -5   11.34    0.27 
   1   5  -4   10.67    0.22 
  -1   5   4   10.75    0.27 
   1   5  -4   10.82    0.23 
   1  -5  -4   10.60    0.23 
   1  -5  -4   10.50    0.24 
   1   5  -3    8.28    0.18 
   1   5  -3    8.02    0.18 
  -1   5   3    8.26    0.22 
  -1   5   3    8.40    0.19 
   1  -5  -3    8.45    0.19 
   1  -5  -3    8.39    0.19 
  -1   5   2    1.08    0.08 
  -1   5   2    1.01    0.07 
   1   5  -2    0.98    0.07 
   1   5  -2    1.03    0.07 
  -1   5   2    1.17    0.09 
   1  -5  -2    1.02    0.07 
  -1   5   1    9.02    0.22 
  -1   5   1    9.41    0.19 
   1   5  -1    9.27    0.19 
   1   5  -1    9.33    0.20 
   1   5  -1    9.50    0.19 
  -1   5   1    9.37    0.22 
   1  -5  -1    9.59    0.19 
   1   5   0   17.51    0.33 
  -1   5   0   17.78    0.35 
  -1   5   0   17.72    0.31 
   1   5   0   17.67    0.33 
   1   5   0   17.56    0.33 
  -1   5   0   17.39    0.34 
   1  -5   0   17.98    0.32 
   1  -5   0   17.50    0.31 
   1   5   1   28.96    0.51 
  -1   5  -1   28.89    0.49 
   1   5   1   28.25    0.51 
  -1   5  -1   28.78    0.52 
  -1   5  -1   28.66    0.52 
   1   5   1   29.40    0.51 
   1  -5   1   29.27    0.49 
   1  -5   1   28.55    0.49 
  -1   5  -2   11.20    0.24 
  -1   5  -2   10.83    0.24 
   1   5   2   11.24    0.24 
   1   5   2   11.18    0.24 
  -1  -5  -2   11.20    0.19 
  -1  -5  -2   11.26    0.19 
   1  -5   2   11.11    0.21 
   1  -5   2   11.06    0.20 
  -1   5  -3   20.52    0.39 
   1   5   3   20.74    0.40 
   1   5   3   20.27    0.40 
  -1   5  -3   20.18    0.39 
  -1  -5  -3   20.72    0.36 
   1  -5   3   20.46    0.35 
  -1  -5  -3   20.76    0.36 
   1  -5   3   20.42    0.35 
  -1   5  -4    9.08    0.21 
  -1   5  -4    8.94    0.22 
   1   5   4    9.59    0.24 
   1   5   4    9.00    0.23 
   1  -5   4    9.26    0.18 
   1  -5   4    9.14    0.18 
  -1  -5  -4    9.44    0.20 
   1   5   5    0.06    0.07 
  -1   5  -5    0.03    0.05 
  -1   5  -5    0.00    0.06 
   1   5   5    0.04    0.07 
  -1  -5  -5    0.07    0.05 
   1  -5   5    0.07    0.04 
   1  -5   5    0.03    0.04 
  -1   5  -6    1.28    0.10 
   1   5   6    1.32    0.11 
  -1   5  -6    1.51    0.10 
   1   5   6    1.17    0.11 
   1  -5   6    1.24    0.07 
  -1  -5  -6    1.51    0.10 
  -1   5  -7   13.19    0.31 
   1   5   7   12.85    0.32 
  -1   5  -7   12.48    0.29 
   1   5   7   12.90    0.33 
  -1  -5  -7   12.42    0.30 
   1   5   8    8.54    0.27 
  -1   5  -8    7.83    0.23 
  -1  -5  -8    7.99    0.24 
   1  -5   8    8.09    0.20 
   1   5   9    1.74    0.16 
  -1   5  -9    1.68    0.14 
   1  -5   9    1.58    0.10 
   1   5  10    1.64    0.17 
   1  -5  10    1.70    0.11 
   1   5  11    0.85    0.16 
   1   5  12    0.95    0.17 
   1   5  13    0.48    0.17 
   1   5  14    1.29    0.21 
   1   5  15    0.70    0.21 
  -1   6  14    0.08    0.19 
  -1   6  13    0.49    0.20 
  -1   6  12    0.06    0.16 
   1  -6 -12   -0.05    0.16 
  -1   6  11    0.47    0.16 
   1  -6 -11    0.31    0.12 
  -1   6  10    1.97    0.19 
   1  -6 -10    1.78    0.15 
  -1   6   9    0.25    0.13 
   1  -6  -9    0.23    0.10 
  -1   6   8    7.40    0.28 
   1  -6  -8    6.52    0.23 
  -1   6   7    1.59    0.14 
   1   6  -7    2.28    0.15 
   1  -6  -7    1.81    0.13 
  -1   6   6    2.52    0.19 
   1   6  -6    2.43    0.12 
   1   6  -6    2.59    0.14 
   1  -6  -6    2.57    0.15 
  -1   6   5    1.39    0.13 
   1   6  -5    1.32    0.10 
   1   6  -5    1.20    0.09 
   1  -6  -5    1.26    0.10 
   1   6  -4    5.35    0.15 
  -1   6   4    5.32    0.20 
   1   6  -4    5.41    0.16 
   1  -6  -4    5.43    0.16 
  -1   6   3    5.43    0.19 
   1   6  -3    5.18    0.15 
   1   6  -3    5.32    0.15 
   1  -6  -3    5.41    0.15 
   1   6  -2   10.58    0.22 
  -1   6   2   10.59    0.26 
   1   6  -2   10.83    0.23 
   1   6  -2   10.57    0.23 
  -1   6   2   10.42    0.22 
   1  -6  -2    8.45    0.20 
  -1   6   1    6.09    0.14 
   1   6  -1    5.98    0.16 
   1   6  -1    5.87    0.16 
  -1   6   1    5.84    0.18 
   1   6  -1    6.03    0.16 
  -1   6   1    6.13    0.19 
   1  -6  -1    5.98    0.14 
  -1   6   0    5.32    0.18 
   1   6   0    5.21    0.16 
   1   6   0    5.57    0.15 
  -1   6   0    5.21    0.17 
   1   6   0    5.28    0.16 
  -1   6   0    5.76    0.13 
   1  -6   0    5.28    0.11 
   1  -6   0    5.39    0.12 
  -1   6  -1    0.57    0.07 
   1   6   1    0.79    0.07 
   1   6   1    0.70    0.07 
  -1   6  -1    0.81    0.08 
   1   6   1    0.83    0.08 
  -1   6  -1    0.75    0.05 
  -1   6  -2    3.36    0.13 
   1   6   2    3.82    0.14 
  -1   6  -2    3.27    0.15 
   1   6   2    3.40    0.14 
  -1   6  -2    3.33    0.10 
   1   6   3    0.26    0.07 
   1   6   3    0.20    0.07 
  -1   6  -3    0.19    0.06 
  -1   6  -3    0.16    0.07 
  -1  -6  -3    0.18    0.03 
  -1  -6  -3    0.21    0.03 
  -1   6  -4    5.05    0.17 
  -1   6  -4    5.08    0.16 
   1   6   4    5.13    0.17 
   1   6   4    5.21    0.19 
  -1  -6  -4    5.11    0.13 
  -1   6  -5    3.14    0.15 
   1   6   5    2.88    0.16 
   1   6   5    3.34    0.17 
  -1   6  -5    3.30    0.14 
  -1   6  -6    5.92    0.20 
   1   6   6    5.78    0.21 
   1   6   6    5.73    0.22 
  -1   6  -6    5.26    0.18 
  -1  -6  -6    5.28    0.17 
   1  -6   6    5.45    0.11 
   1   6   7    1.61    0.14 
  -1   6  -7    1.63    0.13 
   1  -6   7    1.68    0.07 
  -1  -6  -7    1.72    0.13 
   1   6   8    0.16    0.11 
  -1   6  -8    0.29    0.10 
  -1  -6  -8    0.19    0.08 
   1   6   9    1.26    0.15 
  -1  -6  -9    1.46    0.13 
   1   6  10    1.21    0.16 
  -1  -6 -10    1.48    0.14 
   1   6  11    0.48    0.16 
   1   6  12    4.46    0.31 
   1   6  13    0.08    0.18 
   1   6  14    0.03    0.18 
  -1   7  12    0.04    0.17 
  -1   7  11    0.43    0.17 
  -1   7  10   -0.06    0.15 
  -1   7   9    0.15    0.14 
  -1   7   8    1.13    0.16 
   1   7  -7    1.80    0.13 
  -1   7   7    1.69    0.17 
   1   7  -6    3.46    0.17 
  -1   7   6    3.68    0.22 
   1   7  -5    1.54    0.10 
  -1   7   5    1.56    0.15 
   1  -7  -5    1.39    0.13 
   1   7  -4    2.10    0.13 
  -1   7   4    1.93    0.14 
  -1   7   3    0.03    0.09 
   1   7  -3    0.02    0.06 
   1   7  -3    0.09    0.06 
   1   7  -3    0.01    0.06 
   1  -7  -3    0.05    0.05 
   1   7  -2    0.41    0.07 
  -1   7   2    0.43    0.09 
   1   7  -2    0.43    0.07 
   1   7  -2    0.25    0.07 
   1  -7  -2    0.35    0.04 
  -1   7   1    1.22    0.08 
   1   7  -1    1.19    0.09 
  -1   7   1    1.10    0.11 
   1   7  -1    1.09    0.08 
  -1   7   1    1.01    0.10 
   1   7  -1    1.09    0.09 
  -1   7   0    4.76    0.12 
  -1   7   0    4.88    0.18 
   1   7   0    4.84    0.16 
   1   7   0    4.79    0.16 
   1   7   0    4.81    0.17 
  -1   7   0    5.12    0.19 
  -1   7  -1    0.07    0.07 
  -1   7  -1    0.06    0.04 
   1   7   1    0.14    0.07 
   1   7   1    0.00    0.07 
  -1   7  -1    0.08    0.08 
  -1   7  -2   10.72    0.21 
  -1   7  -2   10.85    0.27 
  -1   7  -2   11.22    0.31 
   1   7   2   10.87    0.26 
   1   7   2   11.24    0.27 
  -1   7  -3    0.93    0.06 
   1   7   3    0.95    0.10 
   1   7   3    1.06    0.11 
  -1   7  -3    1.00    0.10 
   1   7   4    2.16    0.17 
  -1   7  -4    2.01    0.15 
   1   7   4    1.94    0.14 
  -1   7  -5    0.99    0.11 
   1   7   5    0.93    0.11 
   1   7   5    0.91    0.12 
   1   7   6    0.75    0.12 
  -1   7  -6    0.89    0.11 
   1   7   6    0.65    0.11 
   1   7   7   -0.08    0.11 
  -1   7  -7    0.09    0.10 
   1   7   8    2.33    0.19 
  -1   7  -8    1.94    0.15 
   1   7   9    0.33    0.14 
   1   7  10    2.81    0.23 
   1   7  11    0.29    0.16 
   1   7  12    0.21    0.18 
  -1   8  10   -0.11    0.15 
  -1   8   9    1.02    0.17 
  -1   8   8    0.02    0.15 
   1   8  -7    1.75    0.14 
  -1   8   7    1.52    0.17 
  -1   8   6    0.10    0.13 
   1   8  -6   -0.01    0.09 
  -1   8   5    0.16    0.12 
   1   8  -5    0.01    0.08 
   1   8  -4    0.09    0.08 
  -1   8   4    0.05    0.11 
   1   8  -4    0.01    0.07 
   1   8  -3    1.48    0.10 
   1   8  -3    1.42    0.11 
  -1   8   3    1.59    0.15 
  -1   8   2    0.61    0.11 
   1   8  -2    0.45    0.08 
   1   8  -2    0.33    0.08 
   1   8  -1    1.89    0.13 
  -1   8   1    2.06    0.14 
   1   8  -1    2.11    0.13 
   1   8   0    0.04    0.07 
   1   8   0   -0.10    0.08 
  -1   8   0   -0.02    0.09 
   1   8   1    0.10    0.07 
  -1   8  -1    0.05    0.10 
   1   8   1    0.04    0.08 
   1   8   2    0.18    0.08 
   1   8   2    0.21    0.10 
  -1   8  -2    0.35    0.10 
  -1   8  -3    0.59    0.11 
   1   8   3    0.58    0.09 
   1   8   3    0.32    0.10 
  -1   8  -4    0.04    0.09 
   1   8   4    0.07    0.10 
   1   8   4   -0.04    0.09 
   1   8   5    0.79    0.11 
  -1   8  -5    0.78    0.11 
   1   8   5    0.77    0.12 
  -1   8  -6    0.10    0.10 
   1   8   6    0.04    0.11 
  -1   8  -7    0.41    0.12 
   1   8   7    0.60    0.14 
  -1   8  -8    0.26    0.12 
   1   8   8    0.01    0.13 
   1   8   9    0.10    0.15 
   1   8  10    0.21    0.16 
  -1   9   7    0.08    0.15 
   1   9  -7    0.36    0.12 
  -1   9   6    2.42    0.21 
   1   9  -6    2.52    0.19 
   1   9  -5    0.92    0.12 
  -1   9   5    1.05    0.17 
  -1   9   4    1.33    0.16 
   1   9  -4    1.93    0.13 
   1   9  -3    0.01    0.09 
  -1   9   3    0.02    0.12 
   1   9  -2   -0.08    0.09 
  -1   9   2    0.10    0.12 
   1   9  -1    0.25    0.10 
  -1   9   1    0.38    0.12 
  -1   9   0    2.30    0.16 
   1   9   0    1.96    0.14 
   1   9   1    1.22    0.13 
  -1   9  -1    0.97    0.13 
  -1   9  -2    2.59    0.20 
   1   9   2    2.65    0.20 
  -1   9  -3    0.00    0.10 
   1   9   3    0.27    0.12 
   1   9   4    0.47    0.13 
  -1   9  -4    0.37    0.11 
   1   9   5   -0.07    0.12 
  -1   9  -5    0.09    0.11 
  -1   9  -6    0.38    0.12 
   1   9   6    0.22    0.14 
  -1   9  -7    0.33    0.13 
   1   9   7    0.22    0.15 
  -2   0  17    0.16    0.16 
  -2   0  16    4.50    0.28 
  -2   0  15    0.02    0.13 
  -2   0  14    0.14    0.13 
  -2   0  13   -0.03    0.11 
  -2   0  12   10.55    0.31 
  -2   0  11    0.09    0.09 
  -2   0  10   16.65    0.38 
  -2   0   9   -0.01    0.06 
   2   0  -9    0.03    0.07 
   2   0  -8    0.08    0.06 
  -2   0   8    0.08    0.06 
   2   0  -7    0.08    0.05 
  -2   0   7    0.01    0.05 
   2   0  -6   52.63    0.90 
  -2   0   6   52.60    0.90 
  -2   0   5    0.00    0.04 
   2   0  -5    0.02    0.03 
   2   0  -4  126.50    2.06 
  -2   0   4  127.51    2.06 
  -2   0   3    0.00    0.02 
   2   0  -3    0.00    0.02 
  -2   0   2   34.47    0.57 
   2   0  -2   34.50    0.57 
   2   0  -1    0.08    0.02 
  -2   0   1   -0.04    0.01 
   2   0   0    0.12    0.01 
  -2   0   0    0.11    0.02 
   2   0   0    0.11    0.02 
  -2   0   0    0.10    0.01 
  -2   0  -1   -0.03    0.01 
   2   0   1   -0.02    0.01 
   2   0   1   -0.01    0.02 
  -2   0  -1    0.01    0.02 
  -2   0  -1    0.02    0.02 
   2   0   1   -0.04    0.01 
  -2   0  -2  361.15    5.83 
   2   0   2  350.04    5.78 
   2   0   2  339.75    5.80 
   2   0   2  371.97    5.84 
  -2   0  -2  362.40    5.82 
   2   0   3   -0.02    0.03 
  -2   0  -3    0.06    0.03 
  -2   0  -3   -0.01    0.02 
   2   0   3    0.09    0.03 
   2   0   4  921.53   15.59 
  -2   0  -4 1000.00   15.65 
  -2   0  -4  978.34   15.58 
   2   0   4  963.53   15.60 
   2   0   5    0.11    0.05 
   2   0   5   -0.04    0.04 
  -2   0  -5    0.13    0.04 
  -2   0  -5    0.05    0.04 
   2   0   6    3.38    0.13 
  -2   0  -6    3.35    0.12 
  -2   0  -6    3.47    0.12 
  -2   0  -7   -0.08    0.05 
   2   0   7   -0.02    0.06 
   2   0   8   98.42    1.65 
   2   0   9   -0.05    0.07 
   2   0  10   11.45    0.30 
   2   0  11    0.03    0.10 
   2   0  12    3.10    0.21 
   2   0  13   -0.01    0.12 
   2   0  14    2.80    0.20 
   2   0  15   -0.02    0.14 
   2   0  16    0.85    0.18 
   2   0  17    0.17    0.16 
  -2   1  17    0.21    0.17 
  -2   1  16    0.04    0.15 
  -2  -1  16    0.11    0.14 
  -2   1  15    5.76    0.30 
  -2  -1  15    5.84    0.27 
  -2   1  14    0.17    0.13 
  -2  -1  14    0.09    0.11 
  -2   1  13   11.35    0.35 
  -2  -1  13   11.61    0.33 
  -2   1  12   -0.03    0.10 
  -2  -1  12    0.02    0.09 
  -2   1  11    0.39    0.11 
  -2  -1  11    0.24    0.09 
   2   1 -10    0.39    0.11 
  -2   1  10    0.38    0.10 
  -2  -1  10    0.35    0.09 
   2   1  -9   22.35    0.45 
  -2   1   9   22.61    0.46 
  -2  -1   9   22.60    0.45 
  -2   1   8    7.37    0.21 
   2   1  -8    7.38    0.20 
  -2  -1   8    7.19    0.20 
  -2   1   7   71.76    1.22 
   2   1  -7   71.02    1.21 
   2  -1  -7   72.81    1.22 
  -2  -1   7   71.67    1.21 
  -2   1   6    6.15    0.17 
   2   1  -6    6.25    0.16 
  -2  -1   6    6.32    0.16 
   2  -1  -6    6.35    0.17 
   2   1  -5   17.84    0.33 
  -2   1   5   17.74    0.34 
  -2  -1   5   18.05    0.33 
   2  -1  -5   17.91    0.34 
  -2   1   4    0.01    0.04 
   2   1  -4    0.08    0.03 
  -2  -1   4    0.12    0.03 
   2  -1  -4    0.05    0.04 
   2   1  -3    4.72    0.10 
  -2   1   3    4.95    0.12 
  -2  -1   3    4.69    0.10 
   2  -1  -3    4.79    0.12 
   2   1  -2   18.15    0.31 
  -2   1   2   18.16    0.32 
   2  -1  -2   18.45    0.33 
   2  -1  -2   18.42    0.32 
  -2   1   1   75.44    1.23 
   2   1  -1   74.94    1.21 
  -2   1   1   76.34    1.23 
   2  -1  -1   75.25    1.23 
   2  -1  -1   75.74    1.23 
   2   1   0   10.16    0.17 
  -2   1   0    9.89    0.19 
   2  -1   0    9.99    0.19 
   2  -1   0   10.02    0.19 
  -2   1  -1   37.96    0.63 
  -2   1  -1   38.14    0.63 
  -2   1  -1   38.34    0.62 
   2   1   1   38.00    0.63 
   2   1   1   38.65    0.62 
   2  -1   1   38.11    0.62 
  -2  -1  -1   38.45    0.62 
   2  -1   1   38.36    0.63 
  -2  -1  -1   37.76    0.63 
   2  -1   1   36.91    0.63 
   2   1   2   54.71    0.89 
  -2   1  -2   52.03    0.89 
  -2   1  -2   54.78    0.88 
   2   1   2   54.64    0.88 
  -2   1  -2   53.56    0.89 
   2  -1   2   54.72    0.89 
  -2  -1  -2   54.16    0.88 
   2  -1   2   51.97    0.89 
   2  -1   2   53.89    0.88 
  -2  -1  -2   54.94    0.89 
  -2   1  -3  104.47    1.69 
  -2   1  -3  105.61    1.70 
   2   1   3  100.65    1.69 
   2   1   3  105.21    1.70 
  -2   1  -3  106.12    1.70 
  -2  -1  -3  101.73    1.69 
   2  -1   3  106.49    1.70 
   2  -1   3  105.39    1.70 
  -2  -1  -3  103.01    1.70 
   2   1   4    1.51    0.08 
  -2   1  -4    1.58    0.07 
   2   1   4    1.65    0.08 
  -2   1  -4    1.65    0.07 
   2  -1   4    1.44    0.07 
  -2  -1  -4    1.61    0.08 
   2  -1   4    1.62    0.07 
  -2  -1  -4    1.49    0.07 
  -2   1  -5   24.73    0.45 
  -2   1  -5   25.32    0.45 
   2   1   5   25.78    0.46 
   2   1   5   25.52    0.46 
  -2  -1  -5   25.30    0.46 
  -2  -1  -5   24.71    0.45 
   2  -1   5   24.97    0.46 
   2  -1   5   25.03    0.46 
   2   1   6    4.47    0.15 
  -2   1  -6    4.23    0.13 
   2   1   6    4.43    0.15 
  -2   1  -6    4.29    0.14 
   2  -1   6    4.42    0.14 
   2  -1   6    4.24    0.13 
  -2  -1  -6    4.38    0.14 
  -2  -1  -6    4.32    0.14 
  -2   1  -7    6.79    0.19 
   2   1   7    7.18    0.20 
  -2   1  -7    6.93    0.20 
   2  -1   7    7.84    0.22 
   2  -1   7    7.00    0.19 
  -2  -1  -7    7.02    0.19 
   2   1   8    4.89    0.18 
  -2   1  -8    4.99    0.17 
   2  -1   8    5.08    0.18 
   2   1   9    0.76    0.11 
   2  -1   9    0.60    0.09 
   2   1  10    1.36    0.13 
   2  -1  10    1.47    0.12 
   2   1  11    6.12    0.24 
   2  -1  11    6.15    0.23 
   2   1  12    0.08    0.12 
   2  -1  12    0.13    0.11 
   2   1  13    4.26    0.25 
   2  -1  13    3.84    0.23 
   2   1  14    0.01    0.14 
   2  -1  14    0.05    0.13 
   2   1  15    0.50    0.16 
   2  -1  15    0.69    0.15 
   2   1  16    0.07    0.15 
   2  -1  16   -0.06    0.15 
   2   1  17    0.23    0.17 
   2  -1  17    0.53    0.18 
  -2   2  17    0.06    0.18 
  -2   2  16    0.01    0.16 
  -2   2  15    0.14    0.15 
  -2  -2  15    0.21    0.12 
  -2   2  14   -0.10    0.13 
  -2  -2  14    0.01    0.10 
  -2   2  13    2.45    0.19 
  -2  -2  13    2.13    0.15 
  -2   2  12    3.26    0.23 
  -2  -2  12    3.64    0.18 
  -2   2  11    6.42    0.26 
  -2  -2  11    5.99    0.21 
  -2   2  10   32.34    0.63 
   2   2 -10   30.78    0.60 
  -2  -2  10   31.54    0.59 
  -2   2   9    1.83    0.14 
   2   2  -9    1.91    0.13 
  -2  -2   9    2.00    0.12 
  -2   2   8    0.02    0.07 
   2   2  -8    0.04    0.05 
  -2  -2   8    0.02    0.05 
  -2   2   7    0.08    0.07 
   2   2  -7    0.11    0.05 
  -2  -2   7    0.05    0.04 
  -2  -2   7    0.10    0.05 
  -2   2   6   18.74    0.38 
   2   2  -6   18.28    0.35 
  -2  -2   6   18.49    0.34 
   2  -2  -6   18.96    0.37 
  -2  -2   6   18.09    0.34 
   2  -2  -6   19.48    0.37 
  -2   2   5    0.47    0.06 
   2   2  -5    0.41    0.04 
  -2  -2   5    0.51    0.04 
  -2  -2   5    0.42    0.04 
   2  -2  -5    0.47    0.06 
  -2   2   4   66.13    1.13 
   2   2  -4   67.12    1.10 
  -2  -2   4   68.05    1.09 
   2  -2  -4   67.49    1.12 
   2   2  -3    6.23    0.12 
  -2   2   3    6.39    0.15 
   2  -2  -3    6.26    0.15 
   2   2  -2  134.19    2.14 
   2   2  -2  133.31    2.14 
  -2   2   2  132.53    2.16 
   2  -2  -2  134.97    2.16 
   2  -2  -2  132.52    2.16 
  -2   2   1   60.52    1.00 
  -2   2   1   60.28    1.00 
   2  -2  -1   61.02    1.00 
   2  -2  -1   60.52    0.97 
   2  -2  -1   59.31    0.99 
  -2   2   0   88.09    1.44 
  -2   2   0   88.80    1.44 
   2  -2   0   86.89    1.44 
   2  -2   0   90.22    1.44 
   2   2   1    2.78    0.08 
  -2   2  -1    2.75    0.08 
  -2   2  -1    2.41    0.08 
   2   2   1    2.74    0.06 
   2  -2   1    2.73    0.08 
   2  -2   1    2.71    0.08 
  -2   2  -2   87.00    1.39 
   2   2   2   85.28    1.41 
  -2   2  -2   85.49    1.41 
   2   2   2   87.23    1.40 
  -2   2  -2   86.41    1.41 
   2  -2   2   84.74    1.40 
   2  -2   2   86.82    1.41 
  -2  -2  -2   86.41    1.41 
  -2  -2  -2   86.55    1.39 
  -2   2  -3    0.13    0.04 
   2   2   3    0.07    0.04 
   2   2   3    0.10    0.03 
  -2   2  -3    0.10    0.03 
   2  -2   3    0.07    0.03 
  -2  -2  -3    0.16    0.04 
  -2  -2  -3    0.14    0.03 
   2  -2   3    0.09    0.03 
  -2   2  -4   33.37    0.56 
   2   2   4   32.76    0.57 
   2   2   4   32.17    0.58 
  -2   2  -4   32.40    0.57 
  -2   2  -4   32.02    0.57 
   2  -2   4   32.93    0.57 
  -2  -2  -4   33.15    0.56 
   2  -2   4   32.36    0.57 
  -2  -2  -4   32.39    0.57 
   2   2   5    8.31    0.20 
  -2   2  -5    8.56    0.19 
   2   2   5    8.28    0.20 
  -2   2  -5    8.18    0.20 
  -2   2  -5    8.50    0.19 
  -2  -2  -5    8.61    0.19 
   2  -2   5    8.41    0.19 
   2  -2   5    8.40    0.19 
  -2  -2  -5    8.65    0.20 
  -2   2  -6    0.80    0.07 
   2   2   6    0.78    0.08 
  -2   2  -6    0.84    0.06 
   2   2   6    0.56    0.07 
   2  -2   6    0.68    0.06 
  -2  -2  -6    0.62    0.06 
   2  -2   6    0.78    0.07 
   2   2   7    0.12    0.07 
  -2   2  -7    0.02    0.06 
  -2   2  -7    0.02    0.05 
   2   2   7   -0.07    0.06 
   2  -2   7    0.07    0.06 
   2   2   8   11.35    0.29 
  -2   2  -8   11.67    0.28 
   2  -2   8   11.99    0.28 
   2   2   9    0.06    0.09 
  -2   2  -9    0.07    0.07 
   2  -2   9    0.03    0.07 
   2   2  10   22.94    0.49 
   2  -2  10   22.31    0.47 
   2   2  11    0.79    0.13 
   2  -2  11    0.97    0.12 
   2   2  12    2.68    0.18 
   2  -2  12    2.35    0.16 
   2   2  13    0.56    0.14 
   2  -2  13    0.94    0.14 
   2   2  14   -0.01    0.14 
   2  -2  14    0.04    0.13 
   2   2  15    0.44    0.17 
   2  -2  15    0.34    0.14 
   2   2  16    0.69    0.19 
   2  -2  16    0.69    0.16 
   2   2  17   -0.02    0.16 
  -2   3  17    0.10    0.19 
  -2   3  16    0.23    0.19 
  -2   3  15    0.70    0.19 
  -2   3  14    0.00    0.14 
  -2   3  13    2.16    0.20 
  -2  -3  13    1.77    0.14 
  -2   3  12   -0.09    0.13 
  -2  -3  12   -0.07    0.08 
   2   3 -11    0.04    0.08 
  -2   3  11    0.03    0.11 
  -2  -3  11    0.08    0.07 
   2   3 -10    0.14    0.08 
  -2   3  10    0.20    0.12 
  -2  -3  10    0.19    0.07 
   2   3  -9    0.28    0.07 
  -2   3   9    0.31    0.10 
  -2  -3   9    0.35    0.06 
  -2   3   8    0.48    0.09 
   2   3  -8    0.53    0.07 
  -2  -3   8    0.54    0.06 
  -2   3   7   12.27    0.30 
   2   3  -7   12.66    0.27 
  -2  -3   7   12.41    0.24 
  -2  -3   7   12.24    0.24 
   2   3  -6    0.29    0.05 
  -2   3   6    0.20    0.07 
  -2  -3   6    0.35    0.04 
   2  -3  -6    0.27    0.06 
  -2   3   5    7.05    0.20 
   2   3  -5    6.78    0.16 
  -2  -3   5    6.81    0.13 
   2  -3  -5    6.80    0.19 
  -2  -3   5    7.01    0.13 
   2  -3  -5    6.90    0.17 
   2   3  -4    4.23    0.11 
  -2   3   4    4.35    0.15 
   2   3  -4    4.27    0.10 
   2  -3  -4    4.35    0.14 
   2  -3  -4    4.34    0.12 
   2  -3  -4    4.40    0.13 
   2   3  -3   18.11    0.31 
   2   3  -3   18.02    0.31 
  -2   3   3   18.40    0.35 
   2  -3  -3   17.93    0.34 
   2  -3  -3   17.67    0.34 
   2  -3  -3   17.89    0.33 
  -2   3   2    3.34    0.11 
   2   3  -2    3.22    0.06 
   2   3  -2    3.19    0.07 
  -2   3   2    3.40    0.11 
   2  -3  -2    3.41    0.10 
   2  -3  -2    3.43    0.11 
   2  -3  -2    3.30    0.08 
  -2   3   1   33.32    0.58 
  -2   3   1   32.70    0.58 
   2  -3  -1   34.21    0.55 
   2  -3  -1   33.53    0.57 
   2  -3  -1   33.35    0.57 
  -2   3   0    0.52    0.05 
   2   3   0    0.54    0.03 
  -2   3   0    0.47    0.05 
   2   3   0    0.48    0.03 
   2  -3   0    0.56    0.04 
   2  -3   0    0.46    0.04 
  -2   3  -1    4.58    0.12 
   2   3   1    4.32    0.12 
  -2   3  -1    4.35    0.12 
   2   3   1    4.43    0.10 
   2  -3   1    4.23    0.11 
   2  -3   1    4.29    0.11 
   2   3   2    2.61    0.10 
  -2   3  -2    2.55    0.10 
   2   3   2    2.73    0.08 
  -2   3  -2    2.48    0.09 
   2  -3   2    2.42    0.08 
  -2  -3  -2    2.71    0.06 
   2  -3   2    2.53    0.08 
  -2  -3  -2    2.65    0.06 
   2   3   3    0.86    0.06 
   2   3   3    0.79    0.07 
  -2   3  -3    0.65    0.06 
  -2   3  -3    0.78    0.05 
  -2  -3  -3    0.80    0.05 
   2  -3   3    0.76    0.06 
   2  -3   3    0.75    0.05 
  -2   3  -4   -0.02    0.04 
   2   3   4    0.02    0.05 
   2   3   4   -0.04    0.04 
  -2   3  -4    0.04    0.04 
   2  -3   4    0.04    0.04 
  -2  -3  -4    0.30    0.05 
   2  -3   4    0.01    0.04 
  -2  -3  -4    0.01    0.04 
   2   3   5    6.43    0.18 
  -2   3  -5    6.48    0.17 
  -2   3  -5    6.43    0.17 
   2   3   5    6.59    0.18 
  -2  -3  -5    6.92    0.20 
  -2  -3  -5    6.46    0.16 
   2  -3   5    6.76    0.17 
   2  -3   5    6.56    0.16 
   2   3   6    1.20    0.09 
   2   3   6    1.04    0.10 
  -2   3  -6    1.14    0.09 
  -2   3  -6    1.13    0.08 
  -2   3  -6    0.98    0.07 
   2  -3   6    1.15    0.08 
   2   3   7   20.94    0.42 
  -2   3  -7   20.49    0.41 
   2   3   7   20.05    0.42 
  -2   3  -7   20.44    0.40 
   2  -3   7   20.68    0.40 
   2   3   8    2.72    0.16 
  -2   3  -8    2.30    0.14 
   2   3   8    2.59    0.16 
   2  -3   8    2.28    0.13 
  -2   3  -9    4.11    0.18 
   2   3   9    4.26    0.20 
   2  -3   9    4.44    0.17 
   2   3  10    1.09    0.12 
   2  -3  10    1.37    0.11 
   2   3  11    0.21    0.12 
   2  -3  11    0.18    0.09 
   2   3  12    0.16    0.13 
   2  -3  12    0.29    0.11 
   2   3  13    0.73    0.16 
   2  -3  13    0.99    0.13 
   2   3  14    0.02    0.14 
   2  -3  14    0.15    0.12 
   2   3  15    0.27    0.17 
   2  -3  15    0.40    0.17 
   2   3  16    0.33    0.18 
  -2   4  16   -0.07    0.19 
  -2   4  15    0.11    0.17 
  -2   4  14   -0.12    0.16 
  -2   4  13    1.46    0.19 
  -2   4  12    0.97    0.16 
  -2   4  11    1.25    0.16 
  -2  -4  11    0.93    0.09 
   2   4 -10    0.57    0.09 
  -2   4  10    0.66    0.14 
  -2  -4  10    0.57    0.07 
  -2   4   9   10.11    0.31 
   2   4  -9    9.77    0.25 
   2   4  -8    5.83    0.18 
  -2   4   8    5.49    0.23 
  -2  -4   8    5.50    0.13 
   2   4  -7    0.33    0.06 
  -2   4   7    0.39    0.09 
   2  -4  -7    0.34    0.08 
  -2  -4   7    0.41    0.04 
  -2  -4   7    0.51    0.04 
   2   4  -6    0.15    0.05 
  -2   4   6    0.11    0.08 
   2  -4  -6    0.10    0.06 
   2   4  -5   10.22    0.21 
   2   4  -5   10.85    0.22 
  -2   4   5   10.58    0.26 
   2  -4  -5   10.29    0.23 
   2  -4  -5   10.38    0.25 
   2   4  -4    6.11    0.14 
  -2   4   4    5.86    0.18 
   2   4  -4    6.11    0.14 
   2  -4  -4    6.29    0.17 
   2  -4  -4    5.81    0.15 
  -2   4   3   56.10    0.98 
   2   4  -3   58.67    0.93 
   2   4  -3   56.63    0.93 
   2  -4  -3   56.95    0.95 
   2  -4  -3   56.09    0.97 
  -2   4   2    1.13    0.08 
   2   4  -2    1.42    0.05 
   2   4  -2    1.31    0.05 
  -2   4   2    1.23    0.09 
   2  -4  -2    1.22    0.06 
   2  -4  -2    1.29    0.08 
   2  -4  -2    1.18    0.08 
   2   4  -1    5.88    0.11 
  -2   4   1    5.74    0.16 
  -2   4   1    5.69    0.16 
   2   4  -1    6.04    0.12 
   2  -4  -1    5.86    0.15 
   2  -4  -1    5.73    0.14 
  -2   4   0    3.56    0.12 
   2   4   0    3.75    0.12 
   2   4   0    3.57    0.09 
  -2   4   0    3.57    0.12 
   2   4   0    3.78    0.09 
   2  -4   0    3.61    0.11 
   2  -4   0    3.51    0.11 
   2   4   1    2.22    0.08 
  -2   4  -1    2.18    0.10 
   2   4   1    2.24    0.10 
  -2   4  -1    2.30    0.09 
   2  -4   1    2.30    0.08 
   2  -4   1    2.27    0.08 
  -2   4  -2    2.70    0.11 
  -2   4  -2    2.46    0.10 
   2   4   2    2.83    0.11 
   2   4   2    2.72    0.10 
   2  -4   2    2.53    0.09 
   2  -4   2    2.61    0.09 
  -2   4  -3    4.48    0.14 
   2   4   3    3.97    0.13 
   2   4   3    3.85    0.13 
  -2   4  -3    4.38    0.13 
  -2  -4  -3    4.03    0.10 
   2  -4   3    4.18    0.12 
  -2  -4  -3    4.14    0.13 
   2  -4   3    4.09    0.11 
  -2   4  -4   23.85    0.45 
   2   4   4   24.85    0.45 
   2   4   4   23.69    0.46 
  -2   4  -4   23.60    0.44 
  -2  -4  -4   23.69    0.48 
   2  -4   4   23.88    0.43 
  -2  -4  -4   23.72    0.43 
   2  -4   4   24.23    0.43 
  -2  -4  -4   23.84    0.42 
   2   4   5    0.63    0.08 
   2   4   5    0.55    0.08 
  -2   4  -5    0.83    0.08 
  -2   4  -5    0.68    0.07 
   2  -4   5    0.80    0.06 
   2   4   6    2.22    0.14 
  -2   4  -6    2.70    0.12 
  -2   4  -6    2.72    0.14 
   2   4   6    2.23    0.14 
   2  -4   6    2.69    0.12 
  -2   4  -7    1.07    0.10 
   2   4   7    0.67    0.10 
  -2   4  -7    0.83    0.08 
   2   4   7    1.10    0.11 
   2  -4   7    0.90    0.08 
  -2   4  -8    1.23    0.10 
   2   4   8    1.44    0.13 
   2   4   8    1.11    0.12 
   2  -4   8    1.29    0.09 
  -2   4  -9    3.37    0.17 
   2   4   9    3.65    0.21 
   2  -4   9    3.36    0.15 
   2   4  10    5.13    0.25 
   2  -4  10    5.01    0.19 
   2   4  11    3.46    0.24 
   2  -4  11    3.25    0.18 
   2   4  12    0.23    0.15 
   2  -4  12    0.36    0.11 
   2   4  13    0.53    0.16 
   2  -4  13    0.29    0.13 
   2   4  14    0.04    0.15 
   2   4  15    0.21    0.17 
   2   4  16    0.00    0.18 
  -2   5  15    0.72    0.21 
  -2   5  14    1.02    0.20 
  -2   5  13    0.18    0.17 
  -2   5  12    0.38    0.15 
  -2   5  11    0.32    0.14 
   2  -5 -11    0.52    0.13 
  -2   5  10    0.60    0.15 
   2  -5 -10    0.40    0.11 
  -2   5   9    0.71    0.14 
   2  -5  -9    0.76    0.12 
   2   5  -8    3.63    0.15 
  -2   5   8    3.63    0.21 
   2  -5  -8    3.52    0.19 
  -2   5   7    0.05    0.10 
   2   5  -7    0.07    0.06 
   2  -5  -7    0.02    0.08 
  -2   5   6    3.17    0.18 
   2   5  -6    2.94    0.12 
   2  -5  -6    2.73    0.15 
   2   5  -5    1.03    0.07 
  -2   5   5    0.99    0.10 
   2   5  -5    1.03    0.07 
   2  -5  -5    1.07    0.09 
   2  -5  -5    0.98    0.08 
   2   5  -4    3.73    0.11 
   2   5  -4    3.80    0.11 
  -2   5   4    3.62    0.16 
   2  -5  -4    3.72    0.14 
   2  -5  -4    3.58    0.12 
   2   5  -3    0.28    0.04 
   2   5  -3    0.26    0.04 
  -2   5   3    0.26    0.08 
   2  -5  -3    0.48    0.06 
   2  -5  -3    0.17    0.04 
   2   5  -2   13.94    0.26 
  -2   5   2   13.79    0.30 
  -2   5   2   14.11    0.31 
   2   5  -2   14.14    0.26 
   2  -5  -2   14.47    0.29 
  -2   5   1    8.84    0.22 
   2   5  -1    8.68    0.17 
  -2   5   1    8.23    0.21 
   2   5  -1    8.73    0.17 
   2  -5  -1    8.69    0.19 
   2   5   0   10.76    0.21 
   2   5   0   10.58    0.23 
  -2   5   0   10.51    0.25 
   2   5   0   11.00    0.21 
  -2   5   0   10.80    0.24 
   2  -5   0   10.71    0.22 
   2   5   1    7.36    0.17 
  -2   5  -1    7.06    0.19 
  -2   5  -1    7.54    0.19 
   2   5   1    7.00    0.18 
   2  -5   1    7.41    0.17 
   2  -5   1    7.15    0.16 
  -2   5  -2    3.24    0.13 
   2   5   2    3.50    0.13 
  -2   5  -2    3.25    0.07 
  -2   5  -2    3.49    0.14 
   2   5   2    3.42    0.12 
   2  -5   2    3.36    0.11 
   2  -5   2    3.26    0.10 
  -2   5  -3    1.66    0.11 
  -2   5  -3    1.59    0.10 
   2   5   3    1.64    0.11 
   2   5   3    1.56    0.11 
  -2  -5  -3    1.67    0.05 
   2  -5   3    1.49    0.08 
  -2  -5  -3    1.62    0.05 
  -2   5  -4    0.77    0.08 
   2   5   4    0.83    0.08 
  -2   5  -4    0.86    0.08 
   2   5   4    0.72    0.09 
   2  -5   4    0.79    0.06 
  -2  -5  -4    0.84    0.06 
  -2  -5  -4    0.78    0.06 
   2   5   5    0.83    0.09 
   2   5   5    0.94    0.10 
  -2   5  -5    0.81    0.09 
  -2   5  -5    0.96    0.08 
  -2  -5  -5    0.78    0.06 
   2  -5   5    0.83    0.06 
  -2   5  -6   12.19    0.28 
   2   5   6   12.75    0.31 
  -2   5  -6   13.19    0.30 
   2   5   6   12.67    0.31 
   2  -5   6   12.55    0.26 
  -2  -5  -6   12.66    0.28 
   2   5   7    2.31    0.17 
   2   5   7    1.91    0.14 
  -2   5  -7    2.28    0.16 
  -2   5  -7    2.00    0.13 
   2  -5   7    2.21    0.11 
  -2  -5  -7    2.12    0.13 
   2   5   8    2.55    0.19 
  -2   5  -8    2.62    0.15 
   2   5   8    2.46    0.18 
  -2   5  -8    2.52    0.18 
   2  -5   8    2.44    0.13 
  -2   5  -9    2.79    0.19 
   2   5   9    2.42    0.17 
   2  -5   9    2.37    0.14 
   2   5  10    1.35    0.15 
   2  -5  10    1.34    0.11 
   2   5  11    0.38    0.14 
   2   5  12    1.86    0.20 
   2   5  13    0.28    0.16 
   2   5  14    0.24    0.17 
   2   5  15    0.22    0.20 
  -2   6  14    0.56    0.21 
  -2   6  13    0.61    0.18 
  -2   6  12    0.00    0.15 
   2  -6 -12    0.13    0.13 
  -2   6  11    4.15    0.28 
   2  -6 -11    3.63    0.24 
  -2   6  10    5.51    0.29 
   2  -6 -10    5.20    0.25 
  -2   6   9    2.35    0.18 
   2  -6  -9    2.17    0.16 
  -2   6   8    0.11    0.11 
   2  -6  -8    0.25    0.10 
  -2   6   7    0.67    0.12 
   2  -6  -7    0.93    0.11 
   2   6  -6    0.57    0.07 
   2   6  -6    0.63    0.08 
  -2   6   6    0.68    0.11 
   2  -6  -6    0.61    0.09 
   2   6  -5   29.75    0.54 
   2   6  -5   29.89    0.54 
  -2   6   5   31.07    0.61 
   2  -6  -5   29.89    0.57 
   2  -6  -5   30.17    0.56 
  -2   6   4    0.37    0.09 
   2   6  -4    0.33    0.06 
   2   6  -4    0.41    0.05 
   2  -6  -4    0.41    0.06 
   2  -6  -4    0.35    0.07 
   2   6  -3   10.08    0.22 
   2   6  -3   10.05    0.21 
  -2   6   3   10.56    0.27 
   2  -6  -3   10.58    0.24 
  -2   6   2    0.28    0.08 
  -2   6   2    0.10    0.07 
   2   6  -2    0.20    0.05 
   2   6  -2    0.28    0.05 
   2  -6  -2    0.13    0.05 
   2   6  -1    0.18    0.06 
   2   6  -1    0.18    0.05 
   2   6  -1    0.25    0.05 
  -2   6   1    0.35    0.07 
  -2   6   1    0.22    0.08 
   2  -6  -1    0.24    0.05 
   2   6   0    1.06    0.08 
  -2   6   0    1.18    0.09 
   2   6   0    1.03    0.09 
   2   6   0    1.18    0.08 
  -2   6   0    1.23    0.10 
  -2   6  -1   20.78    0.42 
  -2   6  -1   21.58    0.43 
   2   6   1   21.47    0.40 
   2   6   1   21.48    0.42 
   2  -6   1   21.04    0.38 
  -2   6  -2    0.31    0.08 
   2   6   2    0.25    0.08 
  -2   6  -2    0.18    0.07 
   2   6   2    0.39    0.07 
   2  -6   2    0.23    0.04 
  -2   6  -3   32.52    0.60 
   2   6   3   32.34    0.59 
  -2   6  -3   31.67    0.53 
  -2   6  -3   32.63    0.60 
   2   6   3   32.72    0.60 
   2  -6   3   31.51    0.55 
   2   6   4   -0.03    0.07 
   2   6   4    0.01    0.07 
  -2   6  -4    0.05    0.07 
  -2   6  -4    0.07    0.07 
  -2  -6  -4    0.18    0.03 
   2  -6   4    0.10    0.04 
  -2  -6  -4    0.14    0.03 
  -2   6  -5   11.95    0.28 
  -2   6  -5   11.91    0.29 
   2   6   5   11.87    0.30 
   2   6   5   11.92    0.30 
  -2  -6  -5   11.60    0.24 
   2  -6   5   11.47    0.23 
  -2   6  -6    0.19    0.09 
  -2   6  -6    0.23    0.08 
   2   6   6    0.17    0.10 
   2   6   6    0.32    0.10 
  -2  -6  -6    0.29    0.06 
   2  -6   6    0.31    0.05 
  -2   6  -7    0.25    0.10 
   2   6   7    0.19    0.11 
   2   6   7    0.29    0.10 
  -2  -6  -7    0.23    0.07 
   2  -6   7    0.32    0.06 
   2   6   8    0.52    0.12 
  -2   6  -8    0.27    0.11 
   2   6   8    0.26    0.11 
  -2  -6  -8    0.34    0.08 
   2   6   9    7.10    0.29 
  -2  -6  -9    6.65    0.24 
   2   6  10    0.04    0.13 
   2   6  11    0.96    0.17 
   2   6  12    0.66    0.18 
   2   6  13    0.08    0.17 
   2   6  14    0.34    0.19 
  -2   7  12    0.68    0.20 
  -2   7  11    0.04    0.17 
  -2   7  10    1.09    0.18 
  -2   7   9    0.07    0.15 
  -2   7   8   10.49    0.36 
  -2   7   7    0.71    0.15 
  -2   7   6   11.03    0.34 
   2   7  -6   10.97    0.26 
   2  -7  -6   10.73    0.32 
   2   7  -5    0.41    0.07 
  -2   7   5    0.18    0.11 
   2  -7  -5    0.41    0.08 
  -2   7   4    0.31    0.11 
   2   7  -4    0.35    0.07 
   2  -7  -4    0.34    0.07 
  -2   7   3    0.08    0.09 
   2   7  -3    0.03    0.06 
   2   7  -3   -0.11    0.05 
   2  -7  -3    0.02    0.05 
   2   7  -2    6.70    0.19 
  -2   7   2    6.50    0.23 
   2   7  -2    6.39    0.17 
   2   7  -2    6.55    0.17 
   2  -7  -2    6.35    0.16 
   2   7  -1    0.83    0.07 
   2   7  -1    0.95    0.09 
   2   7  -1    0.87    0.08 
  -2   7   1    0.75    0.13 
  -2   7   1    0.85    0.11 
   2  -7  -1    0.86    0.06 
   2   7   0    9.93    0.23 
  -2   7   0   10.55    0.28 
   2   7   0   10.03    0.25 
   2   7   0   10.38    0.24 
  -2   7   0   10.36    0.30 
   2  -7   0    9.89    0.20 
   2   7   1    2.69    0.14 
   2   7   1    2.73    0.14 
  -2   7  -1    2.64    0.16 
  -2   7  -1    2.49    0.20 
   2  -7   1    2.42    0.07 
  -2   7  -2    0.73    0.10 
   2   7   2    0.58    0.09 
   2   7   2    0.51    0.08 
   2   7   3    0.63    0.09 
   2   7   3    0.85    0.10 
  -2   7  -3    0.61    0.10 
  -2   7  -4    4.89    0.20 
   2   7   4    4.82    0.20 
   2   7   4    4.99    0.20 
  -2   7  -4    4.87    0.11 
   2   7   5    2.39    0.18 
   2   7   5    2.71    0.18 
  -2   7  -5    2.46    0.17 
   2   7   6    5.50    0.23 
  -2   7  -6    5.50    0.23 
   2   7   6    5.69    0.24 
   2   7   7    1.28    0.14 
   2   7   7    1.44    0.14 
  -2   7  -7    1.64    0.14 
  -2   7  -8    0.10    0.11 
   2   7   8   -0.05    0.12 
   2   7   9    0.41    0.15 
   2   7  10    0.22    0.15 
   2   7  11    0.14    0.16 
   2   7  12    2.77    0.24 
  -2   8  10    0.14    0.18 
  -2   8   9    0.76    0.18 
  -2   8   8    0.02    0.15 
  -2   8   7    1.45    0.18 
   2   8  -7    1.47    0.12 
   2   8  -6    0.26    0.09 
  -2   8   6    0.29    0.14 
   2   8  -5    9.34    0.25 
  -2   8   5    9.34    0.33 
  -2   8   4    0.28    0.12 
   2   8  -4    0.26    0.08 
   2   8  -4    0.23    0.09 
   2   8  -3    6.42    0.20 
   2   8  -3    6.26    0.19 
  -2   8   3    6.18    0.26 
   2   8  -2   -0.01    0.07 
  -2   8   2   -0.07    0.10 
   2   8  -2   -0.04    0.08 
   2   8  -1    0.80    0.09 
  -2   8   1    0.92    0.12 
   2   8  -1    0.70    0.09 
   2   8   0    0.88    0.10 
  -2   8   0    0.86    0.12 
   2   8   0    0.84    0.10 
  -2   8  -1    5.86    0.23 
   2   8   1    6.14    0.21 
   2   8   1    5.83    0.20 
  -2   8  -2    0.27    0.11 
   2   8   2    0.15    0.09 
   2   8   2    0.13    0.09 
   2   8   3   11.60    0.30 
   2   8   3   11.00    0.29 
  -2   8  -3   11.34    0.32 
  -2   8  -4    0.22    0.11 
   2   8   4    0.19    0.10 
   2   8   4    0.25    0.10 
   2   8   5    1.85    0.15 
   2   8   5    1.84    0.15 
  -2   8  -5    1.97    0.15 
  -2   8  -6    0.46    0.12 
   2   8   6    0.31    0.12 
   2   8   6    0.48    0.12 
   2   8   7    1.41    0.16 
  -2   8  -7    2.09    0.16 
   2   8   8   -0.05    0.13 
  -2   8  -8    0.08    0.12 
  -2   8  -9    2.31    0.19 
   2   8   9    2.35    0.21 
   2   8  10   -0.13    0.15 
  -2   9   7   -0.01    0.15 
  -2   9   6    1.08    0.18 
   2   9  -6    1.24    0.12 
   2   9  -5    0.07    0.09 
  -2   9   5   -0.10    0.14 
  -2   9   4    0.13    0.13 
   2   9  -4    0.03    0.08 
   2   9  -3    0.05    0.08 
  -2   9   3    0.06    0.13 
  -2   9   2    1.39    0.16 
   2   9  -2    1.66    0.12 
  -2   9   1    0.32    0.13 
   2   9  -1    0.27    0.09 
   2   9   0    5.18    0.21 
  -2   9   0    5.30    0.26 
  -2   9  -1    0.00    0.12 
   2   9   1    0.04    0.09 
  -2   9  -2    0.33    0.12 
   2   9   2    0.40    0.11 
  -2   9  -3    0.18    0.12 
   2   9   3    0.19    0.11 
   2   9   4    0.96    0.14 
  -2   9  -4    1.01    0.14 
  -2   9  -5    0.25    0.12 
   2   9   5    0.26    0.13 
   2   9   6    1.52    0.17 
  -2   9  -6    2.05    0.17 
  -2   9  -7    0.27    0.13 
   2   9   7    0.23    0.14 
  -3   0  17   -0.16    0.15 
  -3   0  16    0.12    0.15 
  -3   0  15    0.04    0.14 
  -3   0  14    0.67    0.14 
  -3   0  13   -0.04    0.11 
  -3   0  12   18.35    0.43 
  -3   0  11    0.00    0.09 
  -3   0  10    1.56    0.12 
   3   0  -9    0.00    0.07 
  -3   0   9    0.00    0.07 
  -3   0   8    2.24    0.12 
   3   0  -8    2.40    0.12 
  -3   0   7    0.00    0.05 
   3   0  -7   -0.04    0.05 
   3   0  -6   31.30    0.56 
  -3   0   6   31.15    0.56 
  -3   0   5   -0.03    0.04 
   3   0  -5    0.00    0.04 
  -3   0   4   42.88    0.73 
   3   0  -4   43.06    0.73 
  -3   0   3    0.01    0.02 
   3   0  -3    0.03    0.03 
   3   0  -2    0.50    0.04 
  -3   0   2    0.43    0.03 
   3   0  -1    0.01    0.02 
  -3   0   1    0.02    0.02 
   3   0  -1   -0.01    0.02 
  -3   0   1    0.02    0.02 
  -3   0   0    0.56    0.03 
   3   0   0    0.57    0.04 
  -3   0   0    0.54    0.03 
   3   0   0    0.61    0.04 
   3   0   1   -0.01    0.02 
  -3   0  -1   -0.05    0.02 
   3   0   1   -0.01    0.02 
  -3   0  -1   -0.02    0.02 
   3   0   1   -0.04    0.02 
   3   0   2  284.86    4.82 
  -3   0  -2  299.41    4.83 
   3   0   2  297.17    4.85 
   3   0   2  300.29    4.82 
  -3   0  -2  287.67    4.84 
  -3   0  -2  302.77    4.83 
   3   0   3   -0.02    0.03 
  -3   0  -3   -0.02    0.03 
   3   0   3    0.00    0.03 
  -3   0  -3   -0.07    0.03 
   3   0   3    0.02    0.03 
   3   0   4    1.73    0.09 
   3   0   4    2.02    0.09 
  -3   0  -4    1.86    0.08 
  -3   0  -4    1.87    0.08 
   3   0   4    1.97    0.08 
   3   0   5    0.01    0.05 
  -3   0  -5    0.02    0.04 
   3   0   5    0.20    0.05 
  -3   0  -5    0.01    0.04 
   3   0   6    0.55    0.07 
  -3   0  -6    0.68    0.06 
   3   0   6    0.48    0.06 
   3   0   7    0.02    0.06 
  -3   0  -7    0.03    0.05 
   3   0   8   36.70    0.68 
   3   0   9   -0.14    0.08 
   3   0  10    1.76    0.13 
   3   0  11    0.01    0.10 
   3   0  12    1.29    0.15 
   3   0  13   -0.09    0.12 
   3   0  14    2.73    0.21 
   3   0  15    0.15    0.15 
   3   0  16    0.38    0.17 
   3   0  17    0.27    0.17 
  -3   1  17    0.07    0.16 
  -3   1  16    1.33    0.19 
  -3  -1  16    1.40    0.17 
  -3   1  15    0.71    0.16 
  -3  -1  15    0.95    0.15 
  -3   1  14    0.57    0.15 
  -3  -1  14    0.71    0.13 
  -3   1  13    0.16    0.12 
  -3  -1  13    0.23    0.11 
  -3   1  12    0.47    0.11 
  -3  -1  12    0.53    0.11 
  -3   1  11    0.12    0.10 
  -3  -1  11    0.21    0.09 
   3   1 -10    3.00    0.15 
  -3   1  10    3.13    0.18 
  -3  -1  10    3.00    0.16 
  -3   1   9   12.58    0.31 
   3   1  -9   12.71    0.30 
  -3  -1   9   12.75    0.29 
   3   1  -8    7.92    0.21 
  -3   1   8    8.12    0.23 
  -3  -1   8    8.03    0.21 
   3   1  -7    5.22    0.15 
  -3   1   7    5.48    0.18 
   3  -1  -7    5.59    0.17 
  -3  -1   7    5.47    0.15 
  -3   1   6    7.84    0.20 
   3   1  -6    8.15    0.19 
   3  -1  -6    8.10    0.20 
  -3  -1   6    8.20    0.18 
  -3   1   5   11.56    0.25 
   3   1  -5   11.67    0.23 
  -3  -1   5   11.50    0.23 
  -3   1   4   16.96    0.32 
   3   1  -4   16.56    0.30 
   3  -1  -4   16.65    0.32 
  -3  -1   4   16.52    0.30 
   3   1  -3   20.31    0.35 
  -3   1   3   20.22    0.37 
  -3  -1   3   20.09    0.34 
   3  -1  -3   20.17    0.37 
   3   1  -2    6.80    0.13 
  -3   1   2    6.62    0.15 
   3  -1  -2    7.08    0.15 
   3  -1  -2    7.02    0.15 
  -3   1   1  126.41    2.02 
   3   1  -1  121.27    2.03 
  -3   1   1  126.39    2.03 
   3  -1  -1  126.31    2.03 
   3  -1  -1  125.51    2.02 
   3   1   0    2.10    0.05 
  -3   1   0    1.99    0.07 
   3   1   0    2.17    0.05 
  -3   1   0    2.02    0.07 
   3  -1   0    2.06    0.07 
   3  -1   0    2.02    0.07 
  -3  -1   0    2.01    0.05 
   3   1   1    1.55    0.05 
  -3   1  -1    1.84    0.06 
   3   1   1    1.50    0.06 
  -3   1  -1    1.46    0.06 
   3  -1   1    1.47    0.05 
   3  -1   1    1.56    0.06 
  -3  -1  -1    1.53    0.04 
   3  -1   1    1.48    0.06 
   3   1   2   74.25    1.22 
   3   1   2   76.20    1.23 
  -3   1  -2   76.27    1.22 
  -3   1  -2   75.06    1.23 
  -3   1  -2   73.73    1.23 
   3  -1   2   75.62    1.23 
   3  -1   2   74.01    1.23 
  -3  -1  -2   73.59    1.22 
   3  -1   2   77.73    1.22 
  -3  -1  -2   74.30    1.23 
  -3   1  -3   11.04    0.21 
  -3   1  -3   10.85    0.22 
  -3   1  -3   11.21    0.22 
   3   1   3   11.17    0.22 
   3   1   3   10.78    0.22 
   3  -1   3   10.82    0.21 
  -3  -1  -3   11.05    0.22 
   3  -1   3   11.28    0.22 
   3  -1   3   11.13    0.22 
   3   1   4    1.00    0.07 
   3   1   4    1.04    0.08 
  -3   1  -4    1.13    0.08 
  -3   1  -4    1.12    0.06 
  -3   1  -4    1.35    0.07 
  -3  -1  -4    1.00    0.07 
   3  -1   4    1.01    0.07 
  -3  -1  -4    0.98    0.07 
   3  -1   4    0.98    0.07 
   3  -1   4    1.11    0.07 
  -3   1  -5   84.00    1.40 
   3   1   5   84.34    1.40 
   3   1   5   83.65    1.41 
  -3   1  -5   84.53    1.40 
   3  -1   5   83.74    1.40 
  -3  -1  -5   83.66    1.40 
  -3  -1  -5   86.82    1.40 
   3  -1   5   84.49    1.40 
  -3   1  -6    5.32    0.15 
   3   1   6    5.13    0.17 
   3   1   6    5.48    0.17 
  -3   1  -6    5.30    0.15 
  -3  -1  -6    5.01    0.15 
   3  -1   6    5.08    0.15 
   3  -1   6    5.47    0.16 
   3   1   7   47.54    0.85 
   3   1   7   47.50    0.85 
  -3   1  -7   48.30    0.84 
   3  -1   7   48.67    0.85 
   3   1   8    0.42    0.09 
  -3   1  -8    0.52    0.10 
   3  -1   8    0.46    0.08 
   3   1   9    3.51    0.18 
   3  -1   9    3.20    0.16 
   3   1  10   -0.05    0.09 
   3  -1  10    0.00    0.09 
   3   1  11   11.36    0.33 
   3  -1  11   11.68    0.32 
   3   1  12    0.36    0.12 
   3  -1  12    0.51    0.12 
   3   1  13    4.78    0.27 
   3  -1  13    4.90    0.25 
   3   1  14    0.51    0.16 
   3  -1  14    0.33    0.14 
   3   1  15   -0.09    0.15 
   3  -1  15   -0.01    0.14 
   3   1  16    0.04    0.17 
   3  -1  16    0.15    0.15 
   3   1  17    0.19    0.17 
   3  -1  17    0.05    0.17 
  -3   2  17   -0.40    0.17 
  -3   2  16   -0.07    0.17 
  -3   2  15    1.53    0.19 
  -3   2  14    1.33    0.18 
  -3  -2  14    1.13    0.14 
  -3   2  13    4.12    0.26 
  -3  -2  13    4.06    0.20 
  -3   2  12    2.99    0.22 
  -3  -2  12    2.82    0.17 
  -3   2  11    1.37    0.14 
  -3  -2  11    1.30    0.11 
   3   2 -10    1.26    0.11 
  -3   2  10    0.95    0.12 
  -3  -2  10    0.85    0.09 
  -3   2   9   18.93    0.42 
   3   2  -9   18.67    0.39 
  -3  -2   9   18.87    0.38 
   3   2  -8    6.01    0.18 
  -3   2   8    6.06    0.21 
  -3  -2   8    6.11    0.16 
  -3   2   7    3.31    0.15 
   3   2  -7    3.11    0.12 
  -3  -2   7    3.18    0.11 
   3   2  -6   24.96    0.44 
  -3   2   6   23.77    0.47 
   3  -2  -6   24.23    0.46 
  -3  -2   6   24.00    0.43 
   3   2  -5    2.63    0.09 
  -3   2   5    2.61    0.12 
  -3  -2   5    2.77    0.08 
  -3  -2   5    2.50    0.07 
  -3   2   4   60.50    1.02 
   3   2  -4   60.05    0.99 
  -3  -2   4   61.62    0.98 
   3  -2  -4   59.33    1.02 
  -3  -2   4   60.36    0.98 
   3  -2  -4   60.58    1.02 
  -3   2   3    4.76    0.13 
   3   2  -3    4.70    0.10 
   3  -2  -3    4.53    0.13 
   3  -2  -3    4.68    0.13 
  -3   2   2    1.56    0.07 
  -3   2   2    1.44    0.08 
   3   2  -2    1.53    0.04 
   3  -2  -2    1.50    0.08 
   3  -2  -2    1.54    0.07 
  -3   2   1    1.04    0.06 
  -3   2   1    0.98    0.07 
   3  -2  -1    0.93    0.06 
   3  -2  -1    0.88    0.06 
  -3   2   0   84.20    1.37 
   3   2   0   83.19    1.33 
  -3   2   0   84.13    1.37 
   3  -2   0   84.69    1.37 
   3  -2   0   80.81    1.36 
   3   2   1   60.80    1.00 
   3   2   1   60.22    0.97 
  -3   2  -1   59.51    1.00 
  -3   2  -1   58.36    1.00 
   3  -2   1   60.99    0.97 
   3  -2   1   60.74    1.00 
   3  -2   1   60.29    1.00 
  -3   2  -2   23.06    0.42 
   3   2   2   23.81    0.43 
   3   2   2   23.67    0.40 
  -3   2  -2   23.28    0.42 
  -3   2  -2   23.60    0.39 
  -3  -2  -2   23.52    0.40 
   3  -2   2   23.40    0.42 
  -3  -2  -2   23.92    0.42 
   3  -2   2   23.78    0.42 
   3   2   3    3.73    0.11 
  -3   2  -3    3.71    0.09 
  -3   2  -3    3.65    0.11 
   3   2   3    3.95    0.11 
   3  -2   3    3.56    0.11 
  -3  -2  -3    3.78    0.11 
   3  -2   3    3.70    0.11 
  -3  -2  -3    3.90    0.10 
  -3   2  -4    0.83    0.06 
  -3   2  -4    0.75    0.06 
  -3   2  -4    0.72    0.06 
   3   2   4    0.82    0.06 
   3   2   4    0.70    0.07 
  -3  -2  -4    0.80    0.06 
  -3  -2  -4    0.87    0.07 
   3  -2   4    0.94    0.07 
   3  -2   4    0.78    0.06 
   3   2   5   26.37    0.48 
   3   2   5   26.01    0.49 
  -3   2  -5   26.89    0.47 
  -3   2  -5   26.25    0.49 
  -3   2  -5   26.07    0.48 
  -3  -2  -5   26.21    0.47 
   3  -2   5   26.09    0.48 
  -3  -2  -5   25.89    0.49 
   3  -2   5   26.56    0.48 
  -3   2  -6    3.31    0.12 
   3   2   6    3.30    0.14 
  -3   2  -6    3.33    0.13 
   3   2   6    3.99    0.14 
  -3  -2  -6    3.31    0.14 
   3  -2   6    3.27    0.13 
   3   2   7   12.17    0.29 
  -3   2  -7   12.34    0.28 
   3   2   7   12.30    0.29 
  -3   2  -7   12.38    0.27 
   3  -2   7   12.68    0.28 
   3   2   8    8.24    0.24 
   3   2   8    8.59    0.25 
  -3   2  -8    8.01    0.23 
   3  -2   8    8.26    0.23 
   3   2   9    0.07    0.08 
   3  -2   9    0.04    0.07 
   3   2  10    1.33    0.13 
   3  -2  10    1.12    0.12 
   3   2  11    0.28    0.11 
   3  -2  11    0.36    0.10 
   3   2  12    0.76    0.14 
   3  -2  12    0.99    0.13 
   3   2  13    1.91    0.19 
   3  -2  13    1.94    0.16 
   3   2  14    0.18    0.15 
   3  -2  14    0.18    0.13 
   3   2  15    0.32    0.16 
   3  -2  15    0.32    0.15 
   3   2  16    0.59    0.18 
   3  -2  16    0.69    0.17 
   3   2  17   -0.02    0.18 
  -3   3  16    0.44    0.20 
  -3   3  15    0.61    0.18 
  -3   3  14    0.02    0.15 
  -3   3  13    0.20    0.15 
  -3  -3  13    0.07    0.10 
  -3   3  12    1.31    0.16 
  -3  -3  12    1.58    0.12 
   3   3 -11    6.20    0.22 
  -3   3  11    6.62    0.27 
  -3  -3  11    6.21    0.19 
  -3   3  10   10.34    0.31 
   3   3 -10    9.85    0.26 
  -3  -3  10    9.98    0.24 
  -3   3   9   11.85    0.32 
   3   3  -9   11.22    0.27 
  -3  -3   9   11.13    0.25 
   3   3  -8   12.52    0.28 
  -3   3   8   12.62    0.32 
  -3  -3   8   12.29    0.25 
   3   3  -7    7.82    0.19 
  -3   3   7    7.67    0.23 
  -3  -3   7    7.62    0.16 
   3   3  -6    0.05    0.04 
  -3   3   6    0.02    0.07 
   3  -3  -6    0.21    0.06 
  -3  -3   6    0.07    0.03 
  -3  -3   6    0.09    0.03 
   3   3  -5   13.10    0.25 
  -3   3   5   13.14    0.29 
   3  -3  -5   12.77    0.29 
   3  -3  -5   13.30    0.27 
   3   3  -4   46.51    0.78 
  -3   3   4   47.36    0.83 
   3  -3  -4   47.29    0.83 
   3  -3  -4   47.34    0.82 
   3  -3  -4   48.35    0.80 
   3   3  -3  137.16    2.14 
   3   3  -3  130.95    2.14 
  -3   3   3  132.95    2.19 
   3  -3  -3  132.57    2.19 
   3  -3  -3  134.78    2.16 
   3  -3  -3  132.86    2.18 
  -3   3   2   56.17    0.97 
  -3   3   2   57.97    0.97 
   3  -3  -2   57.17    0.94 
   3  -3  -2   57.36    0.97 
   3  -3  -2   57.76    0.97 
  -3   3   1   42.98    0.74 
  -3   3   1   43.02    0.74 
   3  -3  -1   42.97    0.70 
   3  -3  -1   42.30    0.74 
   3  -3  -1   43.58    0.73 
  -3   3   0   30.24    0.54 
  -3   3   0   30.81    0.55 
   3  -3   0   31.21    0.54 
   3  -3   0   31.26    0.54 
  -3   3  -1    1.22    0.07 
   3   3   1    1.34    0.08 
  -3   3  -1    1.29    0.08 
   3   3   1    1.44    0.05 
   3  -3   1    1.21    0.07 
   3  -3   1    1.23    0.07 
   3   3   2    3.68    0.10 
   3   3   2    3.64    0.12 
  -3   3  -2    3.66    0.07 
  -3   3  -2    3.70    0.12 
  -3   3  -2    3.66    0.11 
  -3  -3  -2    3.80    0.07 
   3  -3   2    3.63    0.11 
  -3  -3  -2    3.65    0.07 
   3  -3   2    3.70    0.11 
   3   3   3   14.41    0.27 
  -3   3  -3   14.19    0.29 
  -3   3  -3   14.36    0.25 
   3   3   3   14.08    0.29 
  -3   3  -3   14.09    0.28 
   3  -3   3   14.16    0.28 
  -3  -3  -3   14.05    0.26 
  -3  -3  -3   14.34    0.29 
   3  -3   3   14.40    0.28 
  -3   3  -4   47.69    0.84 
  -3   3  -4   49.20    0.83 
   3   3   4   49.45    0.83 
   3   3   4   46.89    0.84 
  -3   3  -4   49.51    0.81 
  -3  -3  -4   48.33    0.81 
   3  -3   4   49.54    0.83 
  -3  -3  -4   47.76    0.84 
   3  -3   4   48.10    0.83 
  -3   3  -5   28.99    0.53 
  -3   3  -5   28.94    0.51 
  -3   3  -5   29.57    0.54 
   3   3   5   29.87    0.53 
   3   3   5   29.05    0.54 
  -3  -3  -5   28.62    0.52 
   3  -3   5   28.84    0.53 
  -3   3  -6    0.07    0.07 
   3   3   6   -0.05    0.07 
   3   3   6    0.06    0.06 
  -3   3  -6    0.08    0.05 
  -3   3  -6    0.20    0.05 
   3  -3   6    0.10    0.05 
  -3   3  -7    3.08    0.14 
   3   3   7    3.44    0.15 
  -3   3  -7    3.06    0.12 
   3   3   7    3.22    0.15 
   3  -3   7    3.31    0.14 
  -3   3  -8    2.58    0.14 
   3   3   8    2.53    0.16 
   3   3   8    2.64    0.17 
   3  -3   8    2.84    0.15 
   3   3   9    8.90    0.28 
   3   3   9    8.75    0.28 
   3  -3   9    9.64    0.26 
   3   3  10    1.70    0.14 
   3  -3  10    2.34    0.17 
   3   3  11    2.94    0.22 
   3  -3  11    2.77    0.18 
   3   3  12    1.42    0.16 
   3  -3  12    1.60    0.14 
   3   3  13    0.18    0.15 
   3  -3  13    0.16    0.11 
   3   3  14   -0.09    0.15 
   3  -3  14   -0.06    0.12 
   3   3  15    0.25    0.16 
   3  -3  15    0.14    0.14 
   3   3  16    0.63    0.19 
  -3   4  16    0.08    0.19 
  -3   4  15    0.39    0.18 
  -3   4  14    2.37    0.23 
  -3   4  13    2.74    0.22 
  -3   4  12    6.40    0.31 
  -3   4  11   -0.13    0.12 
  -3  -4  11    0.12    0.06 
   3   4 -10    0.02    0.08 
  -3   4  10    0.23    0.12 
  -3  -4  10    0.07    0.05 
  -3   4   9    0.05    0.10 
   3   4  -9   -0.02    0.06 
  -3  -4   9    0.01    0.04 
   3   4  -8    8.20    0.21 
  -3   4   8    8.25    0.27 
   3  -4  -8    8.06    0.25 
  -3  -4   8    8.07    0.16 
  -3  -4   8    8.22    0.16 
  -3   4   7   11.14    0.30 
   3   4  -7   10.59    0.24 
   3  -4  -7   11.18    0.29 
   3   4  -6   30.65    0.55 
  -3   4   6   30.95    0.60 
   3  -4  -6   31.76    0.59 
   3  -4  -6   30.60    0.59 
   3   4  -5    7.03    0.16 
  -3   4   5    7.34    0.22 
   3  -4  -5    7.02    0.21 
   3  -4  -5    7.20    0.18 
   3   4  -4    8.37    0.16 
   3   4  -4    8.08    0.16 
  -3   4   4    7.98    0.22 
   3  -4  -4    8.20    0.21 
   3  -4  -4    8.06    0.18 
  -3   4   3    0.86    0.08 
   3   4  -3    0.69    0.04 
   3   4  -3    0.61    0.04 
   3  -4  -3    0.68    0.07 
   3  -4  -3    0.76    0.06 
  -3   4   2   20.70    0.41 
  -3   4   2   21.26    0.41 
   3  -4  -2   20.43    0.40 
   3  -4  -2   20.82    0.36 
  -3   4   1   49.49    0.84 
  -3   4   1   47.20    0.84 
   3  -4  -1   48.74    0.83 
   3  -4  -1   48.10    0.83 
  -3   4   0   31.93    0.57 
   3   4   0   31.53    0.52 
   3   4   0   31.10    0.52 
  -3   4   0   31.63    0.57 
   3   4   0   31.83    0.56 
   3  -4   0   32.00    0.56 
   3  -4   0   30.86    0.56 
  -3   4  -1    0.89    0.08 
  -3   4  -1    0.88    0.07 
   3   4   1    0.80    0.07 
   3   4   1    0.91    0.06 
   3  -4   1    0.83    0.06 
   3  -4   1    0.80    0.06 
   3   4   2   15.08    0.31 
   3   4   2   14.93    0.28 
  -3   4  -2   14.77    0.31 
  -3   4  -2   14.69    0.30 
   3  -4   2   15.13    0.29 
   3  -4   2   14.92    0.29 
   3   4   3    0.18    0.05 
  -3   4  -3    0.06    0.05 
  -3   4  -3    0.21    0.06 
  -3   4  -3    0.16    0.03 
   3   4   3    0.08    0.06 
  -3  -4  -3    0.09    0.02 
   3  -4   3    0.17    0.05 
  -3  -4  -3    0.19    0.03 
  -3   4  -4    0.18    0.03 
  -3   4  -4    0.10    0.05 
   3   4   4    0.09    0.06 
  -3   4  -4    0.17    0.06 
   3   4   4    0.08    0.05 
  -3  -4  -4    0.19    0.04 
   3  -4   4    0.11    0.05 
  -3  -4  -4    0.15    0.03 
  -3   4  -5    1.02    0.08 
   3   4   5    1.59    0.10 
  -3   4  -5    1.39    0.08 
   3   4   5    1.13    0.10 
  -3   4  -5    1.25    0.09 
   3  -4   5    1.54    0.10 
  -3   4  -6   14.92    0.33 
  -3   4  -6   14.69    0.29 
  -3   4  -6   14.97    0.32 
   3   4   6   15.26    0.33 
   3   4   6   14.88    0.34 
   3  -4   6   14.54    0.31 
  -3   4  -7   19.47    0.41 
   3   4   7   19.99    0.43 
  -3   4  -7   20.07    0.42 
   3   4   7   19.79    0.42 
  -3   4  -7   19.56    0.38 
   3  -4   7   19.88    0.40 
   3   4   8    5.20    0.22 
  -3   4  -8    4.98    0.19 
   3   4   8    5.29    0.22 
   3  -4   8    5.27    0.18 
   3   4   9    5.46    0.24 
   3   4   9    4.94    0.23 
   3  -4   9    5.44    0.20 
   3   4  10    0.06    0.11 
   3  -4  10    0.16    0.09 
   3   4  11    0.97    0.15 
   3  -4  11    0.90    0.12 
   3   4  12    1.51    0.18 
   3  -4  12    1.39    0.14 
   3   4  13   -0.02    0.15 
   3  -4  13    0.22    0.11 
   3   4  14    1.28    0.20 
   3   4  15    0.21    0.17 
   3   4  16    0.24    0.19 
  -3   5  15    0.97    0.22 
  -3   5  14    0.35    0.18 
  -3   5  13    0.10    0.17 
   3  -5 -13   -0.08    0.13 
  -3   5  12    0.06    0.16 
   3  -5 -12    0.00    0.12 
  -3   5  11    0.54    0.15 
   3  -5 -11    0.43    0.13 
  -3   5  10    4.26    0.26 
   3  -5 -10    4.42    0.23 
  -3   5   9   12.16    0.36 
   3  -5  -9   12.54    0.34 
   3   5  -8    8.04    0.21 
  -3   5   8    8.27    0.29 
   3  -5  -8    8.22    0.26 
  -3   5   7    0.23    0.10 
   3   5  -7    0.39    0.06 
   3  -5  -7    0.11    0.08 
   3   5  -6    1.10    0.07 
  -3   5   6    1.21    0.12 
   3  -5  -6    0.92    0.10 
  -3   5   5   22.13    0.47 
   3   5  -5   21.82    0.40 
   3   5  -5   22.21    0.40 
   3  -5  -5   22.86    0.45 
   3  -5  -5   21.56    0.42 
   3   5  -4   11.51    0.23 
  -3   5   4   11.86    0.30 
   3   5  -4   12.18    0.23 
   3  -5  -4   11.92    0.25 
   3  -5  -4   12.12    0.28 
   3   5  -3   13.64    0.24 
   3   5  -3   13.33    0.24 
  -3   5   3   13.52    0.31 
   3  -5  -3   13.44    0.26 
   3  -5  -3   13.52    0.30 
  -3   5   2   27.59    0.53 
   3   5  -2   27.74    0.46 
  -3   5   2   28.30    0.53 
   3   5  -2   27.65    0.46 
   3  -5  -2   27.91    0.51 
   3   5  -1    6.03    0.12 
   3   5  -1    6.01    0.12 
  -3   5   1    5.89    0.19 
  -3   5   1    5.82    0.18 
   3  -5  -1    6.28    0.16 
  -3   5   0    0.82    0.08 
   3   5   0    0.81    0.05 
   3   5   0    0.81    0.06 
   3   5   0    0.67    0.07 
  -3   5   0    0.59    0.08 
   3  -5   0    0.88    0.07 
   3   5   1    1.74    0.08 
  -3   5  -1    1.77    0.11 
   3   5   1    1.71    0.11 
  -3   5  -1    1.72    0.12 
   3  -5   1    1.52    0.09 
   3   5   2    3.20    0.12 
  -3   5  -2    3.42    0.14 
   3   5   2    3.07    0.14 
  -3   5  -2    3.17    0.13 
   3  -5   2    3.44    0.12 
   3   5   3   13.73    0.31 
   3   5   3   13.51    0.29 
  -3   5  -3   14.03    0.31 
  -3   5  -3   13.34    0.29 
   3  -5   3   13.65    0.28 
  -3   5  -4   14.93    0.33 
  -3   5  -4   14.38    0.31 
  -3   5  -4   14.18    0.26 
   3   5   4   14.31    0.31 
   3   5   4   14.33    0.32 
  -3  -5  -4   14.48    0.26 
   3  -5   4   14.30    0.29 
  -3  -5  -4   14.30    0.26 
   3   5   5    8.67    0.23 
  -3   5  -5    7.94    0.23 
  -3   5  -5    8.13    0.18 
   3   5   5    8.10    0.24 
  -3   5  -5    8.12    0.22 
   3  -5   5    7.93    0.20 
  -3   5  -6    5.87    0.19 
   3   5   6    5.68    0.21 
   3   5   6    6.03    0.21 
  -3   5  -6    5.64    0.15 
  -3   5  -6    5.96    0.21 
  -3  -5  -6    5.67    0.16 
   3  -5   6    6.01    0.17 
  -3   5  -7    1.22    0.11 
  -3   5  -7    0.98    0.08 
   3   5   7    0.87    0.11 
  -3   5  -7    1.01    0.12 
   3   5   7    1.06    0.13 
   3  -5   7    0.87    0.09 
   3   5   8    0.49    0.12 
   3   5   8    0.59    0.12 
  -3   5  -8    0.56    0.11 
  -3   5  -8    0.59    0.09 
   3  -5   8    0.57    0.08 
   3   5   9    0.35    0.12 
   3   5   9    0.35    0.11 
   3  -5   9    0.45    0.09 
   3   5  10    2.64    0.18 
   3  -5  10    3.13    0.17 
   3   5  11    2.83    0.21 
   3   5  12    0.85    0.17 
   3   5  13    0.19    0.16 
   3   5  14    0.35    0.17 
   3   5  15    1.02    0.21 
  -3   6  14    0.14    0.19 
  -3   6  13    1.11    0.21 
   3  -6 -13    1.11    0.22 
  -3   6  12    0.98    0.18 
   3  -6 -12    1.06    0.16 
  -3   6  11    1.23    0.19 
   3  -6 -11    0.91    0.15 
  -3   6  10    1.36    0.17 
   3  -6 -10    1.42    0.15 
  -3   6   9    0.46    0.14 
   3  -6  -9    0.42    0.12 
  -3   6   8    3.09    0.23 
   3  -6  -8    2.72    0.19 
  -3   6   7    3.24    0.22 
   3  -6  -7    3.21    0.19 
  -3   6   6    0.49    0.12 
   3   6  -6    0.42    0.06 
   3  -6  -6    0.48    0.10 
   3   6  -5    1.61    0.09 
  -3   6   5    1.50    0.13 
   3   6  -5    1.75    0.10 
   3  -6  -5    1.56    0.10 
   3  -6  -5    1.57    0.11 
   3   6  -4    3.82    0.12 
   3   6  -4    3.73    0.11 
  -3   6   4    3.33    0.19 
   3  -6  -4    3.84    0.16 
   3  -6  -4    4.00    0.12 
  -3   6   3    0.81    0.10 
   3   6  -3    0.93    0.06 
   3   6  -3    0.99    0.07 
   3  -6  -3    0.79    0.08 
   3   6  -2    0.03    0.04 
  -3   6   2    0.10    0.09 
  -3   6   2   -0.01    0.07 
   3   6  -2    0.00    0.04 
   3  -6  -2    0.05    0.06 
  -3   6   1    0.54    0.09 
   3   6  -1    0.59    0.05 
   3   6  -1    0.64    0.05 
   3   6  -1    0.42    0.08 
  -3   6   1    0.48    0.08 
   3  -6  -1    0.64    0.07 
  -3   6   0   12.59    0.30 
   3   6   0   12.21    0.28 
  -3   6   0   12.41    0.29 
   3   6   0   12.02    0.24 
   3  -6   0   12.13    0.26 
  -3   6  -1   13.67    0.32 
  -3   6  -1   13.29    0.31 
   3   6   1   13.34    0.30 
   3   6   1   13.33    0.27 
   3  -6   1   13.44    0.27 
   3   6   2    8.22    0.20 
  -3   6  -2    8.05    0.24 
   3   6   2    7.89    0.23 
  -3   6  -2    8.65    0.23 
   3  -6   2    7.96    0.19 
   3   6   3    6.69    0.19 
  -3   6  -3    6.77    0.20 
   3   6   3    6.92    0.21 
  -3   6  -3    6.69    0.22 
   3  -6   3    6.37    0.17 
  -3   6  -4    0.49    0.08 
   3   6   4    0.71    0.10 
  -3   6  -4    0.50    0.09 
   3   6   4    0.59    0.09 
  -3   6  -4    0.54    0.03 
   3  -6   4    0.52    0.06 
  -3   6  -5    1.43    0.12 
   3   6   5    1.23    0.12 
  -3   6  -5    0.87    0.07 
   3   6   5    0.99    0.11 
  -3   6  -5    1.05    0.10 
   3  -6   5    1.07    0.08 
  -3  -6  -5    1.01    0.06 
  -3   6  -6    3.42    0.17 
   3   6   6    3.11    0.18 
  -3   6  -6    3.35    0.19 
   3   6   6    3.42    0.19 
  -3  -6  -6    3.40    0.12 
   3  -6   6    3.39    0.13 
   3   6   7    0.37    0.11 
  -3   6  -7    0.33    0.10 
   3   6   7    0.28    0.10 
   3  -6   7    0.51    0.07 
  -3  -6  -7    0.36    0.07 
  -3   6  -8    2.91    0.21 
   3   6   8    2.79    0.20 
   3   6   8    2.72    0.21 
  -3  -6  -8    2.95    0.18 
   3   6   9    1.71    0.17 
   3   6   9    1.69    0.16 
  -3   6  -9    1.37    0.15 
   3   6  10   -0.03    0.12 
   3   6  11    0.16    0.15 
   3   6  12    0.14    0.15 
   3   6  13    0.55    0.18 
  -3   7  12    0.02    0.17 
  -3   7  11    0.00    0.17 
  -3   7  10    0.94    0.18 
  -3   7   9    0.53    0.16 
  -3   7   8    1.59    0.18 
  -3   7   7    0.52    0.14 
   3  -7  -7    0.60    0.13 
  -3   7   6    1.16    0.15 
   3   7  -6    1.35    0.10 
   3  -7  -6    1.33    0.12 
  -3   7   5    0.71    0.13 
   3   7  -5    0.86    0.08 
   3  -7  -5    0.76    0.10 
   3   7  -4    2.22    0.13 
  -3   7   4    2.20    0.16 
   3   7  -4    2.28    0.11 
   3  -7  -4    2.31    0.14 
   3   7  -3    2.75    0.11 
   3   7  -3    2.80    0.11 
  -3   7   3    2.98    0.20 
   3  -7  -3    3.21    0.14 
   3   7  -2    5.35    0.15 
   3   7  -2    5.53    0.19 
  -3   7   2    5.75    0.23 
   3   7  -2    5.60    0.15 
   3  -7  -2    5.62    0.17 
   3   7  -1    1.72    0.10 
  -3   7   1    1.68    0.13 
   3   7  -1    1.74    0.12 
   3   7  -1    1.60    0.09 
   3  -7  -1    1.48    0.09 
   3   7   0    1.41    0.10 
  -3   7   0    1.48    0.13 
   3   7   0    1.66    0.12 
  -3   7  -1   -0.06    0.09 
   3   7   1    0.07    0.08 
   3   7   1    0.02    0.06 
   3  -7   1    0.05    0.05 
   3   7   2    0.30    0.09 
   3   7   2    0.18    0.07 
  -3   7  -2    0.32    0.10 
   3  -7   2    0.20    0.05 
  -3   7  -3   -0.06    0.09 
   3   7   3   -0.13    0.09 
   3   7   3    0.05    0.07 
   3   7   4    7.13    0.23 
   3   7   4    7.01    0.24 
  -3   7  -4    7.16    0.24 
   3   7   5    0.08    0.10 
  -3   7  -5    0.12    0.10 
   3   7   5    0.06    0.09 
  -3   7  -6    6.72    0.25 
   3   7   6    6.07    0.25 
   3   7   6    6.51    0.25 
   3   7   7    0.31    0.12 
   3   7   7    0.37    0.12 
  -3   7  -7    0.47    0.12 
   3   7   8   -0.04    0.12 
  -3   7  -8    0.05    0.12 
   3   7   8    0.09    0.12 
  -3   7  -9    0.25    0.13 
   3   7   9    0.21    0.14 
   3   7  10    0.55    0.16 
   3   7  11    0.33    0.16 
   3   7  12    2.44    0.23 
  -3   8  10    0.04    0.17 
  -3   8   9    0.11    0.17 
  -3   8   8    0.17    0.15 
  -3   8   7    0.53    0.15 
   3   8  -6   -0.01    0.08 
  -3   8   6   -0.05    0.14 
   3   8  -5    4.83    0.17 
  -3   8   5    4.86    0.27 
   3   8  -4    0.07    0.09 
  -3   8   4    0.14    0.12 
   3   8  -4    0.03    0.07 
   3   8  -3    2.86    0.13 
  -3   8   3    2.98    0.22 
   3   8  -3    3.07    0.17 
  -3   8   2    0.05    0.11 
   3   8  -2   -0.03    0.06 
   3   8  -2    0.05    0.09 
   3   8  -1    0.16    0.09 
  -3   8   1    0.07    0.11 
   3   8  -1    0.09    0.07 
  -3   8   0   -0.08    0.10 
   3   8   0    0.06    0.07 
   3   8   0   -0.07    0.09 
   3   8   1    5.04    0.21 
   3   8   1    5.21    0.18 
  -3   8  -1    5.15    0.23 
   3   8   2    1.04    0.11 
  -3   8  -2    0.95    0.13 
   3   8   2    0.84    0.12 
   3   8   3    1.31    0.12 
  -3   8  -3    1.48    0.14 
   3   8   3    1.39    0.13 
  -3   8  -4    0.92    0.13 
   3   8   4    0.97    0.12 
   3   8   4    0.84    0.12 
   3   8   5    0.05    0.10 
   3   8   5    0.02    0.11 
  -3   8  -5    0.10    0.11 
   3   8   6   -0.13    0.11 
  -3   8  -6    0.03    0.11 
   3   8   6   -0.01    0.11 
   3   8   7    0.88    0.15 
  -3   8  -7    0.81    0.14 
   3   8   7    0.92    0.15 
   3   8   8    0.01    0.13 
   3   8   8    0.11    0.14 
  -3   8  -8    0.19    0.13 
   3   8   9    0.06    0.15 
  -3   8  -9    0.18    0.14 
   3   8  10    0.43    0.17 
  -3   9   7    0.15    0.16 
  -3   9   6   -0.02    0.15 
   3   9  -6    0.06    0.09 
   3   9  -5    0.19    0.08 
  -3   9   5    0.21    0.15 
  -3   9   4    1.27    0.17 
   3   9  -4    1.35    0.11 
   3   9  -3    0.40    0.09 
  -3   9   3    0.41    0.14 
  -3   9   2    4.16    0.26 
   3   9  -2    3.69    0.16 
  -3   9   1    0.25    0.13 
   3   9  -1    0.35    0.09 
  -3   9   0    1.27    0.15 
   3   9   0    1.33    0.11 
   3   9   1    0.05    0.09 
  -3   9  -1    0.17    0.12 
  -3   9  -2    0.83    0.14 
   3   9   2    1.19    0.12 
  -3   9  -3    0.48    0.13 
   3   9   3    0.74    0.12 
   3   9   4    1.84    0.15 
  -3   9  -4    2.00    0.17 
   3   9   4    2.11    0.22 
  -3   9  -5   -0.02    0.12 
   3   9   5    0.11    0.14 
   3   9   5    0.14    0.12 
  -3   9  -6    0.74    0.15 
   3   9   6    0.76    0.17 
   3   9   6    0.49    0.14 
   3   9   7    0.24    0.14 
   3   9   7    0.32    0.15 
  -3   9  -7    0.18    0.14 
  -4   0  17   -0.09    0.16 
  -4   0  16    4.57    0.30 
  -4   0  15    0.06    0.14 
  -4   0  14    3.66    0.24 
  -4   0  13    0.04    0.11 
  -4   0  12   10.08    0.30 
  -4   0  11    0.05    0.09 
  -4   0  10   16.00    0.37 
  -4   0   9    0.11    0.07 
   4   0  -9    0.07    0.07 
  -4   0   8   16.81    0.35 
   4   0  -8   16.69    0.35 
  -4   0   7    0.01    0.06 
   4   0  -7    0.06    0.05 
   4   0  -6    8.07    0.19 
  -4   0   6    7.88    0.19 
  -4   0   5    0.01    0.04 
   4   0  -5    0.01    0.04 
  -4   0   4   43.11    0.72 
   4   0  -4   42.11    0.73 
  -4   0   3    0.02    0.03 
   4   0  -3    0.05    0.03 
   4   0  -2  100.80    1.65 
   4   0  -2   98.93    1.65 
  -4   0   2  104.56    1.65 
  -4   0   1    0.02    0.02 
  -4   0   1   -0.02    0.02 
   4   0  -1    0.02    0.02 
   4   0  -1    0.07    0.03 
   4   0   0   24.31    0.42 
  -4   0   0   24.47    0.42 
   4   0   0   24.80    0.42 
  -4   0   0   24.29    0.42 
   4   0   1    0.15    0.03 
   4   0   1   -0.02    0.02 
  -4   0  -1    0.04    0.03 
  -4   0  -1    0.02    0.02 
   4   0   1    0.00    0.03 
  -4   0  -2   53.38    0.90 
   4   0   2   53.77    0.90 
  -4   0  -2   52.75    0.90 
   4   0   2   54.46    0.90 
   4   0   2   54.37    0.90 
  -4   0  -2   55.72    0.90 
   4   0   3   -0.01    0.03 
  -4   0  -3    0.01    0.03 
   4   0   3    0.03    0.03 
   4   0   3    0.03    0.04 
  -4   0  -3   -0.01    0.03 
   4   0   4   80.75    1.34 
   4   0   4   80.14    1.34 
   4   0   4   78.99    1.34 
  -4   0  -4   80.66    1.33 
  -4   0  -4   82.34    1.33 
   4   0   5    0.05    0.05 
  -4   0  -5   -0.02    0.04 
   4   0   5    0.00    0.04 
  -4   0  -5    0.00    0.04 
   4   0   5   -0.05    0.04 
   4   0   6   31.24    0.57 
   4   0   6   31.58    0.57 
  -4   0  -6   31.08    0.57 
   4   0   6   30.72    0.57 
  -4   0  -6   31.50    0.60 
   4   0   7    0.00    0.06 
   4   0   7   -0.03    0.06 
   4   0   7    0.01    0.06 
   4   0   8   60.05    1.05 
   4   0   9   -0.05    0.08 
   4   0  10    1.65    0.13 
   4   0  11   -0.14    0.10 
   4   0  12   21.01    0.49 
   4   0  13   -0.19    0.12 
   4   0  14    1.99    0.19 
   4   0  15   -0.13    0.14 
   4   0  16    0.10    0.16 
   4   0  17   -0.02    0.17 
  -4   1  17    0.89    0.20 
  -4   1  16    0.06    0.16 
  -4   1  15    0.29    0.15 
  -4  -1  15    0.16    0.13 
  -4   1  14    0.17    0.13 
  -4  -1  14    0.25    0.12 
  -4   1  13    9.32    0.32 
  -4  -1  13    9.37    0.30 
  -4   1  12    0.03    0.11 
  -4  -1  12   -0.03    0.09 
  -4   1  11   27.04    0.57 
  -4  -1  11   26.94    0.54 
   4   1 -10    4.14    0.17 
  -4   1  10    4.22    0.20 
  -4  -1  10    4.25    0.17 
   4   1  -9   13.82    0.31 
  -4   1   9   13.88    0.33 
  -4  -1   9   13.13    0.30 
   4   1  -8    0.12    0.06 
  -4   1   8    0.09    0.07 
  -4  -1   8    0.20    0.06 
   4   1  -7   32.94    0.59 
  -4   1   7   33.31    0.61 
  -4  -1   7   32.65    0.59 
   4  -1  -7   32.38    0.60 
   4   1  -6    0.12    0.04 
  -4   1   6    0.16    0.06 
  -4  -1   6    0.18    0.04 
   4  -1  -6    0.22    0.06 
   4   1  -5  104.17    1.71 
  -4   1   5  104.31    1.73 
  -4  -1   5  105.68    1.71 
   4  -1  -5  104.24    1.73 
  -4   1   4   24.25    0.44 
   4   1  -4   24.11    0.43 
   4  -1  -4   24.47    0.44 
  -4  -1   4   24.33    0.42 
   4   1  -3   53.45    0.90 
  -4   1   3   55.35    0.92 
   4  -1  -3   55.09    0.92 
   4  -1  -3   53.88    0.91 
  -4  -1   3   54.31    0.89 
  -4   1   2    0.12    0.04 
   4   1  -2    0.12    0.02 
   4  -1  -2    0.16    0.04 
  -4  -1   2    0.14    0.02 
   4  -1  -2    0.17    0.04 
  -4   1   1    0.52    0.04 
  -4   1   1    0.70    0.05 
   4   1  -1    0.60    0.04 
   4   1  -1    0.60    0.04 
   4  -1  -1    0.71    0.05 
  -4  -1   1    0.44    0.03 
   4  -1  -1    0.63    0.05 
   4   1   0    0.05    0.02 
  -4   1   0    0.03    0.03 
   4   1   0    0.01    0.02 
  -4   1   0    0.16    0.03 
   4  -1   0    0.06    0.03 
  -4  -1   0    0.05    0.02 
   4  -1   0    0.07    0.03 
   4   1   1   39.19    0.65 
  -4   1  -1   37.93    0.66 
  -4   1  -1   39.17    0.66 
   4   1   1   37.52    0.66 
   4   1   1   38.67    0.65 
   4  -1   1   39.61    0.66 
   4  -1   1   39.31    0.65 
  -4  -1  -1   39.15    0.64 
   4  -1   1   39.05    0.66 
  -4   1  -2    0.03    0.03 
   4   1   2    0.09    0.03 
   4   1   2    0.06    0.04 
  -4   1  -2    0.02    0.02 
   4   1   2    0.06    0.03 
  -4   1  -2    0.05    0.03 
   4  -1   2    0.05    0.03 
   4  -1   2    0.04    0.03 
   4  -1   2    0.06    0.03 
  -4  -1  -2    0.06    0.03 
   4   1   3   14.60    0.29 
   4   1   3   14.64    0.28 
  -4   1  -3   14.60    0.28 
  -4   1  -3   14.67    0.27 
   4  -1   3   14.77    0.29 
  -4  -1  -3   13.96    0.27 
  -4  -1  -3   14.85    0.29 
   4  -1   3   14.67    0.27 
   4   1   4    6.77    0.16 
  -4   1  -4    6.81    0.16 
  -4   1  -4    6.88    0.17 
   4   1   4    6.85    0.17 
   4  -1   4    6.93    0.16 
  -4  -1  -4    6.57    0.17 
   4  -1   4    6.80    0.17 
   4  -1   4    6.92    0.17 
  -4  -1  -4    6.48    0.16 
  -4   1  -5    0.37    0.05 
   4   1   5    0.28    0.06 
   4   1   5    0.51    0.07 
  -4   1  -5    0.37    0.05 
   4  -1   5    0.47    0.06 
  -4  -1  -5    0.49    0.06 
  -4  -1  -5    0.43    0.05 
   4  -1   5    0.49    0.06 
   4  -1   5    0.42    0.05 
  -4   1  -6   42.21    0.72 
   4   1   6   40.39    0.73 
   4  -1   6   40.73    0.72 
   4  -1   6   40.42    0.73 
  -4  -1  -6   41.57    0.72 
   4  -1   6   40.55    0.73 
   4   1   7   63.01    1.08 
  -4   1  -7   61.26    1.07 
   4   1   7   62.76    1.08 
   4  -1   7   61.89    1.08 
   4   1   8    0.55    0.10 
   4   1   8    0.73    0.10 
   4  -1   8    0.81    0.10 
   4   1   9    4.09    0.19 
   4  -1   9    3.61    0.18 
   4   1  10    0.38    0.11 
   4  -1  10    0.61    0.11 
   4   1  11    0.41    0.12 
   4  -1  11    0.30    0.12 
   4   1  12    0.30    0.13 
   4  -1  12    0.19    0.11 
   4   1  13    0.29    0.13 
   4  -1  13    0.34    0.12 
   4   1  14    0.00    0.13 
   4  -1  14    0.05    0.14 
   4   1  15    0.87    0.18 
   4  -1  15    0.56    0.16 
   4   1  16   -0.04    0.17 
   4  -1  16   -0.02    0.16 
   4   1  17    0.31    0.19 
   4  -1  17    0.08    0.18 
  -4   2  17    0.24    0.19 
  -4   2  16    1.04    0.19 
  -4   2  15   -0.06    0.16 
  -4   2  14    3.50    0.27 
  -4  -2  14    3.43    0.21 
  -4   2  13   -0.13    0.12 
  -4  -2  13   -0.02    0.09 
  -4   2  12    1.47    0.16 
  -4  -2  12    1.56    0.12 
   4   2 -11    3.94    0.18 
  -4   2  11    4.03    0.23 
  -4  -2  11    3.95    0.17 
   4   2 -10    2.82    0.15 
  -4   2  10    2.63    0.19 
  -4  -2  10    2.62    0.14 
   4   2  -9    0.28    0.07 
  -4   2   9    0.24    0.10 
  -4  -2   9    0.27    0.06 
  -4   2   8   28.43    0.56 
   4   2  -8   28.53    0.53 
  -4  -2   8   28.43    0.52 
  -4   2   7   19.69    0.41 
   4   2  -7   19.71    0.38 
  -4  -2   7   19.90    0.37 
  -4   2   6   42.67    0.76 
   4   2  -6   42.23    0.73 
   4  -2  -6   42.30    0.79 
  -4  -2   6   42.07    0.71 
   4   2  -5   42.77    0.75 
  -4   2   5   44.26    0.78 
   4  -2  -5   45.40    0.78 
  -4   2   4    9.65    0.23 
   4   2  -4    9.74    0.19 
   4  -2  -4    9.96    0.23 
  -4  -2   4    9.87    0.17 
   4  -2  -4    9.74    0.22 
  -4  -2   4    9.94    0.17 
  -4   2   3    5.57    0.16 
   4   2  -3    5.72    0.12 
   4  -2  -3    6.03    0.15 
   4  -2  -3    6.05    0.16 
  -4   2   2   49.13    0.84 
   4   2  -2   48.99    0.80 
  -4   2   2   50.00    0.84 
   4  -2  -2   49.39    0.84 
   4  -2  -2   49.99    0.84 
  -4   2   1    1.78    0.08 
  -4   2   1    1.98    0.08 
   4   2  -1    1.90    0.05 
   4  -2  -1    1.80    0.09 
   4   2   0   58.39    0.94 
  -4   2   0   56.36    0.97 
  -4   2   0   59.35    0.98 
   4  -2   0   57.30    0.97 
   4  -2   0   58.60    0.97 
   4   2   1   28.77    0.48 
  -4   2  -1   28.53    0.51 
  -4   2  -1   27.77    0.50 
   4   2   1   28.84    0.51 
   4  -2   1   28.51    0.50 
   4  -2   1   28.05    0.50 
  -4  -2  -1   28.47    0.46 
   4  -2   1   29.09    0.47 
  -4   2  -2   13.76    0.27 
  -4   2  -2   13.50    0.27 
   4   2   2   13.43    0.27 
   4   2   2   13.88    0.25 
  -4   2  -2   13.33    0.24 
   4  -2   2   13.50    0.27 
   4  -2   2   13.57    0.24 
  -4  -2  -2   13.41    0.24 
   4   2   3    4.03    0.11 
  -4   2  -3    3.85    0.13 
  -4   2  -3    3.99    0.10 
  -4   2  -3    4.11    0.12 
   4   2   3    3.98    0.13 
   4  -2   3    4.01    0.12 
  -4  -2  -3    3.84    0.10 
   4  -2   3    4.03    0.12 
   4  -2   3    4.16    0.10 
   4   2   4   35.25    0.61 
  -4   2  -4   33.34    0.62 
  -4   2  -4   36.06    0.60 
  -4   2  -4   34.62    0.62 
   4   2   4   34.80    0.63 
  -4  -2  -4   34.76    0.60 
   4  -2   4   36.41    0.62 
   4  -2   4   35.65    0.62 
   4   2   5    0.10    0.06 
   4   2   5    0.19    0.06 
  -4   2  -5    0.17    0.04 
  -4   2  -5    0.09    0.05 
  -4   2  -5    0.08    0.06 
   4  -2   5    0.16    0.06 
  -4  -2  -5    0.10    0.04 
   4  -2   5   -0.01    0.05 
   4   2   6   25.58    0.48 
  -4   2  -6   25.27    0.48 
  -4   2  -6   24.37    0.47 
  -4   2  -6   24.57    0.46 
   4   2   6   24.58    0.49 
   4  -2   6   25.48    0.48 
  -4   2  -7    5.18    0.17 
   4   2   7    5.55    0.19 
   4   2   7    5.20    0.18 
   4  -2   7    5.18    0.17 
   4   2   8    2.96    0.16 
   4   2   8    2.87    0.17 
   4  -2   8    3.20    0.16 
   4   2   9    3.37    0.19 
   4   2   9    3.38    0.19 
   4  -2   9    3.22    0.18 
   4   2  10    2.89    0.19 
   4  -2  10    3.11    0.18 
   4   2  11    0.42    0.12 
   4  -2  11    0.77    0.12 
   4   2  12    6.74    0.29 
   4  -2  12    6.62    0.27 
   4   2  13    1.72    0.18 
   4  -2  13    1.46    0.16 
   4   2  14    1.22    0.19 
   4  -2  14    1.10    0.16 
   4   2  15    0.85    0.18 
   4  -2  15    0.87    0.16 
   4   2  16    0.28    0.18 
   4  -2  16    0.44    0.17 
   4   2  17   -0.12    0.18 
   4  -2  17    0.11    0.18 
  -4   3  16    0.50    0.20 
  -4   3  15    0.28    0.17 
  -4   3  14    1.00    0.18 
  -4   3  13    0.81    0.16 
  -4   3  12    0.25    0.14 
  -4  -3  12    0.11    0.08 
  -4   3  11    7.41    0.29 
   4   3 -11    6.87    0.23 
  -4  -3  11    6.82    0.20 
   4   3 -10    1.88    0.14 
  -4   3  10    2.22    0.16 
  -4  -3  10    2.17    0.12 
  -4   3   9    2.55    0.19 
   4   3  -9    2.94    0.14 
  -4  -3   9    2.55    0.11 
  -4   3   8    0.69    0.11 
   4   3  -8    0.67    0.07 
  -4   3   7    0.08    0.08 
   4   3  -7    0.15    0.05 
  -4  -3   7    0.12    0.03 
  -4  -3   7    0.09    0.03 
   4   3  -6    0.27    0.05 
  -4   3   6    0.19    0.08 
   4  -3  -6    0.30    0.07 
   4   3  -5    3.63    0.10 
  -4   3   5    3.77    0.16 
   4  -3  -5    3.72    0.15 
  -4   3   4    1.65    0.12 
   4   3  -4    1.48    0.06 
   4  -3  -4    1.45    0.11 
   4   3  -3   46.96    0.77 
  -4   3   3   47.99    0.83 
   4  -3  -3   47.48    0.82 
   4  -3  -3   46.86    0.82 
  -4   3   2    1.23    0.09 
  -4   3   2    1.33    0.10 
   4  -3  -2    1.23    0.08 
   4  -3  -2    1.34    0.09 
  -4   3   1    0.98    0.07 
   4  -3  -1    0.97    0.07 
   4  -3  -1    1.03    0.07 
  -4   3   0    0.11    0.05 
  -4   3   0    0.07    0.05 
   4   3   0    0.18    0.02 
   4  -3   0    0.08    0.04 
   4  -3   0    0.11    0.04 
   4   3   1   12.78    0.23 
  -4   3  -1   12.53    0.26 
  -4   3  -1   12.50    0.26 
   4   3   1   12.52    0.27 
   4  -3   1   12.59    0.26 
   4  -3   1   12.66    0.26 
  -4   3  -2    9.23    0.21 
   4   3   2    9.03    0.18 
  -4   3  -2    8.96    0.21 
   4   3   2    9.19    0.22 
   4  -3   2    8.93    0.20 
   4  -3   2    9.00    0.20 
  -4   3  -3   24.14    0.47 
  -4   3  -3   24.47    0.46 
   4   3   3   25.27    0.44 
   4   3   3   25.33    0.47 
  -4   3  -3   24.74    0.42 
   4  -3   3   25.09    0.46 
   4  -3   3   24.50    0.46 
  -4  -3  -3   25.30    0.42 
  -4   3  -4    5.67    0.17 
  -4   3  -4    5.68    0.13 
   4   3   4    5.85    0.16 
   4   3   4    5.88    0.18 
  -4   3  -4    5.91    0.16 
  -4  -3  -4    5.69    0.14 
   4  -3   4    5.64    0.16 
  -4   3  -5    0.21    0.04 
  -4   3  -5    0.21    0.06 
   4   3   5    0.27    0.06 
   4   3   5    0.18    0.07 
  -4   3  -5    0.17    0.05 
   4  -3   5    0.17    0.06 
  -4  -3  -5    0.26    0.05 
   4   3   6    0.15    0.06 
  -4   3  -6    0.13    0.07 
   4   3   6    0.14    0.08 
  -4   3  -6    0.26    0.06 
  -4   3  -6    0.23    0.05 
   4  -3   6    0.28    0.07 
  -4   3  -7    1.99    0.14 
  -4   3  -7    1.78    0.10 
  -4   3  -7    1.67    0.12 
   4   3   7    1.98    0.14 
   4  -3   7    1.82    0.13 
   4   3   8    0.09    0.10 
   4   3   8    0.20    0.09 
   4  -3   8    0.17    0.08 
   4   3   9    8.45    0.27 
   4   3   9    8.56    0.27 
   4  -3   9    8.40    0.25 
   4   3  10    2.04    0.16 
   4   3  10    1.87    0.16 
   4  -3  10    1.98    0.14 
   4   3  11    1.36    0.15 
   4  -3  11    1.58    0.14 
   4   3  12    1.41    0.17 
   4  -3  12    1.01    0.14 
   4   3  13    0.03    0.14 
   4  -3  13   -0.05    0.12 
   4   3  14   -0.09    0.14 
   4  -3  14   -0.08    0.12 
   4   3  15    0.35    0.17 
   4  -3  15    0.26    0.14 
   4   3  16    0.17    0.18 
  -4   4  16    0.00    0.19 
  -4   4  15    0.14    0.18 
  -4   4  14    1.02    0.19 
  -4   4  13    0.27    0.16 
  -4   4  12    0.54    0.15 
  -4   4  11    0.66    0.16 
  -4   4  10    1.61    0.16 
  -4  -4  10    1.49    0.08 
  -4   4   9    2.72    0.21 
   4   4  -9    2.91    0.14 
   4  -4  -9    3.03    0.19 
  -4  -4   9    2.87    0.08 
   4   4  -8    6.50    0.19 
  -4   4   8    6.62    0.25 
   4  -4  -8    6.96    0.24 
   4   4  -7   13.02    0.28 
  -4   4   7   13.32    0.34 
   4  -4  -7   13.44    0.33 
  -4   4   6   11.45    0.30 
   4   4  -6   11.43    0.24 
   4  -4  -6   11.46    0.29 
   4  -4  -6   11.24    0.28 
   4   4  -5    4.93    0.12 
  -4   4   5    4.95    0.19 
   4  -4  -5    4.85    0.18 
   4  -4  -5    4.98    0.14 
   4   4  -4   10.85    0.20 
  -4   4   4   10.83    0.27 
   4  -4  -4   10.98    0.23 
   4  -4  -4   10.87    0.26 
   4   4  -3    0.69    0.03 
  -4   4   3    0.56    0.08 
   4   4  -3    0.65    0.03 
   4  -4  -3    0.83    0.08 
   4  -4  -3    0.63    0.05 
  -4   4   2    8.29    0.22 
  -4   4   2    8.28    0.21 
   4  -4  -2    7.93    0.21 
   4  -4  -2    8.29    0.16 
  -4   4   1   57.39    0.98 
  -4   4   1   56.61    0.98 
   4  -4  -1   56.33    0.97 
   4   4   0    9.62    0.17 
  -4   4   0    9.35    0.23 
  -4   4   0    9.41    0.23 
   4  -4   0    8.97    0.22 
  -4   4  -1   19.03    0.39 
   4   4   1   19.90    0.39 
   4   4   1   20.29    0.34 
  -4   4  -1   19.42    0.39 
   4  -4   1   19.79    0.38 
   4   4   2    2.88    0.10 
  -4   4  -2    2.62    0.12 
   4   4   2    2.93    0.13 
  -4   4  -2    2.65    0.13 
   4  -4   2    2.61    0.11 
  -4   4  -3   10.00    0.25 
   4   4   3   10.40    0.25 
  -4   4  -3   10.21    0.24 
  -4   4  -3    9.99    0.18 
   4   4   3   10.26    0.22 
   4  -4   3    9.93    0.23 
   4   4   4    0.06    0.06 
  -4   4  -4    0.14    0.03 
  -4   4  -4    0.12    0.06 
   4   4   4    0.06    0.07 
  -4   4  -4    0.20    0.07 
   4  -4   4    0.19    0.06 
  -4  -4  -4    0.15    0.03 
  -4  -4  -4    0.13    0.03 
  -4   4  -5   11.44    0.28 
   4   4   5   11.78    0.29 
   4   4   5   11.74    0.27 
  -4   4  -5   11.57    0.23 
  -4   4  -5   11.79    0.27 
   4  -4   5   11.76    0.26 
   4   4   6    7.91    0.22 
   4   4   6    7.79    0.24 
  -4   4  -6    7.83    0.18 
  -4   4  -6    7.84    0.23 
  -4   4  -6    7.95    0.22 
   4  -4   6    7.85    0.21 
  -4   4  -7    4.96    0.15 
  -4   4  -7    5.11    0.20 
  -4   4  -7    4.48    0.17 
   4   4   7    5.19    0.21 
   4   4   7    5.28    0.20 
   4  -4   7    5.22    0.18 
   4   4   8    8.99    0.27 
  -4   4  -8    8.75    0.27 
   4   4   8    8.55    0.28 
   4  -4   8    8.77    0.24 
   4   4   9    0.06    0.11 
   4   4   9   -0.02    0.10 
   4  -4   9    0.08    0.08 
   4   4  10    0.13    0.11 
   4   4  10    0.17    0.13 
   4  -4  10    0.14    0.10 
   4   4  11    0.22    0.13 
   4  -4  11    0.26    0.11 
   4   4  12    2.33    0.20 
   4  -4  12    2.38    0.17 
   4   4  13    0.39    0.15 
   4  -4  13    0.36    0.13 
   4   4  14    1.89    0.22 
   4   4  15    0.51    0.19 
  -4   5  15    0.68    0.21 
   4  -5 -15    0.70    0.19 
  -4   5  14    0.63    0.20 
   4  -5 -14    0.72    0.18 
  -4   5  13    0.25    0.17 
   4  -5 -13    0.13    0.15 
  -4   5  12    6.86    0.34 
   4  -5 -12    6.19    0.30 
  -4   5  11    2.33    0.20 
   4  -5 -11    3.03    0.21 
  -4   5  10    1.77    0.18 
   4  -5 -10    2.09    0.17 
  -4   5   9    5.13    0.26 
   4  -5  -9    5.60    0.25 
   4   5  -8    0.07    0.06 
  -4   5   8    0.04    0.10 
   4  -5  -8    0.09    0.10 
   4   5  -7    0.07    0.05 
  -4   5   7   -0.10    0.10 
   4  -5  -7    0.08    0.09 
   4   5  -6    5.70    0.15 
  -4   5   6    6.01    0.23 
   4  -5  -6    5.63    0.21 
  -4   5   5    0.20    0.09 
   4   5  -5    0.47    0.05 
   4  -5  -5    0.26    0.05 
   4  -5  -5    0.30    0.09 
   4   5  -4   10.35    0.20 
  -4   5   4   10.39    0.28 
   4   5  -4   10.38    0.20 
   4  -5  -4   10.38    0.22 
   4  -5  -4   10.51    0.27 
  -4   5   3    1.40    0.11 
   4   5  -3    1.58    0.05 
   4   5  -3    1.57    0.05 
   4  -5  -3    1.66    0.12 
   4  -5  -3    1.51    0.07 
  -4   5   2    0.48    0.08 
  -4   5   2    0.43    0.08 
   4  -5  -2    0.47    0.07 
  -4   5   1    3.84    0.16 
  -4   5   1    3.87    0.15 
   4   5  -1    3.83    0.08 
   4  -5  -1    3.80    0.14 
   4   5   0    2.14    0.07 
   4   5   0    2.33    0.13 
  -4   5   0    2.39    0.13 
  -4   5   0    2.20    0.14 
   4  -5   0    2.42    0.12 
  -4   5  -1    2.72    0.15 
   4   5   1    2.67    0.09 
  -4   5  -1    2.75    0.13 
   4   5   1    2.41    0.14 
   4  -5   1    2.79    0.12 
   4   5   2   11.62    0.24 
  -4   5  -2   11.11    0.28 
   4   5   2   11.30    0.28 
  -4   5  -2   11.52    0.27 
   4  -5   2   11.20    0.25 
  -4   5  -3    9.01    0.23 
   4   5   3    9.19    0.25 
   4   5   3    8.74    0.21 
  -4   5  -3    9.07    0.25 
   4  -5   3    9.21    0.22 
  -4   5  -4    1.95    0.06 
   4   5   4    2.35    0.12 
  -4   5  -4    2.30    0.13 
   4   5   4    2.39    0.15 
  -4   5  -4    2.37    0.15 
   4  -5   4    2.09    0.11 
  -4   5  -5    9.10    0.24 
  -4   5  -5    8.89    0.18 
   4   5   5    8.99    0.26 
  -4   5  -5    9.38    0.26 
   4   5   5    9.28    0.24 
  -4  -5  -5    8.87    0.19 
   4  -5   5    9.28    0.23 
   4   5   6    0.03    0.09 
  -4   5  -6    0.17    0.09 
   4   5   6    0.10    0.08 
  -4   5  -6    0.11    0.05 
  -4   5  -6    0.10    0.07 
   4  -5   6    0.10    0.07 
  -4  -5  -6    0.10    0.05 
  -4   5  -7    0.01    0.05 
  -4   5  -7    0.06    0.09 
   4   5   7   -0.05    0.10 
   4   5   7   -0.04    0.09 
  -4   5  -7    0.12    0.08 
   4  -5   7    0.08    0.07 
   4   5   8    0.61    0.13 
   4   5   8    0.86    0.12 
  -4   5  -8    1.01    0.13 
   4  -5   8    0.95    0.10 
   4   5   9    0.80    0.14 
   4   5   9    0.63    0.13 
   4  -5   9    0.79    0.10 
   4   5  10    4.65    0.26 
   4   5  10    4.57    0.26 
   4  -5  10    4.60    0.20 
   4   5  11    1.19    0.16 
   4  -5  11    1.44    0.16 
   4   5  12    0.22    0.14 
   4   5  13    0.07    0.15 
   4   5  14    0.16    0.17 
  -4   6  13    1.51    0.22 
   4  -6 -13    1.54    0.20 
  -4   6  12    0.23    0.17 
   4  -6 -12    0.01    0.14 
  -4   6  11    0.18    0.15 
   4  -6 -11    0.38    0.14 
  -4   6  10   -0.03    0.15 
   4  -6 -10    0.09    0.12 
  -4   6   9    4.67    0.28 
   4  -6  -9    4.59    0.24 
  -4   6   8    1.11    0.16 
   4  -6  -8    1.31    0.14 
  -4   6   7    4.74    0.25 
   4  -6  -7    4.98    0.22 
   4   6  -6   15.53    0.31 
  -4   6   6   15.75    0.40 
   4  -6  -6   15.56    0.38 
   4   6  -5    0.10    0.05 
  -4   6   5    0.12    0.10 
   4  -6  -5    0.09    0.08 
   4  -6  -5    0.00    0.05 
   4   6  -4   -0.03    0.04 
  -4   6   4    0.17    0.10 
   4   6  -4   -0.01    0.04 
   4  -6  -4   -0.01    0.04 
   4  -6  -4    0.07    0.08 
  -4   6   3   13.90    0.34 
   4   6  -3   13.35    0.24 
   4   6  -3   13.46    0.25 
   4  -6  -3   13.62    0.31 
   4   6  -2    1.84    0.07 
  -4   6   2    1.56    0.12 
   4   6  -2    1.66    0.07 
  -4   6   2    1.54    0.12 
   4  -6  -2    2.10    0.13 
   4   6  -1   27.83    0.48 
  -4   6   1   28.45    0.56 
   4   6  -1   28.09    0.48 
  -4   6   1   28.95    0.56 
   4   6  -1   28.53    0.55 
   4  -6  -1   28.55    0.53 
  -4   6   0    1.14    0.11 
   4   6   0    1.07    0.07 
   4   6   0    1.11    0.10 
  -4   6   0    0.99    0.11 
   4  -6   0    1.20    0.09 
   4   6   1    0.86    0.07 
  -4   6  -1    0.79    0.10 
   4   6   1    0.85    0.10 
  -4   6  -1    0.91    0.10 
   4  -6   1    0.99    0.08 
   4   6   2    0.53    0.10 
  -4   6  -2    0.52    0.09 
  -4   6  -2    0.65    0.10 
   4   6   2    0.71    0.07 
   4  -6   2    0.60    0.07 
  -4   6  -3   11.69    0.29 
   4   6   3   11.16    0.26 
   4   6   3   11.47    0.30 
  -4   6  -3   11.55    0.30 
   4  -6   3   11.26    0.26 
  -4   6  -4    0.00    0.07 
   4   6   4    0.17    0.09 
  -4   6  -4    0.17    0.09 
   4   6   4    0.01    0.07 
   4  -6   4    0.08    0.06 
   4   6   5   10.72    0.28 
  -4   6  -5   11.39    0.30 
  -4   6  -5   10.74    0.28 
  -4   6  -5   10.43    0.19 
   4   6   5   10.97    0.30 
   4  -6   5   10.56    0.25 
  -4   6  -6   -0.05    0.13 
  -4   6  -6    0.21    0.10 
   4   6   6    0.17    0.10 
   4   6   6    0.16    0.10 
   4  -6   6    0.13    0.06 
  -4  -6  -6    0.28    0.05 
  -4   6  -7    5.61    0.24 
   4   6   7    5.60    0.24 
   4   6   7    5.13    0.23 
   4  -6   7    5.63    0.18 
   4   6   8    0.39    0.12 
   4   6   8    0.37    0.13 
  -4   6  -8    0.31    0.12 
   4   6   9    0.30    0.13 
  -4   6  -9    0.16    0.12 
   4   6   9    0.16    0.13 
   4   6  10   -0.13    0.14 
   4   6  10    0.05    0.14 
   4   6  11    0.63    0.17 
   4   6  12    0.34    0.16 
   4   6  13    0.63    0.17 
  -4   7  12    4.97    0.35 
  -4   7  11    0.17    0.18 
  -4   7  10    3.27    0.25 
  -4   7   9   -0.10    0.15 
  -4   7   8    0.42    0.14 
   4  -7  -8    0.29    0.18 
  -4   7   7    0.12    0.13 
   4  -7  -7    0.04    0.10 
  -4   7   6   10.83    0.35 
   4  -7  -6    9.94    0.29 
   4   7  -5    0.36    0.06 
  -4   7   5    0.22    0.12 
   4  -7  -5    0.05    0.09 
   4   7  -4   13.96    0.29 
   4   7  -4   14.06    0.27 
  -4   7   4   14.71    0.39 
   4  -7  -4   14.23    0.34 
   4   7  -3    0.19    0.05 
  -4   7   3    0.14    0.11 
   4   7  -3    0.23    0.05 
   4  -7  -3    0.17    0.08 
   4   7  -2    1.14    0.07 
   4   7  -2    1.04    0.08 
  -4   7   2    0.95    0.13 
   4   7  -2    1.03    0.11 
   4  -7  -2    0.95    0.09 
   4   7  -1    1.13    0.11 
  -4   7   1    1.09    0.13 
   4   7  -1    1.11    0.07 
   4  -7  -1    1.29    0.10 
  -4   7   0    2.36    0.16 
   4   7   0    2.06    0.16 
   4   7   0    1.81    0.10 
   4  -7   0    2.04    0.12 
  -4   7  -1    0.05    0.09 
   4   7   1    0.00    0.09 
   4   7   1    0.11    0.06 
   4  -7   1    0.14    0.06 
  -4   7  -2    6.65    0.24 
   4   7   2    6.69    0.23 
   4   7   2    6.49    0.19 
   4  -7   2    6.35    0.18 
  -4   7  -3    0.65    0.12 
   4   7   3    0.75    0.09 
   4   7   3    0.71    0.11 
   4  -7   3    0.65    0.11 
   4   7   4    2.21    0.15 
   4   7   4    2.07    0.15 
  -4   7  -4    2.44    0.16 
  -4   7  -5    0.08    0.11 
   4   7   5    0.03    0.11 
   4   7   5    0.14    0.09 
   4   7   6    1.06    0.14 
  -4   7  -6    1.21    0.14 
   4   7   6    1.24    0.13 
  -4   7  -7    1.43    0.15 
   4   7   7    1.57    0.16 
   4   7   7    1.43    0.15 
   4   7   8    3.72    0.25 
  -4   7  -8    3.65    0.25 
   4   7   8    3.75    0.25 
   4   7   9    1.16    0.17 
   4   7   9    1.12    0.16 
  -4   7  -9    1.08    0.16 
   4   7  10    0.18    0.15 
   4   7  11    0.48    0.18 
   4   7  12   -0.11    0.17 
  -4   8  10    0.16    0.18 
  -4   8   9    2.38    0.23 
  -4   8   8    0.45    0.16 
  -4   8   7    2.49    0.21 
  -4   8   6    0.10    0.14 
   4   8  -5   -0.05    0.06 
  -4   8   5    0.03    0.13 
   4   8  -4    0.16    0.06 
  -4   8   4    0.09    0.13 
   4   8  -3    6.38    0.23 
  -4   8   3    6.90    0.29 
   4   8  -3    6.26    0.17 
   4   8  -2    0.19    0.06 
  -4   8   2    0.24    0.12 
   4   8  -2    0.40    0.11 
   4   8  -1    7.51    0.25 
  -4   8   1    7.47    0.28 
   4   8  -1    7.12    0.19 
   4   8   0    0.06    0.07 
   4   8   0   -0.04    0.10 
  -4   8   0    0.10    0.12 
   4   8   1    1.72    0.13 
   4   8   1    1.74    0.14 
  -4   8  -1    1.71    0.16 
   4   8   2    0.04    0.10 
  -4   8  -2    0.09    0.11 
   4   8   2    0.03    0.07 
   4   8   3    1.20    0.14 
   4   8   3    1.22    0.11 
  -4   8  -3    1.68    0.15 
  -4   8  -4    0.51    0.13 
   4   8   4    0.47    0.12 
   4   8   4    0.51    0.10 
  -4   8  -5    4.64    0.25 
   4   8   5    4.48    0.23 
   4   8   5    4.36    0.22 
  -4   8  -6    0.06    0.12 
   4   8   6    0.00    0.11 
   4   8   6   -0.03    0.12 
   4   8   7    2.11    0.18 
  -4   8  -7    2.07    0.18 
   4   8   7    2.46    0.19 
  -4   8  -8    0.17    0.14 
   4   8   8    0.36    0.14 
   4   8   8    0.38    0.15 
  -4   8  -9    0.09    0.15 
   4   8   9    0.24    0.15 
   4   8   9    0.05    0.15 
   4   8  10    0.07    0.16 
  -4   9   6    1.54    0.19 
  -4   9   5    0.07    0.14 
   4   9  -5    0.24    0.08 
  -4   9   4    3.33    0.23 
   4   9  -4    3.01    0.14 
   4   9  -3    0.03    0.07 
  -4   9   3    0.29    0.14 
   4   9  -2    0.30    0.08 
  -4   9   2    0.24    0.14 
  -4   9   1    0.18    0.13 
   4   9  -1    0.13    0.08 
  -4   9   0    0.08    0.13 
   4   9   0    0.18    0.13 
   4   9   0    0.09    0.08 
  -4   9  -1   -0.02    0.13 
   4   9   1    0.02    0.11 
   4   9   1   -0.05    0.08 
  -4   9  -2    2.89    0.20 
   4   9   2    2.91    0.17 
   4   9   2    2.71    0.18 
   4   9   3   -0.06    0.12 
   4   9   3    0.02    0.10 
  -4   9  -3    0.01    0.13 
   4   9   4    1.41    0.14 
   4   9   4    1.55    0.16 
  -4   9  -4    1.28    0.16 
   4   9   5    0.21    0.13 
  -4   9  -5    0.24    0.14 
   4   9   5    0.17    0.12 
  -4   9  -6    0.03    0.14 
   4   9   6    0.07    0.13 
   4   9   6    0.03    0.12 
  -5   0  16    0.01    0.15 
  -5   0  15    0.03    0.14 
  -5   0  14    3.31    0.23 
  -5   0  13   -0.10    0.11 
  -5   0  12    1.49    0.15 
  -5   0  11   -0.02    0.09 
  -5   0  10   32.78    0.63 
   5   0  -9   -0.09    0.09 
  -5   0   9    0.00    0.07 
   5   0  -8   30.68    0.58 
  -5   0   8   31.27    0.58 
  -5   0   7   -0.06    0.05 
   5   0  -7   -0.01    0.05 
  -5   0   6    1.26    0.09 
   5   0  -6    1.33    0.09 
  -5   0   5    0.10    0.04 
   5   0  -5    0.01    0.04 
   5   0  -4   87.74    1.46 
  -5   0   4   89.56    1.46 
   5   0  -3    0.02    0.04 
   5   0  -3    0.01    0.03 
  -5   0   3    0.02    0.03 
  -5   0   2   76.97    1.28 
   5   0  -2   78.09    1.28 
   5   0  -2   77.84    1.28 
   5   0  -1    0.04    0.03 
   5   0  -1   -0.02    0.02 
  -5   0   1   -0.04    0.03 
  -5   0   1    0.15    0.03 
   5   0   0   43.91    0.76 
  -5   0   0   45.36    0.75 
  -5   0   0   45.07    0.75 
   5   0   0   45.39    0.76 
   5   0   1    0.01    0.03 
  -5   0  -1    0.02    0.02 
  -5   0  -1    0.03    0.03 
   5   0   1   -0.01    0.03 
   5   0   2   60.79    1.00 
  -5   0  -2   58.89    1.00 
   5   0   2   59.93    1.00 
   5   0   2   60.13    1.00 
  -5   0  -2   59.76    1.00 
   5   0   3    0.05    0.05 
   5   0   3    0.01    0.04 
  -5   0  -3    0.02    0.04 
   5   0   3    0.01    0.03 
  -5   0  -3   -0.01    0.04 
  -5   0  -3   -0.01    0.03 
  -5   0  -4   62.52    1.02 
   5   0   4   58.89    1.02 
  -5   0  -4   60.79    1.02 
   5   0   4   58.86    1.02 
   5   0   4   60.52    1.02 
   5   0   5   -0.04    0.05 
   5   0   5    0.03    0.05 
  -5   0  -5    0.01    0.04 
   5   0   5    0.02    0.05 
  -5   0  -5    0.02    0.05 
   5   0   6   92.88    1.57 
   5   0   6   95.36    1.57 
   5   0   6   92.35    1.57 
   5   0   7    0.04    0.07 
   5   0   7   -0.01    0.07 
   5   0   8    0.41    0.09 
   5   0   8    0.43    0.09 
   5   0   9    0.11    0.09 
   5   0  10    2.75    0.19 
   5   0  11   -0.04    0.10 
   5   0  12    2.51    0.19 
   5   0  13   -0.09    0.13 
   5   0  14    0.41    0.15 
   5   0  15    0.02    0.15 
   5   0  16    0.07    0.17 
   5   0  17    0.03    0.19 
  -5   1  17    1.18    0.20 
  -5   1  16    0.28    0.16 
  -5   1  15    0.52    0.16 
  -5  -1  15    0.42    0.14 
  -5   1  14    0.51    0.14 
  -5  -1  14    0.49    0.13 
  -5   1  13    3.51    0.24 
  -5  -1  13    3.32    0.21 
  -5   1  12    0.59    0.13 
  -5  -1  12    0.43    0.10 
  -5   1  11   11.07    0.31 
  -5  -1  11   10.46    0.29 
   5   1 -10    0.80    0.10 
  -5   1  10    0.65    0.11 
  -5  -1  10    0.76    0.10 
   5   1  -9    0.05    0.07 
  -5   1   9    0.06    0.09 
  -5  -1   9    0.09    0.07 
   5   1  -8    0.07    0.05 
  -5   1   8    0.14    0.07 
  -5  -1   8    0.00    0.05 
   5   1  -7    7.24    0.19 
  -5   1   7    7.31    0.21 
  -5  -1   7    7.30    0.18 
   5  -1  -7    7.33    0.20 
  -5   1   6    2.32    0.12 
   5   1  -6    2.13    0.10 
   5  -1  -6    2.17    0.11 
  -5  -1   6    2.28    0.10 
  -5   1   5   23.19    0.44 
   5   1  -5   23.72    0.43 
  -5  -1   5   23.19    0.42 
   5  -1  -5   23.53    0.44 
  -5   1   4    1.25    0.08 
   5   1  -4    1.22    0.07 
   5  -1  -4    1.13    0.08 
  -5  -1   4    1.15    0.06 
   5  -1  -4    0.91    0.07 
  -5   1   3    7.04    0.17 
   5   1  -3    6.95    0.15 
   5  -1  -3    6.99    0.18 
  -5  -1   3    7.32    0.15 
   5  -1  -3    7.21    0.17 
  -5   1   2    7.86    0.18 
   5   1  -2    8.03    0.17 
  -5   1   2    8.19    0.18 
   5   1  -2    8.21    0.16 
   5  -1  -2    7.93    0.19 
  -5  -1   2    8.01    0.16 
   5  -1  -2    8.36    0.18 
   5   1  -1   22.84    0.39 
  -5   1   1   22.89    0.41 
   5   1  -1   22.24    0.39 
  -5   1   1   22.71    0.41 
  -5  -1   1   22.25    0.38 
   5  -1  -1   22.65    0.41 
   5  -1  -1   22.18    0.41 
  -5   1   0   22.36    0.41 
   5   1   0   22.20    0.39 
   5   1   0   22.12    0.39 
  -5   1   0   22.72    0.41 
   5  -1   0   22.42    0.40 
  -5  -1   0   22.10    0.38 
  -5  -1   0   22.08    0.38 
   5  -1   0   22.04    0.41 
  -5   1  -1   45.91    0.78 
  -5   1  -1   44.41    0.78 
   5   1   1   47.15    0.77 
   5   1   1   46.14    0.77 
   5  -1   1   45.07    0.78 
   5  -1   1   45.44    0.76 
  -5  -1  -1   46.08    0.76 
   5  -1   1   45.94    0.78 
   5   1   2    1.47    0.07 
  -5   1  -2    1.42    0.08 
   5   1   2    1.48    0.07 
  -5   1  -2    1.30    0.08 
   5  -1   2    1.42    0.08 
   5  -1   2    1.55    0.08 
   5  -1   2    1.56    0.07 
  -5  -1  -2    1.38    0.06 
   5   1   3   24.15    0.44 
   5   1   3   23.62    0.43 
  -5   1  -3   23.50    0.42 
   5   1   3   23.20    0.43 
  -5   1  -3   23.33    0.44 
  -5   1  -3   23.59    0.43 
   5  -1   3   24.37    0.44 
  -5  -1  -3   23.68    0.44 
   5  -1   3   23.80    0.44 
   5  -1   3   23.80    0.42 
  -5  -1  -3   23.59    0.42 
   5   1   4    6.95    0.17 
  -5   1  -4    6.60    0.17 
   5   1   4    7.14    0.19 
  -5   1  -4    6.72    0.16 
   5   1   4    6.85    0.17 
  -5   1  -4    6.65    0.18 
   5  -1   4    6.77    0.17 
  -5  -1  -4    7.04    0.17 
  -5  -1  -4    7.91    0.17 
   5  -1   4    6.63    0.18 
   5  -1   4    6.89    0.18 
   5   1   5   11.48    0.26 
  -5   1  -5   11.82    0.25 
  -5   1  -5   11.86    0.26 
   5   1   5   11.19    0.25 
   5  -1   5   11.81    0.26 
  -5  -1  -5   11.82    0.25 
   5  -1   5   11.69    0.25 
   5  -1   5   11.53    0.26 
  -5   1  -6   15.12    0.32 
   5   1   6   14.96    0.33 
  -5   1  -6   15.34    0.32 
   5   1   6   15.74    0.34 
   5  -1   6   15.47    0.33 
   5  -1   6   15.45    0.32 
   5   1   7   32.10    0.61 
   5   1   7   32.47    0.60 
   5  -1   7   32.07    0.60 
   5  -1   7   31.61    0.60 
   5   1   8    0.27    0.09 
   5   1   8    0.21    0.08 
   5  -1   8    0.40    0.09 
   5   1   9   12.15    0.32 
   5   1   9   12.29    0.33 
   5  -1   9   12.97    0.32 
   5   1  10    0.73    0.11 
   5  -1  10    1.35    0.14 
   5   1  11    9.08    0.31 
   5  -1  11    9.68    0.31 
   5   1  12    0.73    0.15 
   5  -1  12    0.51    0.14 
   5   1  13    3.40    0.25 
   5  -1  13    2.86    0.20 
   5   1  14    0.02    0.14 
   5  -1  14    0.25    0.14 
   5   1  15    4.10    0.31 
   5  -1  15    3.21    0.23 
   5   1  16    0.02    0.17 
   5  -1  16    0.13    0.16 
   5   1  17    0.18    0.18 
   5  -1  17    0.52    0.19 
  -5   2  17    0.32    0.18 
  -5   2  16    3.12    0.26 
  -5   2  15   -0.13    0.16 
  -5   2  14    1.92    0.19 
  -5   2  13    0.96    0.16 
  -5  -2  13    0.88    0.12 
  -5   2  12    3.83    0.25 
  -5  -2  12    3.95    0.18 
  -5   2  11    4.69    0.24 
   5   2 -11    4.74    0.20 
  -5  -2  11    4.74    0.18 
   5   2 -10    5.36    0.19 
  -5   2  10    5.30    0.23 
  -5  -2  10    5.12    0.17 
   5   2  -9    9.20    0.24 
  -5   2   9    9.33    0.28 
  -5  -2   9    9.20    0.22 
   5   2  -8   20.21    0.41 
  -5   2   8   20.77    0.44 
  -5  -2   8   20.66    0.39 
  -5   2   7    3.13    0.16 
   5   2  -7    2.82    0.12 
  -5  -2   7    3.01    0.10 
  -5   2   6    2.17    0.14 
   5   2  -6    2.33    0.10 
  -5  -2   6    2.43    0.08 
  -5   2   5   44.05    0.78 
   5   2  -5   43.04    0.75 
   5  -2  -5   44.89    0.78 
   5  -2  -5   43.95    0.79 
   5   2  -4   29.57    0.51 
  -5   2   4   29.67    0.55 
   5  -2  -4   29.05    0.55 
   5  -2  -4   29.36    0.54 
  -5  -2   4   30.44    0.49 
  -5   2   3    0.37    0.06 
   5   2  -3    0.51    0.04 
   5  -2  -3    0.46    0.06 
   5  -2  -3    0.47    0.06 
  -5   2   2   23.01    0.43 
  -5   2   2   23.24    0.43 
   5   2  -2   22.68    0.39 
   5  -2  -2   23.00    0.43 
   5  -2  -2   22.66    0.43 
  -5   2   1   40.08    0.71 
   5   2  -1   40.92    0.67 
   5   2  -1   40.50    0.67 
  -5   2   1   41.78    0.71 
   5  -2  -1   40.60    0.71 
   5  -2  -1   41.33    0.71 
   5   2   0   27.69    0.47 
  -5   2   0   27.61    0.50 
   5   2   0   28.22    0.47 
  -5   2   0   27.76    0.51 
   5  -2   0   27.93    0.51 
   5  -2   0   28.47    0.50 
  -5   2  -1    0.35    0.05 
  -5   2  -1    0.35    0.05 
   5   2   1    0.51    0.04 
   5   2   1    0.28    0.05 
   5  -2   1    0.52    0.04 
  -5  -2  -1    0.50    0.03 
   5  -2   1    0.43    0.05 
   5  -2   1    0.32    0.04 
   5   2   2    4.30    0.14 
   5   2   2    4.52    0.12 
  -5   2  -2    4.32    0.14 
  -5   2  -2    4.66    0.13 
  -5  -2  -2    4.57    0.10 
   5  -2   2    4.37    0.14 
   5  -2   2    4.69    0.11 
   5  -2   2    4.74    0.13 
  -5   2  -3   13.50    0.28 
   5   2   3   13.30    0.29 
  -5   2  -3   14.00    0.29 
  -5   2  -3   13.85    0.26 
   5   2   3   13.87    0.27 
   5  -2   3   13.90    0.29 
  -5  -2  -3   13.53    0.26 
   5  -2   3   13.85    0.26 
   5  -2   3   14.10    0.29 
  -5   2  -4   49.80    0.85 
  -5   2  -4   47.08    0.85 
  -5   2  -4   49.43    0.83 
   5   2   4   49.63    0.86 
   5   2   4   49.48    0.84 
  -5  -2  -4   49.81    0.83 
   5  -2   4   49.16    0.83 
   5  -2   4   49.34    0.85 
   5  -2   4   49.22    0.85 
   5   2   5    0.13    0.06 
  -5   2  -5    0.06    0.06 
  -5   2  -5    0.04    0.05 
  -5   2  -5    0.09    0.04 
   5   2   5    0.05    0.06 
   5  -2   5    0.02    0.05 
   5  -2   5    0.02    0.05 
  -5  -2  -5    0.05    0.05 
   5   2   6    6.01    0.19 
  -5   2  -6    5.66    0.16 
  -5   2  -6    5.82    0.18 
  -5   2  -6    5.81    0.19 
   5   2   6    5.92    0.18 
   5  -2   6    5.63    0.18 
   5   2   7    6.09    0.20 
   5   2   7    5.81    0.20 
   5  -2   7    6.14    0.20 
   5   2   8    1.29    0.12 
   5   2   8    1.30    0.13 
   5  -2   8    1.41    0.12 
   5   2   9    4.72    0.21 
   5   2   9    4.49    0.21 
   5  -2   9    4.65    0.20 
   5   2  10    6.46    0.26 
   5   2  10    7.24    0.27 
   5  -2  10    7.12    0.25 
   5   2  11    0.12    0.12 
   5  -2  11    0.02    0.11 
   5   2  12    0.87    0.14 
   5  -2  12    1.39    0.16 
   5   2  13    0.02    0.14 
   5  -2  13    0.03    0.13 
   5   2  14   -0.09    0.15 
   5  -2  14    0.06    0.14 
   5   2  15    0.14    0.17 
   5  -2  15    0.12    0.15 
   5   2  16    0.14    0.17 
   5  -2  16    0.17    0.16 
  -5   3  16    0.20    0.19 
  -5   3  15    1.12    0.20 
  -5   3  14    0.83    0.17 
  -5   3  13    3.71    0.28 
  -5   3  12    0.49    0.15 
  -5   3  11    0.44    0.13 
  -5  -3  11    0.30    0.07 
   5   3 -10    3.75    0.17 
  -5   3  10    3.88    0.22 
  -5  -3  10    3.90    0.14 
   5   3  -9    4.80    0.17 
  -5   3   9    4.91    0.23 
   5   3  -8   14.86    0.32 
  -5   3   8   15.85    0.37 
  -5  -3   8   14.92    0.28 
   5  -3  -8   15.44    0.37 
   5   3  -7   15.76    0.32 
  -5   3   7   16.11    0.37 
  -5  -3   7   15.24    0.27 
  -5  -3   7   15.75    0.27 
   5  -3  -7   15.76    0.37 
   5   3  -6    3.52    0.12 
  -5   3   6    3.72    0.17 
   5  -3  -6    3.62    0.17 
  -5   3   5   10.46    0.27 
   5   3  -5   11.09    0.22 
   5  -3  -5   10.53    0.27 
  -5   3   4    2.26    0.13 
   5   3  -4    2.42    0.07 
   5  -3  -4    2.11    0.13 
   5   3  -3    0.18    0.03 
  -5   3   3    0.32    0.07 
   5  -3  -3    0.32    0.06 
  -5   3   2   10.62    0.25 
   5   3  -2   10.84    0.19 
  -5   3   2   10.97    0.25 
   5  -3  -2   11.00    0.25 
   5  -3  -2   11.65    0.26 
  -5   3   1   72.76    1.23 
   5   3  -1   72.77    1.17 
  -5   3   1   72.68    1.23 
   5  -3  -1   71.56    1.23 
   5  -3  -1   74.07    1.23 
  -5   3   0   41.95    0.73 
  -5   3   0   42.09    0.73 
   5   3   0   40.98    0.68 
   5  -3   0   41.26    0.67 
   5  -3   0   41.91    0.73 
   5  -3   0   40.74    0.73 
  -5   3  -1   47.36    0.83 
  -5   3  -1   47.56    0.82 
   5   3   1   46.63    0.83 
   5   3   1   47.54    0.78 
   5  -3   1   47.40    0.82 
   5  -3   1   47.62    0.77 
   5  -3   1   47.58    0.82 
  -5   3  -2   12.41    0.27 
   5   3   2   12.67    0.24 
  -5   3  -2   12.12    0.27 
   5   3   2   11.91    0.27 
   5  -3   2   12.25    0.27 
   5  -3   2   12.30    0.27 
   5  -3   2   12.13    0.22 
   5   3   3    4.61    0.13 
  -5   3  -3    4.71    0.16 
  -5   3  -3    4.41    0.15 
   5   3   3    4.59    0.16 
  -5   3  -3    4.46    0.10 
  -5  -3  -3    4.77    0.11 
   5  -3   3    4.60    0.15 
  -5   3  -4    2.03    0.08 
  -5   3  -4    2.02    0.11 
  -5   3  -4    2.13    0.12 
   5   3   4    2.03    0.10 
   5   3   4    1.98    0.13 
  -5  -3  -4    2.06    0.08 
   5  -3   4    2.15    0.12 
  -5   3  -5    3.78    0.16 
   5   3   5    3.67    0.14 
  -5   3  -5    3.54    0.14 
  -5   3  -5    3.61    0.11 
   5   3   5    3.61    0.16 
   5  -3   5    3.71    0.15 
  -5   3  -6    3.22    0.12 
   5   3   6    3.52    0.15 
  -5   3  -6    2.94    0.16 
  -5   3  -6    3.18    0.14 
   5   3   6    3.34    0.17 
   5  -3   6    3.55    0.15 
   5   3   7    2.70    0.16 
  -5   3  -7    2.75    0.16 
   5   3   7    2.74    0.16 
  -5   3  -7    2.64    0.12 
   5  -3   7    2.58    0.15 
   5   3   8    3.94    0.19 
   5   3   8    3.92    0.19 
   5  -3   8    3.90    0.18 
   5   3   9   12.00    0.33 
   5   3   9   11.86    0.34 
   5  -3   9   12.15    0.31 
   5   3  10    1.13    0.14 
   5   3  10    0.96    0.13 
   5  -3  10    1.06    0.12 
   5   3  11    0.34    0.14 
   5   3  11    0.36    0.12 
   5  -3  11    0.43    0.12 
   5   3  12    0.81    0.15 
   5  -3  12    0.82    0.14 
   5   3  13    1.65    0.19 
   5  -3  13    1.39    0.16 
   5   3  14    0.04    0.15 
   5  -3  14   -0.04    0.13 
   5   3  15    0.13    0.18 
   5  -3  15    0.20    0.15 
   5   3  16   -0.06    0.18 
  -5   4  15    0.97    0.21 
  -5   4  14    0.22    0.18 
  -5   4  13    0.55    0.18 
  -5   4  12    1.36    0.17 
  -5   4  11    4.37    0.27 
   5  -4 -11    4.51    0.26 
  -5   4  10    6.95    0.29 
   5  -4 -10    7.79    0.29 
   5   4  -9    4.07    0.16 
  -5   4   9    4.05    0.23 
   5  -4  -9    4.10    0.22 
  -5   4   8    3.17    0.21 
   5   4  -8    3.20    0.13 
   5  -4  -8    3.64    0.20 
  -5   4   7    0.12    0.10 
   5   4  -7    0.04    0.05 
   5  -4  -7    0.04    0.08 
   5   4  -6    1.13    0.08 
  -5   4   6    1.02    0.11 
   5  -4  -6    1.21    0.11 
  -5   4   5    5.30    0.20 
   5   4  -5    5.18    0.13 
   5  -4  -5    5.24    0.15 
   5  -4  -5    5.16    0.19 
   5   4  -4   12.03    0.22 
  -5   4   4   12.13    0.30 
   5  -4  -4   12.18    0.25 
   5  -4  -4   12.08    0.29 
  -5   4   3    4.22    0.16 
   5  -4  -3    4.29    0.16 
   5  -4  -3    4.24    0.11 
  -5   4   2   22.39    0.45 
  -5   4   2   22.75    0.45 
   5  -4  -2   22.13    0.44 
   5  -4  -2   22.05    0.38 
  -5   4   1    7.45    0.21 
  -5   4   1    7.44    0.21 
   5  -4  -1    7.92    0.20 
  -5   4   0   11.16    0.27 
  -5   4   0   11.43    0.26 
   5   4   0   11.10    0.20 
   5  -4   0   10.99    0.25 
   5   4   1   12.10    0.28 
   5   4   1   12.13    0.23 
  -5   4  -1   12.34    0.28 
  -5   4  -1   12.37    0.28 
   5  -4   1   12.35    0.27 
  -5   4  -2   29.42    0.55 
   5   4   2   29.60    0.56 
  -5   4  -2   28.76    0.55 
   5   4   2   29.14    0.51 
   5  -4   2   29.19    0.54 
   5   4   3    6.12    0.16 
   5   4   3    6.17    0.20 
  -5   4  -3    6.45    0.19 
  -5   4  -3    6.42    0.20 
   5  -4   3    6.50    0.19 
  -5   4  -4    6.43    0.13 
  -5   4  -4    6.30    0.20 
   5   4   4    6.68    0.21 
  -5   4  -4    6.42    0.19 
   5   4   4    6.45    0.18 
   5  -4   4    6.09    0.19 
  -5  -4  -4    6.33    0.14 
  -5   4  -5    0.03    0.07 
   5   4   5    0.14    0.09 
   5   4   5    0.19    0.07 
  -5   4  -5    0.14    0.04 
  -5   4  -5    0.10    0.08 
   5  -4   5    0.08    0.07 
  -5   4  -6    0.36    0.05 
   5   4   6    0.37    0.10 
   5   4   6    0.43    0.09 
  -5   4  -6    0.25    0.09 
  -5   4  -6    0.46    0.08 
   5  -4   6    0.39    0.08 
  -5   4  -7    4.19    0.14 
   5   4   7    4.80    0.20 
  -5   4  -7    4.43    0.20 
   5   4   7    4.20    0.19 
   5  -4   7    4.45    0.18 
   5   4   8    2.40    0.18 
  -5   4  -8    1.91    0.14 
   5   4   8    1.92    0.15 
   5  -4   8    2.35    0.15 
   5   4   9    1.23    0.14 
   5   4   9    1.13    0.13 
   5  -4   9    1.14    0.11 
   5   4  10    3.21    0.23 
   5   4  10    3.11    0.22 
   5  -4  10    3.17    0.20 
   5   4  11    3.76    0.26 
   5   4  11    4.02    0.25 
   5  -4  11    3.87    0.22 
   5   4  12    0.20    0.14 
   5  -4  12    0.04    0.12 
   5   4  13    0.39    0.16 
   5  -4  13   -0.18    0.12 
   5   4  14    0.27    0.17 
   5   4  15    0.34    0.18 
  -5   5  14    0.65    0.20 
   5  -5 -14    0.50    0.17 
  -5   5  13    3.70    0.25 
   5  -5 -13    3.62    0.25 
  -5   5  12    0.65    0.18 
   5  -5 -12    0.47    0.15 
  -5   5  11   -0.04    0.15 
   5  -5 -11    0.19    0.13 
  -5   5  10    0.58    0.16 
   5  -5 -10    0.38    0.13 
  -5   5   9    1.66    0.18 
   5  -5  -9    1.65    0.16 
  -5   5   8    0.23    0.12 
   5   5  -8    0.19    0.06 
   5  -5  -8    0.14    0.10 
  -5   5   7    2.53    0.17 
   5   5  -7    2.36    0.11 
   5  -5  -7    2.55    0.18 
  -5   5   6   18.68    0.43 
   5   5  -6   17.82    0.34 
   5  -5  -6   18.71    0.42 
  -5   5   5    3.73    0.19 
   5   5  -5    3.54    0.10 
   5  -5  -5    3.43    0.18 
   5  -5  -5    3.32    0.12 
  -5   5   4    7.69    0.24 
   5   5  -4    7.45    0.15 
   5  -5  -4    7.56    0.23 
   5  -5  -4    7.42    0.17 
  -5   5   3    4.52    0.18 
  -5   5   3    4.65    0.20 
   5  -5  -3    4.87    0.18 
   5  -5  -3    4.79    0.12 
  -5   5   2    1.58    0.12 
  -5   5   2    1.57    0.11 
   5  -5  -2    1.66    0.05 
   5  -5  -2    1.55    0.11 
  -5   5   1   30.45    0.59 
  -5   5   1   31.15    0.59 
   5  -5  -1   30.91    0.58 
   5   5   0   20.00    0.34 
  -5   5   0   19.97    0.41 
  -5   5   0   19.33    0.42 
   5   5   0   19.68    0.41 
   5  -5   0   19.88    0.40 
  -5   5  -1    7.72    0.22 
  -5   5  -1    7.40    0.23 
   5   5   1    7.87    0.16 
   5   5   1    7.84    0.23 
   5  -5   1    7.50    0.21 
   5   5   2   13.55    0.26 
   5   5   2   13.14    0.31 
  -5   5  -2   12.96    0.31 
  -5   5  -2   12.93    0.32 
   5  -5   2   12.99    0.29 
  -5   5  -3    0.59    0.08 
   5   5   3    0.77    0.07 
  -5   5  -3    0.68    0.10 
   5   5   3    0.64    0.10 
   5  -5   3    0.63    0.08 
   5   5   4    0.85    0.11 
  -5   5  -4    0.64    0.10 
   5   5   4    0.99    0.09 
  -5   5  -4    0.72    0.09 
   5  -5   4    0.93    0.09 
   5   5   5    3.41    0.18 
  -5   5  -5    3.45    0.09 
  -5   5  -5    3.81    0.19 
   5   5   5    3.56    0.16 
  -5   5  -5    3.38    0.16 
  -5  -5  -5    3.37    0.10 
   5  -5   5    3.41    0.15 
  -5   5  -6    2.54    0.10 
   5   5   6    2.80    0.17 
  -5   5  -6    2.54    0.16 
   5   5   6    2.82    0.18 
  -5   5  -6    2.72    0.18 
   5  -5   6    2.78    0.15 
  -5   5  -7    5.48    0.23 
   5   5   7    5.08    0.22 
   5   5   7    4.88    0.22 
  -5   5  -7    5.33    0.15 
   5  -5   7    5.13    0.19 
  -5   5  -8    6.50    0.26 
   5   5   8    6.00    0.26 
   5   5   8    5.88    0.24 
   5  -5   8    5.89    0.21 
   5   5   9    0.05    0.12 
   5   5   9    0.05    0.13 
  -5   5  -9   -0.01    0.12 
   5  -5   9    0.16    0.09 
   5   5  10    0.86    0.14 
   5   5  10    1.03    0.16 
   5  -5  10    0.92    0.12 
   5   5  11    0.13    0.15 
   5   5  11   -0.08    0.14 
   5  -5  11    0.09    0.10 
   5   5  12    0.68    0.17 
   5   5  13   -0.03    0.16 
   5   5  14    0.22    0.18 
  -5   6  13    0.02    0.18 
   5  -6 -13   -0.04    0.16 
  -5   6  12   -0.13    0.17 
   5  -6 -12    0.18    0.15 
  -5   6  11    2.65    0.22 
   5  -6 -11    2.75    0.21 
  -5   6  10    1.56    0.18 
   5  -6 -10    1.98    0.17 
  -5   6   9    5.12    0.29 
   5  -6  -9    4.81    0.25 
  -5   6   8    0.60    0.15 
   5  -6  -8    0.64    0.13 
  -5   6   7    2.00    0.18 
   5  -6  -7    1.80    0.16 
   5   6  -6    4.22    0.13 
  -5   6   6    4.88    0.25 
   5  -6  -6    4.54    0.22 
  -5   6   5    0.46    0.12 
   5   6  -5    0.46    0.05 
   5  -6  -5    0.32    0.10 
   5  -6  -5    0.47    0.06 
  -5   6   4    6.28    0.25 
   5   6  -4    6.07    0.13 
   5   6  -4    6.10    0.13 
   5  -6  -4    6.14    0.15 
   5  -6  -4    6.36    0.22 
  -5   6   3   24.37    0.52 
   5  -6  -3   24.07    0.49 
  -5   6   2    4.49    0.21 
  -5   6   2    4.36    0.21 
   5  -6  -2    4.26    0.18 
   5   6  -1    2.35    0.15 
   5   6  -1    1.95    0.07 
  -5   6   1    1.91    0.13 
  -5   6   1    2.03    0.15 
   5  -6  -1    1.93    0.14 
  -5   6   0    0.53    0.11 
   5   6   0    0.72    0.05 
  -5   6   0    0.84    0.10 
   5   6   0    0.77    0.10 
   5  -6   0    0.76    0.09 
   5   6   1    0.05    0.05 
  -5   6  -1    0.03    0.09 
   5   6   1    0.02    0.09 
  -5   6  -1    0.13    0.08 
   5  -6   1    0.00    0.07 
   5   6   2    0.53    0.10 
  -5   6  -2    0.67    0.11 
  -5   6  -2    0.60    0.09 
   5   6   2    0.53    0.07 
   5  -6   2    0.76    0.09 
  -5   6  -3    1.39    0.13 
  -5   6  -3    1.65    0.12 
   5   6   3    1.55    0.13 
   5   6   3    1.40    0.10 
   5  -6   3    1.26    0.10 
   5   6   4    5.43    0.19 
  -5   6  -4    5.18    0.20 
  -5   6  -4    5.66    0.23 
   5   6   4    5.58    0.23 
   5  -6   4    5.39    0.18 
  -5   6  -5   10.93    0.30 
  -5   6  -5   11.02    0.32 
   5   6   5   11.75    0.32 
   5   6   5   11.47    0.29 
   5  -6   5   11.05    0.27 
   5   6   6    0.37    0.10 
  -5   6  -6    0.26    0.11 
   5   6   6    0.24    0.11 
   5  -6   6    0.24    0.08 
   5   6   7    3.89    0.21 
   5   6   7    3.74    0.22 
  -5   6  -7    3.62    0.23 
   5  -6   7    3.42    0.16 
   5   6   8    0.81    0.15 
   5   6   8    0.83    0.13 
  -5   6  -8    0.82    0.14 
   5  -6   8    0.78    0.12 
  -5   6  -9    0.06    0.13 
   5   6   9   -0.03    0.12 
   5   6   9   -0.04    0.13 
   5   6  10    1.12    0.17 
   5   6  10    0.91    0.16 
   5   6  11    0.35    0.15 
   5   6  11    0.27    0.16 
   5   6  12    0.27    0.17 
   5   6  13   -0.05    0.17 
  -5   7  12    0.79    0.21 
  -5   7  11    0.05    0.18 
  -5   7  10    0.88    0.19 
  -5   7   9    0.44    0.16 
  -5   7   8    0.50    0.16 
   5  -7  -8    1.01    0.16 
  -5   7   7    0.47    0.14 
   5  -7  -7    0.51    0.12 
  -5   7   6    4.78    0.27 
   5  -7  -6    4.93    0.22 
  -5   7   5    0.15    0.13 
   5  -7  -5    0.29    0.10 
   5   7  -4    3.59    0.11 
  -5   7   4    4.11    0.24 
   5   7  -4    3.74    0.11 
   5  -7  -4    3.86    0.19 
   5   7  -3    0.15    0.04 
   5   7  -3    0.24    0.04 
  -5   7   3   -0.02    0.11 
   5  -7  -3    0.12    0.09 
   5   7  -2    0.89    0.07 
   5   7  -2    0.78    0.11 
  -5   7   2    0.82    0.13 
   5   7  -2    0.93    0.06 
   5  -7  -2    0.90    0.10 
   5   7  -1    0.84    0.06 
   5   7  -1    0.67    0.11 
  -5   7   1    0.71    0.13 
   5  -7  -1    0.76    0.09 
   5   7   0    6.76    0.24 
   5   7   0    6.17    0.16 
  -5   7   0    6.69    0.26 
   5  -7   0    6.56    0.20 
   5   7   1    3.73    0.13 
  -5   7  -1    3.75    0.22 
   5   7   1    3.73    0.20 
   5  -7   1    3.70    0.16 
   5   7   2    6.09    0.23 
  -5   7  -2    5.63    0.24 
   5   7   2    5.98    0.18 
   5  -7   2    6.13    0.19 
  -5   7  -3    0.38    0.11 
   5   7   3    0.32    0.08 
   5   7   3    0.43    0.12 
   5  -7   3    0.35    0.10 
   5   7   4    0.06    0.11 
  -5   7  -4    0.01    0.11 
   5   7   4   -0.08    0.08 
   5   7   5    0.41    0.10 
   5   7   5    0.31    0.12 
  -5   7  -5    0.43    0.13 
   5   7   6    2.52    0.18 
  -5   7  -6    2.58    0.18 
   5   7   6    2.55    0.16 
   5   7   7    0.17    0.11 
   5   7   7    0.07    0.13 
  -5   7  -7    0.16    0.13 
  -5   7  -8    3.99    0.27 
   5   7   8    3.83    0.25 
   5   7   8    4.30    0.27 
   5   7   9    0.11    0.13 
   5   7   9    0.11    0.15 
  -5   7  -9    0.17    0.14 
   5   7  10    0.71    0.17 
   5   7  10    1.04    0.17 
   5   7  11   -0.10    0.16 
  -5   8   9    3.56    0.25 
  -5   8   8    0.12    0.17 
  -5   8   7    0.80    0.18 
  -5   8   6    0.11    0.14 
  -5   8   5    1.09    0.16 
  -5   8   4    0.25    0.14 
   5   8  -4    0.37    0.06 
  -5   8   3    4.27    0.26 
   5   8  -3    4.30    0.21 
   5   8  -3    4.04    0.12 
   5   8  -2    0.06    0.11 
  -5   8   2    0.39    0.13 
   5   8  -2    0.22    0.05 
   5   8  -1    6.12    0.24 
  -5   8   1    6.24    0.28 
   5   8  -1    5.97    0.16 
   5   8   0    0.03    0.11 
  -5   8   0   -0.19    0.12 
   5   8   0    0.02    0.06 
   5   8   1    1.43    0.14 
   5   8   1    1.74    0.12 
  -5   8  -1    1.61    0.16 
  -5   8  -2   -0.10    0.12 
   5   8   2   -0.14    0.11 
   5   8   2    0.06    0.07 
  -5   8  -3    2.62    0.19 
   5   8   3    2.21    0.16 
   5   8   3    2.64    0.18 
  -5   8  -4    0.26    0.13 
   5   8   4    0.19    0.09 
   5   8   4    0.29    0.13 
   5   8   5    3.76    0.21 
   5   8   5    3.46    0.24 
  -5   8  -5    3.65    0.25 
   5   8   6    1.04    0.14 
   5   8   6    1.10    0.16 
  -5   8  -6    1.01    0.16 
  -5   8  -7    0.41    0.14 
   5   8   7    0.26    0.13 
   5   8   7    0.29    0.14 
   5   8   8    0.29    0.15 
  -5   8  -8    0.32    0.15 
   5   8   8    0.19    0.14 
   5   8   9    0.17    0.16 
  -5   8  -9    0.45    0.16 
   5   8   9    0.65    0.16 
  -5   9   6    3.05    0.25 
  -5   9   5   -0.06    0.15 
   5   9  -4    0.30    0.08 
  -5   9   4    0.43    0.15 
   5   9  -3    0.26    0.13 
  -5   9   3    0.20    0.15 
   5   9  -3    0.21    0.06 
  -5   9   2    0.51    0.15 
   5   9  -2    0.68    0.07 
   5   9  -2    0.66    0.13 
  -5   9   1   -0.05    0.14 
   5   9  -1   -0.01    0.07 
   5   9  -1    0.11    0.12 
  -5   9   0    1.87    0.18 
   5   9   0    1.93    0.13 
   5   9   0    1.84    0.16 
   5   9   1    0.13    0.08 
   5   9   1   -0.01    0.12 
  -5   9  -1    0.30    0.14 
  -5   9  -2    3.73    0.27 
   5   9   2    3.33    0.23 
   5   9   2    3.50    0.18 
   5   9   3    0.02    0.09 
  -5   9  -3    0.06    0.14 
   5   9   3    0.03    0.12 
   5   9   4    0.01    0.13 
  -5   9  -4   -0.09    0.14 
   5   9   4    0.13    0.11 
   5   9   5    0.06    0.13 
   5   9   5   -0.10    0.11 
  -5   9  -5    0.10    0.14 
  -5   9  -6    1.39    0.18 
   5   9   6    1.13    0.17 
   5   9   6    1.06    0.15 
  -6   0  16    1.70    0.21 
  -6   0  15   -0.06    0.13 
  -6   0  14   12.08    0.36 
  -6   0  13    0.06    0.11 
  -6   0  12    6.95    0.26 
  -6   0  11   -0.04    0.09 
  -6   0  10    8.15    0.25 
  -6   0   9   -0.03    0.08 
   6   0  -8    0.68    0.09 
  -6   0   8    0.52    0.08 
  -6   0   7   -0.06    0.06 
   6   0  -7   -0.05    0.05 
   6   0  -6   23.69    0.45 
  -6   0   6   23.15    0.44 
   6   0  -5    0.00    0.04 
  -6   0   5    0.07    0.05 
   6   0  -4    7.22    0.18 
  -6   0   4    7.18    0.17 
   6   0  -3    0.05    0.05 
  -6   0   3    0.05    0.04 
   6   0  -3    0.00    0.04 
  -6   0   2   14.93    0.29 
   6   0  -2   15.54    0.29 
   6   0  -2   14.91    0.30 
   6   0  -1   -0.03    0.03 
  -6   0   1   -0.01    0.03 
   6   0  -1    0.02    0.04 
  -6   0   1    0.00    0.03 
  -6   0   0   15.57    0.30 
  -6   0   0   15.58    0.29 
   6   0   0   15.05    0.30 
   6   0   0   15.44    0.30 
   6   0   1   -0.01    0.04 
  -6   0  -1   -0.02    0.03 
   6   0   1    0.01    0.04 
  -6   0  -1   -0.06    0.03 
  -6   0  -2   60.37    1.02 
   6   0   2   60.73    1.03 
   6   0   2   61.97    1.03 
  -6   0  -2   61.06    1.02 
   6   0   2   60.84    1.03 
  -6   0  -3    0.00    0.04 
   6   0   3   -0.02    0.04 
  -6   0  -3    0.01    0.04 
   6   0   3    0.00    0.05 
   6   0   3    0.06    0.05 
  -6   0  -4    0.72    0.07 
   6   0   4    0.57    0.07 
   6   0   4    0.56    0.07 
   6   0   4    0.48    0.06 
  -6   0  -4    0.77    0.07 
   6   0   5   -0.04    0.06 
   6   0   5   -0.02    0.05 
   6   0   5    0.00    0.05 
   6   0   6   11.97    0.28 
   6   0   6   11.86    0.28 
   6   0   6   12.30    0.28 
   6   0   7    0.07    0.08 
   6   0   7   -0.04    0.07 
   6   0   8   14.04    0.33 
   6   0   8   13.44    0.33 
   6   0   9   -0.02    0.10 
   6   0   9    0.00    0.10 
   6   0  10    0.37    0.11 
   6   0  11   -0.08    0.11 
   6   0  12    0.92    0.14 
   6   0  13   -0.02    0.14 
   6   0  14    0.05    0.16 
   6   0  15    0.05    0.16 
   6   0  16    2.04    0.22 
  -6   1  17    2.76    0.23 
  -6   1  16    0.07    0.16 
  -6   1  15    0.73    0.16 
  -6   1  14    0.60    0.15 
  -6  -1  14    0.51    0.13 
  -6   1  13   -0.03    0.12 
  -6  -1  13   -0.07    0.10 
  -6   1  12    0.35    0.12 
  -6  -1  12    0.55    0.11 
  -6   1  11    7.40    0.27 
  -6  -1  11    7.41    0.24 
   6   1 -10    1.28    0.13 
  -6   1  10    0.87    0.12 
  -6  -1  10    1.11    0.10 
   6   1  -9   32.56    0.63 
  -6   1   9   33.95    0.65 
  -6  -1   9   34.09    0.62 
  -6   1   8    2.14    0.15 
   6   1  -8    1.97    0.12 
  -6  -1   8    2.19    0.12 
   6   1  -7   21.18    0.41 
  -6   1   7   20.06    0.42 
   6  -1  -7   21.20    0.43 
  -6  -1   7   20.31    0.40 
   6   1  -6   19.03    0.37 
  -6   1   6   18.71    0.39 
   6  -1  -6   18.98    0.38 
  -6  -1   6   18.95    0.36 
  -6   1   5   -0.01    0.06 
   6   1  -5    0.03    0.04 
   6  -1  -5   -0.04    0.05 
  -6  -1   5   -0.02    0.04 
   6  -1  -5    0.03    0.06 
  -6   1   4   11.25    0.25 
   6   1  -4   11.18    0.23 
  -6  -1   4   11.24    0.22 
   6  -1  -4   11.69    0.25 
   6  -1  -4   11.16    0.26 
   6   1  -3  122.65    2.02 
  -6   1   3  124.46    2.04 
  -6  -1   3  124.58    2.01 
   6  -1  -3  125.08    2.04 
   6  -1  -3  123.96    2.04 
  -6   1   2    0.52    0.06 
   6   1  -2    0.55    0.05 
  -6   1   2    0.45    0.05 
   6   1  -2    0.48    0.04 
  -6  -1   2    0.52    0.04 
   6  -1  -2    0.56    0.05 
   6  -1  -2    0.54    0.06 
  -6   1   1   85.28    1.43 
   6   1  -1   86.08    1.42 
  -6   1   1   87.90    1.43 
   6   1  -1   85.28    1.41 
   6  -1  -1   88.63    1.43 
  -6  -1   1   85.90    1.41 
   6  -1  -1   85.73    1.44 
   6   1   0    0.10    0.04 
  -6   1   0    0.12    0.04 
  -6   1   0    0.04    0.04 
   6   1   0    0.13    0.04 
  -6  -1   0    0.10    0.03 
   6  -1   0    0.08    0.04 
  -6  -1   0    0.20    0.03 
   6  -1   0    0.05    0.05 
  -6   1  -1    6.28    0.16 
   6   1   1    6.46    0.15 
  -6   1  -1    6.08    0.16 
   6   1   1    6.25    0.15 
  -6  -1  -1    6.56    0.14 
   6  -1   1    6.35    0.17 
   6  -1   1    6.57    0.16 
   6  -1   1    6.38    0.15 
   6   1   2    1.25    0.08 
  -6   1  -2    1.23    0.09 
   6   1   2    1.27    0.07 
   6   1   2    1.44    0.09 
  -6   1  -2    1.30    0.08 
  -6  -1  -2    1.23    0.07 
   6  -1   2    1.25    0.07 
   6  -1   2    1.22    0.08 
   6  -1   2    1.19    0.09 
  -6   1  -3    7.35    0.18 
  -6   1  -3    7.69    0.19 
   6   1   3    7.15    0.18 
  -6  -1  -3    7.18    0.17 
   6  -1   3    7.51    0.19 
   6  -1   3    7.54    0.19 
   6  -1   3    7.32    0.17 
  -6   1  -4    5.85    0.17 
   6   1   4    5.76    0.16 
  -6   1  -4    6.04    0.18 
   6   1   4    5.75    0.17 
   6   1   4    6.04    0.17 
  -6   1  -4    6.03    0.15 
   6  -1   4    5.70    0.16 
   6  -1   4    5.95    0.18 
  -6  -1  -4    6.33    0.16 
   6  -1   4    5.90    0.17 
   6   1   5   14.72    0.32 
  -6   1  -5   14.77    0.32 
  -6   1  -5   15.52    0.32 
   6   1   5   14.57    0.32 
  -6   1  -5   15.31    0.31 
   6   1   5   14.52    0.31 
   6  -1   5   15.17    0.32 
   6  -1   5   14.93    0.31 
   6  -1   5   14.97    0.32 
   6   1   6    3.17    0.14 
   6   1   6    2.90    0.15 
   6   1   6    3.06    0.14 
   6  -1   6    3.31    0.15 
   6  -1   6    3.25    0.14 
   6   1   7    1.30    0.10 
   6   1   7    1.43    0.12 
   6   1   7    1.52    0.12 
   6  -1   7    1.27    0.11 
   6  -1   7    1.35    0.11 
   6   1   8    0.55    0.11 
   6   1   8    0.62    0.10 
   6  -1   8    0.69    0.10 
   6  -1   8    0.44    0.09 
   6   1   9    1.11    0.13 
   6   1   9    1.23    0.13 
   6  -1   9    0.87    0.11 
   6   1  10    8.22    0.28 
   6   1  10    8.91    0.29 
   6  -1  10    8.77    0.29 
   6   1  11    5.53    0.26 
   6  -1  11    5.93    0.26 
   6   1  12    0.23    0.13 
   6  -1  12    0.35    0.13 
   6   1  13    0.14    0.14 
   6  -1  13    0.07    0.13 
   6   1  14    0.36    0.15 
   6  -1  14    0.27    0.16 
   6   1  15    1.66    0.21 
   6  -1  15    1.15    0.19 
   6   1  16    0.00    0.17 
   6  -1  16    0.34    0.17 
  -6   2  16    0.64    0.18 
  -6   2  15    0.08    0.16 
  -6   2  14    0.05    0.15 
  -6   2  13    0.06    0.14 
  -6  -2  13   -0.02    0.11 
  -6   2  12    7.12    0.29 
  -6  -2  12    7.53    0.23 
   6   2 -11    1.32    0.12 
  -6   2  11    1.08    0.14 
  -6  -2  11    1.07    0.10 
   6   2 -10    1.04    0.11 
  -6   2  10    0.98    0.13 
  -6  -2  10    1.00    0.09 
  -6   2   9    2.56    0.19 
   6   2  -9    2.70    0.14 
  -6  -2   9    2.69    0.12 
   6   2  -8    4.51    0.16 
  -6   2   8    4.81    0.20 
  -6  -2   8    4.64    0.14 
  -6   2   7    0.14    0.09 
   6   2  -7    0.25    0.06 
  -6  -2   7    0.19    0.05 
   6   2  -6   32.92    0.59 
  -6   2   6   33.50    0.62 
   6  -2  -6   32.42    0.62 
   6   2  -5    2.56    0.10 
  -6   2   5    2.44    0.13 
  -6  -2   5    2.23    0.07 
   6  -2  -5    2.70    0.14 
   6   2  -4   22.23    0.40 
  -6   2   4   22.07    0.44 
   6  -2  -4   22.35    0.43 
   6  -2  -4   22.07    0.44 
  -6  -2   4   22.82    0.38 
   6   2  -3   45.01    0.75 
  -6   2   3   44.08    0.79 
   6  -2  -3   46.08    0.79 
   6  -2  -3   44.50    0.79 
   6   2  -2   14.51    0.26 
  -6   2   2   14.54    0.30 
  -6   2   2   14.59    0.30 
   6   2  -2   14.50    0.27 
   6  -2  -2   14.27    0.31 
   6  -2  -2   14.47    0.30 
   6   2  -1   32.55    0.56 
  -6   2   1   33.42    0.60 
  -6   2   1   32.65    0.60 
   6   2  -1   32.65    0.56 
   6  -2  -1   33.39    0.60 
   6  -2  -1   33.29    0.59 
   6   2   0   37.73    0.63 
  -6   2   0   37.47    0.67 
   6   2   0   38.44    0.63 
  -6   2   0   37.11    0.67 
   6  -2   0   37.96    0.67 
   6  -2   0   37.13    0.67 
   6   2   1    7.52    0.16 
   6   2   1    7.52    0.16 
  -6   2  -1    7.45    0.19 
   6  -2   1    7.48    0.19 
  -6  -2  -1    7.35    0.15 
   6  -2   1    7.62    0.19 
   6  -2   1    7.43    0.16 
   6   2   2   29.31    0.52 
  -6   2  -2   29.30    0.54 
  -6   2  -2   29.33    0.54 
   6   2   2   29.70    0.52 
   6   2   2   29.39    0.55 
  -6  -2  -2   28.93    0.50 
   6  -2   2   29.31    0.54 
   6  -2   2   29.86    0.51 
   6  -2   2   30.50    0.54 
  -6   2  -3   29.61    0.55 
   6   2   3   30.23    0.53 
  -6   2  -3   29.70    0.55 
   6   2   3   29.41    0.55 
   6  -2   3   29.85    0.52 
  -6  -2  -3   29.19    0.51 
   6  -2   3   29.62    0.55 
   6  -2   3   30.24    0.55 
  -6   2  -4   10.22    0.25 
  -6   2  -4   10.03    0.21 
   6   2   4   10.34    0.23 
  -6   2  -4   10.20    0.24 
   6   2   4    9.55    0.24 
  -6  -2  -4   10.01    0.21 
   6  -2   4   10.12    0.22 
   6  -2   4   10.14    0.24 
  -6   2  -5    2.32    0.12 
  -6   2  -5    2.41    0.10 
   6   2   5    2.09    0.12 
   6   2   5    2.34    0.13 
  -6   2  -5    2.37    0.14 
   6  -2   5    2.30    0.11 
   6  -2   5    2.39    0.13 
   6   2   6    0.35    0.08 
  -6   2  -6    0.34    0.08 
  -6   2  -6    0.40    0.06 
   6   2   6    0.19    0.08 
   6  -2   6    0.35    0.07 
   6  -2   6    0.32    0.08 
   6   2   7    0.51    0.10 
   6   2   7    0.47    0.09 
   6  -2   7    0.48    0.09 
   6   2   8    6.56    0.23 
   6   2   8    6.34    0.22 
   6  -2   8    6.49    0.23 
   6   2   9    5.54    0.22 
   6   2   9    5.59    0.23 
   6  -2   9    5.86    0.23 
   6   2  10    2.13    0.17 
   6   2  10    1.82    0.15 
   6  -2  10    2.06    0.16 
   6   2  11    0.98    0.15 
   6   2  11    1.11    0.15 
   6  -2  11    1.15    0.15 
   6   2  12    0.04    0.13 
   6  -2  12    0.10    0.12 
   6   2  13    0.54    0.15 
   6  -2  13    0.26    0.14 
   6   2  14    1.03    0.18 
   6  -2  14    1.20    0.18 
   6   2  15    0.06    0.16 
   6  -2  15    0.02    0.15 
   6   2  16    0.74    0.20 
   6  -2  16    1.07    0.19 
  -6   3  16    1.20    0.21 
  -6   3  15    2.36    0.23 
  -6   3  14    4.02    0.30 
  -6   3  13    2.77    0.21 
  -6   3  12    2.65    0.20 
  -6   3  11   -0.04    0.12 
  -6  -3  11    0.11    0.07 
  -6   3  10    0.14    0.12 
   6   3 -10    0.34    0.08 
   6   3  -9   11.19    0.27 
  -6   3   9   11.66    0.33 
  -6  -3   9   10.97    0.23 
   6  -3  -9   11.89    0.33 
  -6   3   8    6.94    0.25 
   6   3  -8    6.89    0.19 
  -6  -3   8    7.05    0.15 
   6  -3  -8    7.16    0.25 
  -6   3   7   16.78    0.39 
   6   3  -7   16.53    0.33 
   6  -3  -7   16.54    0.39 
   6   3  -6    9.55    0.21 
  -6   3   6    9.49    0.27 
   6  -3  -6    9.16    0.26 
  -6   3   5    0.26    0.08 
   6   3  -5    0.33    0.05 
   6  -3  -5    0.38    0.09 
  -6   3   4    1.48    0.11 
   6   3  -4    0.97    0.06 
   6  -3  -4    0.82    0.09 
  -6   3   3    8.44    0.22 
   6   3  -3    7.87    0.16 
  -6   3   3    8.23    0.22 
   6  -3  -3    8.42    0.23 
   6   3  -2   15.63    0.27 
  -6   3   2   15.39    0.33 
  -6   3   2   15.42    0.33 
   6  -3  -2   16.31    0.34 
  -6   3   1   26.38    0.49 
   6   3  -1   25.82    0.44 
   6   3  -1   26.11    0.43 
  -6   3   1   25.18    0.49 
   6  -3  -1   25.85    0.49 
  -6   3   0    6.32    0.18 
   6   3   0    6.19    0.13 
   6   3   0    6.29    0.13 
  -6   3   0    6.07    0.18 
   6  -3   0    5.92    0.18 
  -6   3  -1   17.69    0.37 
  -6   3  -1   17.40    0.36 
   6   3   1   17.98    0.37 
   6   3   1   17.92    0.32 
   6  -3   1   17.49    0.36 
   6  -3   1   18.13    0.31 
  -6   3  -2    0.34    0.07 
   6   3   2    0.54    0.08 
   6   3   2    0.58    0.05 
  -6   3  -2    0.70    0.08 
   6  -3   2    0.50    0.04 
   6  -3   2    0.46    0.07 
   6   3   3    0.16    0.05 
  -6   3  -3    0.25    0.08 
   6   3   3    0.20    0.07 
  -6   3  -3    0.19    0.06 
   6  -3   3    0.25    0.04 
   6  -3   3    0.24    0.07 
  -6  -3  -3    0.20    0.03 
  -6   3  -4    0.06    0.07 
   6   3   4    0.01    0.08 
  -6   3  -4    0.03    0.06 
  -6   3  -4    0.07    0.04 
   6   3   4    0.02    0.05 
  -6  -3  -4    0.04    0.03 
   6  -3   4    0.02    0.06 
   6   3   5   13.20    0.29 
  -6   3  -5   12.79    0.26 
  -6   3  -5   12.73    0.33 
  -6   3  -5   12.90    0.31 
   6   3   5   13.09    0.32 
   6  -3   5   13.11    0.30 
   6   3   6    9.61    0.27 
  -6   3  -6    9.56    0.27 
   6   3   6   10.32    0.26 
  -6   3  -6    9.89    0.22 
   6  -3   6   10.40    0.26 
   6   3   7    3.51    0.17 
  -6   3  -7    3.10    0.18 
   6   3   7    3.22    0.17 
   6  -3   7    3.23    0.17 
   6   3   8    1.19    0.14 
   6   3   8    0.93    0.11 
   6  -3   8    0.90    0.11 
   6   3   9    0.14    0.11 
   6   3   9   -0.05    0.10 
   6  -3   9   -0.02    0.09 
   6   3  10    2.43    0.18 
   6   3  10    1.88    0.17 
   6  -3  10    1.94    0.15 
   6   3  11    7.03    0.29 
   6   3  11    6.23    0.27 
   6  -3  11    6.57    0.27 
   6   3  12    0.37    0.15 
   6  -3  12    0.33    0.13 
   6   3  13    0.41    0.16 
   6  -3  13    0.67    0.15 
   6   3  14    0.87    0.19 
   6  -3  14    0.92    0.16 
   6   3  15    0.07    0.17 
   6  -3  15    0.04    0.15 
   6   3  16   -0.07    0.18 
  -6   4  15    0.19    0.19 
  -6   4  14    0.27    0.18 
   6  -4 -14    0.01    0.16 
  -6   4  13    0.00    0.16 
   6  -4 -13    0.05    0.15 
  -6   4  12    2.66    0.21 
   6  -4 -12    2.99    0.22 
  -6   4  11    1.59    0.18 
   6  -4 -11    1.50    0.17 
  -6   4  10    4.53    0.26 
   6  -4 -10    4.17    0.25 
   6   4  -9    0.17    0.08 
  -6   4   9    0.12    0.12 
   6  -4  -9    0.06    0.11 
   6   4  -8    0.11    0.06 
  -6   4   8    0.00    0.10 
   6  -4  -8    0.00    0.10 
  -6   4   7    3.72    0.20 
   6   4  -7    3.28    0.12 
   6  -4  -7    3.11    0.19 
   6   4  -6   12.19    0.25 
  -6   4   6   12.86    0.33 
   6  -4  -6   12.01    0.32 
   6   4  -5   17.62    0.32 
  -6   4   5   17.36    0.40 
   6  -4  -5   17.25    0.39 
   6   4  -4   23.20    0.40 
  -6   4   4   23.63    0.49 
   6  -4  -4   23.61    0.48 
   6   4  -3   10.49    0.19 
  -6   4   3   11.12    0.28 
   6  -4  -3   10.31    0.27 
   6   4  -2   19.43    0.32 
  -6   4   2   19.28    0.41 
  -6   4   2   19.03    0.41 
   6  -4  -2   20.00    0.41 
  -6   4   1    0.83    0.09 
  -6   4   1    1.06    0.10 
   6   4  -1    0.98    0.04 
   6  -4  -1    0.77    0.08 
   6   4   0    2.72    0.08 
  -6   4   0    2.79    0.14 
  -6   4   0    2.61    0.15 
   6  -4   0    2.70    0.14 
  -6   4  -1   13.32    0.31 
   6   4   1   13.13    0.31 
   6   4   1   13.05    0.25 
  -6   4  -1   12.86    0.30 
   6  -4   1   13.11    0.30 
  -6   4  -2   17.09    0.36 
   6   4   2   16.99    0.32 
   6   4   2   17.44    0.38 
  -6   4  -2   17.58    0.38 
   6  -4   2   16.90    0.36 
  -6   4  -3   17.61    0.38 
  -6   4  -3   17.52    0.37 
   6   4   3   17.82    0.38 
   6   4   3   17.85    0.34 
   6  -4   3   17.64    0.37 
  -6   4  -4    8.21    0.23 
   6   4   4    8.29    0.24 
   6   4   4    8.72    0.21 
  -6   4  -4    8.56    0.25 
   6  -4   4    8.36    0.23 
  -6  -4  -4    8.25    0.16 
  -6   4  -5    6.23    0.15 
   6   4   5    6.37    0.23 
   6   4   5    6.30    0.20 
  -6   4  -5    6.51    0.22 
   6  -4   5    6.56    0.20 
   6   4   6    0.08    0.09 
  -6   4  -6    0.25    0.10 
   6   4   6    0.01    0.08 
  -6   4  -6    0.16    0.05 
   6  -4   6    0.08    0.07 
   6   4   7    0.11    0.09 
  -6   4  -7   -0.03    0.10 
   6   4   7    0.14    0.11 
  -6   4  -7    0.03    0.05 
   6  -4   7    0.09    0.08 
   6   4   8    2.98    0.19 
   6   4   8    2.84    0.21 
  -6   4  -8    2.85    0.21 
   6  -4   8    2.70    0.18 
   6   4   9    5.89    0.26 
   6   4   9    5.23    0.24 
   6  -4   9    5.35    0.22 
   6   4  10    4.28    0.24 
   6   4  10    4.18    0.26 
   6  -4  10    4.08    0.22 
   6   4  11    2.39    0.18 
   6   4  11    2.89    0.22 
   6  -4  11    2.82    0.21 
   6   4  12    0.74    0.17 
   6   4  12    0.78    0.17 
   6  -4  12    0.38    0.13 
   6   4  13    0.41    0.15 
   6  -4  13    0.58    0.15 
   6   4  14    0.28    0.18 
   6   4  15    0.35    0.19 
  -6   5  14    3.46    0.28 
   6  -5 -14    3.01    0.26 
  -6   5  13    0.91    0.19 
   6  -5 -13    0.63    0.18 
  -6   5  12   -0.09    0.15 
   6  -5 -12   -0.06    0.14 
  -6   5  11    0.76    0.17 
   6  -5 -11    0.97    0.17 
  -6   5  10    5.64    0.30 
   6  -5 -10    5.25    0.27 
  -6   5   9    0.14    0.13 
   6  -5  -9    0.27    0.12 
  -6   5   8   15.01    0.41 
   6  -5  -8   14.61    0.39 
  -6   5   7   10.81    0.34 
   6   5  -7   11.13    0.25 
   6  -5  -7   11.94    0.33 
   6   5  -6    1.53    0.09 
  -6   5   6    1.21    0.14 
   6  -5  -6    1.66    0.14 
   6   5  -5    6.14    0.14 
  -6   5   5    6.57    0.25 
   6  -5  -5    6.50    0.23 
   6  -5  -5    6.38    0.17 
   6   5  -4    2.93    0.08 
  -6   5   4    2.91    0.19 
   6  -5  -4    2.84    0.10 
   6  -5  -4    3.00    0.18 
  -6   5   3    5.40    0.21 
   6  -5  -3    5.18    0.20 
   6  -5  -3    5.12    0.12 
  -6   5   2    9.63    0.27 
   6  -5  -2    9.25    0.26 
  -6   5   1    9.65    0.30 
  -6   5   1    9.12    0.27 
   6  -5  -1    9.50    0.25 
   6   5   0    4.74    0.10 
  -6   5   0    4.20    0.19 
   6   5   0    4.37    0.18 
  -6   5   0    4.44    0.18 
   6  -5   0    4.35    0.17 
  -6   5  -1    4.63    0.20 
  -6   5  -1    4.77    0.18 
   6   5   1    4.71    0.12 
   6   5   1    4.78    0.19 
   6  -5   1    4.82    0.18 
  -6   5  -2    0.81    0.10 
  -6   5  -2    0.88    0.10 
   6   5   2    0.92    0.07 
   6   5   2    0.85    0.11 
   6  -5   2    0.88    0.09 
  -6   5  -3    0.06    0.09 
   6   5   3    0.02    0.09 
  -6   5  -3    0.07    0.07 
   6   5   3    0.09    0.06 
   6  -5   3    0.06    0.07 
   6   5   4    5.89    0.18 
  -6   5  -4    5.85    0.22 
   6   5   4    6.15    0.23 
   6  -5   4    6.01    0.20 
  -6   5  -5    4.91    0.22 
   6   5   5    4.79    0.18 
   6   5   5    5.18    0.22 
  -6  -5  -5    4.83    0.11 
   6  -5   5    4.77    0.19 
  -6  -5  -5    4.98    0.11 
   6   5   6    1.86    0.13 
  -6   5  -6    1.61    0.08 
   6   5   6    1.66    0.15 
  -6   5  -6    1.79    0.15 
   6  -5   6    1.70    0.12 
   6   5   7    8.00    0.26 
  -6   5  -7    8.21    0.28 
   6   5   7    7.70    0.28 
   6  -5   7    7.65    0.24 
  -6   5  -8    0.25    0.12 
   6   5   8    0.10    0.12 
   6   5   8    0.33    0.11 
   6  -5   8    0.23    0.09 
  -6   5  -9    0.70    0.15 
   6   5   9    0.61    0.14 
   6   5   9    0.66    0.13 
   6  -5   9    0.71    0.11 
   6   5  10    0.05    0.15 
   6   5  10   -0.01    0.12 
   6  -5  10    0.14    0.10 
   6   5  11   -0.02    0.13 
   6   5  11    0.13    0.16 
   6  -5  11    0.10    0.11 
   6   5  12    0.14    0.16 
   6   5  12    0.06    0.16 
   6   5  13    0.98    0.20 
   6   5  14    0.07    0.18 
  -6   6  13    1.90    0.24 
   6  -6 -13    1.88    0.22 
  -6   6  12    0.34    0.18 
   6  -6 -12    0.09    0.15 
  -6   6  11    2.61    0.24 
   6  -6 -11    3.16    0.23 
  -6   6  10    0.92    0.18 
   6  -6 -10    0.84    0.16 
  -6   6   9    0.11    0.14 
   6  -6  -9    0.02    0.13 
  -6   6   8    0.58    0.15 
   6  -6  -8    0.70    0.14 
  -6   6   7    0.29    0.13 
   6  -6  -7    0.18    0.12 
  -6   6   6    1.08    0.14 
   6   6  -6    1.15    0.08 
   6  -6  -6    1.23    0.14 
  -6   6   5    4.21    0.24 
   6   6  -5    4.01    0.11 
   6  -6  -5    4.05    0.21 
  -6   6   4    5.93    0.25 
   6   6  -4    5.91    0.12 
   6  -6  -4    6.29    0.23 
   6  -6  -4    6.23    0.15 
  -6   6   3    2.07    0.15 
   6  -6  -3    2.20    0.16 
  -6   6   2    6.51    0.25 
   6  -6  -2    6.72    0.22 
   6   6  -1    5.09    0.21 
  -6   6   1    4.92    0.22 
   6  -6  -1    4.90    0.19 
   6   6   0    0.11    0.04 
   6   6   0    0.09    0.10 
  -6   6   0    0.15    0.10 
   6  -6   0    0.19    0.09 
   6   6   1    7.34    0.17 
  -6   6  -1    7.62    0.26 
   6   6   1    7.87    0.25 
   6  -6   1    7.64    0.23 
   6   6   2   13.51    0.34 
  -6   6  -2   13.25    0.35 
   6   6   2   13.04    0.27 
   6  -6   2   12.74    0.31 
   6   6   3    8.89    0.27 
  -6   6  -3    8.43    0.28 
   6   6   3    8.37    0.22 
   6  -6   3    8.42    0.24 
   6   6   4    1.30    0.10 
   6   6   4    1.60    0.15 
  -6   6  -4    1.30    0.13 
   6  -6   4    1.46    0.11 
   6   6   5    0.61    0.10 
   6   6   5    0.77    0.13 
  -6   6  -5    0.96    0.14 
   6  -6   5    0.64    0.10 
   6   6   6    0.07    0.12 
   6   6   6    0.14    0.09 
  -6   6  -6    0.22    0.12 
   6  -6   6    0.25    0.09 
   6   6   7    5.88    0.27 
  -6   6  -7    5.95    0.27 
   6   6   7    6.35    0.25 
   6  -6   7    5.77    0.22 
  -6   6  -8    0.48    0.14 
   6   6   8    0.52    0.15 
   6   6   8    0.67    0.13 
   6  -6   8    0.64    0.11 
   6   6   9    1.06    0.15 
  -6   6  -9    0.95    0.15 
   6   6   9    1.03    0.16 
   6   6  10   -0.12    0.14 
   6   6  10    0.03    0.13 
   6   6  11    0.09    0.16 
   6   6  11   -0.04    0.14 
   6   6  12    0.03    0.16 
   6   6  13   -0.03    0.17 
  -6   7  11    0.14    0.17 
  -6   7  10    1.89    0.21 
  -6   7   9    0.76    0.18 
  -6   7   8    6.69    0.33 
   6  -7  -8    6.56    0.29 
  -6   7   7    0.74    0.16 
   6  -7  -7    0.69    0.13 
  -6   7   6    0.30    0.14 
   6  -7  -6    0.45    0.12 
  -6   7   5   -0.16    0.12 
   6  -7  -5   -0.10    0.10 
  -6   7   4    4.51    0.25 
   6   7  -4    4.52    0.10 
   6  -7  -4    4.48    0.21 
  -6   7   3    1.23    0.15 
   6  -7  -3    1.31    0.13 
  -6   7   2   10.39    0.33 
   6   7  -2   10.60    0.31 
   6  -7  -2   10.81    0.29 
  -6   7   1    0.05    0.11 
   6   7  -1   -0.11    0.10 
   6   7  -1    0.08    0.04 
   6  -7  -1    0.12    0.09 
  -6   7   0    4.66    0.24 
   6   7   0    5.08    0.13 
   6   7   0    4.82    0.23 
   6  -7   0    5.29    0.20 
  -6   7  -1    0.10    0.12 
   6   7   1    0.01    0.11 
   6   7   1    0.13    0.06 
   6  -7   1    0.10    0.08 
   6   7   2    2.29    0.17 
   6   7   2    2.12    0.12 
  -6   7  -2    2.09    0.16 
   6  -7   2    2.59    0.16 
   6   7   3    0.94    0.10 
   6   7   3    0.89    0.13 
  -6   7  -3    0.88    0.14 
   6  -7   3    1.05    0.13 
   6   7   4    1.11    0.15 
   6   7   4    1.27    0.11 
  -6   7  -4    1.52    0.16 
   6   7   5    0.05    0.09 
  -6   7  -5    0.15    0.12 
   6   7   5   -0.01    0.12 
  -6   7  -6    1.31    0.15 
   6   7   6    1.11    0.16 
   6   7   6    1.17    0.13 
   6   7   7   -0.19    0.13 
   6   7   7    0.00    0.11 
  -6   7  -7    0.08    0.13 
  -6   7  -8    0.11    0.14 
   6   7   8   -0.02    0.12 
   6   7   8    0.13    0.14 
   6   7   9   -0.08    0.15 
   6   7   9    0.02    0.13 
  -6   7  -9   -0.06    0.15 
  -6   7 -10    0.72    0.18 
   6   7  10    0.69    0.17 
   6   7  10    0.48    0.17 
   6   7  11    0.40    0.17 
   6   7  11    0.44    0.19 
  -6   8   9    0.09    0.18 
  -6   8   8   -0.15    0.17 
  -6   8   7    2.61    0.24 
  -6   8   6    0.62    0.16 
  -6   8   5    3.21    0.23 
  -6   8   4   -0.12    0.13 
   6   8  -3    0.00    0.11 
  -6   8   3    0.10    0.13 
  -6   8   2    0.09    0.13 
   6   8  -2    0.12    0.04 
   6   8  -2    0.08    0.11 
   6   8  -1    1.02    0.14 
  -6   8   1    1.33    0.17 
   6   8  -1    1.07    0.08 
  -6   8   0    1.09    0.16 
   6   8   0    0.91    0.08 
   6   8   0    0.76    0.14 
   6   8   1    3.45    0.14 
  -6   8  -1    3.04    0.20 
   6   8   1    3.62    0.23 
   6   8   2   -0.04    0.12 
  -6   8  -2    0.02    0.13 
   6   8   2    0.06    0.07 
   6   8   3    2.05    0.17 
   6   8   3    1.97    0.15 
  -6   8  -3    2.35    0.19 
  -6   8  -4   -0.06    0.13 
   6   8   4   -0.03    0.13 
   6   8   4    0.08    0.09 
  -6   8  -5    0.04    0.14 
   6   8   5    0.01    0.13 
   6   8   5    0.24    0.10 
  -6   8  -6    0.06    0.14 
   6   8   6   -0.10    0.13 
   6   8   6   -0.01    0.11 
  -6   8  -7    0.95    0.17 
   6   8   7    0.65    0.16 
   6   8   7    0.82    0.14 
  -6   8  -8    0.08    0.15 
   6   8   8   -0.09    0.15 
   6   8   8   -0.04    0.14 
  -6   8  -9    0.69    0.18 
   6   8   9    1.03    0.20 
   6   8   9    0.69    0.16 
   6   9  -5    0.30    0.14 
  -6   9   5    0.08    0.16 
  -6   9   4    0.22    0.16 
   6   9  -4    0.24    0.13 
   6   9  -3   -0.03    0.12 
  -6   9   3   -0.12    0.15 
   6   9  -2    2.50    0.18 
  -6   9   2    2.54    0.22 
   6   9  -1    0.04    0.06 
   6   9  -1   -0.05    0.13 
  -6   9   1   -0.12    0.14 
   6   9   0    1.08    0.15 
  -6   9   0    1.20    0.18 
   6   9   0    1.20    0.09 
  -6   9  -1    0.25    0.15 
   6   9   1    0.28    0.14 
   6   9   1    0.20    0.08 
  -6   9  -2   -0.03    0.15 
   6   9   2    0.05    0.08 
   6   9   2    0.04    0.13 
   6   9   3    0.14    0.14 
   6   9   3    0.03    0.09 
  -6   9  -3    0.03    0.14 
   6   9   4    0.81    0.12 
   6   9   4    0.81    0.16 
  -6   9  -4    0.73    0.17 
  -6   9  -5   -0.02    0.15 
   6   9   5    0.06    0.11 
   6   9   5   -0.06    0.14 
  -7   0  15    0.07    0.14 
  -7   0  14   10.05    0.33 
  -7   0  13   -0.06    0.11 
  -7   0  12    0.11    0.10 
  -7   0  11    0.09    0.09 
  -7   0  10   12.64    0.32 
  -7   0   9   -0.09    0.07 
   7   0  -8   17.75    0.38 
  -7   0   8   17.51    0.37 
  -7   0   7   -0.04    0.06 
   7   0  -7    0.12    0.06 
  -7   0   6   74.45    1.27 
   7   0  -6   75.43    1.27 
   7   0  -5    0.05    0.05 
  -7   0   5   -0.07    0.05 
  -7   0   4   27.87    0.50 
   7   0  -4   27.30    0.51 
   7   0  -4   27.61    0.51 
  -7   0   3   -0.02    0.04 
   7   0  -3    0.02    0.04 
   7   0  -3   -0.03    0.05 
  -7   0   2   29.14    0.52 
   7   0  -2   28.83    0.53 
   7   0  -2   29.46    0.52 
   7   0  -1   -0.05    0.05 
  -7   0   1   -0.01    0.04 
   7   0  -1   -0.03    0.04 
  -7   0   1    0.04    0.04 
   7   0   0  111.90    1.84 
   7   0   0  110.88    1.84 
  -7   0   0  111.88    1.83 
  -7   0   0  112.67    1.83 
   7   0   1   -0.03    0.04 
  -7   0  -1   -0.02    0.04 
   7   0   1   -0.03    0.05 
  -7   0  -1   -0.04    0.04 
   7   0   2   98.49    1.62 
   7   0   2   96.85    1.62 
   7   0   2  100.21    1.62 
  -7   0  -2   96.92    1.62 
  -7   0  -2   97.13    1.62 
   7   0   3   -0.01    0.05 
   7   0   3   -0.04    0.05 
   7   0   3   -0.02    0.05 
  -7   0  -3    0.01    0.04 
  -7   0  -3    0.00    0.05 
   7   0   4    2.54    0.13 
   7   0   4    2.53    0.11 
   7   0   4    2.42    0.11 
   7   0   5    0.01    0.06 
   7   0   5   -0.02    0.07 
   7   0   5    0.03    0.06 
   7   0   6   49.00    0.88 
   7   0   6   50.03    0.89 
   7   0   7   -0.01    0.07 
   7   0   7    0.03    0.08 
   7   0   8   30.83    0.62 
   7   0   8   31.61    0.62 
   7   0   9   -0.02    0.09 
   7   0   9   -0.01    0.10 
   7   0  10    3.89    0.22 
   7   0  10    3.88    0.22 
   7   0  11    0.06    0.12 
   7   0  12    0.20    0.14 
   7   0  13    0.08    0.14 
   7   0  14    1.25    0.19 
   7   0  15    0.35    0.18 
   7   0  16    0.24    0.18 
  -7   1  16    0.26    0.16 
  -7   1  15    2.92    0.22 
  -7   1  14    1.81    0.18 
  -7  -1  14    1.89    0.26 
  -7   1  13    0.90    0.15 
  -7  -1  13    0.91    0.13 
  -7   1  12    0.70    0.14 
  -7  -1  12    0.87    0.12 
  -7   1  11   13.66    0.36 
  -7  -1  11   13.31    0.33 
  -7   1  10    0.01    0.10 
  -7  -1  10    0.02    0.08 
   7   1  -9   29.79    0.58 
  -7   1   9   30.07    0.59 
  -7  -1   9   29.88    0.56 
   7   1  -8    0.12    0.07 
  -7   1   8    0.01    0.08 
  -7  -1   8    0.12    0.06 
   7   1  -7   14.34    0.31 
  -7   1   7   14.74    0.33 
  -7  -1   7   14.75    0.30 
   7   1  -6    0.81    0.07 
  -7   1   6    0.66    0.08 
   7  -1  -6    0.61    0.08 
  -7  -1   6    0.83    0.07 
   7  -1  -6    0.54    0.08 
   7   1  -5   12.97    0.27 
  -7   1   5   12.65    0.29 
   7  -1  -5   12.93    0.30 
  -7  -1   5   13.31    0.26 
   7  -1  -5   12.90    0.29 
   7   1  -4    0.66    0.06 
  -7   1   4    0.52    0.07 
   7  -1  -4    0.46    0.07 
  -7  -1   4    0.41    0.05 
   7  -1  -4    0.54    0.07 
   7   1  -3   35.68    0.63 
  -7   1   3   35.92    0.64 
   7   1  -3   35.68    0.62 
   7  -1  -3   35.23    0.64 
   7  -1  -3   35.33    0.65 
  -7  -1   3   36.69    0.62 
   7   1  -2   10.66    0.22 
   7   1  -2   10.63    0.23 
  -7   1   2   10.53    0.24 
  -7   1   2   10.62    0.24 
  -7  -1   2   10.58    0.21 
   7  -1  -2   10.19    0.24 
   7  -1  -2   10.79    0.24 
   7   1  -1    7.43    0.18 
  -7   1   1    7.63    0.19 
  -7   1   1    7.66    0.19 
   7   1  -1    7.35    0.17 
   7  -1  -1    7.72    0.19 
  -7  -1   1    7.57    0.16 
   7  -1  -1    7.57    0.20 
   7   1   0    0.45    0.05 
  -7   1   0    0.42    0.06 
  -7   1   0    0.43    0.06 
   7   1   0    0.46    0.05 
   7  -1   0    0.32    0.05 
  -7  -1   0    0.50    0.05 
  -7  -1   0    0.48    0.05 
   7  -1   0    0.47    0.07 
  -7   1  -1    0.98    0.08 
   7   1   1    1.30    0.09 
   7   1   1    1.20    0.08 
  -7   1  -1    1.19    0.08 
  -7  -1  -1    1.07    0.07 
  -7  -1  -1    1.19    0.07 
   7  -1   1    1.04    0.08 
   7  -1   1    1.22    0.08 
   7  -1   1    1.25    0.09 
  -7   1  -2    0.68    0.07 
   7   1   2    0.74    0.07 
   7   1   2    0.79    0.08 
   7   1   2    1.04    0.07 
  -7   1  -2    0.84    0.07 
   7  -1   2    0.83    0.08 
  -7  -1  -2    0.85    0.06 
   7  -1   2    0.92    0.07 
   7  -1   2    0.77    0.07 
  -7   1  -3   26.41    0.49 
   7   1   3   26.35    0.48 
  -7   1  -3   26.36    0.49 
   7   1   3   26.15    0.50 
   7   1   3   25.53    0.48 
   7  -1   3   26.21    0.49 
  -7  -1  -3   25.69    0.47 
   7  -1   3   26.73    0.48 
   7  -1   3   25.81    0.49 
   7   1   4    4.21    0.14 
  -7   1  -4    4.05    0.16 
   7   1   4    4.30    0.15 
   7   1   4    4.10    0.16 
  -7   1  -4    4.36    0.13 
   7  -1   4    4.16    0.14 
   7  -1   4    4.14    0.16 
   7  -1   4    4.21    0.15 
   7   1   5   13.71    0.31 
   7   1   5   13.36    0.29 
   7   1   5   12.83    0.30 
  -7   1  -5   13.50    0.31 
   7  -1   5   13.04    0.29 
   7  -1   5   12.90    0.30 
   7   1   6    0.12    0.08 
   7   1   6    0.04    0.07 
   7   1   6    0.20    0.07 
   7  -1   6    0.12    0.07 
   7  -1   6    0.10    0.07 
   7   1   7    0.04    0.08 
   7   1   7    0.09    0.09 
   7  -1   7    0.05    0.08 
   7  -1   7   -0.05    0.07 
   7   1   8    2.67    0.18 
   7   1   8    2.61    0.17 
   7  -1   8    2.41    0.17 
   7  -1   8    2.56    0.16 
   7   1   9   17.62    0.42 
   7   1   9   17.28    0.41 
   7  -1   9   16.44    0.40 
   7  -1   9   17.30    0.41 
   7   1  10    0.09    0.12 
   7   1  10   -0.05    0.11 
   7  -1  10   -0.01    0.11 
   7   1  11    6.03    0.26 
   7   1  11    5.87    0.27 
   7  -1  11    6.04    0.27 
   7   1  12    0.06    0.13 
   7  -1  12    0.14    0.14 
   7   1  13    0.79    0.16 
   7  -1  13    0.80    0.16 
   7   1  14    0.73    0.17 
   7  -1  14    0.86    0.17 
   7   1  15    0.25    0.18 
   7  -1  15    0.17    0.17 
   7   1  16    0.14    0.18 
   7  -1  16    0.12    0.17 
  -7   2  16    0.42    0.18 
  -7   2  15    1.80    0.22 
  -7   2  14    5.54    0.30 
  -7   2  13    0.06    0.14 
  -7   2  12   13.29    0.39 
  -7  -2  12   12.67    0.31 
  -7   2  11    0.04    0.11 
  -7  -2  11    0.02    0.07 
   7   2 -10    1.24    0.11 
  -7   2  10    1.06    0.14 
  -7  -2  10    1.06    0.09 
  -7   2   9    3.74    0.20 
   7   2  -9    3.60    0.16 
  -7  -2   9    3.68    0.14 
  -7   2   8   23.28    0.49 
   7   2  -8   22.89    0.45 
   7  -2  -8   22.72    0.50 
  -7  -2   8   22.71    0.43 
  -7   2   7    5.10    0.20 
   7   2  -7    4.93    0.16 
  -7  -2   7    4.98    0.14 
   7  -2  -7    5.16    0.20 
   7   2  -6   29.97    0.54 
  -7   2   6   29.78    0.58 
   7  -2  -6   30.00    0.59 
   7   2  -5    1.81    0.09 
  -7   2   5    1.83    0.13 
   7  -2  -5    1.69    0.12 
  -7  -2   5    1.69    0.07 
  -7   2   4    9.97    0.25 
   7   2  -4    9.86    0.21 
  -7  -2   4   10.27    0.19 
   7  -2  -4   10.13    0.26 
   7   2  -3    3.72    0.11 
   7   2  -3    3.87    0.12 
  -7   2   3    3.77    0.15 
   7  -2  -3    3.75    0.15 
   7  -2  -3    3.85    0.14 
  -7  -2   3    3.81    0.08 
  -7   2   2   14.37    0.31 
  -7   2   2   13.95    0.31 
   7   2  -2   14.09    0.27 
   7   2  -2   13.98    0.27 
   7  -2  -2   14.07    0.31 
   7  -2  -2   13.99    0.30 
   7   2  -1   11.05    0.23 
   7   2  -1   11.33    0.23 
  -7   2   1   11.63    0.26 
  -7   2   1   11.79    0.26 
   7  -2  -1   11.87    0.26 
   7  -2  -1   11.19    0.27 
  -7   2   0   60.09    1.04 
  -7   2   0   61.44    1.04 
   7   2   0   60.73    1.00 
   7   2   0   61.14    1.00 
   7  -2   0   59.10    1.03 
   7  -2   0   59.47    1.04 
  -7   2  -1    6.65    0.18 
   7   2   1    6.91    0.16 
   7   2   1    6.85    0.16 
  -7   2  -1    6.56    0.19 
  -7  -2  -1    6.87    0.14 
   7  -2   1    6.53    0.18 
   7  -2   1    6.54    0.15 
   7  -2   1    6.72    0.19 
  -7   2  -2    0.74    0.08 
  -7   2  -2    1.12    0.09 
   7   2   2    0.95    0.06 
   7   2   2    0.85    0.06 
   7   2   2    0.93    0.09 
   7  -2   2    0.71    0.08 
  -7  -2  -2    0.89    0.06 
   7  -2   2    1.04    0.09 
   7  -2   2    0.84    0.06 
   7   2   3   15.91    0.32 
  -7   2  -3   16.36    0.35 
  -7   2  -3   16.86    0.37 
   7   2   3   16.20    0.32 
   7   2   3   15.71    0.35 
   7  -2   3   16.16    0.31 
   7  -2   3   16.27    0.34 
  -7  -2  -3   16.03    0.31 
  -7   2  -4    1.77    0.13 
   7   2   4    1.69    0.10 
   7   2   4    1.86    0.11 
   7   2   4    1.99    0.14 
   7  -2   4    1.79    0.10 
   7  -2   4    1.75    0.13 
   7   2   5    0.38    0.07 
  -7   2  -5    0.48    0.09 
   7   2   5    0.34    0.07 
   7   2   5    0.36    0.09 
  -7   2  -5    0.63    0.06 
   7  -2   5    0.55    0.07 
   7  -2   5    0.47    0.08 
  -7   2  -6    7.96    0.24 
   7   2   6    7.74    0.23 
   7   2   6    7.81    0.22 
   7   2   6    8.17    0.22 
   7  -2   6    7.73    0.23 
   7  -2   6    7.64    0.21 
   7   2   7   -0.11    0.09 
   7   2   7    0.05    0.08 
   7  -2   7    0.10    0.07 
   7  -2   7    0.03    0.08 
   7   2   8    6.01    0.23 
   7   2   8    6.35    0.23 
   7  -2   8    6.41    0.23 
   7   2   9    0.92    0.13 
   7   2   9    1.15    0.14 
   7  -2   9    0.66    0.12 
   7   2  10    0.06    0.12 
   7   2  10    0.17    0.11 
   7  -2  10    0.38    0.12 
   7   2  11    1.06    0.16 
   7   2  11    1.01    0.15 
   7  -2  11    1.00    0.15 
   7   2  12    2.11    0.20 
   7   2  12    1.77    0.18 
   7  -2  12    2.18    0.18 
   7   2  13    0.42    0.15 
   7  -2  13    0.26    0.15 
   7   2  14    3.17    0.24 
   7  -2  14    2.94    0.22 
   7   2  15    0.00    0.16 
   7  -2  15    0.12    0.17 
   7   2  16    0.03    0.18 
   7  -2  16   -0.10    0.17 
  -7   3  15    1.12    0.20 
  -7   3  14    0.56    0.17 
  -7   3  13    0.16    0.16 
  -7   3  12    0.17    0.15 
  -7   3  11    5.46    0.28 
   7  -3 -11    5.36    0.28 
  -7   3  10    0.21    0.12 
   7  -3 -10   -0.08    0.11 
  -7  -3  10    0.09    0.05 
   7   3  -9    2.45    0.14 
  -7   3   9    2.32    0.17 
  -7  -3   9    2.47    0.09 
   7  -3  -9    2.43    0.17 
   7   3  -8    0.74    0.08 
  -7   3   8    0.69    0.11 
  -7  -3   8    0.75    0.05 
   7  -3  -8    0.89    0.13 
  -7   3   7    0.77    0.11 
   7   3  -7    0.66    0.07 
   7  -3  -7    0.71    0.12 
   7   3  -6   16.09    0.32 
  -7   3   6   16.49    0.38 
   7  -3  -6   16.08    0.38 
   7   3  -5   11.28    0.23 
  -7   3   5   11.17    0.29 
   7  -3  -5   10.92    0.29 
   7   3  -4    9.69    0.20 
  -7   3   4   10.02    0.27 
   7  -3  -4   10.31    0.27 
   7   3  -3   14.40    0.27 
  -7   3   3   14.38    0.33 
   7  -3  -3   14.27    0.33 
   7   3  -2    1.06    0.06 
  -7   3   2    1.06    0.10 
   7   3  -2    1.00    0.06 
   7  -3  -2    1.14    0.10 
  -7   3   1    3.81    0.22 
   7   3  -1    2.89    0.09 
   7   3  -1    2.94    0.09 
  -7   3   1    3.08    0.15 
   7  -3  -1    3.00    0.15 
   7   3   0    2.24    0.08 
  -7   3   0    2.34    0.14 
  -7   3   0    2.25    0.12 
   7   3   0    2.14    0.08 
   7  -3   0    2.29    0.13 
   7   3   1   13.61    0.26 
   7   3   1   13.40    0.26 
   7   3   1   13.76    0.31 
  -7   3  -1   13.44    0.30 
  -7   3  -1   13.61    0.31 
   7  -3   1   13.42    0.25 
   7  -3   1   13.55    0.31 
  -7   3  -2    3.72    0.16 
  -7   3  -2    3.55    0.16 
   7   3   2    3.12    0.15 
   7   3   2    3.53    0.11 
   7   3   2    3.52    0.12 
   7  -3   2    3.37    0.15 
  -7  -3  -2    3.48    0.08 
   7  -3   2    3.71    0.10 
  -7   3  -3   28.96    0.56 
   7   3   3   29.34    0.57 
   7   3   3   29.44    0.53 
  -7  -3  -3   29.35    0.50 
   7  -3   3   29.34    0.51 
   7  -3   3   29.19    0.56 
   7   3   4    5.57    0.17 
   7   3   4    5.58    0.21 
  -7   3  -4    5.67    0.20 
   7  -3   4    5.69    0.15 
   7  -3   4    5.95    0.20 
   7   3   5    4.56    0.20 
  -7   3  -5    4.72    0.19 
  -7   3  -5    4.49    0.13 
   7   3   5    4.75    0.17 
   7  -3   5    4.59    0.15 
   7  -3   5    4.77    0.19 
  -7   3  -6    0.67    0.07 
  -7   3  -6    0.85    0.12 
   7   3   6    0.74    0.09 
   7   3   6    0.51    0.10 
   7  -3   6    0.68    0.10 
   7   3   7    1.18    0.13 
   7   3   7    1.35    0.12 
  -7   3  -7    1.11    0.12 
   7  -3   7    1.57    0.13 
   7   3   8    0.10    0.10 
   7   3   8   -0.01    0.11 
   7  -3   8    0.11    0.10 
   7   3   9    0.22    0.12 
   7   3   9    0.36    0.12 
   7  -3   9    0.26    0.10 
   7   3  10    0.22    0.11 
   7   3  10    0.01    0.12 
   7  -3  10    0.13    0.11 
   7   3  11    1.53    0.18 
   7   3  11    1.47    0.16 
   7  -3  11    1.75    0.16 
   7   3  12    0.18    0.16 
   7   3  12    0.07    0.14 
   7  -3  12   -0.06    0.13 
   7   3  13    0.29    0.16 
   7  -3  13    0.15    0.15 
   7   3  14   -0.04    0.17 
   7  -3  14   -0.02    0.16 
   7   3  15   -0.11    0.18 
   7  -3  15   -0.01    0.16 
  -7   4  15    0.28    0.18 
   7  -4 -15    0.12    0.18 
  -7   4  14    1.96    0.22 
   7  -4 -14    2.16    0.22 
  -7   4  13    7.54    0.35 
   7  -4 -13    7.02    0.35 
  -7   4  12    0.20    0.16 
   7  -4 -12    0.14    0.14 
  -7   4  11    0.07    0.14 
   7  -4 -11    0.08    0.14 
  -7   4  10    1.82    0.19 
   7  -4 -10    1.89    0.18 
  -7   4   9    4.11    0.24 
   7  -4  -9    3.77    0.23 
  -7   4   8    4.62    0.24 
   7   4  -8    4.77    0.16 
   7  -4  -8    4.75    0.23 
   7   4  -7   10.65    0.24 
  -7   4   7   10.99    0.32 
   7  -4  -7   10.81    0.32 
  -7   4   6    6.32    0.24 
   7   4  -6    6.03    0.16 
   7  -4  -6    5.96    0.23 
  -7   4   5    4.63    0.21 
   7   4  -5    4.91    0.13 
   7  -4  -5    4.63    0.20 
   7   4  -4    0.88    0.05 
  -7   4   4    0.86    0.11 
   7  -4  -4    0.68    0.10 
  -7   4   3    2.15    0.16 
   7   4  -3    2.28    0.07 
   7  -4  -3    2.44    0.16 
   7   4  -2    0.39    0.04 
   7   4  -2    0.45    0.04 
  -7   4   2    0.47    0.09 
   7  -4  -2    0.38    0.09 
  -7   4   1    4.90    0.19 
   7   4  -1    4.79    0.11 
   7   4  -1    4.77    0.11 
   7  -4  -1    4.81    0.18 
   7   4   0    5.74    0.13 
   7   4   0    5.87    0.13 
  -7   4   0    5.99    0.21 
   7  -4   0    5.77    0.11 
   7  -4   0    5.92    0.20 
   7   4   1    1.83    0.13 
  -7   4  -1    2.13    0.15 
   7   4   1    1.93    0.09 
   7  -4   1    1.92    0.05 
   7  -4   1    1.93    0.14 
   7   4   2    0.01    0.08 
  -7   4  -2   -0.10    0.08 
   7   4   2    0.07    0.05 
   7  -4   2    0.06    0.07 
   7   4   3   -0.01    0.08 
  -7   4  -3    0.16    0.09 
   7   4   3    0.24    0.06 
   7  -4   3    0.08    0.07 
   7   4   4    8.86    0.22 
  -7   4  -4    8.64    0.26 
   7   4   4    8.70    0.27 
   7  -4   4    8.72    0.25 
  -7  -4  -4    8.41    0.17 
   7   4   5    2.25    0.16 
   7   4   5    2.09    0.14 
  -7   4  -5    2.02    0.14 
   7  -4   5    2.17    0.16 
   7   4   6    5.66    0.24 
  -7   4  -6    4.84    0.14 
   7   4   6    5.21    0.20 
  -7   4  -6    5.26    0.23 
   7  -4   6    4.80    0.20 
  -7   4  -7    0.34    0.11 
   7   4   7    0.18    0.09 
   7   4   7    0.28    0.11 
  -7   4  -7    0.43    0.07 
   7  -4   7    0.21    0.09 
   7   4   8    0.39    0.10 
   7   4   8    0.20    0.12 
  -7   4  -8    0.36    0.12 
   7  -4   8    0.17    0.10 
   7   4   9    0.27    0.13 
   7   4   9    0.42    0.12 
   7  -4   9    0.44    0.11 
   7   4  10   -0.02    0.14 
   7   4  10   -0.02    0.12 
   7  -4  10    0.21    0.11 
   7   4  11    0.94    0.15 
   7   4  11    0.76    0.17 
   7  -4  11    1.32    0.16 
   7   4  12    0.59    0.16 
   7   4  12    0.51    0.16 
   7  -4  12    0.74    0.15 
   7   4  13    0.44    0.17 
   7  -4  13    0.29    0.15 
   7   4  14    0.02    0.17 
  -7   5  14   -0.01    0.19 
   7  -5 -14   -0.08    0.17 
  -7   5  13    0.90    0.20 
   7  -5 -13    1.04    0.20 
  -7   5  12    0.87    0.19 
   7  -5 -12    0.88    0.18 
  -7   5  11    3.14    0.23 
   7  -5 -11    3.50    0.26 
  -7   5  10    2.30    0.19 
   7  -5 -10    2.42    0.20 
  -7   5   9    2.59    0.20 
   7  -5  -9    2.65    0.19 
  -7   5   8    0.42    0.14 
   7  -5  -8    0.40    0.12 
  -7   5   7    1.35    0.16 
   7   5  -7    1.17    0.08 
   7  -5  -7    1.27    0.15 
   7   5  -6    0.11    0.05 
  -7   5   6    0.15    0.12 
   7  -5  -6    0.09    0.11 
   7   5  -5    4.77    0.12 
  -7   5   5    4.78    0.23 
   7  -5  -5    4.98    0.15 
   7  -5  -5    4.77    0.22 
  -7   5   4    1.15    0.13 
   7   5  -4    0.88    0.06 
   7  -5  -4    0.90    0.07 
   7  -5  -4    0.88    0.11 
  -7   5   3    0.10    0.10 
   7  -5  -3    0.09    0.04 
   7  -5  -3    0.23    0.09 
  -7   5   2   23.99    0.50 
   7  -5  -2   23.30    0.49 
   7  -5  -2   23.05    0.39 
   7   5  -1    0.06    0.03 
  -7   5   1    0.01    0.10 
   7  -5  -1    0.05    0.08 
   7   5   0    0.21    0.10 
  -7   5   0    0.15    0.10 
   7   5   0    0.27    0.04 
   7  -5   0    0.18    0.08 
   7   5   1    3.67    0.19 
  -7   5  -1    3.68    0.20 
   7   5   1    3.52    0.11 
   7  -5   1    3.47    0.17 
   7   5   2    7.22    0.25 
   7   5   2    7.10    0.18 
  -7   5  -2    7.18    0.25 
   7  -5   2    7.22    0.23 
  -7   5  -3    9.48    0.28 
   7   5   3    9.24    0.28 
   7   5   3    8.80    0.22 
   7  -5   3    9.40    0.26 
  -7   5  -4   10.99    0.32 
   7   5   4   11.22    0.27 
   7   5   4   11.43    0.32 
   7  -5   4   11.31    0.29 
  -7   5  -5    0.23    0.10 
   7   5   5    0.02    0.11 
   7   5   5   -0.01    0.08 
   7  -5   5    0.02    0.08 
   7   5   6    0.73    0.10 
   7   5   6    0.58    0.13 
  -7   5  -6    0.71    0.13 
   7  -5   6    0.74    0.11 
   7   5   7    0.50    0.13 
   7   5   7    0.41    0.11 
  -7   5  -7    0.42    0.12 
   7  -5   7    0.47    0.10 
  -7   5  -8    0.65    0.14 
   7   5   8    0.88    0.13 
   7   5   8    0.50    0.14 
   7  -5   8    0.88    0.12 
   7   5   9    1.27    0.18 
  -7   5  -9    1.18    0.16 
   7   5   9    1.04    0.14 
   7  -5   9    1.32    0.14 
   7   5  10    1.15    0.17 
   7   5  10    1.93    0.18 
   7  -5  10    1.28    0.14 
   7   5  11    0.13    0.16 
   7   5  11    0.02    0.14 
   7  -5  11   -0.08    0.12 
   7   5  12    1.03    0.17 
   7   5  12    0.64    0.17 
   7   5  13    0.11    0.17 
  -7   6  12   -0.02    0.18 
   7  -6 -12   -0.06    0.16 
  -7   6  11    1.93    0.22 
   7  -6 -11    2.37    0.22 
  -7   6  10    0.08    0.16 
   7  -6 -10    0.02    0.14 
  -7   6   9    0.57    0.16 
   7  -6  -9    0.63    0.15 
  -7   6   8    0.85    0.17 
   7  -6  -8    0.74    0.15 
  -7   6   7    8.83    0.33 
   7  -6  -7    8.31    0.31 
  -7   6   6    0.66    0.15 
   7  -6  -6    0.49    0.12 
  -7   6   5    6.42    0.28 
   7   6  -5    6.54    0.14 
   7  -6  -5    6.41    0.25 
  -7   6   4    1.19    0.15 
   7  -6  -4    1.28    0.13 
  -7   6   3   -0.04    0.10 
   7  -6  -3   -0.05    0.09 
  -7   6   2    5.19    0.24 
   7  -6  -2    5.70    0.22 
  -7   6   1   11.73    0.34 
   7   6  -1   11.72    0.32 
   7  -6  -1   11.89    0.31 
   7   6   0    0.01    0.10 
   7   6   0    0.26    0.05 
  -7   6   0   -0.01    0.11 
   7  -6   0    0.07    0.08 
   7   6   1   22.47    0.41 
  -7   6  -1   23.02    0.51 
   7   6   1   22.69    0.50 
   7  -6   1   22.95    0.48 
   7   6   2    3.02    0.13 
  -7   6  -2    3.13    0.22 
   7   6   2    3.53    0.21 
   7  -6   2    3.13    0.18 
  -7   6  -3    0.34    0.12 
   7   6   3    0.12    0.11 
   7   6   3    0.10    0.07 
   7  -6   3    0.23    0.09 
   7   6   4    0.20    0.12 
   7   6   4    0.07    0.08 
  -7   6  -4    0.21    0.11 
   7  -6   4    0.19    0.09 
   7   6   5    3.89    0.19 
  -7   6  -5    3.82    0.23 
   7   6   5    3.73    0.23 
   7  -6   5    4.20    0.19 
   7   6   6    0.03    0.13 
  -7   6  -6    0.13    0.12 
   7   6   6    0.03    0.09 
   7  -6   6    0.10    0.09 
   7   6   7    1.41    0.14 
  -7   6  -7    1.43    0.16 
   7   6   7    1.88    0.17 
   7  -6   7    1.70    0.14 
   7   6   8    0.34    0.14 
   7   6   8    0.36    0.13 
  -7   6  -8    0.26    0.14 
   7  -6   8    0.31    0.11 
   7   6   9    3.59    0.27 
  -7   6  -9    3.81    0.28 
   7   6   9    3.78    0.25 
   7   6  10    0.22    0.15 
   7   6  10    0.13    0.16 
   7   6  11    0.29    0.18 
   7   6  11    0.20    0.15 
   7   6  12   -0.01    0.16 
   7   6  12    0.08    0.17 
  -7   7  11    0.03    0.19 
  -7   7  10    4.05    0.28 
  -7   7   9   -0.10    0.17 
   7  -7  -9   -0.10    0.18 
  -7   7   8    3.60    0.25 
   7  -7  -8    4.26    0.26 
  -7   7   7   -0.04    0.14 
   7  -7  -7   -0.06    0.12 
  -7   7   6    0.04    0.14 
   7  -7  -6    0.06    0.11 
  -7   7   5    1.52    0.17 
   7  -7  -5    1.68    0.16 
  -7   7   4    7.85    0.31 
   7  -7  -4    7.41    0.27 
  -7   7   3    0.89    0.15 
   7  -7  -3    1.10    0.13 
   7   7  -2    5.69    0.25 
  -7   7   2    5.70    0.27 
   7  -7  -2    5.53    0.23 
   7   7  -1    0.15    0.11 
  -7   7   1    0.09    0.13 
   7  -7  -1    0.32    0.10 
   7   7   0    1.28    0.08 
  -7   7   0    1.14    0.15 
   7   7   0    1.42    0.15 
   7  -7   0    1.55    0.13 
  -7   7  -1    0.37    0.13 
   7   7   1    0.46    0.13 
   7   7   1    0.51    0.07 
   7  -7   1    0.40    0.10 
   7   7   2    0.78    0.14 
  -7   7  -2    0.96    0.15 
   7   7   2    0.67    0.08 
   7  -7   2    0.78    0.11 
   7   7   3    0.69    0.09 
  -7   7  -3    0.75    0.15 
   7   7   3    0.51    0.14 
   7  -7   3    0.66    0.12 
   7   7   4    3.98    0.24 
  -7   7  -4    3.77    0.25 
   7   7   4    4.00    0.18 
   7   7   5    1.64    0.17 
  -7   7  -5    2.06    0.19 
   7   7   5    1.82    0.14 
   7   7   6    2.52    0.20 
  -7   7  -6    2.69    0.20 
   7   7   6    2.68    0.20 
  -7   7  -7    0.30    0.14 
   7   7   7   -0.02    0.14 
   7   7   7    0.20    0.12 
   7   7   8    1.70    0.17 
  -7   7  -8    1.86    0.20 
   7   7   8    2.11    0.21 
   7   7   9    0.50    0.15 
   7   7   9    0.61    0.18 
  -7   7  -9    0.91    0.18 
   7   7  10    2.34    0.23 
  -7   7 -10    2.02    0.22 
   7   7  10    2.36    0.22 
  -7   8   8    0.22    0.18 
  -7   8   7    4.59    0.32 
  -7   8   6    0.72    0.17 
  -7   8   5    5.99    0.32 
  -7   8   4   -0.02    0.14 
   7   8  -3    0.22    0.13 
  -7   8   3    0.24    0.14 
  -7   8   2    0.34    0.15 
   7   8  -2    0.33    0.13 
   7   8  -1    4.61    0.12 
   7   8  -1    5.27    0.26 
  -7   8   1    5.51    0.29 
   7   8   0    0.18    0.06 
  -7   8   0    0.17    0.14 
   7   8   0    0.15    0.13 
   7   8   1    5.72    0.17 
  -7   8  -1    6.00    0.30 
   7   8   1    6.24    0.28 
   7   8   2    0.12    0.07 
   7   8   2    0.12    0.13 
  -7   8  -2    0.19    0.14 
   7   8   3    2.14    0.16 
  -7   8  -3    2.25    0.19 
   7   8   3    2.05    0.19 
   7   8   4    0.11    0.09 
  -7   8  -4    0.14    0.15 
   7   8   4   -0.11    0.14 
  -7   8  -5   -0.02    0.14 
   7   8   5    0.16    0.15 
   7   8   5    0.07    0.10 
   7   8   6    0.05    0.15 
  -7   8  -6    0.05    0.15 
   7   8   6    0.10    0.11 
   7   8   7    1.83    0.20 
   7   8   7    2.00    0.17 
  -7   8  -7    1.79    0.20 
   7   8   8    0.32    0.14 
  -7   8  -8    0.19    0.16 
   7   8   8    0.26    0.17 
   7   9  -4    2.95    0.20 
  -7   9   4    2.46    0.23 
  -7   9   3    0.01    0.16 
   7   9  -3    0.07    0.14 
   7   9  -2    2.35    0.19 
  -7   9   2    2.16    0.21 
  -7   9   1    0.87    0.18 
   7   9  -1    1.00    0.16 
   7   9   0    0.06    0.14 
  -7   9   0   -0.08    0.15 
   7   9   1    0.06    0.07 
   7   9   1    0.15    0.14 
  -7   9  -1   -0.04    0.15 
  -7   9  -2    1.14    0.18 
   7   9   2    0.94    0.10 
   7   9   2    1.32    0.18 
  -7   9  -3    0.09    0.16 
   7   9   3    0.03    0.09 
   7   9   3   -0.14    0.14 
   7   9   4    2.21    0.20 
  -7   9  -4    1.85    0.20 
   7   9   4    1.93    0.14 
  -8   0  14    0.26    0.13 
  -8   0  13    0.02    0.11 
  -8   0  12    0.25    0.11 
  -8   0  11    0.02    0.09 
  -8   0  10    9.80    0.28 
  -8   0   9    0.07    0.08 
   8   0  -8   24.63    0.56 
  -8   0   8   23.57    0.48 
  -8   0   7    0.00    0.06 
   8   0  -7    0.00    0.06 
  -8   0   6    0.13    0.06 
   8   0  -6    0.23    0.06 
   8   0  -6    0.21    0.08 
   8   0  -5   -0.07    0.05 
  -8   0   5   -0.01    0.05 
   8   0  -5   -0.03    0.07 
   8   0  -4    1.93    0.11 
  -8   0   4    1.76    0.10 
   8   0  -4    1.69    0.12 
   8   0  -3   -0.05    0.05 
   8   0  -3   -0.01    0.05 
  -8   0   3    0.02    0.05 
   8   0  -2   12.66    0.27 
   8   0  -2   13.00    0.28 
  -8   0   2   12.85    0.27 
  -8   0   1    0.05    0.04 
   8   0  -1    0.06    0.06 
  -8   0   1   -0.01    0.05 
   8   0  -1   -0.07    0.04 
  -8   0   0   12.00    0.25 
  -8   0   0   11.08    0.25 
   8   0   0   11.46    0.26 
   8   0   0   11.36    0.25 
   8   0   1    0.06    0.06 
  -8   0  -1   -0.02    0.05 
   8   0   1   -0.06    0.05 
  -8   0  -1   -0.03    0.05 
   8   0   2    0.83    0.08 
   8   0   2    0.87    0.07 
  -8   0  -2    0.71    0.07 
   8   0   2    0.80    0.08 
   8   0   3   -0.05    0.06 
   8   0   3    0.08    0.05 
   8   0   3    0.05    0.06 
  -8   0  -3    0.01    0.06 
   8   0   4    7.59    0.21 
   8   0   4    7.51    0.22 
   8   0   4    7.66    0.21 
   8   0   5   -0.07    0.07 
   8   0   5   -0.05    0.08 
   8   0   5   -0.07    0.06 
   8   0   6    3.92    0.18 
   8   0   6    4.13    0.18 
   8   0   7   -0.09    0.09 
   8   0   7    0.02    0.09 
   8   0   8    0.20    0.10 
   8   0   8    0.12    0.10 
   8   0   9   -0.05    0.11 
   8   0   9   -0.08    0.11 
   8   0  10    1.39    0.16 
   8   0  10    1.35    0.15 
   8   0  11   -0.10    0.12 
   8   0  11    0.04    0.12 
   8   0  12    0.07    0.14 
   8   0  13    0.10    0.14 
   8   0  14    1.13    0.20 
   8   0  15   -0.14    0.17 
   8   0  16    0.25    0.18 
  -8   1  15    0.69    0.17 
  -8   1  14   -0.01    0.14 
  -8   1  13   10.91    0.35 
  -8  -1  13   10.28    0.32 
  -8   1  12    4.64    0.24 
  -8  -1  12    4.66    0.20 
  -8   1  11    0.73    0.13 
  -8  -1  11    0.73    0.10 
  -8   1  10    2.84    0.19 
  -8  -1  10    2.75    0.16 
  -8   1   9    3.76    0.19 
   8   1  -9    3.38    0.17 
  -8  -1   9    3.79    0.16 
   8   1  -8   -0.02    0.07 
  -8   1   8   -0.12    0.08 
  -8  -1   8    0.03    0.06 
  -8   1   7   17.03    0.38 
   8   1  -7   16.70    0.36 
  -8  -1   7   16.83    0.34 
   8  -1  -7   17.35    0.39 
   8   1  -6    0.63    0.07 
  -8   1   6    0.81    0.10 
  -8  -1   6    0.70    0.07 
   8  -1  -6    0.51    0.09 
   8   1  -5   29.03    0.54 
   8   1  -5   28.91    0.53 
  -8   1   5   28.90    0.55 
  -8  -1   5   28.38    0.52 
   8  -1  -5   28.51    0.56 
   8  -1  -5   28.87    0.55 
   8   1  -4   12.88    0.28 
  -8   1   4   13.13    0.29 
   8   1  -4   12.99    0.27 
   8  -1  -4   12.72    0.30 
  -8  -1   4   12.84    0.26 
   8  -1  -4   12.91    0.29 
   8   1  -3    0.19    0.05 
   8   1  -3    0.10    0.05 
  -8   1   3    0.16    0.06 
   8  -1  -3    0.09    0.07 
  -8  -1   3    0.11    0.04 
   8  -1  -3    0.06    0.06 
   8   1  -2    1.33    0.08 
  -8   1   2    1.42    0.10 
   8   1  -2    1.30    0.09 
  -8  -1   2    1.40    0.08 
   8  -1  -2    1.49    0.12 
   8  -1  -2    1.46    0.10 
  -8   1   1    5.11    0.16 
   8   1  -1    4.85    0.14 
   8   1  -1    5.04    0.15 
  -8  -1   1    5.05    0.13 
   8  -1  -1    4.99    0.15 
   8  -1  -1    5.00    0.17 
  -8   1   0    7.02    0.19 
   8   1   0    7.06    0.18 
   8   1   0    7.36    0.18 
  -8  -1   0    7.35    0.17 
   8  -1   0    7.36    0.20 
   8  -1   0    6.92    0.19 
  -8  -1   0    7.32    0.17 
   8   1   1   55.48    0.96 
  -8   1  -1   55.53    0.97 
   8   1   1   57.55    0.96 
  -8  -1  -1   56.77    0.95 
   8  -1   1   56.29    0.98 
   8  -1   1   56.70    0.97 
  -8  -1  -1   56.04    0.95 
   8  -1   1   54.95    0.96 
   8   1   2    7.45    0.19 
   8   1   2    7.31    0.21 
   8   1   2    7.13    0.19 
  -8   1  -2    7.25    0.20 
   8  -1   2    7.22    0.21 
   8  -1   2    7.58    0.19 
   8  -1   2    7.33    0.20 
  -8   1  -3   22.29    0.44 
   8   1   3   22.04    0.43 
   8   1   3   22.50    0.45 
   8   1   3   22.05    0.43 
   8  -1   3   22.13    0.44 
   8  -1   3   22.67    0.44 
   8  -1   3   22.39    0.43 
   8   1   4    0.00    0.08 
   8   1   4    0.02    0.05 
  -8   1  -4   -0.05    0.07 
   8   1   4    0.07    0.07 
   8  -1   4    0.08    0.06 
   8  -1   4   -0.01    0.07 
   8   1   5    0.46    0.10 
   8   1   5    0.49    0.07 
   8   1   5    0.54    0.08 
  -8   1  -5    0.52    0.09 
   8  -1   5    0.49    0.08 
   8  -1   5    0.59    0.10 
   8   1   6    0.05    0.08 
   8   1   6    0.08    0.07 
   8   1   6   -0.11    0.08 
   8  -1   6    0.00    0.07 
   8  -1   6    0.01    0.08 
   8   1   7    4.55    0.19 
   8   1   7    4.65    0.19 
   8  -1   7    4.72    0.20 
   8  -1   7    4.63    0.19 
   8   1   8   10.74    0.31 
   8   1   8   10.63    0.30 
   8  -1   8   10.88    0.31 
   8  -1   8   10.83    0.30 
   8   1   9    3.16    0.21 
   8   1   9    3.06    0.20 
   8  -1   9    3.33    0.21 
   8  -1   9    3.03    0.19 
   8   1  10    0.14    0.12 
   8   1  10   -0.05    0.11 
   8  -1  10    0.02    0.11 
   8   1  11    0.07    0.14 
   8   1  11   -0.15    0.13 
   8  -1  11   -0.01    0.12 
   8   1  12    0.09    0.14 
   8   1  12    0.09    0.14 
   8  -1  12    0.08    0.14 
   8   1  13    0.11    0.15 
   8  -1  13   -0.09    0.15 
   8   1  14    0.49    0.17 
   8  -1  14    0.34    0.17 
   8   1  15    0.51    0.18 
   8  -1  15    0.41    0.19 
   8   1  16    0.15    0.19 
   8  -1  16    0.02    0.18 
  -8   2  16    1.20    0.21 
  -8   2  15    1.13    0.20 
  -8   2  14    0.66    0.16 
  -8   2  13    0.06    0.14 
  -8   2  12    1.45    0.16 
  -8   2  11   -0.03    0.11 
  -8  -2  11    0.06    0.07 
   8   2 -10    2.13    0.20 
  -8   2  10    1.80    0.15 
  -8  -2  10    1.66    0.12 
   8  -2 -10    1.88    0.17 
  -8   2   9    5.22    0.23 
   8   2  -9    5.41    0.19 
   8  -2  -9    5.67    0.24 
  -8  -2   9    4.84    0.16 
  -8   2   8    4.74    0.21 
   8   2  -8    4.44    0.17 
   8  -2  -8    4.37    0.21 
  -8  -2   8    4.48    0.14 
  -8   2   7    5.06    0.21 
   8   2  -7    4.42    0.16 
  -8  -2   7    4.57    0.13 
   8  -2  -7    4.79    0.21 
   8   2  -6    0.36    0.06 
  -8   2   6    0.33    0.09 
   8  -2  -6    0.52    0.10 
   8   2  -5    0.40    0.06 
  -8   2   5    0.29    0.08 
  -8  -2   5    0.49    0.05 
   8  -2  -5    0.33    0.08 
   8   2  -4   16.47    0.33 
  -8   2   4   16.06    0.36 
   8   2  -4   16.40    0.32 
   8  -2  -4   16.61    0.37 
  -8  -2   4   16.90    0.29 
   8   2  -3    9.75    0.21 
  -8   2   3    9.58    0.25 
   8   2  -3    9.64    0.22 
   8  -2  -3    9.65    0.26 
  -8  -2   3    9.43    0.18 
   8   2  -2   32.12    0.57 
  -8   2   2   31.76    0.60 
   8   2  -2   32.13    0.57 
   8  -2  -2   33.23    0.61 
   8   2  -1    4.44    0.13 
   8   2  -1    4.42    0.12 
  -8   2   1    4.41    0.16 
   8  -2  -1    4.27    0.17 
   8   2   0    8.32    0.19 
   8   2   0    8.66    0.20 
  -8   2   0    8.56    0.23 
   8  -2   0    8.62    0.23 
   8   2   1    9.14    0.21 
  -8   2  -1    9.03    0.24 
   8   2   1    9.32    0.21 
  -8  -2  -1    9.34    0.19 
   8  -2   1    9.19    0.24 
   8  -2   1    9.21    0.21 
  -8   2  -2    3.21    0.15 
   8   2   2    3.23    0.12 
   8   2   2    3.05    0.11 
   8   2   2    3.33    0.16 
   8  -2   2    3.18    0.15 
  -8  -2  -2    3.24    0.10 
   8  -2   2    3.32    0.12 
   8   2   3    1.37    0.09 
   8   2   3    1.22    0.09 
   8   2   3    1.15    0.10 
  -8   2  -3    1.53    0.11 
   8  -2   3    1.43    0.09 
   8  -2   3    1.55    0.11 
   8   2   4   13.06    0.29 
  -8   2  -4   13.31    0.32 
   8   2   4   13.78    0.30 
   8   2   4   13.37    0.32 
   8  -2   4   13.13    0.32 
   8  -2   4   13.47    0.29 
   8   2   5   14.14    0.34 
   8   2   5   13.96    0.31 
   8   2   5   14.30    0.32 
  -8   2  -5   14.55    0.34 
   8  -2   5   14.14    0.31 
   8  -2   5   14.50    0.34 
   8   2   6   10.10    0.29 
   8   2   6   10.08    0.26 
   8   2   6    9.97    0.27 
  -8   2  -6    9.92    0.28 
   8  -2   6   10.11    0.28 
   8  -2   6    9.94    0.25 
  -8   2  -7    7.22    0.25 
   8   2   7    6.87    0.24 
   8   2   7    7.34    0.24 
   8   2   7    7.71    0.26 
   8  -2   7    7.50    0.23 
   8  -2   7    7.35    0.25 
   8   2   8    0.07    0.09 
   8   2   8   -0.20    0.11 
   8  -2   8    0.14    0.09 
   8  -2   8    0.04    0.09 
   8   2   9    0.75    0.15 
   8   2   9    0.90    0.13 
   8  -2   9    0.86    0.14 
   8   2  10    0.40    0.14 
   8   2  10    0.33    0.13 
   8  -2  10    0.41    0.12 
   8   2  11    1.60    0.17 
   8   2  11    1.63    0.18 
   8  -2  11    1.83    0.17 
   8   2  12    0.79    0.16 
   8   2  12    1.00    0.19 
   8  -2  12    0.93    0.15 
   8   2  13    1.22    0.18 
   8  -2  13    1.35    0.19 
   8   2  14    0.20    0.17 
   8  -2  14    0.08    0.16 
   8   2  15   -0.05    0.17 
   8  -2  15   -0.09    0.17 
  -8   3  15   -0.04    0.17 
   8  -3 -15    0.23    0.19 
  -8   3  14    0.62    0.19 
   8  -3 -14    0.57    0.19 
  -8   3  13    4.04    0.29 
   8  -3 -13    4.47    0.31 
  -8   3  12    5.42    0.29 
   8  -3 -12    5.59    0.31 
  -8   3  11    8.22    0.32 
   8  -3 -11    9.15    0.34 
  -8   3  10   12.85    0.38 
   8  -3 -10   12.72    0.38 
  -8   3   9    1.69    0.16 
  -8  -3   9    1.49    0.08 
   8  -3  -9    1.48    0.15 
  -8   3   8    0.47    0.12 
   8   3  -8    0.52    0.08 
   8  -3  -8    0.29    0.11 
  -8  -3   8    0.49    0.04 
  -8  -3   8    0.47    0.04 
   8   3  -7    8.86    0.22 
  -8   3   7    9.24    0.29 
   8  -3  -7    9.14    0.29 
   8   3  -6   21.66    0.41 
  -8   3   6   21.60    0.47 
   8  -3  -6   22.09    0.48 
   8   3  -5   25.26    0.46 
  -8   3   5   25.41    0.52 
   8  -3  -5   25.35    0.53 
  -8   3   4   17.12    0.39 
   8   3  -4   17.17    0.33 
   8  -3  -4   17.31    0.39 
   8   3  -3   15.24    0.30 
   8   3  -3   15.46    0.29 
  -8   3   3   15.38    0.35 
   8  -3  -3   15.52    0.36 
   8   3  -2    3.85    0.11 
  -8   3   2    3.63    0.17 
   8   3  -2    3.89    0.12 
   8  -3  -2    3.75    0.17 
   8   3  -1    8.89    0.19 
   8   3  -1    8.92    0.19 
  -8   3   1    9.05    0.25 
   8  -3  -1    9.38    0.25 
  -8   3   0    4.23    0.18 
   8   3   0    3.93    0.11 
   8   3   0    3.95    0.12 
   8  -3   0    4.15    0.17 
  -8   3  -1   34.13    0.65 
   8   3   1   34.21    0.60 
   8   3   1   34.29    0.65 
   8   3   1   34.34    0.60 
   8  -3   1   34.42    0.59 
   8  -3   1   33.63    0.64 
   8   3   2   33.46    0.60 
  -8   3  -2   34.12    0.64 
   8   3   2   33.80    0.60 
   8   3   2   33.18    0.64 
   8  -3   2   34.30    0.59 
   8  -3   2   34.10    0.64 
  -8  -3  -2   33.78    0.56 
   8   3   3    9.37    0.26 
  -8   3  -3    9.44    0.27 
   8   3   3    9.56    0.23 
   8   3   3    9.63    0.22 
   8  -3   3    9.48    0.26 
  -8  -3  -3    9.64    0.19 
   8  -3   3    9.51    0.21 
  -8   3  -4    2.25    0.16 
   8   3   4    2.03    0.12 
   8   3   4    2.12    0.13 
   8   3   4    2.17    0.15 
   8  -3   4    2.29    0.15 
   8  -3   4    2.05    0.11 
   8   3   5    0.91    0.11 
   8   3   5    1.11    0.10 
   8   3   5    1.24    0.10 
   8  -3   5    1.07    0.12 
   8  -3   5    1.05    0.08 
  -8   3  -6    1.84    0.15 
   8   3   6    1.89    0.15 
   8   3   6    1.50    0.12 
   8  -3   6    1.64    0.11 
   8  -3   6    1.49    0.12 
   8   3   7    0.70    0.13 
   8   3   7    0.76    0.11 
  -8   3  -7    0.76    0.12 
   8  -3   7    0.70    0.12 
   8   3   8    0.18    0.10 
   8   3   8    0.17    0.12 
  -8   3  -8    0.23    0.12 
   8  -3   8    0.05    0.10 
   8   3   9    2.05    0.16 
   8   3   9    1.46    0.16 
   8  -3   9    2.05    0.16 
   8   3  10    1.64    0.17 
   8   3  10    1.89    0.16 
   8  -3  10    1.92    0.16 
   8   3  11    1.00    0.16 
   8   3  11    1.17    0.18 
   8  -3  11    1.14    0.15 
   8   3  12    0.35    0.17 
   8   3  12    0.16    0.15 
   8  -3  12    0.12    0.14 
   8   3  13    0.69    0.19 
   8   3  13    0.72    0.17 
   8  -3  13    0.73    0.17 
   8   3  14    0.85    0.19 
   8  -3  14    1.10    0.19 
   8   3  15    0.92    0.19 
   8  -3  15    1.02    0.19 
  -8   4  14    2.14    0.23 
   8  -4 -14    1.38    0.21 
  -8   4  13    1.26    0.20 
   8  -4 -13    1.09    0.20 
  -8   4  12    0.46    0.17 
   8  -4 -12    0.35    0.16 
  -8   4  11    1.36    0.18 
   8  -4 -11    0.92    0.16 
  -8   4  10    3.65    0.25 
   8  -4 -10    3.62    0.25 
  -8   4   9    0.27    0.13 
   8  -4  -9    0.08    0.12 
  -8   4   8   12.40    0.36 
   8  -4  -8   12.46    0.36 
  -8   4   7    2.17    0.16 
   8   4  -7    2.41    0.12 
   8  -4  -7    2.36    0.17 
  -8   4   6    3.68    0.22 
   8   4  -6    4.05    0.13 
   8  -4  -6    4.07    0.21 
  -8   4   5    1.09    0.13 
   8   4  -5    1.23    0.08 
   8  -4  -5    1.44    0.13 
   8   4  -4    5.88    0.14 
  -8   4   4    5.77    0.23 
   8  -4  -4    6.00    0.23 
   8   4  -3   10.49    0.21 
   8   4  -3   10.66    0.21 
  -8   4   3   11.01    0.30 
   8  -4  -3   11.14    0.30 
   8   4  -2   21.32    0.38 
  -8   4   2   21.50    0.46 
   8   4  -2   21.31    0.38 
   8  -4  -2   21.47    0.46 
   8   4  -1   15.88    0.29 
  -8   4   1   16.31    0.38 
   8   4  -1   15.82    0.29 
   8  -4  -1   16.03    0.37 
   8   4   0   14.63    0.28 
  -8   4   0   14.43    0.35 
   8   4   0   14.79    0.28 
   8  -4   0   14.65    0.35 
   8  -4   0   14.78    0.27 
   8   4   1    1.20    0.09 
  -8   4  -1    0.86    0.11 
   8   4   1    1.00    0.12 
   8   4   1    1.12    0.08 
   8  -4   1    1.31    0.12 
   8  -4   1    1.24    0.06 
  -8   4  -2    0.28    0.09 
   8   4   2   -0.03    0.09 
   8   4   2    0.02    0.05 
   8   4   2    0.04    0.05 
   8  -4   2    0.02    0.07 
   8  -4   2    0.04    0.03 
  -8   4  -3    3.67    0.19 
   8   4   3    3.96    0.19 
   8   4   3    3.72    0.14 
   8  -4   3    4.07    0.18 
   8  -4   3    3.75    0.11 
   8   4   4   14.70    0.37 
  -8   4  -4   13.95    0.36 
   8   4   4   14.37    0.31 
  -8  -4  -4   14.41    0.26 
   8  -4   4   14.13    0.35 
   8   4   5    7.95    0.26 
  -8   4  -5    8.30    0.27 
   8   4   5    8.25    0.23 
   8  -4   5    7.80    0.25 
   8   4   6    8.88    0.26 
   8   4   6    8.67    0.28 
  -8   4  -6    8.77    0.29 
   8  -4   6    8.87    0.27 
  -8   4  -7    2.91    0.22 
   8   4   7    3.24    0.20 
   8   4   7    2.55    0.19 
   8  -4   7    3.11    0.19 
   8   4   8    0.47    0.11 
   8   4   8    0.40    0.13 
  -8   4  -8    0.42    0.12 
   8  -4   8    0.56    0.12 
   8   4   9   -0.12    0.12 
   8   4   9    0.13    0.11 
   8  -4   9    0.01    0.11 
   8   4  10    0.94    0.15 
   8   4  10    0.62    0.15 
   8  -4  10    0.70    0.13 
   8   4  11    0.51    0.15 
   8   4  11    0.59    0.18 
   8  -4  11    0.50    0.13 
   8   4  12    2.35    0.21 
   8   4  12    1.85    0.21 
   8  -4  12    2.17    0.19 
   8   4  13    1.23    0.19 
   8   4  13    1.21    0.19 
   8  -4  13    1.30    0.18 
   8   4  14    0.12    0.18 
  -8   5  13    1.62    0.21 
   8  -5 -13    2.12    0.23 
  -8   5  12    4.39    0.32 
   8  -5 -12    4.38    0.31 
  -8   5  11    5.10    0.32 
   8  -5 -11    4.45    0.30 
  -8   5  10    2.74    0.23 
   8  -5 -10    2.54    0.21 
  -8   5   9    0.96    0.17 
   8  -5  -9    0.96    0.16 
  -8   5   8    2.48    0.19 
   8  -5  -8    2.60    0.20 
  -8   5   7    0.23    0.13 
   8  -5  -7   -0.05    0.11 
   8   5  -6    9.69    0.21 
  -8   5   6    9.68    0.32 
   8  -5  -6    9.05    0.31 
  -8   5   5    3.20    0.22 
   8   5  -5    3.19    0.11 
   8  -5  -5    3.18    0.21 
   8  -5  -5    3.27    0.13 
  -8   5   4   13.61    0.37 
   8   5  -4   13.42    0.25 
   8  -5  -4   13.69    0.36 
   8  -5  -4   13.62    0.27 
   8   5  -3    6.40    0.14 
   8   5  -3    6.50    0.14 
  -8   5   3    6.51    0.25 
   8  -5  -3    6.44    0.24 
   8  -5  -3    6.57    0.15 
   8   5  -2    0.31    0.04 
   8   5  -2    0.27    0.04 
  -8   5   2    0.36    0.11 
   8  -5  -2    0.39    0.10 
   8  -5  -2    0.43    0.04 
  -8   5   1    0.28    0.11 
   8   5  -1    0.36    0.04 
   8   5  -1    0.41    0.04 
   8  -5  -1    0.32    0.10 
   8   5   0   15.93    0.30 
   8   5   0   15.82    0.30 
   8   5   0   15.72    0.39 
  -8   5   0   16.44    0.39 
   8  -5   0   16.49    0.38 
   8   5   1   19.61    0.45 
  -8   5  -1   19.43    0.45 
   8   5   1   19.61    0.36 
   8  -5   1   19.03    0.43 
   8   5   2    1.42    0.10 
   8   5   2    1.31    0.14 
  -8   5  -2    1.55    0.15 
   8  -5   2    1.72    0.14 
  -8   5  -3    9.32    0.30 
   8   5   3    9.53    0.23 
   8   5   3    8.87    0.28 
   8  -5   3    9.05    0.27 
   8   5   4    0.54    0.09 
   8   5   4    0.30    0.11 
  -8   5  -4    0.34    0.12 
   8  -5   4    0.50    0.11 
   8   5   5    0.08    0.08 
   8   5   5   -0.02    0.12 
  -8   5  -5    0.08    0.11 
   8  -5   5    0.08    0.09 
   8   5   6    1.45    0.13 
  -8   5  -6    1.39    0.15 
   8   5   6    1.48    0.16 
   8  -5   6    1.92    0.15 
  -8   5  -7    1.13    0.15 
   8   5   7    1.29    0.17 
   8   5   7    1.48    0.14 
   8  -5   7    1.57    0.14 
   8   5   8    0.76    0.13 
  -8   5  -8    0.95    0.16 
   8   5   8    0.81    0.15 
   8  -5   8    0.76    0.13 
   8   5   9    4.35    0.28 
  -8   5  -9    4.51    0.28 
   8   5   9    4.07    0.25 
   8  -5   9    4.19    0.23 
   8   5  10    0.60    0.15 
   8   5  10    0.49    0.17 
   8  -5  10    0.24    0.12 
   8   5  11    0.56    0.16 
   8   5  11    0.60    0.19 
   8  -5  11    0.57    0.14 
   8   5  12   -0.06    0.15 
   8   5  12   -0.06    0.17 
   8   5  13   -0.13    0.18 
   8   5  13   -0.01    0.17 
  -8   6  12    0.10    0.19 
   8  -6 -12    0.07    0.17 
  -8   6  11    1.28    0.20 
   8  -6 -11    1.45    0.21 
  -8   6  10    0.22    0.17 
   8  -6 -10    0.46    0.16 
  -8   6   9    3.75    0.25 
   8  -6  -9    3.79    0.28 
  -8   6   8    2.24    0.20 
   8  -6  -8    2.68    0.21 
  -8   6   7    0.43    0.15 
   8  -6  -7    0.78    0.15 
  -8   6   6    0.13    0.13 
   8  -6  -6    0.08    0.12 
  -8   6   5    0.62    0.14 
   8   6  -5    0.47    0.06 
   8  -6  -5    0.45    0.12 
  -8   6   4    2.86    0.20 
   8   6  -4    2.45    0.08 
   8  -6  -4    2.53    0.17 
  -8   6   3    0.45    0.13 
   8  -6  -3    0.40    0.11 
  -8   6   2   10.11    0.33 
   8  -6  -2   10.38    0.30 
   8   6  -1    1.71    0.15 
   8   6  -1    1.70    0.07 
   8   6  -1    1.67    0.07 
  -8   6   1    2.09    0.17 
   8  -6  -1    1.49    0.13 
  -8   6   0    0.35    0.12 
   8   6   0    0.38    0.12 
   8   6   0    0.44    0.05 
   8  -6   0    0.40    0.10 
   8   6   1    0.00    0.05 
  -8   6  -1   -0.01    0.11 
   8   6   1   -0.03    0.11 
   8  -6   1    0.11    0.09 
   8   6   2    1.44    0.11 
  -8   6  -2    1.61    0.16 
   8   6   2    1.12    0.14 
   8  -6   2    1.68    0.14 
  -8   6  -3    3.25    0.22 
   8   6   3    3.13    0.20 
   8   6   3    2.99    0.15 
   8  -6   3    3.05    0.19 
   8   6   4    1.64    0.17 
   8   6   4    1.36    0.11 
  -8   6  -4    1.49    0.16 
   8  -6   4    1.12    0.13 
  -8   6  -5    0.69    0.14 
   8   6   5    0.96    0.11 
   8   6   5    0.98    0.16 
   8  -6   5    0.99    0.13 
  -8   6  -6    7.95    0.32 
   8   6   6    8.17    0.32 
   8   6   6    7.96    0.27 
   8  -6   6    7.98    0.27 
   8   6   7    1.10    0.17 
   8   6   7    0.98    0.13 
  -8   6  -7    0.93    0.16 
   8  -6   7    0.94    0.13 
  -8   6  -8   -0.01    0.15 
   8   6   8    0.18    0.15 
   8   6   8    0.15    0.12 
   8  -6   8    0.17    0.11 
   8   6   9    0.04    0.16 
  -8   6  -9    0.12    0.16 
   8   6   9    0.20    0.13 
   8   6  10    0.99    0.19 
  -8   6 -10    0.96    0.18 
   8   6  10    1.09    0.17 
   8   6  11    1.03    0.20 
   8   6  11    1.25    0.19 
   8   6  12    0.06    0.19 
   8   6  12    0.25    0.17 
  -8   7  10    0.04    0.17 
  -8   7   9    0.16    0.17 
   8  -7  -9    0.19    0.20 
  -8   7   8    1.86    0.21 
   8  -7  -8    1.80    0.19 
  -8   7   7   -0.10    0.15 
   8  -7  -7    0.07    0.13 
  -8   7   6    2.64    0.21 
   8  -7  -6    3.40    0.24 
  -8   7   5    1.67    0.19 
   8  -7  -5    1.90    0.17 
  -8   7   4    2.92    0.21 
   8  -7  -4    2.91    0.21 
  -8   7   3    0.00    0.13 
   8  -7  -3    0.14    0.11 
   8   7  -2    0.63    0.14 
  -8   7   2    0.56    0.14 
   8  -7  -2    0.48    0.12 
   8   7  -1    0.06    0.12 
  -8   7   1    0.23    0.13 
   8  -7  -1    0.15    0.10 
   8   7   0    1.15    0.08 
  -8   7   0    1.15    0.15 
   8   7   0    1.04    0.15 
   8  -7   0    1.14    0.13 
  -8   7  -1    0.52    0.14 
   8   7   1    0.86    0.07 
   8   7   1    0.59    0.14 
   8  -7   1    0.78    0.12 
   8   7   2    5.36    0.27 
  -8   7  -2    5.29    0.28 
   8   7   2    4.74    0.16 
   8  -7   2    4.96    0.22 
   8   7   3    0.41    0.14 
  -8   7  -3    0.23    0.13 
   8   7   3    0.37    0.08 
   8  -7   3    0.33    0.13 
   8   7   4   -0.07    0.14 
  -8   7  -4    0.20    0.14 
   8   7   4    0.19    0.09 
   8   7   5    0.04    0.09 
  -8   7  -5   -0.02    0.13 
   8   7   5   -0.14    0.14 
   8   7   6    1.25    0.18 
   8   7   6    1.34    0.14 
  -8   7  -6    1.29    0.17 
   8   7   7    0.08    0.12 
  -8   7  -7    0.32    0.16 
   8   7   7    0.25    0.16 
  -8   7  -8    0.39    0.17 
   8   7   8    0.50    0.14 
   8   7   8    0.36    0.16 
  -8   7  -9    0.24    0.17 
   8   7   9    0.28    0.15 
   8   7   9    0.37    0.16 
   8   7  10    0.16    0.15 
   8   7  10   -0.05    0.17 
  -8   7 -10   -0.03    0.18 
  -8   8   7    0.89    0.20 
  -8   8   6    0.60    0.17 
  -8   8   5    0.67    0.18 
  -8   8   4    0.38    0.16 
  -8   8   3    4.09    0.29 
   8   8  -3    3.94    0.27 
   8   8  -2   -0.04    0.13 
  -8   8   2   -0.19    0.14 
  -8   8   1    0.40    0.15 
   8   8  -1    0.49    0.15 
  -8   8   0    0.02    0.14 
   8   8   0    0.08    0.14 
   8   8   0    0.04    0.05 
   8   8   1    0.10    0.14 
   8   8   1    0.10    0.06 
  -8   8  -1    0.22    0.15 
  -8   8  -2    0.17    0.15 
   8   8   2    0.25    0.15 
   8   8   2    0.43    0.08 
  -8   8  -3    0.81    0.17 
   8   8   3    0.56    0.16 
   8   8   3    0.55    0.10 
  -8   8  -4    0.18    0.16 
   8   8   4    0.18    0.10 
   8   8   4    0.22    0.15 
   8   8   5    0.55    0.12 
   8   8   5    0.54    0.17 
  -8   8  -5    0.34    0.16 
   8   8   6   -0.14    0.15 
   8   8   6   -0.03    0.11 
  -8   8  -6    0.10    0.16 
   8   8   7    0.19    0.13 
  -8   8  -7    0.11    0.16 
   8   8   7    0.16    0.17 
  -8   9   2   -0.03    0.16 
   8   9  -2   -0.14    0.14 
  -8   9   1   -0.01    0.17 
   8   9  -1   -0.09    0.15 
   8   9   0    1.43    0.19 
  -8   9   0    1.03    0.19 
   8   9   1   -0.02    0.15 
  -8   9  -1    0.11    0.17 
  -8   9  -2    0.70    0.18 
   8   9   2    0.97    0.18 
   8   9   2    0.89    0.10 
  -9   0  13   -0.08    0.11 
  -9   0  12   26.58    0.56 
  -9   0  11    0.02    0.10 
  -9   0  10   34.23    0.67 
  -9   0   9    0.00    0.08 
  -9   0   8    0.20    0.08 
   9   0  -7    0.09    0.08 
   9   0  -7    0.08    0.07 
  -9   0   7    0.06    0.07 
   9   0  -6    3.43    0.16 
   9   0  -6    3.16    0.15 
  -9   0   6    2.93    0.14 
   9   0  -5   -0.05    0.06 
   9   0  -5    0.02    0.08 
  -9   0   5    0.02    0.06 
   9   0  -4   51.97    0.91 
   9   0  -4   51.66    0.92 
  -9   0   4   53.23    0.91 
   9   0  -3   -0.01    0.05 
   9   0  -3   -0.07    0.06 
  -9   0   3   -0.02    0.05 
   9   0  -2   41.15    0.74 
  -9   0   2   41.30    0.73 
   9   0  -2   41.53    0.74 
   9   0  -1   -0.01    0.05 
   9   0  -1   -0.03    0.06 
  -9   0   1   -0.04    0.05 
   9   0   0    8.39    0.22 
  -9   0   0    8.66    0.21 
   9   0   0    8.71    0.21 
   9   0   1   -0.03    0.05 
   9   0   1   -0.05    0.06 
  -9   0  -1   -0.01    0.05 
   9   0   2   24.86    0.47 
  -9   0  -2   24.49    0.47 
   9   0   2   24.36    0.48 
   9   0   2   23.83    0.47 
   9   0   3   -0.01    0.07 
   9   0   3   -0.06    0.06 
   9   0   3   -0.08    0.07 
  -9   0  -3    0.02    0.06 
   9   0   4   77.82    1.34 
   9   0   4   77.13    1.34 
   9   0   4   79.72    1.34 
   9   0   5    0.11    0.08 
   9   0   5   -0.10    0.08 
   9   0   6    4.81    0.20 
   9   0   6    4.88    0.20 
   9   0   7   -0.06    0.09 
   9   0   7    0.03    0.09 
   9   0   8    9.06    0.29 
   9   0   8    9.25    0.29 
   9   0   9    0.15    0.12 
   9   0   9    0.12    0.11 
   9   0  10   15.23    0.41 
   9   0  10   16.64    0.43 
   9   0  11    0.18    0.13 
   9   0  11   -0.05    0.14 
   9   0  12    2.16    0.21 
   9   0  13    0.16    0.17 
   9   0  14    0.13    0.17 
   9   0  15    0.01    0.19 
  -9   1  15    3.31    0.27 
  -9   1  14    0.07    0.14 
  -9   1  13    1.62    0.17 
  -9   1  12    2.48    0.19 
  -9  -1  12    2.23    0.17 
  -9   1  11    0.70    0.12 
  -9  -1  11    0.57    0.10 
  -9   1  10    1.50    0.14 
  -9  -1  10    1.68    0.12 
   9   1  -9    2.85    0.16 
  -9   1   9    2.82    0.18 
  -9  -1   9    2.73    0.15 
   9  -1  -9    2.21    0.16 
   9   1  -8    0.10    0.08 
  -9   1   8    0.12    0.10 
  -9  -1   8    0.21    0.07 
   9  -1  -8    0.05    0.10 
   9   1  -7   54.94    0.98 
  -9   1   7   55.44    0.99 
  -9  -1   7   55.16    0.96 
   9  -1  -7   55.80    1.01 
   9   1  -6    0.71    0.09 
   9   1  -6    0.91    0.08 
  -9   1   6    0.64    0.09 
   9  -1  -6    0.69    0.10 
  -9  -1   6    0.88    0.08 
   9   1  -5   34.53    0.64 
   9   1  -5   35.03    0.65 
  -9   1   5   35.33    0.66 
  -9  -1   5   35.92    0.63 
   9  -1  -5   35.58    0.67 
   9   1  -4    0.14    0.07 
   9   1  -4    0.09    0.06 
  -9   1   4    0.12    0.06 
   9  -1  -4    0.10    0.06 
   9  -1  -4    0.09    0.08 
  -9  -1   4    0.16    0.05 
   9   1  -3    1.29    0.10 
   9   1  -3    1.48    0.11 
  -9   1   3    1.41    0.10 
   9  -1  -3    1.12    0.10 
  -9  -1   3    1.29    0.09 
   9  -1  -3    1.46    0.10 
   9   1  -2    0.29    0.06 
  -9   1   2    0.19    0.06 
   9   1  -2    0.25    0.05 
   9  -1  -2    0.28    0.08 
   9  -1  -2    0.31    0.07 
  -9  -1   2    0.19    0.05 
   9   1  -1   40.88    0.72 
   9   1  -1   39.63    0.71 
  -9   1   1   40.18    0.73 
   9  -1  -1   41.05    0.74 
  -9  -1   1   40.51    0.70 
   9  -1  -1   40.30    0.73 
   9   1   0    4.47    0.15 
   9   1   0    4.82    0.16 
  -9   1   0    4.47    0.16 
  -9  -1   0    4.67    0.14 
   9  -1   0    4.64    0.16 
   9  -1   0    4.43    0.17 
  -9   1  -1   27.36    0.52 
   9   1   1   27.07    0.51 
   9   1   1   27.40    0.50 
   9  -1   1   26.43    0.50 
  -9  -1  -1   26.32    0.49 
   9  -1   1   27.33    0.52 
   9  -1   1   27.34    0.52 
   9   1   2    4.93    0.16 
   9   1   2    4.96    0.17 
  -9   1  -2    4.82    0.17 
   9   1   2    4.70    0.17 
   9  -1   2    4.74    0.16 
   9  -1   2    5.03    0.18 
   9  -1   2    5.47    0.20 
   9   1   3    1.03    0.09 
   9   1   3    0.87    0.11 
   9   1   3    0.76    0.09 
  -9   1  -3    0.91    0.09 
   9  -1   3    0.92    0.09 
   9  -1   3    0.93    0.10 
   9   1   4    1.48    0.11 
   9   1   4    1.17    0.09 
  -9   1  -4    1.21    0.11 
   9   1   4    1.61    0.12 
   9  -1   4    1.57    0.12 
   9  -1   4    1.17    0.10 
   9   1   5    3.00    0.17 
  -9   1  -5    2.76    0.17 
   9   1   5    2.82    0.14 
   9   1   5    2.94    0.16 
   9  -1   5    2.70    0.15 
   9   1   6    1.22    0.12 
   9   1   6    1.01    0.12 
   9  -1   6    1.09    0.12 
   9  -1   6    1.03    0.11 
   9   1   7    7.40    0.25 
   9   1   7    7.38    0.25 
   9  -1   7    7.96    0.26 
   9  -1   7    7.52    0.24 
   9   1   8    5.45    0.24 
   9   1   8    5.04    0.23 
   9  -1   8    5.38    0.23 
   9  -1   8    5.04    0.22 
   9   1   9    0.15    0.12 
   9   1   9    0.12    0.11 
   9  -1   9    0.18    0.12 
   9  -1   9    0.12    0.12 
   9   1  10    0.74    0.14 
   9   1  10    0.62    0.13 
   9  -1  10    0.81    0.15 
   9  -1  10    0.70    0.14 
   9   1  11    2.09    0.19 
   9   1  11    2.37    0.20 
   9  -1  11    2.55    0.20 
   9   1  12    0.24    0.15 
   9   1  12    0.16    0.15 
   9  -1  12    0.16    0.14 
   9   1  13    3.21    0.24 
   9  -1  13    2.81    0.22 
   9   1  14    0.07    0.17 
   9  -1  14   -0.06    0.16 
   9   1  15    0.44    0.19 
   9  -1  15    0.08    0.19 
  -9   2  15   -0.12    0.16 
  -9   2  14   -0.01    0.15 
  -9   2  13    1.91    0.19 
  -9   2  12    3.94    0.26 
   9  -2 -12    4.30    0.28 
  -9   2  11    0.24    0.13 
   9  -2 -11    0.12    0.13 
  -9   2  10   17.89    0.44 
  -9  -2  10   17.15    0.36 
   9  -2 -10   17.60    0.45 
   9   2  -9    0.39    0.09 
  -9   2   9    0.44    0.11 
  -9  -2   9    0.38    0.07 
   9  -2  -9    0.31    0.13 
   9   2  -8    3.27    0.15 
  -9   2   8    3.38    0.20 
  -9  -2   8    3.46    0.12 
   9  -2  -8    3.16    0.21 
   9   2  -7    0.27    0.07 
  -9   2   7    0.40    0.10 
   9  -2  -7    0.47    0.12 
  -9  -2   7    0.23    0.05 
   9   2  -6   15.43    0.33 
  -9   2   6   15.29    0.37 
   9  -2  -6   16.13    0.38 
  -9   2   5    1.32    0.12 
   9   2  -5    1.05    0.09 
   9   2  -5    1.11    0.08 
  -9  -2   5    1.03    0.07 
   9  -2  -5    1.27    0.12 
   9   2  -4   63.09    1.08 
  -9   2   4   62.91    1.11 
   9   2  -4   62.90    1.08 
   9  -2  -4   63.51    1.12 
  -9  -2   4   64.50    1.04 
  -9   2   3    3.52    0.16 
   9   2  -3    3.47    0.14 
   9   2  -3    3.46    0.12 
   9  -2  -3    3.22    0.17 
  -9  -2   3    3.47    0.09 
   9   2  -2   21.41    0.41 
   9   2  -2   21.24    0.40 
  -9   2   2   21.50    0.44 
  -9  -2   2   21.03    0.37 
   9  -2  -2   21.33    0.45 
  -9   2   1    0.08    0.08 
   9   2  -1    0.12    0.06 
   9   2  -1    0.14    0.05 
   9  -2  -1    0.13    0.08 
   9   2   0    0.45    0.06 
   9   2   0    0.38    0.06 
  -9   2   0    0.28    0.08 
   9  -2   0    0.33    0.09 
   9   2   1    1.65    0.13 
  -9   2  -1    2.02    0.14 
   9   2   1    1.87    0.10 
   9   2   1    1.87    0.11 
   9  -2   1    1.77    0.10 
  -9  -2  -1    2.00    0.10 
   9  -2   1    1.47    0.11 
   9   2   2   31.34    0.57 
   9   2   2   30.94    0.60 
   9   2   2   31.31    0.57 
  -9   2  -2   31.11    0.60 
   9  -2   2   30.56    0.56 
   9  -2   2   30.67    0.60 
   9   2   3    0.10    0.09 
   9   2   3    0.19    0.07 
   9   2   3    0.16    0.06 
  -9   2  -3    0.08    0.08 
   9  -2   3    0.18    0.08 
   9  -2   3    0.19    0.06 
   9   2   4   17.33    0.37 
   9   2   4   16.98    0.36 
  -9   2  -4   17.21    0.39 
   9   2   4   17.58    0.40 
   9  -2   4   17.74    0.39 
   9  -2   4   17.14    0.36 
   9   2   5    0.61    0.09 
   9   2   5    0.86    0.09 
  -9   2  -5    0.69    0.11 
   9   2   5    0.68    0.11 
   9  -2   5    0.87    0.12 
   9  -2   5    0.88    0.09 
   9   2   6    0.04    0.10 
   9   2   6   -0.07    0.06 
   9   2   6   -0.09    0.08 
  -9   2  -6    0.06    0.10 
   9  -2   6    0.15    0.10 
   9  -2   6    0.01    0.08 
   9   2   7    1.82    0.16 
   9   2   7    1.48    0.13 
  -9   2  -7    1.45    0.14 
   9  -2   7    1.64    0.13 
   9  -2   7    1.49    0.13 
   9   2   8    0.45    0.11 
   9   2   8    0.54    0.12 
   9  -2   8    0.68    0.11 
   9  -2   8    0.56    0.12 
   9   2   9   -0.18    0.11 
   9   2   9   -0.03    0.13 
   9  -2   9   -0.12    0.10 
   9  -2   9   -0.07    0.10 
   9   2  10    0.57    0.14 
   9   2  10    0.49    0.14 
   9  -2  10    0.63    0.14 
   9   2  11    0.07    0.14 
   9   2  11   -0.13    0.15 
   9  -2  11   -0.02    0.13 
   9   2  12    0.15    0.14 
   9   2  12   -0.10    0.15 
   9  -2  12    0.03    0.14 
   9   2  13    0.08    0.17 
   9   2  13   -0.03    0.17 
   9  -2  13    0.10    0.15 
   9   2  14   -0.07    0.18 
   9  -2  14    0.15    0.17 
   9   2  15    0.15    0.19 
   9  -2  15   -0.18    0.18 
  -9   3  15    0.14    0.17 
   9  -3 -15    0.29    0.20 
  -9   3  14    0.17    0.17 
   9  -3 -14    0.11    0.17 
  -9   3  13    1.08    0.18 
   9  -3 -13    1.66    0.21 
  -9   3  12   -0.04    0.14 
   9  -3 -12    0.00    0.15 
  -9   3  11    0.57    0.15 
   9  -3 -11    0.51    0.17 
  -9   3  10    0.21    0.13 
   9  -3 -10    0.02    0.13 
  -9   3   9    2.22    0.17 
   9  -3  -9    2.11    0.18 
   9   3  -8    0.79    0.10 
  -9   3   8    0.53    0.12 
   9  -3  -8    0.61    0.13 
   9   3  -7    6.85    0.20 
  -9   3   7    6.82    0.26 
   9  -3  -7    7.08    0.27 
  -9   3   6    1.21    0.13 
   9   3  -6    1.50    0.10 
   9  -3  -6    1.32    0.13 
  -9   3   5    0.47    0.11 
   9   3  -5    0.41    0.06 
   9  -3  -5    0.29    0.10 
  -9   3   4    4.24    0.20 
   9   3  -4    3.84    0.14 
   9   3  -4    4.02    0.13 
   9  -3  -4    4.21    0.20 
   9   3  -3    0.99    0.08 
  -9   3   3    0.91    0.11 
   9   3  -3    1.00    0.07 
   9  -3  -3    0.86    0.12 
   9   3  -2    5.32    0.14 
  -9   3   2    5.57    0.21 
   9   3  -2    5.52    0.15 
   9  -3  -2    5.92    0.22 
  -9   3   1   16.74    0.38 
   9   3  -1   16.39    0.32 
   9   3  -1   16.56    0.32 
   9  -3  -1   16.63    0.38 
  -9   3   0    0.91    0.11 
   9   3   0    1.11    0.07 
   9   3   0    1.00    0.08 
   9  -3   0    1.03    0.07 
   9  -3   0    0.90    0.11 
  -9   3  -1    3.79    0.18 
   9   3   1    3.74    0.17 
   9   3   1    3.86    0.14 
   9   3   1    3.94    0.13 
   9  -3   1    3.82    0.18 
   9  -3   1    3.82    0.12 
   9   3   2    1.69    0.14 
   9   3   2    1.51    0.10 
   9   3   2    1.47    0.11 
  -9   3  -2    1.28    0.12 
   9  -3   2    1.39    0.12 
  -9  -3  -2    1.56    0.07 
   9  -3   2    1.57    0.10 
   9   3   3    0.07    0.07 
   9   3   3    0.07    0.05 
  -9   3  -3    0.04    0.09 
   9   3   3    0.04    0.09 
   9  -3   3    0.12    0.09 
   9  -3   3    0.17    0.06 
   9   3   4    0.84    0.09 
   9   3   4    1.04    0.09 
   9   3   4    0.87    0.12 
  -9   3  -4    1.08    0.12 
   9  -3   4    1.06    0.08 
   9  -3   4    0.92    0.11 
   9   3   5    4.75    0.19 
   9   3   5    4.94    0.23 
   9   3   5    4.72    0.17 
  -9   3  -5    4.83    0.22 
   9  -3   5    4.78    0.16 
   9  -3   5    4.50    0.21 
   9   3   6   -0.07    0.08 
   9   3   6    0.01    0.08 
   9   3   6   -0.15    0.11 
  -9   3  -6    0.06    0.10 
   9  -3   6    0.05    0.10 
   9  -3   6   -0.01    0.07 
   9   3   7    3.71    0.20 
   9   3   7    3.71    0.18 
  -9   3  -7    3.61    0.22 
   9   3   7    3.63    0.21 
   9  -3   7    3.94    0.21 
   9  -3   7    3.58    0.17 
   9   3   8    0.06    0.11 
   9   3   8    0.07    0.11 
  -9   3  -8   -0.01    0.11 
   9  -3   8    0.05    0.10 
   9   3   9   -0.08    0.11 
   9   3   9   -0.04    0.13 
   9  -3   9   -0.16    0.11 
   9   3  10    0.52    0.13 
   9   3  10    0.79    0.16 
   9  -3  10    0.54    0.14 
   9   3  11    0.26    0.15 
   9   3  11    0.51    0.15 
   9  -3  11    0.35    0.14 
   9   3  12    0.02    0.14 
   9   3  12    0.10    0.16 
   9  -3  12   -0.14    0.14 
   9   3  13    0.22    0.17 
   9   3  13    0.32    0.17 
   9  -3  13    0.34    0.15 
   9   3  14   -0.01    0.18 
   9  -3  14    0.27    0.17 
  -9   4  14    0.11    0.18 
   9  -4 -14   -0.01    0.18 
  -9   4  13    0.05    0.18 
   9  -4 -13    0.17    0.17 
  -9   4  12    3.33    0.24 
   9  -4 -12    3.40    0.25 
  -9   4  11    2.61    0.21 
   9  -4 -11    3.27    0.24 
  -9   4  10    3.09    0.21 
   9  -4 -10    2.67    0.20 
  -9   4   9    3.52    0.26 
   9  -4  -9    3.70    0.25 
  -9   4   8    0.51    0.14 
   9  -4  -8    0.58    0.15 
  -9   4   7    0.05    0.12 
   9  -4  -7    0.01    0.12 
   9   4  -6    4.05    0.14 
  -9   4   6    4.35    0.23 
   9  -4  -6    3.84    0.23 
   9   4  -5   10.48    0.23 
  -9   4   5   11.05    0.32 
   9  -4  -5   11.03    0.32 
  -9   4   4    3.26    0.19 
   9   4  -4    3.01    0.11 
   9   4  -4    3.12    0.12 
   9  -4  -4    3.15    0.20 
   9   4  -3    9.14    0.20 
  -9   4   3    9.02    0.28 
   9   4  -3    9.28    0.20 
   9  -4  -3    8.99    0.28 
   9   4  -2    2.60    0.10 
   9   4  -2    2.47    0.09 
  -9   4   2    2.57    0.19 
   9  -4  -2    2.41    0.16 
   9   4  -1    6.66    0.16 
   9   4  -1    6.44    0.15 
  -9   4   1    6.05    0.24 
   9  -4  -1    6.45    0.23 
   9   4   0    2.27    0.10 
   9   4   0    2.20    0.10 
  -9   4   0    1.88    0.15 
   9  -4   0    2.10    0.09 
   9  -4   0    2.31    0.17 
   9   4   1    4.40    0.14 
   9   4   1    4.72    0.14 
  -9   4  -1    4.39    0.21 
   9   4   1    4.43    0.21 
   9  -4   1    4.42    0.20 
   9  -4   1    4.66    0.12 
   9   4   2    0.27    0.10 
   9   4   2    0.37    0.07 
  -9   4  -2    0.25    0.10 
   9   4   2    0.27    0.06 
   9  -4   2    0.29    0.05 
   9  -4   2    0.20    0.09 
   9   4   3    2.69    0.20 
   9   4   3    2.71    0.13 
  -9   4  -3    2.87    0.19 
   9   4   3    2.73    0.14 
   9  -4   3    2.66    0.10 
   9  -4   3    2.92    0.18 
  -9   4  -4    0.77    0.13 
   9   4   4    0.72    0.08 
   9   4   4    0.54    0.08 
   9   4   4    0.49    0.13 
   9  -4   4    0.72    0.12 
   9  -4   4    0.56    0.06 
   9   4   5    0.10    0.08 
   9   4   5    0.14    0.12 
  -9   4  -5    0.21    0.12 
   9   4   5    0.17    0.07 
   9  -4   5    0.14    0.10 
   9   4   6    0.41    0.10 
   9   4   6    0.32    0.12 
  -9   4  -6    0.73    0.14 
   9  -4   6    0.49    0.12 
   9   4   7    0.02    0.12 
  -9   4  -7    0.12    0.12 
   9   4   7    0.10    0.10 
   9  -4   7    0.09    0.11 
  -9   4  -8    0.37    0.14 
   9   4   8    0.42    0.12 
   9   4   8    0.41    0.14 
   9  -4   8    0.34    0.11 
   9   4   9   -0.07    0.11 
   9   4   9   -0.01    0.14 
  -9   4  -9   -0.05    0.14 
   9  -4   9   -0.02    0.12 
   9   4  10    0.31    0.14 
   9   4  10    0.06    0.16 
   9  -4  10    0.25    0.13 
   9   4  11    0.12    0.14 
   9   4  11    0.05    0.15 
   9  -4  11   -0.04    0.13 
   9   4  12    0.21    0.17 
   9   4  12    0.25    0.15 
   9  -4  12    0.15    0.14 
   9   4  13    0.40    0.19 
   9   4  13    0.11    0.16 
   9  -4  13    0.28    0.16 
  -9   5  13   -0.11    0.17 
   9  -5 -13   -0.12    0.17 
  -9   5  12    1.41    0.22 
   9  -5 -12    1.37    0.22 
  -9   5  11    0.87    0.19 
   9  -5 -11    1.11    0.19 
  -9   5  10    1.08    0.18 
   9  -5 -10    1.20    0.19 
  -9   5   9    0.83    0.16 
   9  -5  -9    0.98    0.17 
  -9   5   8    5.32    0.28 
   9  -5  -8    4.93    0.28 
  -9   5   7    1.10    0.15 
   9  -5  -7    1.33    0.16 
  -9   5   6    1.81    0.17 
   9  -5  -6    2.41    0.18 
  -9   5   5    1.12    0.14 
   9   5  -5    1.14    0.08 
   9  -5  -5    0.95    0.14 
  -9   5   4    0.00    0.11 
   9   5  -4    0.05    0.05 
   9   5  -4    0.09    0.04 
   9  -5  -4    0.19    0.11 
   9   5  -3    3.13    0.10 
   9   5  -3    3.05    0.10 
  -9   5   3    3.14    0.21 
   9  -5  -3    2.87    0.20 
  -9   5   2    0.67    0.13 
   9   5  -2    0.79    0.06 
   9   5  -2    0.78    0.05 
   9  -5  -2    0.82    0.12 
   9   5  -1    1.32    0.08 
   9   5  -1    1.21    0.08 
  -9   5   1    1.12    0.14 
   9  -5  -1    1.24    0.05 
   9  -5  -1    1.23    0.13 
   9   5   0    2.46    0.10 
   9   5   0    2.25    0.16 
  -9   5   0    2.55    0.18 
   9   5   0    2.53    0.11 
   9  -5   0    2.36    0.16 
   9   5   1    0.07    0.11 
   9   5   1    0.15    0.06 
  -9   5  -1    0.09    0.11 
   9   5   1    0.13    0.05 
   9  -5   1    0.09    0.10 
   9   5   2    2.66    0.12 
  -9   5  -2    2.72    0.18 
   9   5   2    2.67    0.13 
   9   5   2    2.79    0.21 
   9  -5   2    2.76    0.19 
   9   5   3    0.19    0.07 
   9   5   3    0.17    0.12 
  -9   5  -3    0.53    0.13 
   9  -5   3    0.51    0.11 
   9   5   4    0.02    0.08 
   9   5   4    0.14    0.12 
  -9   5  -4    0.03    0.11 
   9  -5   4    0.12    0.11 
   9   5   5    0.01    0.09 
  -9   5  -5    0.05    0.12 
   9   5   5   -0.01    0.13 
   9  -5   5    0.08    0.11 
  -9   5  -6    6.21    0.28 
   9   5   6    6.19    0.28 
   9   5   6    5.85    0.23 
   9  -5   6    5.86    0.25 
   9   5   7    0.77    0.12 
  -9   5  -7    0.71    0.16 
   9   5   7    0.82    0.16 
   9  -5   7    0.49    0.12 
  -9   5  -8    0.96    0.17 
   9   5   8    0.88    0.13 
   9   5   8    0.66    0.16 
   9  -5   8    0.91    0.14 
  -9   5  -9    0.12    0.14 
   9   5   9    0.04    0.15 
   9   5   9   -0.06    0.12 
   9  -5   9   -0.02    0.12 
   9   5  10   -0.03    0.15 
   9   5  10   -0.05    0.13 
   9  -5  10    0.03    0.13 
   9   5  11    0.23    0.18 
   9   5  11    0.13    0.15 
   9  -5  11    0.12    0.14 
   9   5  12    0.56    0.19 
   9   5  12    0.72    0.18 
  -9   6  11    4.26    0.29 
   9  -6 -11    4.56    0.32 
  -9   6  10    0.04    0.17 
   9  -6 -10   -0.01    0.16 
  -9   6   9    6.72    0.35 
   9  -6  -9    6.14    0.33 
  -9   6   8    0.13    0.15 
   9  -6  -8    0.24    0.14 
  -9   6   7   -0.02    0.14 
   9  -6  -7    0.05    0.13 
  -9   6   6    0.31    0.14 
   9  -6  -6    0.53    0.14 
  -9   6   5    5.73    0.29 
   9  -6  -5    6.01    0.26 
   9   6  -4    0.63    0.05 
  -9   6   4    0.50    0.13 
   9  -6  -4    0.65    0.13 
  -9   6   3    8.65    0.32 
   9   6  -3    8.52    0.17 
   9   6  -3    8.27    0.17 
   9  -6  -3    9.12    0.30 
  -9   6   2    0.72    0.14 
   9   6  -2    0.89    0.05 
   9   6  -2    0.85    0.06 
   9  -6  -2    0.96    0.14 
  -9   6   1    0.69    0.13 
   9   6  -1    0.73    0.15 
   9   6  -1    0.98    0.06 
   9   6  -1    0.92    0.07 
   9  -6  -1    0.83    0.13 
   9   6   0    0.17    0.05 
  -9   6   0    0.16    0.12 
   9   6   0    0.21    0.13 
   9   6   0    0.16    0.06 
   9  -6   0   -0.08    0.10 
   9   6   1    4.96    0.26 
   9   6   1    5.24    0.15 
  -9   6  -1    5.32    0.27 
   9  -6   1    5.32    0.23 
  -9   6  -2    0.06    0.12 
   9   6   2    0.01    0.13 
   9   6   2    0.16    0.07 
   9  -6   2    0.11    0.11 
  -9   6  -3   12.31    0.37 
   9   6   3   12.09    0.37 
   9   6   3   12.12    0.29 
   9  -6   3   12.36    0.34 
   9   6   4    0.00    0.14 
  -9   6  -4    0.02    0.14 
   9   6   4    0.23    0.09 
   9  -6   4    0.32    0.11 
  -9   6  -5    5.12    0.28 
   9   6   5    4.88    0.28 
   9   6   5    5.12    0.21 
   9  -6   5    4.58    0.23 
  -9   6  -6    0.64    0.15 
   9   6   6    1.00    0.18 
   9   6   6    0.78    0.12 
   9  -6   6    0.70    0.13 
  -9   6  -7    0.57    0.15 
   9   6   7    0.78    0.18 
   9   6   7    0.92    0.14 
   9  -6   7    1.02    0.14 
   9   6   8    0.02    0.15 
  -9   6  -8    0.05    0.15 
   9   6   8   -0.03    0.12 
   9  -6   8    0.15    0.14 
   9   6   9    2.04    0.23 
  -9   6  -9    2.43    0.22 
   9   6   9    2.75    0.20 
   9   6  10    0.07    0.15 
  -9   6 -10    0.35    0.19 
   9   6  10    0.12    0.18 
   9   6  11    0.50    0.20 
   9   6  11    0.36    0.17 
  -9   7   9   -0.18    0.17 
   9  -7  -9   -0.21    0.20 
  -9   7   8    3.29    0.25 
   9  -7  -8    3.88    0.28 
  -9   7   7    0.33    0.17 
   9  -7  -7    0.45    0.16 
  -9   7   6    8.72    0.37 
   9  -7  -6    8.47    0.33 
  -9   7   5    0.01    0.15 
   9  -7  -5    0.10    0.13 
  -9   7   4    0.96    0.17 
   9  -7  -4    1.28    0.16 
  -9   7   3    0.01    0.15 
   9  -7  -3    0.12    0.12 
   9   7  -2    5.38    0.27 
  -9   7   2    5.36    0.29 
   9  -7  -2    5.28    0.25 
   9   7  -1    1.95    0.08 
  -9   7   1    2.18    0.20 
   9   7  -1    1.38    0.17 
   9  -7  -1    2.03    0.17 
   9   7   0    6.12    0.16 
  -9   7   0    6.34    0.30 
   9   7   0    6.83    0.29 
   9  -7   0    6.43    0.26 
  -9   7  -1    0.61    0.15 
   9   7   1    0.33    0.14 
   9   7   1    0.41    0.07 
   9  -7   1    0.60    0.13 
   9   7   2    1.91    0.13 
  -9   7  -2    1.87    0.19 
   9   7   2    2.34    0.20 
   9  -7   2    2.36    0.17 
  -9   7  -3    0.09    0.14 
   9   7   3    0.06    0.15 
   9   7   3    0.16    0.08 
   9  -7   3    0.12    0.15 
  -9   7  -4    1.43    0.18 
   9   7   4    1.27    0.17 
   9   7   4    1.45    0.12 
   9   7   5    0.27    0.10 
  -9   7  -5    0.09    0.15 
   9   7   5    0.19    0.15 
   9   7   6    0.57    0.17 
  -9   7  -6    0.51    0.17 
   9   7   6    0.43    0.12 
  -9   7  -7    0.30    0.16 
   9   7   7    0.17    0.16 
   9   7   7    0.02    0.12 
   9   7   8    0.76    0.15 
  -9   7  -8    0.88    0.19 
   9   7   8    0.79    0.19 
  -9   7  -9    0.31    0.17 
   9   7   9    0.39    0.19 
   9   7   9    0.33    0.15 
  -9   8   6    0.46    0.18 
  -9   8   5    1.93    0.22 
  -9   8   4    0.63    0.17 
  -9   8   3    6.19    0.35 
   9   8  -3    6.77    0.32 
   9   8  -2    0.58    0.16 
  -9   8   2    0.29    0.17 
   9   8  -1    0.61    0.16 
  -9   8   1    0.53    0.18 
   9   8   0    0.08    0.05 
  -9   8   0   -0.03    0.15 
   9   8   0    0.11    0.15 
   9   8   1    2.50    0.12 
   9   8   1    2.47    0.21 
  -9   8  -1    2.37    0.22 
  -9   8  -2    0.15    0.16 
   9   8   2    0.12    0.08 
   9   8   2    0.20    0.16 
   9   8   3    4.55    0.29 
   9   8   3    4.41    0.19 
  -9   8  -3    4.85    0.32 
   9   8   4    0.06    0.17 
   9   8   4    0.27    0.10 
  -9   8  -4    0.21    0.17 
  -9   8  -5    1.56    0.20 
   9   8   5    1.67    0.14 
   9   8   5    1.82    0.21 
   9   8   6    0.02    0.12 
  -9   8  -6    0.03    0.17 
   9   8   6   -0.18    0.16 
 -10   0  12    1.07    0.14 
 -10   0  11   -0.07    0.10 
 -10   0  10    0.53    0.11 
  10   0  -9   -0.03    0.10 
 -10   0   9    0.04    0.09 
 -10   0   8    1.40    0.12 
  10   0  -8    0.98    0.12 
  10   0  -7   -0.06    0.09 
 -10   0   7   -0.05    0.07 
 -10   0   6    8.93    0.24 
  10   0  -6    9.72    0.27 
  10   0  -6    9.22    0.26 
  10   0  -5    0.02    0.08 
  10   0  -5   -0.01    0.06 
 -10   0   5   -0.01    0.06 
 -10   0   4   24.88    0.48 
  10   0  -4   24.43    0.49 
  10   0  -4   24.16    0.48 
  10   0  -3   -0.01    0.07 
  10   0  -3   -0.05    0.06 
 -10   0   3   -0.02    0.06 
  10   0  -2    1.84    0.14 
 -10   0   2    1.82    0.12 
  10   0  -2    1.79    0.12 
  10   0  -1    0.02    0.07 
 -10   0   1    0.00    0.06 
  10   0  -1   -0.03    0.05 
  10   0   0    2.91    0.15 
  10   0   0    3.21    0.14 
 -10   0   0    3.21    0.14 
  10   0   1    0.01    0.07 
 -10   0  -1    0.04    0.06 
  10   0   1    0.01    0.06 
  10   0   1    0.04    0.07 
  10   0   2    0.58    0.08 
  10   0   2    0.30    0.08 
 -10   0  -2    0.51    0.08 
  10   0   2    0.33    0.08 
  10   0   3   -0.07    0.08 
  10   0   3    0.00    0.06 
 -10   0  -3    0.02    0.07 
  10   0   3   -0.01    0.08 
  10   0   4    0.78    0.11 
  10   0   4    0.52    0.10 
  10   0   5   -0.04    0.10 
  10   0   5    0.01    0.09 
  10   0   6    1.36    0.13 
  10   0   6    1.48    0.13 
  10   0   7    0.01    0.10 
  10   0   7   -0.08    0.10 
  10   0   8    0.17    0.11 
  10   0   8    0.42    0.12 
  10   0   9   -0.03    0.11 
  10   0   9   -0.14    0.12 
  10   0  10    0.90    0.16 
  10   0  10    0.83    0.15 
  10   0  11    0.06    0.14 
  10   0  11    0.05    0.14 
  10   0  12    0.19    0.16 
  10   0  12    0.01    0.16 
  10   0  13    0.01    0.16 
  10   0  14    0.11    0.18 
  10   0  15   -0.03    0.19 
 -10   1  14    0.15    0.14 
 -10   1  13    0.17    0.13 
 -10   1  12   -0.01    0.12 
 -10   1  11    1.82    0.17 
  10  -1 -11    2.23    0.20 
 -10  -1  11    1.68    0.13 
 -10   1  10    0.57    0.12 
  10  -1 -10    0.60    0.14 
 -10  -1  10    0.79    0.10 
 -10   1   9   21.66    0.48 
  10  -1  -9   21.60    0.51 
 -10  -1   9   21.67    0.44 
  10   1  -8   18.48    0.41 
 -10   1   8   18.96    0.43 
  10  -1  -8   19.04    0.45 
 -10  -1   8   18.75    0.39 
  10   1  -7    0.84    0.10 
  10   1  -7    0.77    0.11 
 -10   1   7    1.04    0.12 
  10  -1  -7    0.76    0.12 
 -10  -1   7    0.77    0.08 
 -10   1   6    0.85    0.11 
  10   1  -6    0.87    0.11 
  10   1  -6    0.92    0.10 
  10  -1  -6    0.59    0.10 
 -10  -1   6    0.74    0.08 
  10   1  -5    6.45    0.21 
 -10   1   5    6.43    0.21 
  10   1  -5    6.47    0.20 
 -10  -1   5    6.83    0.18 
  10  -1  -5    6.40    0.23 
  10   1  -4    4.67    0.16 
  10   1  -4    4.83    0.18 
 -10   1   4    4.92    0.18 
 -10  -1   4    4.82    0.15 
  10   1  -3   15.85    0.33 
 -10   1   3   15.13    0.34 
  10   1  -3   15.21    0.34 
  10  -1  -3   15.63    0.36 
 -10  -1   3   15.70    0.32 
 -10   1   2    0.31    0.08 
  10   1  -2    0.35    0.08 
  10   1  -2    0.50    0.07 
  10  -1  -2    0.33    0.09 
 -10  -1   2    0.32    0.06 
  10   1  -1    4.77    0.15 
 -10   1   1    4.73    0.18 
  10   1  -1    4.78    0.17 
  10  -1  -1    4.72    0.19 
  10  -1  -1    4.48    0.21 
 -10  -1   1    4.67    0.15 
 -10   1   0    0.18    0.08 
  10   1   0    0.22    0.06 
  10   1   0    0.17    0.06 
  10  -1   0    0.32    0.08 
 -10  -1   0    0.23    0.06 
  10   1   1    1.19    0.09 
  10   1   1    1.34    0.12 
  10   1   1    1.19    0.09 
 -10   1  -1    1.36    0.10 
 -10  -1  -1    1.27    0.09 
  10  -1   1    1.31    0.11 
  10  -1   1    1.37    0.10 
  10   1   2    0.45    0.10 
 -10   1  -2    0.47    0.09 
  10   1   2    0.39    0.08 
  10   1   2    0.53    0.08 
  10  -1   2    0.33    0.08 
  10  -1   2    0.22    0.08 
  10   1   3    2.45    0.16 
  10   1   3    1.95    0.12 
 -10   1  -3    2.14    0.15 
  10   1   3    2.11    0.14 
  10  -1   3    2.00    0.13 
  10  -1   3    2.32    0.16 
 -10   1  -4    6.22    0.22 
  10   1   4    5.78    0.20 
  10   1   4    5.95    0.21 
  10   1   4    5.60    0.22 
  10  -1   4    6.11    0.22 
  10  -1   4    5.91    0.20 
  10   1   5    7.66    0.24 
 -10   1  -5    7.28    0.25 
  10   1   5    7.74    0.25 
  10  -1   5    7.57    0.25 
  10  -1   5    7.33    0.23 
  10   1   6    0.57    0.10 
  10   1   6    0.59    0.11 
  10  -1   6    0.70    0.11 
  10  -1   6    0.74    0.12 
  10   1   7    4.15    0.21 
  10   1   7    4.61    0.22 
  10  -1   7    4.40    0.20 
  10  -1   7    4.40    0.22 
  10   1   8    0.22    0.13 
  10   1   8    0.27    0.11 
  10  -1   8    0.26    0.12 
  10  -1   8    0.27    0.12 
  10   1   9    1.60    0.17 
  10   1   9    1.35    0.16 
  10  -1   9    0.94    0.14 
  10  -1   9    1.31    0.15 
  10   1  10    2.51    0.19 
  10   1  10    3.09    0.22 
  10  -1  10    2.95    0.20 
  10  -1  10    3.22    0.24 
  10   1  11    1.38    0.18 
  10   1  11    1.57    0.20 
  10  -1  11    1.66    0.19 
  10  -1  11    1.52    0.17 
  10   1  12    0.42    0.16 
  10   1  12    0.33    0.17 
  10  -1  12    0.35    0.15 
  10   1  13    0.68    0.19 
  10   1  13    0.69    0.19 
  10  -1  13    0.49    0.18 
  10   1  14    0.07    0.17 
  10  -1  14    0.33    0.18 
 -10   2  15   -0.33    0.15 
  10  -2 -15   -0.06    0.18 
 -10   2  14    1.26    0.18 
  10  -2 -14    1.24    0.21 
 -10   2  13    1.76    0.20 
  10  -2 -13    1.77    0.21 
 -10   2  12    4.80    0.28 
  10  -2 -12    5.08    0.31 
 -10   2  11    0.51    0.14 
  10  -2 -11    0.34    0.15 
 -10   2  10    0.78    0.13 
  10  -2 -10    0.67    0.14 
 -10   2   9    0.23    0.11 
 -10  -2   9    0.19    0.06 
  10  -2  -9    0.28    0.13 
  10   2  -8    0.05    0.08 
 -10   2   8    0.04    0.11 
  10  -2  -8    0.06    0.11 
 -10  -2   8    0.09    0.05 
  10   2  -7    5.69    0.19 
 -10   2   7    5.74    0.23 
  10  -2  -7    5.80    0.25 
  10   2  -6    4.35    0.18 
  10   2  -6    4.03    0.16 
 -10   2   6    4.26    0.20 
  10  -2  -6    4.51    0.22 
  10   2  -5    8.17    0.22 
 -10   2   5    8.08    0.25 
  10   2  -5    7.94    0.21 
  10  -2  -5    7.92    0.26 
 -10  -2   5    7.28    0.17 
  10   2  -4    2.49    0.12 
 -10   2   4    2.30    0.16 
  10   2  -4    2.45    0.14 
  10  -2  -4    2.27    0.18 
 -10  -2   4    2.51    0.09 
  10   2  -3    1.04    0.09 
  10   2  -3    0.85    0.08 
 -10   2   3    0.72    0.10 
  10  -2  -3    0.91    0.11 
 -10  -2   3    0.85    0.06 
 -10   2   2    0.52    0.10 
  10   2  -2    0.44    0.07 
  10   2  -2    0.53    0.08 
  10  -2  -2    0.57    0.11 
 -10  -2   2    0.55    0.05 
  10   2  -1    9.90    0.23 
 -10   2   1    9.64    0.27 
  10   2  -1    9.59    0.24 
  10  -2  -1    9.62    0.27 
 -10   2   0    6.83    0.23 
  10   2   0    7.05    0.19 
  10   2   0    7.14    0.20 
  10  -2   0    6.71    0.23 
 -10   2  -1    3.04    0.17 
  10   2   1    3.30    0.15 
  10   2   1    3.11    0.16 
  10   2   1    2.96    0.13 
  10  -2   1    2.90    0.17 
  10  -2   1    3.01    0.13 
  10   2   2   14.77    0.36 
 -10   2  -2   14.53    0.35 
  10   2   2   15.25    0.33 
  10   2   2   15.13    0.32 
  10  -2   2   14.46    0.32 
  10  -2   2   14.52    0.35 
 -10   2  -3    0.59    0.10 
  10   2   3    0.58    0.09 
  10   2   3    0.84    0.09 
  10   2   3    0.59    0.11 
  10  -2   3    0.54    0.08 
  10  -2   3    0.70    0.10 
  10   2   4    0.13    0.09 
  10   2   4    0.16    0.10 
 -10   2  -4    0.06    0.09 
  10   2   4    0.08    0.07 
  10  -2   4    0.16    0.09 
  10  -2   4    0.11    0.07 
  10   2   5    0.76    0.09 
 -10   2  -5    0.85    0.12 
  10   2   5    0.62    0.10 
  10   2   5    0.64    0.12 
  10  -2   5    0.78    0.09 
  10  -2   5    0.63    0.11 
 -10   2  -6    2.80    0.20 
  10   2   6    2.62    0.18 
  10   2   6    2.96    0.18 
  10   2   6    2.71    0.18 
  10  -2   6    2.72    0.18 
  10  -2   6    2.82    0.16 
 -10   2  -7    0.95    0.14 
  10   2   7    0.93    0.12 
  10   2   7    0.97    0.13 
  10  -2   7    0.82    0.13 
  10  -2   7    0.91    0.12 
  10   2   8    3.07    0.21 
  10   2   8    3.47    0.21 
  10  -2   8    2.88    0.22 
  10  -2   8    3.24    0.19 
  10   2   9    2.82    0.21 
  10   2   9    3.16    0.23 
  10  -2   9    2.73    0.19 
  10  -2   9    2.24    0.17 
  10   2  10    0.40    0.14 
  10   2  10    0.38    0.15 
  10  -2  10    0.41    0.13 
  10   2  11    0.05    0.16 
  10   2  11    0.06    0.14 
  10  -2  11    0.17    0.13 
  10   2  12    0.44    0.18 
  10   2  12    0.09    0.15 
  10  -2  12    0.31    0.16 
  10   2  13    0.98    0.20 
  10   2  13    0.78    0.20 
  10  -2  13    0.87    0.17 
  10   2  14    0.24    0.19 
  10  -2  14    0.08    0.17 
 -10   3  14    1.70    0.21 
  10  -3 -14    2.20    0.25 
 -10   3  13    0.61    0.17 
  10  -3 -13    0.51    0.18 
 -10   3  12    0.86    0.17 
  10  -3 -12    0.93    0.20 
 -10   3  11    4.22    0.28 
  10  -3 -11    4.04    0.29 
 -10   3  10    7.66    0.32 
  10  -3 -10    7.96    0.33 
 -10   3   9   14.39    0.41 
  10  -3  -9   14.95    0.42 
 -10   3   8    7.41    0.28 
  10  -3  -8    7.31    0.30 
  10   3  -7    6.65    0.27 
 -10   3   7    6.08    0.26 
  10  -3  -7    6.48    0.27 
  10   3  -6    4.08    0.17 
  10   3  -6    4.10    0.15 
 -10   3   6    4.09    0.21 
  10  -3  -6    4.00    0.22 
  10   3  -5    2.97    0.14 
 -10   3   5    3.06    0.19 
  10   3  -5    2.92    0.13 
  10  -3  -5    2.88    0.20 
 -10   3   4    7.31    0.25 
  10   3  -4    7.34    0.20 
  10   3  -4    7.39    0.19 
  10  -3  -4    7.13    0.26 
 -10   3   3   12.07    0.32 
  10   3  -3   12.17    0.26 
  10   3  -3   11.95    0.27 
  10  -3  -3   12.20    0.33 
 -10   3   2   39.01    0.74 
  10   3  -2   38.15    0.68 
  10   3  -2   38.49    0.69 
  10  -3  -2   40.21    0.75 
 -10   3   1   30.05    0.60 
  10   3  -1   30.53    0.55 
  10   3  -1   29.41    0.54 
  10  -3  -1   30.08    0.60 
 -10   3   0    4.77    0.21 
  10   3   0    4.79    0.15 
  10   3   0    4.75    0.16 
  10  -3   0    4.78    0.15 
  10  -3   0    4.79    0.21 
 -10   3  -1    0.15    0.10 
  10   3   1    0.09    0.10 
  10   3   1    0.15    0.07 
  10   3   1    0.07    0.06 
  10  -3   1    0.11    0.06 
  10  -3   1    0.09    0.09 
 -10   3  -2    0.58    0.11 
  10   3   2    0.70    0.13 
  10   3   2    0.66    0.07 
  10   3   2    0.55    0.08 
  10  -3   2    0.51    0.10 
  10  -3   2    0.59    0.07 
 -10   3  -3   12.28    0.33 
  10   3   3   12.36    0.34 
  10   3   3   12.24    0.29 
  10   3   3   11.96    0.28 
  10  -3   3   12.97    0.33 
  10  -3   3   12.11    0.27 
  10   3   4    7.46    0.23 
  10   3   4    7.68    0.27 
 -10   3  -4    7.67    0.27 
  10   3   4    7.58    0.22 
  10  -3   4    7.55    0.26 
  10  -3   4    7.60    0.21 
 -10   3  -5   17.99    0.43 
  10   3   5   17.16    0.38 
  10   3   5   17.88    0.44 
  10   3   5   17.61    0.40 
  10  -3   5   17.81    0.38 
  10  -3   5   18.70    0.43 
 -10   3  -6   11.67    0.34 
  10   3   6   11.72    0.35 
  10   3   6   11.03    0.29 
  10   3   6   11.59    0.31 
  10  -3   6   11.60    0.29 
  10  -3   6   12.10    0.34 
 -10   3  -7   -0.06    0.12 
  10   3   7   -0.05    0.13 
  10   3   7    0.01    0.10 
  10  -3   7   -0.07    0.08 
  10  -3   7   -0.07    0.11 
 -10   3  -8    0.20    0.12 
  10   3   8    0.35    0.12 
  10   3   8    0.19    0.14 
  10  -3   8    0.43    0.13 
  10   3   9   -0.04    0.12 
  10   3   9   -0.09    0.14 
  10  -3   9    0.11    0.13 
  10   3  10    0.98    0.16 
  10   3  10    1.01    0.18 
  10  -3  10    0.74    0.15 
  10   3  11    0.22    0.15 
  10   3  11    0.06    0.15 
  10  -3  11    0.07    0.13 
  10   3  12   -0.11    0.18 
  10   3  12    0.07    0.15 
  10  -3  12    0.24    0.15 
  10   3  13    0.11    0.17 
  10   3  13    0.12    0.17 
  10  -3  13   -0.13    0.15 
  10   3  14    0.39    0.20 
  10   3  14    0.04    0.19 
  10  -3  14   -0.06    0.17 
 -10   4  13    0.18    0.17 
  10  -4 -13    0.16    0.18 
 -10   4  12    4.52    0.31 
  10  -4 -12    4.50    0.32 
 -10   4  11    5.48    0.32 
  10  -4 -11    4.86    0.31 
 -10   4  10    1.28    0.19 
  10  -4 -10    1.29    0.19 
 -10   4   9    0.01    0.14 
  10  -4  -9    0.31    0.15 
 -10   4   8    2.69    0.20 
  10  -4  -8    2.47    0.20 
 -10   4   7    3.39    0.24 
  10  -4  -7    3.80    0.24 
 -10   4   6   14.26    0.39 
  10  -4  -6   13.67    0.39 
  10   4  -5    1.26    0.09 
  10   4  -5    1.16    0.08 
 -10   4   5    1.47    0.16 
  10  -4  -5    1.07    0.14 
  10   4  -4    9.64    0.23 
  10   4  -4    9.64    0.22 
 -10   4   4    9.68    0.31 
  10  -4  -4    9.79    0.31 
 -10   4   3    0.17    0.12 
  10   4  -3    0.19    0.06 
  10   4  -3    0.17    0.05 
  10  -4  -3    0.11    0.11 
 -10   4   2    0.01    0.11 
  10   4  -2    0.03    0.06 
  10   4  -2   -0.03    0.05 
  10  -4  -2    0.12    0.10 
 -10   4   1    2.14    0.15 
  10   4  -1    2.40    0.11 
  10   4  -1    2.53    0.12 
  10  -4  -1    2.78    0.19 
 -10   4   0   15.33    0.39 
  10   4   0   15.28    0.31 
  10   4   0   15.30    0.31 
  10  -4   0   15.07    0.30 
  10  -4   0   15.45    0.38 
  10   4   1   12.28    0.27 
  10   4   1   12.46    0.28 
 -10   4  -1   12.65    0.35 
  10   4   1   12.42    0.34 
  10  -4   1   13.11    0.34 
  10  -4   1   12.53    0.25 
  10   4   2    8.12    0.27 
 -10   4  -2    8.42    0.29 
  10   4   2    8.16    0.21 
  10   4   2    8.28    0.22 
  10  -4   2    8.53    0.19 
  10  -4   2    8.64    0.28 
  10   4   3    0.52    0.08 
 -10   4  -3    0.44    0.12 
  10   4   3    0.42    0.07 
  10   4   3    0.49    0.13 
  10  -4   3    0.28    0.10 
  10  -4   3    0.57    0.07 
  10   4   4    0.31    0.13 
  10   4   4    0.22    0.07 
 -10   4  -4    0.20    0.11 
  10   4   4    0.35    0.09 
  10  -4   4    0.21    0.06 
  10  -4   4    0.22    0.11 
  10   4   5    0.72    0.13 
  10   4   5    0.68    0.10 
 -10   4  -5    0.75    0.14 
  10  -4   5    0.89    0.14 
  10  -4   5    0.61    0.08 
 -10   4  -6    5.03    0.26 
  10   4   6    4.56    0.22 
  10   4   6    4.51    0.24 
  10  -4   6    4.76    0.24 
  10   4   7    2.09    0.19 
  10   4   7    2.03    0.15 
 -10   4  -7    2.76    0.20 
  10  -4   7    2.39    0.18 
  10   4   8    3.96    0.24 
  10   4   8    3.63    0.23 
 -10   4  -8    4.27    0.27 
  10  -4   8    3.68    0.24 
  10   4   9    0.60    0.16 
  10   4   9    0.60    0.14 
 -10   4  -9    0.80    0.17 
  10  -4   9    0.71    0.14 
  10   4  10    1.05    0.16 
  10   4  10    0.92    0.18 
  10  -4  10    1.28    0.17 
  10   4  11    0.03    0.14 
  10   4  11   -0.08    0.16 
  10  -4  11   -0.08    0.15 
  10   4  12    0.10    0.17 
  10   4  12    0.01    0.16 
  10  -4  12    0.09    0.15 
  10   4  13    0.18    0.19 
  10   4  13   -0.20    0.16 
  10  -4  13    0.22    0.17 
 -10   5  12    0.65    0.20 
  10  -5 -12    0.56    0.19 
 -10   5  11    1.41    0.22 
  10  -5 -11    1.56    0.22 
 -10   5  10    3.62    0.25 
  10  -5 -10    3.38    0.24 
 -10   5   9    9.68    0.37 
  10  -5  -9    9.30    0.36 
 -10   5   8    5.54    0.31 
  10  -5  -8    5.86    0.30 
 -10   5   7    5.96    0.29 
  10  -5  -7    6.03    0.29 
 -10   5   6    0.26    0.13 
  10  -5  -6    0.25    0.13 
  10   5  -5    0.25    0.06 
 -10   5   5    0.28    0.13 
  10  -5  -5    0.24    0.13 
 -10   5   4    6.15    0.27 
  10   5  -4    5.93    0.16 
  10  -5  -4    6.29    0.27 
  10   5  -3    7.68    0.18 
  10   5  -3    7.29    0.17 
 -10   5   3    7.34    0.29 
  10  -5  -3    7.47    0.28 
  10   5  -2    5.42    0.14 
 -10   5   2    5.92    0.26 
  10   5  -2    5.47    0.15 
  10  -5  -2    5.53    0.25 
  10   5  -1    0.36    0.06 
  10   5  -1    0.41    0.06 
 -10   5   1    0.39    0.12 
  10  -5  -1    0.33    0.04 
  10  -5  -1    0.34    0.12 
  10   5   0    8.81    0.20 
  10   5   0    9.05    0.29 
 -10   5   0    8.76    0.31 
  10   5   0    9.04    0.21 
  10  -5   0    8.35    0.29 
  10  -5   0    8.65    0.17 
  10   5   1    0.13    0.06 
  10   5   1    0.02    0.12 
  10   5   1    0.13    0.06 
 -10   5  -1    0.13    0.12 
  10  -5   1    0.15    0.11 
  10   5   2    1.14    0.09 
 -10   5  -2    1.20    0.15 
  10   5   2    1.54    0.17 
  10  -5   2    1.22    0.14 
  10   5   3    2.81    0.15 
 -10   5  -3    3.06    0.23 
  10   5   3    2.82    0.20 
  10  -5   3    2.38    0.17 
 -10   5  -4    8.47    0.31 
  10   5   4    8.63    0.25 
  10   5   4    8.55    0.32 
  10  -5   4    8.14    0.29 
  10   5   5    8.42    0.32 
  10   5   5    7.67    0.25 
 -10   5  -5    8.40    0.32 
  10  -5   5    7.85    0.29 
  10   5   6    0.21    0.10 
 -10   5  -6    0.06    0.14 
  10   5   6    0.25    0.14 
  10  -5   6    0.29    0.13 
  10   5   7    1.00    0.13 
  10   5   7    0.97    0.18 
 -10   5  -7    1.22    0.17 
  10  -5   7    0.91    0.14 
  10   5   8    0.27    0.16 
 -10   5  -8    0.34    0.15 
  10   5   8    0.22    0.12 
  10  -5   8    0.13    0.12 
 -10   5  -9    1.16    0.18 
  10   5   9    1.18    0.18 
  10   5   9    1.53    0.17 
  10  -5   9    1.24    0.17 
  10   5  10    0.12    0.18 
  10   5  10    0.13    0.14 
  10  -5  10    0.26    0.15 
  10   5  11    0.59    0.17 
  10   5  11    0.57    0.20 
  10  -5  11    0.45    0.16 
  10   5  12    0.22    0.17 
  10   5  12    0.44    0.20 
 -10   6  11    0.09    0.19 
  10  -6 -11    0.10    0.18 
 -10   6  10    0.26    0.17 
  10  -6 -10    0.18    0.18 
 -10   6   9    0.23    0.16 
  10  -6  -9    0.22    0.16 
 -10   6   8    0.60    0.19 
  10  -6  -8    0.19    0.16 
 -10   6   7    3.52    0.25 
  10  -6  -7    3.50    0.27 
 -10   6   6    1.96    0.20 
  10   6  -6    2.08    0.12 
  10  -6  -6    2.46    0.21 
 -10   6   5    1.64    0.19 
  10   6  -5    1.12    0.08 
  10  -6  -5    1.31    0.17 
 -10   6   4    1.27    0.17 
  10   6  -4    1.22    0.09 
  10  -6  -4    1.37    0.16 
 -10   6   3    0.12    0.14 
  10   6  -3    0.09    0.05 
  10  -6  -3    0.12    0.12 
  10   6  -2    0.33    0.05 
 -10   6   2    0.46    0.14 
  10  -6  -2    0.35    0.12 
 -10   6   1    0.69    0.15 
  10   6  -1    1.11    0.07 
  10   6  -1    0.94    0.16 
  10  -6  -1    1.08    0.14 
  10   6   0    4.24    0.26 
  10   6   0    4.84    0.15 
 -10   6   0    4.68    0.27 
  10  -6   0    4.80    0.24 
  10   6   1    0.15    0.14 
 -10   6  -1    0.36    0.14 
  10   6   1    0.30    0.07 
  10  -6   1    0.38    0.12 
 -10   6  -2    3.07    0.21 
  10   6   2    2.75    0.15 
  10   6   2    2.82    0.20 
  10  -6   2    2.97    0.22 
  10   6   3    0.22    0.15 
  10   6   3    0.29    0.08 
 -10   6  -3    0.31    0.14 
  10  -6   3    0.23    0.12 
  10   6   4    0.14    0.09 
  10   6   4    0.32    0.15 
 -10   6  -4    0.30    0.14 
  10  -6   4    0.15    0.12 
  10   6   5   -0.02    0.16 
 -10   6  -5    0.08    0.14 
  10   6   5   -0.09    0.09 
  10  -6   5    0.08    0.12 
  10   6   6    0.11    0.11 
  10   6   6    0.42    0.17 
 -10   6  -6    0.32    0.16 
  10  -6   6    0.21    0.12 
  10   6   7    0.53    0.13 
  10   6   7    0.66    0.18 
 -10   6  -7    0.67    0.16 
  10  -6   7    0.49    0.13 
  10   6   8    0.97    0.19 
 -10   6  -8    0.98    0.19 
  10   6   8    0.83    0.15 
  10  -6   8    1.21    0.26 
 -10   6  -9   -0.07    0.17 
  10   6   9    0.05    0.14 
  10   6   9    0.03    0.16 
  10   6  10    0.92    0.17 
 -10   6 -10    1.28    0.22 
  10   6  10    0.73    0.19 
 -10   7   8    0.45    0.17 
  10  -7  -8    0.45    0.17 
 -10   7   7   -0.01    0.15 
  10  -7  -7    0.03    0.14 
 -10   7   6    0.18    0.17 
  10   7  -6    0.05    0.06 
  10  -7  -6    0.16    0.14 
 -10   7   5   -0.04    0.16 
  10   7  -5   -0.03    0.05 
  10  -7  -5   -0.14    0.13 
 -10   7   4    1.49    0.19 
  10  -7  -4    1.43    0.17 
 -10   7   3    0.29    0.15 
  10  -7  -3    0.39    0.13 
  10   7  -2    2.53    0.21 
 -10   7   2    2.88    0.23 
  10  -7  -2    2.17    0.18 
  10   7  -1    1.06    0.07 
  10   7  -1    0.80    0.17 
 -10   7   1    1.05    0.18 
  10  -7  -1    0.92    0.15 
 -10   7   0    0.05    0.14 
  10   7   0    0.29    0.06 
  10   7   0   -0.04    0.14 
  10  -7   0    0.16    0.12 
  10   7   1   -0.09    0.14 
  10   7   1    0.09    0.07 
 -10   7  -1   -0.01    0.15 
  10  -7   1    0.00    0.12 
 -10   7  -2    0.07    0.15 
  10   7   2    0.16    0.16 
  10   7   2    0.10    0.08 
  10  -7   2    0.07    0.12 
  10   7   3    0.01    0.16 
  10   7   3    0.14    0.09 
 -10   7  -3    0.02    0.15 
 -10   7  -4    0.32    0.16 
  10   7   4    0.60    0.10 
  10   7   4    0.47    0.17 
 -10   7  -5    0.23    0.17 
  10   7   5    0.10    0.16 
  10   7   5    0.40    0.11 
  10   7   6    0.57    0.13 
  10   7   6    0.56    0.19 
 -10   7  -6    0.36    0.17 
 -10   7  -7    0.08    0.17 
  10   7   7    0.15    0.13 
  10   7   7    0.26    0.17 
 -10   7  -8    0.07    0.18 
  10   7   8    0.36    0.18 
  10   7   8    0.36    0.14 
 -10   8   5    0.87    0.19 
 -10   8   4   -0.15    0.18 
 -10   8   3    0.33    0.18 
  10   8  -3    0.40    0.16 
  10   8  -2    0.64    0.17 
 -10   8   2    0.81    0.19 
  10   8  -1    1.32    0.19 
 -10   8   1    1.12    0.19 
 -10   8   0   -0.07    0.16 
  10   8   0    0.10    0.17 
  10   8   1    1.39    0.20 
 -10   8  -1    1.13    0.20 
  10   8   1    1.33    0.09 
  10   8   2    0.25    0.08 
 -10   8  -2    0.24    0.16 
  10   8   2    0.13    0.17 
  10   8   3    0.23    0.09 
 -10   8  -3    0.27    0.17 
  10   8   3    0.29    0.17 
  10   8   4   -0.02    0.10 
  10   8   4    0.04    0.18 
 -10   8  -4   -0.07    0.17 
  10   8   5    0.20    0.18 
 -10   8  -5    0.18    0.17 
  10   8   5    0.05    0.11 
  11   0 -11    0.15    0.13 
 -11   0  11   -0.11    0.10 
  11   0 -10    0.47    0.13 
 -11   0  10    0.65    0.12 
  11   0  -9   -0.02    0.11 
 -11   0   9   -0.06    0.09 
  11   0  -8   50.02    0.95 
 -11   0   8   50.83    0.92 
  11   0  -7    0.00    0.10 
 -11   0   7    0.02    0.08 
 -11   0   6   35.64    0.67 
  11   0  -6   35.85    0.70 
  11   0  -5    0.00    0.09 
 -11   0   5    0.01    0.07 
  11   0  -5    0.00    0.08 
 -11   0   4   15.85    0.35 
  11   0  -4   16.07    0.36 
  11   0  -4   15.84    0.37 
  11   0  -3    0.08    0.08 
 -11   0   3    0.04    0.07 
  11   0  -3   -0.01    0.08 
 -11   0   2   40.88    0.74 
  11   0  -2   41.45    0.75 
  11   0  -2   40.56    0.76 
  11   0  -1   -0.02    0.06 
  11   0  -1   -0.16    0.08 
 -11   0   1   -0.07    0.06 
  11   0   0   19.19    0.41 
 -11   0   0   19.81    0.41 
  11   0   0   20.36    0.42 
  11   0   1    0.02    0.08 
  11   0   1   -0.11    0.08 
  11   0   1    0.04    0.06 
 -11   0  -1   -0.05    0.07 
  11   0   2    0.47    0.10 
 -11   0  -2    0.31    0.08 
  11   0   2    0.34    0.09 
  11   0   3   -0.02    0.08 
  11   0   3   -0.10    0.09 
 -11   0  -3    0.05    0.07 
  11   0   4   17.85    0.42 
  11   0   4   18.64    0.41 
  11   0   5   -0.09    0.11 
  11   0   5   -0.01    0.09 
  11   0   6    9.75    0.30 
  11   0   6    9.83    0.30 
  11   0   7   -0.03    0.11 
  11   0   7   -0.09    0.10 
  11   0   8    8.08    0.30 
  11   0   8    8.41    0.30 
  11   0   9   -0.16    0.13 
  11   0   9    0.04    0.12 
  11   0  10    0.19    0.15 
  11   0  10    0.12    0.13 
  11   0  11   -0.01    0.14 
  11   0  11   -0.06    0.15 
  11   0  12    2.88    0.23 
  11   0  12    2.84    0.24 
  11   0  13    0.34    0.18 
  11   0  14    1.15    0.21 
  11  -1 -14    0.09    0.17 
 -11   1  13    2.73    0.21 
  11  -1 -13    2.37    0.23 
 -11   1  12    0.02    0.13 
  11  -1 -12    0.01    0.15 
 -11   1  11   11.42    0.35 
  11  -1 -11   12.08    0.39 
 -11   1  10   -0.05    0.11 
  11  -1 -10    0.06    0.12 
 -11  -1  10    0.12    0.10 
  11   1  -9    0.45    0.12 
 -11   1   9    0.62    0.12 
 -11  -1   9    0.43    0.09 
  11  -1  -9    0.52    0.13 
 -11   1   8    1.07    0.12 
  11   1  -8    1.14    0.13 
  11  -1  -8    1.22    0.15 
 -11  -1   8    1.02    0.10 
 -11   1   7    8.82    0.27 
  11   1  -7    8.97    0.26 
  11   1  -7    9.12    0.28 
  11  -1  -7    9.21    0.30 
 -11  -1   7    9.24    0.24 
  11   1  -6    0.42    0.09 
 -11   1   6    0.53    0.10 
  11   1  -6    0.41    0.10 
 -11  -1   6    0.48    0.08 
  11  -1  -6    0.54    0.12 
 -11   1   5   12.92    0.32 
  11   1  -5   13.12    0.31 
  11   1  -5   12.53    0.32 
 -11  -1   5   13.07    0.29 
  11  -1  -5   12.78    0.34 
 -11   1   4    1.77    0.13 
  11   1  -4    1.77    0.13 
  11   1  -4    1.91    0.13 
 -11  -1   4    1.81    0.11 
  11  -1  -4    1.71    0.14 
  11   1  -3   46.37    0.84 
  11   1  -3   46.44    0.83 
 -11   1   3   46.00    0.84 
 -11  -1   3   47.00    0.81 
  11  -1  -3   46.30    0.86 
 -11   1   2    0.43    0.09 
  11   1  -2    0.48    0.08 
  11   1  -2    0.61    0.09 
  11  -1  -2    0.42    0.10 
 -11  -1   2    0.52    0.07 
 -11   1   1    0.21    0.08 
  11   1  -1    0.09    0.08 
  11   1  -1    0.22    0.06 
 -11  -1   1    0.18    0.06 
  11  -1  -1    0.21    0.10 
 -11   1   0    0.81    0.10 
  11   1   0    1.20    0.11 
  11   1   0    0.85    0.08 
  11  -1   0    1.13    0.12 
 -11  -1   0    0.97    0.08 
  11   1   1   15.98    0.36 
 -11   1  -1   16.33    0.37 
  11   1   1   15.87    0.38 
  11   1   1   16.67    0.35 
  11  -1   1   15.83    0.35 
  11  -1   1   16.38    0.38 
 -11  -1  -1   16.59    0.34 
  11   1   2    0.12    0.07 
 -11   1  -2    0.09    0.09 
  11   1   2   -0.03    0.09 
  11   1   2    0.14    0.08 
  11  -1   2    0.12    0.09 
  11  -1   2    0.10    0.08 
  11   1   3   19.17    0.42 
 -11   1  -3   19.46    0.43 
  11   1   3   19.44    0.44 
  11   1   3   19.11    0.41 
  11  -1   3   19.18    0.41 
  11  -1   3   19.42    0.43 
  11   1   4    0.23    0.10 
  11   1   4    0.47    0.10 
  11   1   4    0.57    0.11 
 -11   1  -4    0.42    0.10 
  11  -1   4    0.38    0.10 
  11  -1   4    0.54    0.10 
  11   1   5    1.09    0.13 
 -11   1  -5    1.24    0.13 
  11  -1   5    1.08    0.11 
  11  -1   5    1.09    0.13 
  11   1   6    0.69    0.11 
  11   1   6    0.64    0.12 
  11  -1   6    0.68    0.11 
  11  -1   6    0.96    0.14 
  11   1   7    3.74    0.23 
  11   1   7    4.03    0.23 
  11  -1   7    3.96    0.21 
  11  -1   7    3.91    0.23 
  11   1   8    2.80    0.20 
  11   1   8    2.83    0.21 
  11  -1   8    2.07    0.17 
  11  -1   8    2.88    0.22 
  11   1   9    2.66    0.20 
  11   1   9    2.32    0.18 
  11  -1   9    2.74    0.19 
  11  -1   9    2.90    0.20 
  11   1  10    0.13    0.14 
  11   1  10    0.04    0.13 
  11  -1  10    0.27    0.14 
  11  -1  10    0.08    0.13 
  11   1  11    0.15    0.17 
  11   1  11    0.14    0.14 
  11  -1  11    0.09    0.15 
  11  -1  11   -0.06    0.13 
  11   1  12    0.67    0.18 
  11   1  12    0.45    0.17 
  11  -1  12    0.32    0.17 
  11   1  13   -0.14    0.16 
  11   1  13    0.30    0.18 
  11  -1  13    0.40    0.17 
  11   1  14    0.03    0.19 
  11  -1  14   -0.01    0.18 
 -11   2  14    3.95    0.30 
  11  -2 -14    3.84    0.28 
 -11   2  13    0.14    0.15 
  11  -2 -13    0.14    0.16 
 -11   2  12    1.68    0.19 
  11  -2 -12    1.53    0.20 
 -11   2  11    0.73    0.15 
  11  -2 -11    0.42    0.16 
 -11   2  10    3.22    0.23 
  11  -2 -10    3.40    0.26 
 -11   2   9    0.12    0.12 
  11  -2  -9    0.01    0.13 
 -11   2   8   11.84    0.34 
  11   2  -8   10.99    0.31 
  11  -2  -8   11.27    0.36 
 -11   2   7    0.93    0.13 
  11   2  -7    0.82    0.11 
  11  -2  -7    0.92    0.14 
 -11   2   6    9.64    0.29 
  11   2  -6    9.38    0.27 
  11   2  -6    8.95    0.25 
  11  -2  -6    9.30    0.30 
  11   2  -5    2.65    0.16 
 -11   2   5    2.60    0.18 
  11   2  -5    2.29    0.14 
 -11  -2   5    2.43    0.10 
  11  -2  -5    2.71    0.20 
  11   2  -4    3.20    0.14 
 -11   2   4    3.16    0.18 
  11   2  -4    3.08    0.16 
 -11  -2   4    3.21    0.11 
  11  -2  -4    3.15    0.19 
  11   2  -3    0.36    0.07 
 -11   2   3    0.46    0.10 
  11   2  -3    0.59    0.09 
 -11  -2   3    0.43    0.05 
  11  -2  -3    0.31    0.11 
  11   2  -2   27.76    0.52 
  11   2  -2   26.95    0.53 
 -11   2   2   27.41    0.56 
  11  -2  -2   28.23    0.57 
  11   2  -1    2.99    0.15 
  11   2  -1    2.83    0.13 
 -11   2   1    2.95    0.18 
  11  -2  -1    2.83    0.18 
  11   2   0   34.58    0.64 
 -11   2   0   34.03    0.67 
  11   2   0   34.73    0.63 
  11  -2   0   34.45    0.67 
  11   2   1    0.30    0.08 
 -11   2  -1    0.32    0.10 
  11   2   1    0.52    0.12 
  11   2   1    0.49    0.08 
  11  -2   1    0.40    0.08 
  11  -2   1    0.50    0.11 
  11   2   2    3.72    0.15 
  11   2   2    3.97    0.21 
  11   2   2    3.61    0.17 
 -11   2  -2    4.07    0.19 
  11  -2   2    3.65    0.20 
  11  -2   2    3.80    0.15 
  11   2   3    1.51    0.12 
  11   2   3    1.54    0.11 
 -11   2  -3    1.48    0.14 
  11   2   3    1.09    0.13 
  11  -2   3    1.19    0.10 
  11  -2   3    1.00    0.12 
  11   2   4    4.68    0.18 
 -11   2  -4    5.10    0.22 
  11   2   4    4.56    0.23 
  11   2   4    4.58    0.20 
  11  -2   4    4.33    0.18 
  11  -2   4    4.86    0.23 
 -11   2  -5    1.36    0.13 
  11   2   5    1.36    0.12 
  11   2   5    1.19    0.12 
  11   2   5    1.29    0.14 
  11  -2   5    1.43    0.12 
  11  -2   5    1.51    0.15 
 -11   2  -6    8.98    0.30 
  11   2   6    8.63    0.31 
  11   2   6    8.65    0.28 
  11  -2   6    8.82    0.27 
  11  -2   6    9.21    0.30 
  11   2   7    0.13    0.10 
  11   2   7    0.09    0.12 
 -11   2  -7    0.21    0.12 
  11  -2   7    0.17    0.11 
  11  -2   7   -0.04    0.11 
  11   2   8    2.07    0.16 
  11  -2   8    3.01    0.21 
  11  -2   8    2.79    0.19 
  11   2   9    0.47    0.15 
  11   2   9    0.30    0.13 
  11  -2   9    0.13    0.14 
  11  -2   9    0.23    0.13 
  11   2  10    0.25    0.14 
  11   2  10    0.52    0.17 
  11  -2  10    0.12    0.13 
  11  -2  10    0.28    0.14 
  11   2  11    0.26    0.16 
  11   2  11    0.13    0.16 
  11  -2  11    0.21    0.15 
  11   2  12    0.18    0.16 
  11   2  12    0.41    0.17 
  11  -2  12    0.13    0.17 
  11   2  13   -0.03    0.17 
  11   2  13   -0.13    0.16 
  11  -2  13   -0.17    0.16 
 -11   3  13    0.45    0.17 
  11  -3 -13    0.26    0.19 
 -11   3  12   -0.06    0.15 
  11  -3 -12    0.01    0.16 
 -11   3  11    1.48    0.17 
  11  -3 -11    1.39    0.18 
 -11   3  10   -0.15    0.13 
  11  -3 -10    0.12    0.15 
 -11   3   9    1.29    0.17 
  11  -3  -9    1.18    0.17 
 -11   3   8    0.46    0.14 
  11  -3  -8    0.51    0.14 
  11   3  -7    0.21    0.09 
 -11   3   7    0.00    0.11 
  11  -3  -7    0.32    0.14 
 -11   3   6    1.00    0.14 
  11   3  -6    0.89    0.10 
  11  -3  -6    1.01    0.14 
  11   3  -5    5.89    0.20 
 -11   3   5    6.23    0.25 
  11   3  -5    6.09    0.19 
  11  -3  -5    6.03    0.26 
 -11   3   4    1.53    0.15 
  11   3  -4    1.00    0.08 
  11   3  -4    1.02    0.10 
  11  -3  -4    1.01    0.13 
 -11   3   3    0.18    0.10 
  11   3  -3    0.17    0.06 
  11   3  -3    0.21    0.07 
  11  -3  -3    0.26    0.11 
 -11   3   2    0.48    0.11 
  11   3  -2    0.71    0.07 
  11   3  -2    0.64    0.08 
  11  -3  -2    0.56    0.12 
  11   3  -1    0.09    0.07 
 -11   3   1   -0.01    0.10 
  11   3  -1    0.06    0.05 
  11  -3  -1    0.15    0.10 
  11   3   0    2.23    0.12 
 -11   3   0    2.46    0.16 
  11   3   0    2.33    0.14 
  11  -3   0    1.98    0.12 
  11  -3   0    2.68    0.19 
  11   3   1    4.77    0.16 
  11   3   1    5.00    0.18 
  11   3   1    4.84    0.22 
 -11   3  -1    5.12    0.23 
  11  -3   1    4.94    0.23 
  11  -3   1    4.59    0.16 
  11   3   2    0.04    0.06 
  11   3   2    0.15    0.11 
  11   3   2    0.03    0.08 
 -11   3  -2    0.02    0.10 
  11  -3   2    0.04    0.11 
  11  -3   2    0.10    0.07 
 -11   3  -3    5.16    0.23 
  11   3   3    5.04    0.18 
  11   3   3    5.08    0.23 
  11   3   3    5.40    0.20 
  11  -3   3    5.39    0.18 
  11  -3   3    5.16    0.24 
  11   3   4    0.11    0.09 
  11   3   4    0.12    0.07 
 -11   3  -4    0.18    0.11 
  11   3   4    0.00    0.11 
  11  -3   4    0.13    0.11 
  11  -3   4    0.16    0.07 
 -11   3  -5    1.03    0.14 
  11   3   5    1.21    0.16 
  11   3   5    1.05    0.12 
  11   3   5    1.03    0.11 
  11  -3   5    1.17    0.15 
  11  -3   5    0.95    0.10 
  11   3   6    0.12    0.13 
 -11   3  -6    0.12    0.12 
  11   3   6    0.01    0.10 
  11  -3   6    0.01    0.12 
  11  -3   6   -0.02    0.08 
 -11   3  -7    1.19    0.15 
  11   3   7    1.65    0.18 
  11   3   7    1.10    0.14 
  11  -3   7    1.31    0.13 
  11  -3   7    1.26    0.15 
  11   3   8    0.14    0.12 
  11   3   8    0.42    0.16 
 -11   3  -8    0.31    0.14 
  11  -3   8    0.27    0.13 
  11  -3   8    0.33    0.11 
  11   3   9   -0.03    0.12 
  11   3   9    0.00    0.15 
  11  -3   9   -0.10    0.14 
  11   3  10    0.15    0.15 
  11   3  10    0.19    0.15 
  11  -3  10    0.17    0.14 
  11   3  11    0.71    0.17 
  11   3  11    0.84    0.19 
  11  -3  11    0.84    0.17 
  11   3  12   -0.33    0.17 
  11   3  12    0.15    0.15 
  11  -3  12   -0.02    0.16 
  11   3  13   -0.01    0.20 
  11   3  13   -0.04    0.17 
  11  -3  13    0.17    0.17 
 -11   4  13    0.21    0.18 
  11  -4 -13    0.31    0.19 
 -11   4  12   -0.10    0.16 
  11  -4 -12    0.01    0.18 
 -11   4  11   -0.06    0.15 
  11  -4 -11    0.01    0.17 
 -11   4  10    0.53    0.16 
  11  -4 -10    0.62    0.18 
 -11   4   9    3.32    0.23 
  11  -4  -9    3.51    0.24 
 -11   4   8    5.43    0.29 
  11  -4  -8    5.60    0.29 
 -11   4   7    1.53    0.17 
  11   4  -7    1.59    0.12 
  11  -4  -7    1.88    0.18 
  11   4  -6    2.39    0.15 
 -11   4   6    2.17    0.17 
  11  -4  -6    2.58    0.20 
  11   4  -5    1.54    0.11 
 -11   4   5    1.64    0.16 
  11  -4  -5    1.77    0.17 
 -11   4   4    0.59    0.13 
  11   4  -4    0.49    0.08 
  11  -4  -4    0.60    0.13 
 -11   4   3    1.60    0.15 
  11   4  -3    1.94    0.11 
  11   4  -3    1.99    0.12 
  11  -4  -3    1.89    0.16 
 -11   4   2    3.01    0.19 
  11   4  -2    2.52    0.12 
  11   4  -2    2.95    0.14 
  11  -4  -2    2.90    0.21 
 -11   4   1    5.34    0.24 
  11   4  -1    5.43    0.16 
  11   4  -1    5.70    0.17 
  11  -4  -1    5.16    0.16 
  11  -4  -1    5.17    0.24 
  11   4   0    2.27    0.18 
  11   4   0    2.28    0.12 
 -11   4   0    1.81    0.15 
  11   4   0    2.16    0.13 
  11  -4   0    2.26    0.16 
  11  -4   0    1.92    0.11 
  11   4   1   10.20    0.24 
  11   4   1   10.12    0.25 
  11   4   1   10.36    0.32 
 -11   4  -1   10.58    0.32 
  11  -4   1   10.01    0.23 
  11  -4   1   10.31    0.32 
  11   4   2    0.94    0.10 
  11   4   2    0.91    0.15 
  11   4   2    0.91    0.10 
 -11   4  -2    1.07    0.15 
  11  -4   2    0.90    0.08 
  11  -4   2    1.04    0.14 
  11   4   3    1.27    0.16 
 -11   4  -3    1.85    0.17 
  11   4   3    1.56    0.12 
  11  -4   3    1.46    0.09 
  11  -4   3    1.62    0.16 
  11   4   4    1.12    0.16 
  11   4   4    1.52    0.12 
 -11   4  -4    1.72    0.17 
  11  -4   4    1.42    0.16 
  11  -4   4    1.39    0.10 
  11   4   5    1.99    0.14 
  11   4   5    1.65    0.17 
 -11   4  -5    1.86    0.17 
  11  -4   5    1.77    0.13 
  11  -4   5    1.97    0.17 
  11   4   6    0.41    0.16 
 -11   4  -6    0.60    0.14 
  11   4   6    0.42    0.11 
  11  -4   6    0.49    0.09 
  11  -4   6    0.42    0.14 
  11   4   7    1.31    0.15 
 -11   4  -7    1.25    0.17 
  11   4   7    1.25    0.17 
  11  -4   7    1.44    0.16 
  11   4   8    0.26    0.15 
 -11   4  -8    0.45    0.16 
  11   4   8    0.37    0.13 
  11  -4   8    0.51    0.15 
  11   4   9   -0.06    0.15 
  11   4   9    0.10    0.13 
 -11   4  -9   -0.20    0.16 
  11  -4   9    0.09    0.13 
  11   4  10    0.05    0.15 
  11   4  10   -0.14    0.17 
  11  -4  10    0.00    0.14 
  11   4  11    0.03    0.15 
  11   4  11    0.09    0.18 
  11  -4  11    0.17    0.15 
  11   4  12   -0.07    0.16 
  11   4  12    0.20    0.20 
  11  -4  12    0.11    0.15 
 -11   5  11    0.56    0.20 
  11  -5 -11    0.27    0.18 
 -11   5  10    1.92    0.22 
  11  -5 -10    1.69    0.22 
 -11   5   9    0.14    0.16 
  11  -5  -9    0.30    0.17 
 -11   5   8    0.35    0.15 
  11  -5  -8    0.61    0.17 
  11   5  -7    0.70    0.10 
 -11   5   7    0.60    0.16 
  11  -5  -7    0.74    0.16 
  11   5  -6    6.81    0.21 
 -11   5   6    7.10    0.32 
  11  -5  -6    7.05    0.31 
 -11   5   5    0.01    0.14 
  11   5  -5    0.07    0.07 
  11  -5  -5    0.01    0.13 
 -11   5   4    5.37    0.27 
  11   5  -4    5.02    0.16 
  11  -5  -4    5.29    0.27 
  11   5  -3    0.92    0.08 
 -11   5   3    0.82    0.14 
  11  -5  -3    0.94    0.14 
 -11   5   2    0.06    0.12 
  11   5  -2    0.06    0.06 
  11  -5  -2   -0.03    0.12 
  11  -5  -2    0.10    0.05 
 -11   5   1    0.04    0.13 
  11   5  -1    0.02    0.06 
  11  -5  -1    0.17    0.05 
  11  -5  -1    0.05    0.11 
  11   5   0    0.16    0.12 
 -11   5   0    0.24    0.14 
  11   5   0    0.23    0.07 
  11  -5   0    0.14    0.11 
  11  -5   0    0.22    0.05 
  11   5   1    0.77    0.15 
 -11   5  -1    0.52    0.14 
  11   5   1    0.84    0.09 
  11  -5   1    0.50    0.05 
  11  -5   1    0.78    0.14 
  11   5   2    3.55    0.25 
 -11   5  -2    3.50    0.25 
  11   5   2    3.11    0.16 
  11  -5   2    2.92    0.10 
  11  -5   2    3.46    0.23 
 -11   5  -3    2.38    0.20 
  11   5   3    2.05    0.15 
  11   5   3    1.71    0.18 
  11  -5   3    2.40    0.18 
  11   5   4    0.00    0.15 
 -11   5  -4    0.11    0.13 
  11   5   4   -0.04    0.08 
  11  -5   4    0.22    0.13 
  11   5   5    0.03    0.15 
 -11   5  -5    0.14    0.14 
  11   5   5    0.11    0.10 
  11  -5   5    0.15    0.12 
  11   5   6    0.18    0.11 
 -11   5  -6    0.23    0.14 
  11   5   6    0.19    0.17 
  11  -5   6    0.41    0.14 
  11   5   7    0.14    0.17 
  11   5   7    0.17    0.12 
 -11   5  -7   -0.14    0.15 
  11  -5   7    0.16    0.13 
  11   5   8    0.00    0.17 
  11   5   8    0.20    0.13 
 -11   5  -8    0.30    0.17 
  11  -5   8    0.18    0.13 
  11   5   9    0.00    0.14 
  11   5   9   -0.08    0.17 
 -11   5  -9   -0.07    0.17 
  11  -5   9    0.13    0.14 
  11   5  10    0.44    0.17 
  11   5  10    0.60    0.16 
  11  -5  10    0.70    0.16 
  11   5  11    0.09    0.16 
  11   5  11    0.05    0.18 
  11  -5  11   -0.03    0.18 
 -11   6  10    0.03    0.19 
  11  -6 -10   -0.10    0.17 
 -11   6   9    4.75    0.30 
  11  -6  -9    3.95    0.31 
 -11   6   8    0.12    0.16 
  11  -6  -8   -0.11    0.15 
  11   6  -7    9.15    0.24 
 -11   6   7    9.41    0.39 
  11  -6  -7    9.23    0.37 
 -11   6   6    0.26    0.16 
  11   6  -6    0.35    0.08 
  11  -6  -6    0.27    0.15 
 -11   6   5    1.14    0.18 
  11   6  -5    1.50    0.11 
  11  -6  -5    1.57    0.18 
 -11   6   4   -0.18    0.15 
  11   6  -4    0.04    0.06 
  11  -6  -4   -0.07    0.12 
 -11   6   3    1.55    0.19 
  11   6  -3    1.49    0.10 
  11  -6  -3    1.53    0.17 
  11   6  -2    0.58    0.07 
 -11   6   2    0.64    0.15 
  11  -6  -2    0.75    0.15 
  11   6  -1   10.18    0.36 
 -11   6   1    9.39    0.35 
  11   6  -1    9.90    0.22 
  11  -6  -1    8.94    0.33 
  11   6   0    0.72    0.17 
 -11   6   0    0.93    0.17 
  11   6   0    0.98    0.08 
  11  -6   0    0.73    0.14 
 -11   6  -1    1.20    0.17 
  11   6   1    1.20    0.19 
  11   6   1    1.35    0.10 
  11  -6   1    1.21    0.16 
  11   6   2    0.43    0.16 
  11   6   2    0.38    0.09 
 -11   6  -2    0.59    0.15 
  11  -6   2    0.55    0.14 
  11   6   3    0.47    0.17 
 -11   6  -3    1.05    0.18 
  11   6   3    0.90    0.10 
  11  -6   3    0.96    0.15 
  11   6   4   -0.05    0.15 
 -11   6  -4    0.24    0.15 
  11   6   4    0.10    0.09 
  11  -6   4    0.15    0.13 
  11   6   5    4.79    0.23 
  11   6   5    4.35    0.30 
 -11   6  -5    5.26    0.31 
  11  -6   5    5.22    0.27 
 -11   6  -6    0.02    0.15 
  11   6   6   -0.04    0.17 
  11   6   6    0.20    0.12 
  11  -6   6    0.02    0.13 
  11   6   7    2.13    0.18 
 -11   6  -7    2.39    0.22 
  11   6   7    2.22    0.23 
  11  -6   7    2.14    0.19 
  11   6   8    0.41    0.19 
  11   6   8    0.55    0.15 
 -11   6  -8    0.22    0.17 
  11   6   9    0.10    0.14 
 -11   6  -9   -0.01    0.17 
  11   6   9    0.14    0.18 
  11   7  -7   -0.06    0.07 
 -11   7   7   -0.07    0.16 
  11  -7  -7   -0.05    0.15 
  11   7  -6    2.77    0.15 
 -11   7   6    3.03    0.25 
  11  -7  -6    3.27    0.24 
 -11   7   5    0.03    0.16 
  11  -7  -5    0.13    0.14 
 -11   7   4    7.78    0.36 
  11  -7  -4    7.21    0.33 
 -11   7   3    0.36    0.17 
  11   7  -3    0.23    0.06 
  11  -7  -3    0.22    0.14 
 -11   7   2    3.25    0.25 
  11   7  -2    2.51    0.22 
  11   7  -2    2.44    0.10 
  11  -7  -2    1.93    0.19 
  11   7  -1    0.04    0.06 
 -11   7   1   -0.07    0.15 
  11   7  -1    0.03    0.15 
  11  -7  -1   -0.07    0.12 
 -11   7   0    0.83    0.18 
  11   7   0    0.83    0.08 
  11   7   0    0.78    0.18 
  11  -7   0    0.82    0.15 
  11   7   1    0.27    0.07 
  11   7   1    0.08    0.16 
 -11   7  -1    0.22    0.17 
  11  -7   1    0.14    0.14 
 -11   7  -2    4.32    0.31 
  11   7   2    4.10    0.17 
  11   7   2    4.04    0.29 
  11  -7   2    4.11    0.30 
 -11   7  -3    0.52    0.17 
  11   7   3    0.72    0.11 
  11   7   3    0.67    0.19 
  11   7   4    1.19    0.13 
 -11   7  -4    1.94    0.21 
  11   7   4    1.56    0.20 
  11   7   5    0.37    0.19 
 -11   7  -5    0.36    0.18 
  11   7   5    0.29    0.11 
  11   7   6    0.08    0.18 
 -11   7  -6    0.25    0.18 
  11   7   6    0.14    0.12 
  11   7   7    0.03    0.18 
  11   7   7    0.17    0.13 
 -11   7  -7   -0.09    0.18 
  11   8  -3    2.44    0.23 
 -11   8   3    2.11    0.23 
  11   8  -2    0.19    0.17 
 -11   8   2    0.05    0.17 
  11   8  -1    4.26    0.31 
 -11   8   1    3.76    0.27 
  11   8   0    0.17    0.18 
 -11   8   0   -0.04    0.17 
  11   8   1    0.99    0.09 
  11   8   1    0.70    0.19 
 -11   8  -1    0.71    0.19 
  11   8   2   -0.08    0.17 
  11   8   2    0.10    0.08 
 -11   8  -2   -0.01    0.17 
  12   0 -14    0.27    0.18 
  12   0 -13    0.06    0.17 
  12   0 -12    2.07    0.21 
  12   0 -11    0.08    0.14 
  12   0 -10    1.44    0.16 
 -12   0  10    1.94    0.15 
  12   0  -9    0.10    0.12 
 -12   0   9   -0.01    0.09 
  12   0  -8    4.08    0.23 
 -12   0   8    3.86    0.19 
  12   0  -7   -0.16    0.10 
 -12   0   7   -0.02    0.08 
  12   0  -6    1.29    0.14 
 -12   0   6    1.29    0.11 
 -12   0   5   -0.08    0.08 
  12   0  -5   -0.12    0.09 
 -12   0   4    0.06    0.08 
  12   0  -4    0.09    0.10 
  12   0  -3   -0.02    0.09 
 -12   0   3   -0.14    0.07 
 -12   0   2   11.10    0.28 
  12   0  -2   10.93    0.30 
 -12   0   1    0.10    0.07 
  12   0  -1    0.07    0.09 
 -12   0   0   11.27    0.28 
  12   0   0   11.25    0.30 
  12   0   1   -0.12    0.09 
  12   0   1   -0.03    0.09 
 -12   0  -1   -0.04    0.07 
 -12   0  -2    1.59    0.12 
  12   0   2    1.64    0.14 
  12   0   2    1.27    0.12 
  12   0   3   -0.05    0.10 
 -12   0  -3   -0.05    0.08 
  12   0   3   -0.04    0.09 
  12   0   4    1.12    0.13 
  12   0   4    1.28    0.14 
  12   0   5    0.02    0.10 
  12   0   5    0.01    0.11 
  12   0   6    2.20    0.18 
  12   0   6    1.49    0.15 
  12   0   7   -0.04    0.11 
  12   0   7    0.02    0.12 
  12   0   8   -0.03    0.13 
  12   0   8   -0.09    0.12 
  12   0   9    0.01    0.14 
  12   0   9    0.08    0.12 
  12   0  10    1.10    0.17 
  12   0  10    1.02    0.17 
  12   0  11    0.09    0.16 
  12   0  11   -0.02    0.14 
  12   0  12    0.20    0.17 
  12   0  12   -0.05    0.17 
  12   0  13    0.10    0.18 
  12   0  13   -0.09    0.18 
  12  -1 -14    0.90    0.21 
  12  -1 -13    2.49    0.24 
 -12   1  12    0.78    0.16 
  12   1 -12    0.53    0.16 
  12  -1 -12    0.68    0.18 
  12   1 -11    1.66    0.17 
 -12   1  11    1.92    0.18 
  12  -1 -11    2.04    0.21 
 -12   1  10    0.57    0.13 
  12   1 -10    0.57    0.14 
  12  -1 -10    0.68    0.15 
  12   1  -9    0.09    0.11 
 -12   1   9    0.15    0.11 
  12  -1  -9    0.21    0.14 
  12   1  -8    0.59    0.13 
 -12   1   8    0.46    0.11 
  12  -1  -8    0.30    0.13 
 -12  -1   8    0.41    0.08 
  12   1  -7    4.31    0.22 
 -12   1   7    4.15    0.21 
  12  -1  -7    4.51    0.24 
 -12  -1   7    4.47    0.18 
  12   1  -6    0.31    0.10 
  12   1  -6    0.27    0.09 
 -12   1   6    0.24    0.09 
 -12  -1   6    0.36    0.08 
  12  -1  -6    0.24    0.12 
  12   1  -5   26.77    0.54 
 -12   1   5   26.66    0.55 
  12   1  -5   26.73    0.55 
 -12  -1   5   26.97    0.51 
  12  -1  -5   26.48    0.57 
 -12   1   4   20.59    0.45 
  12   1  -4   20.29    0.43 
  12   1  -4   20.18    0.45 
 -12  -1   4   20.69    0.41 
  12  -1  -4   21.01    0.47 
  12   1  -3    3.81    0.17 
  12   1  -3    3.82    0.19 
 -12   1   3    3.86    0.19 
  12  -1  -3    4.15    0.21 
 -12  -1   3    3.84    0.15 
  12   1  -2    1.30    0.10 
  12   1  -2    1.24    0.12 
 -12   1   2    1.13    0.11 
  12  -1  -2    1.18    0.13 
 -12  -1   2    1.17    0.09 
  12   1  -1   13.07    0.31 
  12   1  -1   12.98    0.32 
 -12   1   1   13.36    0.33 
 -12  -1   1   13.31    0.30 
  12  -1  -1   13.14    0.34 
  12   1   0    6.61    0.21 
  12   1   0    6.74    0.23 
 -12   1   0    6.74    0.23 
 -12  -1   0    6.68    0.20 
  12  -1   0    6.90    0.25 
  12   1   1    4.51    0.21 
 -12   1  -1    4.63    0.20 
  12   1   1    4.46    0.18 
  12   1   1    4.54    0.20 
  12  -1   1    4.40    0.19 
  12  -1   1    4.68    0.22 
 -12  -1  -1    4.46    0.17 
 -12   1  -2    0.01    0.09 
  12   1   2    0.01    0.09 
  12   1   2   -0.10    0.10 
  12   1   2   -0.04    0.07 
  12  -1   2    0.07    0.10 
  12  -1   2   -0.02    0.09 
  12   1   3    1.58    0.13 
  12   1   3    1.54    0.14 
 -12   1  -3    1.45    0.13 
  12  -1   3    1.43    0.14 
  12  -1   3    1.72    0.13 
  12   1   4    1.78    0.15 
  12   1   4    1.82    0.16 
 -12   1  -4    1.32    0.13 
  12  -1   4    1.75    0.16 
  12  -1   4    1.53    0.13 
  12   1   5    0.93    0.14 
  12   1   5    0.71    0.13 
 -12   1  -5    0.87    0.13 
  12  -1   5    0.76    0.12 
  12  -1   5    0.61    0.13 
  12   1   6    0.88    0.14 
  12   1   6    0.83    0.13 
  12  -1   6    0.73    0.13 
  12  -1   6    0.78    0.12 
  12   1   7   -0.05    0.13 
  12   1   7    0.12    0.12 
  12  -1   7    0.33    0.14 
  12  -1   7    0.02    0.11 
  12   1   8    0.06    0.13 
  12   1   8    0.33    0.13 
  12  -1   8    0.12    0.13 
  12  -1   8    0.10    0.13 
  12   1   9    1.56    0.19 
  12   1   9    1.57    0.17 
  12  -1   9    1.56    0.18 
  12  -1   9    1.59    0.17 
  12   1  10    0.22    0.15 
  12   1  10    0.02    0.16 
  12  -1  10    0.15    0.15 
  12  -1  10    0.01    0.15 
  12   1  11    0.21    0.18 
  12   1  11    0.39    0.15 
  12  -1  11    0.45    0.17 
  12  -1  11    0.34    0.16 
  12   1  12    0.17    0.19 
  12   1  12    0.07    0.17 
  12  -1  12    0.13    0.16 
  12   1  13    0.35    0.21 
  12   1  13    0.11    0.18 
  12  -1  13    0.19    0.17 
 -12   2  13   -0.16    0.15 
  12  -2 -13    0.00    0.17 
 -12   2  12    0.92    0.17 
  12  -2 -12    1.35    0.21 
 -12   2  11    2.53    0.20 
  12  -2 -11    2.85    0.24 
 -12   2  10    8.12    0.32 
  12   2 -10    8.23    0.31 
  12  -2 -10    8.79    0.35 
  12   2  -9    1.34    0.15 
 -12   2   9    1.20    0.15 
  12  -2  -9    1.22    0.17 
 -12   2   8    4.34    0.24 
  12   2  -8    4.24    0.22 
  12  -2  -8    4.27    0.26 
 -12   2   7    0.10    0.11 
  12   2  -7    0.09    0.10 
  12  -2  -7    0.09    0.12 
  12   2  -6    0.09    0.09 
 -12   2   6    0.27    0.11 
  12  -2  -6    0.21    0.13 
 -12  -2   6    0.16    0.05 
  12   2  -5    6.88    0.25 
 -12   2   5    6.86    0.25 
  12   2  -5    6.70    0.23 
  12  -2  -5    6.90    0.27 
 -12  -2   5    6.72    0.17 
 -12   2   4    3.28    0.19 
  12   2  -4    3.32    0.15 
  12   2  -4    3.43    0.18 
 -12  -2   4    3.15    0.11 
  12  -2  -4    3.12    0.21 
  12   2  -3    6.85    0.21 
  12   2  -3    6.98    0.22 
 -12   2   3    7.18    0.25 
 -12  -2   3    5.72    0.16 
  12  -2  -3    7.74    0.27 
 -12   2   2    2.55    0.18 
  12   2  -2    2.41    0.16 
  12   2  -2    2.47    0.14 
  12  -2  -2    2.72    0.20 
  12   2  -1    1.16    0.11 
 -12   2   1    0.87    0.11 
  12   2  -1    1.18    0.10 
  12  -2  -1    1.41    0.14 
  12   2   0    1.21    0.10 
 -12   2   0    0.71    0.11 
  12   2   0    1.02    0.11 
  12  -2   0    1.13    0.11 
  12  -2   0    0.99    0.13 
 -12   2  -1    5.07    0.22 
  12   2   1    4.85    0.18 
  12   2   1    4.93    0.23 
  12   2   1    4.93    0.20 
  12  -2   1    4.81    0.18 
  12  -2   1    5.15    0.23 
 -12   2  -2    0.89    0.12 
  12   2   2    1.24    0.15 
  12   2   2    1.24    0.11 
  12   2   2    1.02    0.11 
  12  -2   2    1.19    0.13 
  12  -2   2    1.06    0.11 
 -12   2  -3    3.17    0.20 
  12   2   3    2.92    0.19 
  12   2   3    3.03    0.19 
  12   2   3    2.79    0.16 
  12  -2   3    2.86    0.16 
  12  -2   3    3.07    0.21 
  12   2   4    2.84    0.17 
  12   2   4    2.65    0.19 
 -12   2  -4    2.88    0.21 
  12   2   4    2.85    0.20 
  12  -2   4    2.53    0.17 
  12  -2   4    2.87    0.19 
 -12   2  -5    0.00    0.11 
  12   2   5   -0.13    0.11 
  12   2   5   -0.10    0.10 
  12  -2   5    0.04    0.09 
  12  -2   5   -0.04    0.13 
  12   2   6    1.09    0.17 
 -12   2  -6    1.03    0.15 
  12   2   6    0.93    0.13 
  12  -2   6    0.95    0.14 
  12  -2   6    1.01    0.13 
  12   2   7    0.65    0.16 
  12   2   7    0.29    0.12 
 -12   2  -7    0.62    0.15 
  12  -2   7    0.62    0.15 
  12  -2   7    0.63    0.12 
  12   2   8    0.26    0.12 
  12   2   8    0.27    0.14 
  12  -2   8    0.28    0.13 
  12  -2   8    0.44    0.15 
  12   2   9    0.96    0.18 
  12   2   9    1.49    0.17 
  12  -2   9    1.10    0.16 
  12  -2   9    1.31    0.16 
  12   2  10    0.65    0.15 
  12   2  10    0.54    0.18 
  12  -2  10    0.49    0.16 
  12  -2  10    0.57    0.16 
  12   2  11    0.09    0.16 
  12   2  11    0.24    0.18 
  12  -2  11    0.10    0.15 
  12   2  12    0.38    0.18 
  12   2  12    0.28    0.18 
  12  -2  12    0.31    0.18 
  12   2  13   -0.17    0.19 
  12   2  13   -0.13    0.16 
  12  -2  13    0.01    0.17 
 -12   3  13    2.91    0.24 
  12  -3 -13    2.73    0.26 
 -12   3  12    2.12    0.22 
  12  -3 -12    2.28    0.23 
 -12   3  11    2.66    0.22 
  12  -3 -11    2.47    0.23 
 -12   3  10    0.36    0.15 
  12  -3 -10    0.47    0.18 
 -12   3   9    0.81    0.16 
  12   3  -9    0.87    0.13 
  12  -3  -9    0.83    0.17 
  12   3  -8    9.68    0.29 
 -12   3   8    8.78    0.33 
  12  -3  -8    9.43    0.35 
 -12   3   7   15.92    0.42 
  12   3  -7   15.01    0.37 
  12  -3  -7   15.71    0.44 
  12   3  -6    9.38    0.27 
 -12   3   6    9.88    0.32 
  12  -3  -6    9.74    0.34 
 -12   3   5   13.53    0.37 
  12   3  -5   12.85    0.32 
  12  -3  -5   12.54    0.38 
 -12   3   4    0.02    0.11 
  12   3  -4    0.03    0.08 
  12  -3  -4    0.07    0.12 
 -12   3   3    2.26    0.17 
  12   3  -3    2.04    0.15 
  12   3  -3    2.05    0.14 
  12  -3  -3    2.07    0.16 
  12   3  -2    1.33    0.11 
 -12   3   2    1.10    0.13 
  12   3  -2    1.29    0.10 
  12  -3  -2    1.05    0.14 
  12   3  -1    4.12    0.17 
 -12   3   1    4.21    0.22 
  12   3  -1    4.15    0.16 
  12  -3  -1    4.53    0.23 
 -12   3   0   15.36    0.39 
  12   3   0   14.79    0.33 
  12   3   0   14.86    0.34 
  12  -3   0   14.35    0.32 
  12  -3   0   15.04    0.39 
  12   3   1   13.73    0.31 
  12   3   1   14.16    0.33 
  12   3   1   14.02    0.39 
 -12   3  -1   14.17    0.37 
  12  -3   1   13.00    0.31 
  12  -3   1   13.85    0.37 
  12   3   2    9.17    0.30 
  12   3   2    8.98    0.26 
  12   3   2    8.61    0.27 
 -12   3  -2    9.21    0.30 
  12  -3   2    8.67    0.30 
  12  -3   2    8.66    0.24 
  12   3   3    3.54    0.24 
 -12   3  -3    3.35    0.22 
  12   3   3    3.58    0.19 
  12  -3   3    3.28    0.23 
  12  -3   3    3.20    0.16 
 -12   3  -4    0.00    0.12 
  12   3   4   -0.14    0.12 
  12   3   4    0.01    0.09 
  12  -3   4   -0.07    0.11 
  12  -3   4   -0.02    0.08 
  12   3   5    0.29    0.13 
  12   3   5    0.29    0.10 
 -12   3  -5    0.34    0.13 
  12  -3   5    0.14    0.13 
  12  -3   5    0.23    0.09 
  12   3   6    1.31    0.14 
 -12   3  -6    0.96    0.15 
  12   3   6    1.19    0.17 
  12  -3   6    1.14    0.12 
  12  -3   6    1.25    0.16 
  12   3   7    6.35    0.27 
  12   3   7    6.49    0.32 
 -12   3  -7    6.07    0.30 
  12  -3   7    6.54    0.24 
  12  -3   7    6.69    0.30 
  12   3   8    1.75    0.16 
  12   3   8    2.74    0.23 
 -12   3  -8    2.18    0.19 
  12  -3   8    2.60    0.17 
  12  -3   8    2.67    0.21 
  12   3   9    0.44    0.18 
  12   3   9    0.48    0.14 
  12  -3   9    0.34    0.15 
  12   3  10    0.43    0.18 
  12   3  10    0.34    0.15 
  12  -3  10    0.72    0.17 
  12   3  11    0.04    0.15 
  12   3  11    0.10    0.19 
  12  -3  11   -0.02    0.15 
  12   3  12    0.22    0.17 
  12   3  12    0.00    0.20 
  12  -3  12    0.23    0.18 
 -12   4  12    0.05    0.17 
  12  -4 -12    0.13    0.18 
 -12   4  11    1.52    0.21 
  12  -4 -11    1.35    0.21 
 -12   4  10    4.81    0.31 
  12  -4 -10    5.25    0.33 
 -12   4   9    2.55    0.22 
  12   4  -9    2.37    0.16 
  12  -4  -9    2.59    0.22 
  12   4  -8    4.23    0.21 
 -12   4   8    4.00    0.27 
  12  -4  -8    4.41    0.29 
  12   4  -7    0.87    0.11 
 -12   4   7    0.64    0.15 
  12  -4  -7    0.60    0.16 
  12   4  -6    1.22    0.11 
 -12   4   6    0.78    0.14 
  12  -4  -6    0.67    0.15 
 -12   4   5    1.30    0.17 
  12   4  -5    1.21    0.11 
  12  -4  -5    1.25    0.17 
 -12   4   4    9.24    0.32 
  12   4  -4    8.99    0.24 
  12  -4  -4    9.84    0.33 
 -12   4   3    5.34    0.26 
  12   4  -3    5.50    0.19 
  12  -4  -3    5.49    0.27 
  12   4  -2    6.95    0.21 
 -12   4   2    6.95    0.28 
  12  -4  -2    6.70    0.28 
 -12   4   1    0.37    0.12 
  12   4  -1    0.56    0.09 
  12  -4  -1    0.54    0.14 
  12  -4  -1    0.50    0.07 
  12   4   0    1.18    0.16 
  12   4   0    1.02    0.10 
 -12   4   0    1.09    0.14 
  12  -4   0    1.13    0.09 
  12  -4   0    1.17    0.15 
  12   4   1    0.51    0.09 
  12   4   1    0.39    0.13 
 -12   4  -1    0.58    0.13 
  12  -4   1    0.95    0.14 
  12  -4   1    0.69    0.08 
  12   4   2    1.78    0.13 
  12   4   2    1.49    0.17 
 -12   4  -2    2.01    0.18 
  12  -4   2    1.99    0.12 
  12  -4   2    1.66    0.15 
  12   4   3    2.75    0.18 
  12   4   3    3.09    0.21 
 -12   4  -3    3.01    0.23 
  12  -4   3    3.31    0.23 
  12  -4   3    3.15    0.15 
  12   4   4    4.97    0.22 
  12   4   4    5.04    0.29 
 -12   4  -4    5.05    0.27 
  12  -4   4    5.10    0.27 
  12  -4   4    4.73    0.18 
  12   4   5    1.12    0.16 
  12   4   5    1.24    0.13 
 -12   4  -5    1.53    0.18 
  12  -4   5    1.06    0.15 
  12  -4   5    1.44    0.11 
  12   4   6    0.07    0.11 
  12   4   6    0.06    0.16 
 -12   4  -6    0.18    0.15 
  12  -4   6    0.04    0.13 
  12  -4   6    0.14    0.09 
  12   4   7    0.82    0.14 
  12   4   7    1.09    0.19 
 -12   4  -7    1.20    0.19 
  12  -4   7    1.05    0.16 
  12   4   8    4.68    0.27 
  12   4   8    4.69    0.32 
 -12   4  -8    5.51    0.31 
  12  -4   8    4.85    0.29 
  12   4   9    0.69    0.18 
  12   4   9    0.55    0.15 
  12  -4   9    0.80    0.17 
  12   4  10    0.89    0.21 
  12   4  10    0.93    0.17 
  12  -4  10    1.06    0.18 
  12   4  11    0.09    0.16 
  12   4  11    0.09    0.19 
  12  -4  11   -0.06    0.16 
 -12   5  10   -0.15    0.16 
  12  -5 -10   -0.13    0.17 
  12   5  -9    1.62    0.14 
 -12   5   9    1.42    0.20 
  12  -5  -9    1.42    0.20 
  12   5  -8    2.02    0.14 
 -12   5   8    1.74    0.19 
  12  -5  -8    1.81    0.20 
  12   5  -7    6.43    0.22 
 -12   5   7    6.51    0.33 
  12  -5  -7    6.59    0.33 
  12   5  -6    7.04    0.22 
 -12   5   6    7.45    0.33 
  12  -5  -6    7.44    0.34 
 -12   5   5    5.95    0.31 
  12   5  -5    5.62    0.19 
  12  -5  -5    5.51    0.29 
 -12   5   4    1.28    0.18 
  12   5  -4    1.13    0.10 
  12  -5  -4    1.33    0.17 
  12   5  -3    1.32    0.10 
 -12   5   3    1.57    0.17 
  12  -5  -3    1.17    0.16 
 -12   5   2   -0.11    0.13 
  12   5  -2    0.06    0.07 
  12  -5  -2    0.18    0.14 
  12  -5  -2    0.01    0.06 
 -12   5   1    6.98    0.30 
  12   5  -1    6.58    0.20 
  12  -5  -1    6.38    0.17 
  12  -5  -1    6.72    0.29 
  12   5   0    3.41    0.16 
  12   5   0    3.68    0.24 
 -12   5   0    3.57    0.26 
  12  -5   0    3.71    0.16 
  12  -5   0    3.63    0.24 
  12   5   1    3.00    0.16 
  12   5   1    3.54    0.27 
 -12   5  -1    3.00    0.21 
  12  -5   1    3.36    0.25 
  12   5   2    3.42    0.26 
  12   5   2    3.26    0.17 
 -12   5  -2    3.43    0.25 
  12  -5   2    3.59    0.25 
  12   5   3    0.51    0.10 
 -12   5  -3    0.44    0.15 
  12   5   3    0.26    0.14 
  12  -5   3    0.30    0.13 
  12   5   4    0.80    0.11 
  12   5   4    0.69    0.18 
 -12   5  -4    0.62    0.16 
  12  -5   4    0.69    0.15 
  12   5   5    2.17    0.16 
  12   5   5    2.20    0.22 
 -12   5  -5    1.90    0.19 
  12  -5   5    2.11    0.19 
  12   5   6    1.34    0.20 
 -12   5  -6    0.81    0.17 
  12   5   6    0.94    0.14 
  12  -5   6    1.48    0.18 
  12   5   7    0.25    0.13 
 -12   5  -7    0.24    0.16 
  12   5   7    0.30    0.18 
  12  -5   7    0.11    0.14 
 -12   5  -8    1.65    0.22 
  12   5   8    1.74    0.18 
  12   5   8    1.92    0.23 
  12  -5   8    1.87    0.20 
 -12   5  -9    0.72    0.19 
  12   5   9    0.87    0.16 
  12   5   9    0.52    0.19 
  12  -5   9    0.95    0.18 
  12   5  10   -0.36    0.18 
  12   5  10    0.04    0.15 
  12  -5  10   -0.02    0.16 
 -12   6   9    1.72    0.21 
  12   6  -9    2.12    0.15 
  12  -6  -9    1.78    0.22 
 -12   6   8    0.56    0.19 
  12   6  -8    0.65    0.11 
  12  -6  -8    0.72    0.18 
  12   6  -7    0.02    0.08 
 -12   6   7    0.06    0.17 
  12  -6  -7    0.03    0.16 
  12   6  -6    0.04    0.08 
 -12   6   6    0.22    0.16 
  12  -6  -6    0.14    0.15 
  12   6  -5    0.71    0.09 
 -12   6   5    0.71    0.18 
  12  -6  -5    0.79    0.17 
 -12   6   4    1.68    0.20 
  12   6  -4    2.00    0.12 
  12  -6  -4    2.06    0.20 
  12   6  -3    1.50    0.11 
 -12   6   3    1.48    0.19 
  12  -6  -3    1.66    0.19 
  12   6  -2    1.74    0.10 
 -12   6   2    1.63    0.19 
  12  -6  -2    1.76    0.18 
 -12   6   1    0.92    0.17 
  12   6  -1    0.72    0.09 
  12   6  -1    0.76    0.17 
  12  -6  -1    0.79    0.15 
  12   6   0    0.03    0.07 
  12   6   0    0.03    0.16 
 -12   6   0    0.04    0.14 
  12  -6   0    0.02    0.13 
  12   6   1    0.01    0.08 
 -12   6  -1    0.17    0.15 
  12   6   1    0.02    0.14 
  12  -6   1    0.16    0.13 
  12   6   2    0.72    0.18 
  12   6   2    0.70    0.10 
 -12   6  -2    0.85    0.17 
  12  -6   2    0.64    0.15 
 -12   6  -3    0.61    0.18 
  12   6   3    0.83    0.11 
  12   6   3    0.75    0.19 
  12  -6   3    0.94    0.16 
  12   6   4    1.16    0.13 
  12   6   4    1.13    0.20 
 -12   6  -4    1.24    0.19 
  12  -6   4    1.14    0.17 
  12   6   5   -0.02    0.16 
 -12   6  -5    0.28    0.16 
  12   6   5    0.21    0.11 
  12  -6   5    0.04    0.14 
 -12   6  -6    0.14    0.16 
  12   6   6    0.12    0.19 
  12   6   6    0.05    0.12 
  12  -6   6    0.17    0.14 
 -12   6  -7    0.03    0.17 
  12   6   7    0.05    0.13 
  12   6   7   -0.05    0.18 
  12  -6   7    0.05    0.14 
 -12   6  -8    0.35    0.19 
  12   6   8    0.29    0.14 
  12   6   8    0.16    0.18 
 -12   7   6    1.10    0.20 
  12  -7  -6    1.18    0.20 
 -12   7   5    0.09    0.18 
  12  -7  -5    0.29    0.16 
 -12   7   4    1.26    0.20 
  12  -7  -4    1.50    0.19 
  12   7  -3   -0.08    0.07 
 -12   7   3    0.06    0.18 
  12  -7  -3   -0.06    0.14 
  12   7  -2    0.22    0.16 
  12   7  -2    0.10    0.06 
 -12   7   2    0.04    0.17 
  12  -7  -2    0.04    0.14 
 -12   7   1    0.17    0.17 
  12   7  -1    0.28    0.07 
  12   7  -1    0.07    0.16 
  12  -7  -1    0.34    0.15 
  12   7   0    0.97    0.09 
  12   7   0    1.12    0.19 
 -12   7   0    1.00    0.20 
  12  -7   0    1.00    0.17 
  12   7   1    0.07    0.17 
  12   7   1    0.19    0.08 
 -12   7  -1    0.00    0.17 
  12  -7   1   -0.05    0.15 
  12   7   2    1.16    0.21 
 -12   7  -2    0.75    0.20 
  12   7   2    0.89    0.10 
  12   7   3    0.15    0.18 
  12   7   3    0.23    0.10 
 -12   7  -3    0.17    0.17 
  12   7   4    0.10    0.18 
  12   7   4    0.29    0.11 
 -12   7  -4   -0.10    0.17 
 -12   7  -5   -0.09    0.17 
  12   7   5    0.04    0.19 
  12   7   5    0.03    0.11 
  13   0 -13    0.00    0.17 
  13   0 -12   14.58    0.47 
  13   0 -11    0.14    0.15 
  13   0 -10    7.28    0.32 
  13   0  -9   -0.02    0.12 
 -13   0   9    0.02    0.10 
 -13   0   8    0.16    0.09 
  13   0  -8    0.08    0.12 
  13   0  -7   -0.02    0.11 
 -13   0   7    0.03    0.08 
  13   0  -6   10.34    0.33 
 -13   0   6   10.98    0.29 
  13   0  -5   -0.08    0.10 
 -13   0   5   -0.07    0.08 
 -13   0   4   19.28    0.42 
  13   0  -4   18.78    0.45 
 -13   0   3   -0.04    0.08 
  13   0  -3    0.07    0.11 
  13   0  -2   11.39    0.32 
 -13   0   2   10.97    0.29 
  13   0  -1   -0.05    0.09 
 -13   0   1   -0.08    0.08 
  13   0   0   31.00    0.63 
 -13   0   0   30.51    0.60 
  13   0   1   -0.03    0.10 
 -13   0  -1    0.01    0.08 
  13   0   1    0.10    0.11 
 -13   0  -2   16.30    0.38 
  13   0   2   16.69    0.41 
  13   0   2   16.73    0.40 
 -13   0  -3   -0.02    0.08 
  13   0   3   -0.10    0.10 
  13   0   3   -0.03    0.11 
  13   0   4   -0.08    0.11 
  13   0   4   -0.03    0.12 
  13   0   5   -0.16    0.12 
  13   0   5   -0.08    0.11 
  13   0   6    3.58    0.23 
  13   0   6    4.07    0.25 
  13   0   7    0.01    0.12 
  13   0   7    0.00    0.13 
  13   0   8    5.83    0.29 
  13   0   8    5.96    0.30 
  13   0   9   -0.03    0.13 
  13   0   9    0.01    0.15 
  13   0  10    0.19    0.16 
  13   0  10    0.30    0.15 
  13   0  11   -0.30    0.17 
  13   0  11    0.07    0.16 
  13   0  12   -0.17    0.17 
  13   0  12    0.06    0.17 
  13   1 -13    1.15    0.20 
  13  -1 -13    1.28    0.21 
  13   1 -12   -0.04    0.15 
  13  -1 -12    0.52    0.19 
  13   1 -11    1.78    0.18 
 -13   1  11    2.18    0.29 
  13  -1 -11    1.96    0.21 
  13   1 -10    0.21    0.14 
 -13   1  10    0.22    0.12 
  13  -1 -10    0.12    0.14 
  13   1  -9   10.19    0.34 
 -13   1   9   10.03    0.32 
  13  -1  -9    9.46    0.35 
  13   1  -8    0.29    0.12 
 -13   1   8    0.28    0.11 
  13  -1  -8    0.60    0.15 
 -13   1   7    8.61    0.28 
  13   1  -7    8.65    0.29 
  13  -1  -7    8.66    0.32 
 -13  -1   7    8.50    0.27 
 -13   1   6    0.76    0.11 
  13   1  -6    0.75    0.12 
  13  -1  -6    0.72    0.13 
 -13  -1   6    1.00    0.10 
 -13   1   5    2.62    0.18 
  13   1  -5    2.97    0.20 
 -13  -1   5    2.71    0.15 
  13  -1  -5    2.90    0.22 
 -13   1   4    1.22    0.13 
  13   1  -4    1.12    0.12 
  13   1  -4    1.29    0.13 
 -13  -1   4    1.09    0.10 
  13  -1  -4    1.08    0.14 
  13   1  -3   21.99    0.47 
  13   1  -3   22.60    0.49 
 -13   1   3   22.05    0.48 
 -13  -1   3   22.54    0.45 
  13  -1  -3   22.22    0.51 
 -13   1   2    4.85    0.21 
  13   1  -2    5.20    0.23 
  13   1  -2    4.70    0.19 
 -13  -1   2    4.88    0.18 
  13  -1  -2    4.73    0.24 
  13   1  -1    6.18    0.21 
  13   1  -1    6.18    0.23 
 -13   1   1    5.92    0.23 
 -13  -1   1    6.15    0.19 
  13  -1  -1    5.58    0.25 
 -13   1   0    3.40    0.19 
  13   1   0    3.71    0.17 
  13   1   0    3.63    0.20 
  13  -1   0    3.25    0.21 
 -13  -1   0    3.50    0.16 
  13   1   1    1.53    0.14 
  13   1   1    1.72    0.16 
  13   1   1    1.89    0.16 
 -13   1  -1    1.59    0.14 
 -13  -1  -1    1.55    0.11 
  13  -1   1    1.41    0.13 
  13  -1   1    1.34    0.14 
 -13   1  -2    0.03    0.10 
  13   1   2   -0.09    0.11 
  13   1   2    0.06    0.10 
  13  -1   2   -0.01    0.10 
  13  -1   2    0.14    0.11 
 -13   1  -3    2.55    0.19 
  13   1   3    2.27    0.17 
  13   1   3    2.45    0.16 
  13  -1   3    2.63    0.19 
  13  -1   3    2.15    0.15 
  13   1   4    0.45    0.13 
  13   1   4    0.71    0.13 
 -13   1  -4    0.43    0.11 
  13  -1   4    0.59    0.12 
  13  -1   4    0.66    0.14 
  13   1   5    7.54    0.29 
  13   1   5    8.02    0.30 
 -13   1  -5    7.95    0.29 
  13  -1   5    7.51    0.27 
  13  -1   5    7.84    0.30 
  13   1   6    0.07    0.13 
  13   1   6    0.09    0.12 
  13  -1   6    0.20    0.13 
  13  -1   6    0.15    0.12 
  13   1   7    0.20    0.13 
  13   1   7    0.46    0.13 
  13  -1   7    0.15    0.13 
  13  -1   7    0.50    0.14 
  13   1   8   -0.08    0.13 
  13   1   8    0.05    0.15 
  13  -1   8   -0.01    0.13 
  13  -1   8    0.03    0.13 
  13   1   9    0.05    0.15 
  13   1   9    0.11    0.13 
  13  -1   9    0.07    0.15 
  13  -1   9    0.00    0.14 
  13   1  10   -0.27    0.16 
  13   1  10   -0.12    0.14 
  13  -1  10    0.13    0.15 
  13  -1  10   -0.05    0.16 
  13   1  11    2.50    0.24 
  13   1  11    2.28    0.24 
  13  -1  11    1.53    0.20 
  13  -1  11    2.40    0.23 
  13   1  12    0.32    0.18 
  13   1  12    0.20    0.19 
  13  -1  12    0.30    0.18 
  13  -1  12    0.13    0.18 
 -13   2  12    2.35    0.21 
  13   2 -12    2.89    0.23 
  13  -2 -12    3.30    0.26 
 -13   2  11    0.28    0.15 
  13   2 -11    0.28    0.15 
  13  -2 -11    0.20    0.17 
  13   2 -10    6.41    0.29 
 -13   2  10    6.57    0.30 
  13  -2 -10    6.14    0.33 
 -13   2   9   -0.06    0.12 
  13   2  -9   -0.03    0.12 
  13  -2  -9   -0.14    0.15 
 -13   2   8   -0.02    0.12 
  13   2  -8   -0.10    0.11 
  13  -2  -8    0.02    0.14 
 -13   2   7    0.18    0.12 
  13   2  -7    0.06    0.11 
  13  -2  -7    0.09    0.13 
  13   2  -6    5.63    0.23 
 -13   2   6    5.63    0.25 
  13  -2  -6    5.56    0.28 
 -13   2   5    0.78    0.13 
  13   2  -5    0.59    0.11 
  13  -2  -5    0.57    0.13 
 -13   2   4    9.36    0.30 
  13   2  -4    9.67    0.28 
  13  -2  -4    9.73    0.32 
 -13  -2   4    9.25    0.23 
  13   2  -3    2.82    0.18 
 -13   2   3    2.91    0.20 
 -13  -2   3    2.05    0.10 
  13  -2  -3    2.54    0.18 
 -13   2   2    0.20    0.11 
  13   2  -2   -0.03    0.09 
  13  -2  -2   -0.07    0.11 
  13   2  -1    7.73    0.25 
  13   2  -1    7.80    0.25 
 -13   2   1    7.57    0.26 
  13  -2  -1    7.80    0.29 
  13   2   0   11.12    0.29 
  13   2   0   11.20    0.30 
 -13   2   0   10.76    0.32 
  13  -2   0   10.64    0.29 
  13  -2   0   11.26    0.34 
  13   2   1    0.06    0.09 
 -13   2  -1    0.04    0.10 
  13   2   1   -0.05    0.09 
  13   2   1   -0.03    0.12 
  13  -2   1    0.01    0.12 
  13  -2   1    0.14    0.09 
  13   2   2   12.32    0.33 
  13   2   2   13.12    0.37 
 -13   2  -2   13.03    0.35 
  13  -2   2   12.67    0.32 
  13  -2   2   12.71    0.37 
  13   2   3    1.45    0.14 
  13   2   3    2.21    0.18 
 -13   2  -3    2.07    0.16 
  13  -2   3    1.96    0.16 
  13  -2   3    1.81    0.13 
 -13   2  -4    4.90    0.25 
  13   2   4    4.84    0.26 
  13   2   4    5.01    0.24 
  13  -2   4    4.74    0.21 
  13  -2   4    5.13    0.26 
 -13   2  -5    0.64    0.14 
  13   2   5    0.75    0.13 
  13   2   5    0.58    0.15 
  13  -2   5    0.63    0.12 
  13  -2   5    0.60    0.14 
  13   2   6    0.01    0.11 
 -13   2  -6    0.03    0.12 
  13   2   6    0.17    0.14 
  13  -2   6    0.17    0.14 
  13  -2   6   -0.05    0.11 
  13   2   7    0.44    0.13 
  13   2   7    0.57    0.17 
  13  -2   7    0.61    0.13 
  13  -2   7    0.56    0.15 
  13   2   8    1.82    0.18 
  13   2   8    1.78    0.19 
  13  -2   8    1.60    0.18 
  13  -2   8    1.82    0.17 
  13   2   9    0.17    0.16 
  13   2   9    0.03    0.14 
  13  -2   9    0.15    0.15 
  13  -2   9    0.17    0.14 
  13   2  10    0.92    0.20 
  13   2  10    1.49    0.20 
  13  -2  10    0.93    0.18 
  13  -2  10    1.23    0.18 
  13   2  11    0.24    0.16 
  13   2  11    0.00    0.17 
  13  -2  11    0.50    0.17 
  13  -2  11    0.34    0.17 
  13   2  12    0.26    0.21 
  13   2  12    0.24    0.18 
  13  -2  12    0.14    0.18 
 -13   3  12    1.16    0.19 
  13   3 -12    1.10    0.17 
  13  -3 -12    1.25    0.23 
  13   3 -11   -0.24    0.13 
 -13   3  11   -0.01    0.15 
  13  -3 -11    0.08    0.18 
  13   3 -10   -0.01    0.13 
 -13   3  10    0.09    0.15 
  13  -3 -10    0.11    0.17 
 -13   3   9    3.07    0.21 
  13   3  -9    3.14    0.23 
  13  -3  -9    2.82    0.23 
 -13   3   8    0.73    0.15 
  13   3  -8    0.77    0.13 
  13  -3  -8    0.83    0.16 
  13   3  -7    2.59    0.19 
 -13   3   7    2.61    0.20 
  13  -3  -7    2.69    0.22 
 -13   3   6    0.24    0.13 
  13   3  -6    0.56    0.11 
  13  -3  -6    0.60    0.16 
 -13   3   5    0.31    0.13 
  13   3  -5    0.27    0.10 
  13  -3  -5    0.34    0.14 
  13   3  -4    1.03    0.12 
 -13   3   4    1.09    0.14 
  13  -3  -4    0.99    0.15 
 -13   3   3    0.67    0.13 
  13   3  -3    0.54    0.10 
  13  -3  -3    0.62    0.14 
 -13   3   2    0.83    0.14 
  13   3  -2    0.98    0.11 
  13  -3  -2    0.81    0.14 
  13   3  -1    0.73    0.10 
 -13   3   1    0.72    0.14 
  13  -3  -1    0.59    0.14 
  13   3   0    0.46    0.14 
 -13   3   0    0.27    0.12 
  13   3   0    0.35    0.10 
  13  -3   0    0.04    0.12 
  13  -3   0    0.32    0.09 
  13   3   1    0.43    0.14 
  13   3   1    0.67    0.11 
 -13   3  -1    0.62    0.14 
  13  -3   1    0.53    0.13 
  13  -3   1    0.58    0.09 
  13   3   2    0.22    0.14 
  13   3   2    0.31    0.10 
 -13   3  -2    0.27    0.13 
  13  -3   2    0.11    0.08 
  13  -3   2    0.38    0.13 
  13   3   3    1.32    0.16 
  13   3   3    1.43    0.14 
 -13   3  -3    1.18    0.15 
  13  -3   3    1.28    0.11 
  13  -3   3    1.37    0.17 
 -13   3  -4    0.35    0.13 
  13   3   4    0.35    0.14 
  13   3   4    0.42    0.11 
  13  -3   4    0.38    0.10 
  13  -3   4    0.20    0.13 
  13   3   5    1.05    0.18 
 -13   3  -5    1.13    0.16 
  13   3   5    1.19    0.14 
  13  -3   5    1.06    0.12 
  13  -3   5    0.86    0.15 
  13   3   6   -0.12    0.11 
  13   3   6   -0.01    0.14 
 -13   3  -6    0.09    0.14 
  13  -3   6   -0.14    0.13 
  13  -3   6    0.08    0.11 
 -13   3  -7    2.70    0.22 
  13   3   7    2.89    0.23 
  13   3   7    2.39    0.18 
  13  -3   7    2.68    0.22 
  13  -3   7    2.57    0.17 
  13   3   8    0.40    0.19 
  13   3   8    0.41    0.14 
  13  -3   8    0.41    0.15 
  13  -3   8    0.38    0.13 
  13   3   9    0.15    0.14 
  13   3   9    0.40    0.18 
  13  -3   9    0.28    0.14 
  13  -3   9    0.17    0.16 
  13   3  10   -0.07    0.16 
  13   3  10   -0.14    0.18 
  13  -3  10    0.07    0.16 
  13   3  11    0.29    0.17 
  13   3  11   -0.14    0.17 
  13  -3  11    0.09    0.16 
 -13   4  11    2.11    0.23 
  13   4 -11    1.69    0.18 
  13  -4 -11    1.43    0.22 
  13   4 -10    0.34    0.13 
 -13   4  10    0.79    0.18 
  13  -4 -10    0.50    0.19 
  13   4  -9    0.24    0.12 
 -13   4   9    0.35    0.16 
  13  -4  -9    0.40    0.18 
 -13   4   8   -0.04    0.15 
  13   4  -8   -0.09    0.10 
  13  -4  -8   -0.14    0.16 
 -13   4   7    0.96    0.16 
  13   4  -7    0.81    0.12 
  13  -4  -7    0.88    0.18 
  13   4  -6    2.06    0.14 
 -13   4   6    1.94    0.19 
  13  -4  -6    2.08    0.20 
  13   4  -5    4.79    0.20 
 -13   4   5    4.79    0.28 
  13  -4  -5    4.58    0.28 
 -13   4   4    5.26    0.28 
  13   4  -4    5.09    0.20 
  13  -4  -4    5.02    0.28 
  13   4  -3    1.30    0.11 
 -13   4   3    1.52    0.17 
  13  -4  -3    1.23    0.16 
 -13   4   2    1.97    0.18 
  13   4  -2    2.17    0.16 
  13  -4  -2    2.39    0.19 
 -13   4   1    0.15    0.13 
  13   4  -1    0.17    0.09 
  13  -4  -1    0.25    0.14 
  13  -4  -1    0.22    0.08 
 -13   4   0    0.21    0.14 
  13   4   0   -0.08    0.14 
  13   4   0    0.03    0.08 
  13  -4   0    0.03    0.07 
  13  -4   0   -0.16    0.12 
  13   4   1    1.12    0.11 
 -13   4  -1    1.20    0.16 
  13   4   1    1.35    0.19 
  13  -4   1    1.25    0.15 
  13  -4   1    1.23    0.10 
  13   4   2    2.84    0.19 
  13   4   2    2.59    0.20 
 -13   4  -2    2.79    0.20 
  13  -4   2    2.89    0.20 
  13  -4   2    2.90    0.15 
 -13   4  -3    4.10    0.27 
  13   4   3    3.95    0.20 
  13   4   3    4.16    0.28 
  13  -4   3    4.58    0.26 
  13  -4   3    4.22    0.17 
  13   4   4    0.85    0.18 
  13   4   4    0.60    0.12 
 -13   4  -4    0.87    0.16 
  13  -4   4    0.75    0.16 
  13  -4   4    0.81    0.10 
 -13   4  -5    3.02    0.22 
  13   4   5    2.80    0.22 
  13   4   5    3.18    0.22 
  13  -4   5    2.87    0.17 
  13  -4   5    2.66    0.21 
 -13   4  -6    0.23    0.16 
  13   4   6   -0.07    0.11 
  13   4   6   -0.14    0.15 
  13  -4   6   -0.04    0.09 
  13  -4   6   -0.11    0.13 
  13   4   7    0.15    0.17 
  13   4   7    0.17    0.13 
 -13   4  -7   -0.10    0.14 
  13  -4   7    0.02    0.16 
  13  -4   7   -0.08    0.10 
 -13   4  -8    0.18    0.17 
  13   4   8    0.18    0.13 
  13   4   8    0.03    0.19 
  13  -4   8    0.00    0.15 
  13   4   9    0.41    0.15 
  13   4   9    0.50    0.18 
  13  -4   9    0.55    0.17 
  13   4  10    0.08    0.15 
  13   4  10    0.00    0.19 
  13  -4  10    0.28    0.17 
 -13   5   9   -0.07    0.16 
  13   5  -9    0.02    0.11 
  13  -5  -9   -0.19    0.16 
 -13   5   8    3.41    0.26 
  13   5  -8    2.66    0.19 
  13  -5  -8    2.75    0.24 
  13   5  -7    1.07    0.12 
 -13   5   7    1.70    0.20 
  13  -5  -7    1.36    0.20 
 -13   5   6    1.45    0.19 
  13   5  -6    1.36    0.12 
  13  -5  -6    1.23    0.19 
 -13   5   5    1.13    0.18 
  13   5  -5    1.00    0.11 
  13  -5  -5    0.68    0.16 
  13   5  -4    0.66    0.09 
 -13   5   4    0.64    0.17 
  13  -5  -4    0.76    0.17 
  13   5  -3   -0.12    0.08 
 -13   5   3   -0.06    0.14 
  13  -5  -3   -0.20    0.14 
 -13   5   2    5.10    0.29 
  13   5  -2    4.79    0.18 
  13  -5  -2    4.26    0.28 
  13   5  -1    0.24    0.08 
  13   5  -1    0.05    0.16 
 -13   5   1    0.18    0.15 
  13  -5  -1    0.29    0.14 
  13   5   0    1.25    0.18 
  13   5   0    1.52    0.12 
 -13   5   0    1.38    0.18 
  13  -5   0    1.29    0.16 
  13   5   1    0.12    0.16 
  13   5   1    0.21    0.09 
 -13   5  -1    0.05    0.13 
  13  -5   1    0.31    0.15 
  13   5   2    0.32    0.10 
  13   5   2    0.63    0.18 
 -13   5  -2    0.78    0.17 
  13  -5   2    0.52    0.15 
  13   5   3    0.00    0.16 
 -13   5  -3    0.16    0.14 
  13   5   3    0.25    0.10 
  13  -5   3    0.20    0.14 
 -13   5  -4    0.46    0.16 
  13   5   4    0.32    0.18 
  13   5   4    0.41    0.11 
  13  -5   4    0.42    0.16 
 -13   5  -5    1.28    0.19 
  13   5   5    0.97    0.18 
  13   5   5    1.25    0.14 
  13  -5   5    1.49    0.18 
  13   5   6    1.06    0.15 
 -13   5  -6    1.01    0.19 
  13   5   6    0.87    0.19 
  13  -5   6    1.29    0.19 
  13   5   7    0.62    0.14 
  13   5   7    0.60    0.21 
 -13   5  -7    1.02    0.20 
  13  -5   7    0.53    0.17 
 -13   5  -8    0.58    0.19 
  13   5   8    0.73    0.21 
  13   5   8    0.62    0.15 
  13  -5   8    0.87    0.18 
 -13   5  -9    0.09    0.19 
  13   5   9    0.33    0.16 
  13   5   9    0.16    0.19 
  13  -5   9    0.01    0.16 
 -13   6   7    0.79    0.20 
  13   6  -7    0.72    0.11 
  13  -6  -7    0.71    0.19 
 -13   6   6    0.08    0.17 
  13   6  -6    0.04    0.08 
  13  -6  -6   -0.14    0.16 
  13   6  -5    6.67    0.20 
 -13   6   5    6.96    0.35 
  13  -6  -5    6.07    0.34 
 -13   6   4    0.03    0.16 
  13   6  -4    0.06    0.08 
  13  -6  -4    0.07    0.16 
  13   6  -3    2.06    0.14 
 -13   6   3    2.22    0.23 
  13  -6  -3    2.06    0.21 
  13   6  -2    0.78    0.19 
  13   6  -2    0.61    0.09 
 -13   6   2    0.65    0.19 
  13  -6  -2    0.65    0.17 
  13   6  -1    0.00    0.08 
 -13   6   1   -0.01    0.16 
  13   6  -1    0.02    0.17 
  13  -6  -1   -0.06    0.14 
  13   6   0    0.08    0.08 
 -13   6   0    0.02    0.17 
  13   6   0   -0.22    0.16 
  13  -6   0    0.21    0.15 
  13   6   1    1.58    0.20 
 -13   6  -1    1.95    0.21 
  13   6   1    2.08    0.16 
  13  -6   1    2.05    0.20 
 -13   6  -2    0.37    0.18 
  13   6   2    0.35    0.18 
  13   6   2    0.35    0.10 
  13  -6   2    0.70    0.17 
  13   6   3    2.78    0.19 
 -13   6  -3    2.67    0.23 
  13   6   3    2.65    0.25 
  13  -6   3    2.84    0.22 
  13   6   4    0.36    0.12 
  13   6   4    0.34    0.19 
 -13   6  -4    0.71    0.18 
  13  -6   4    0.65    0.16 
 -13   6  -5    0.23    0.18 
  13   6   5    0.07    0.19 
  13   6   5   -0.02    0.11 
  13  -6   5    0.05    0.15 
 -13   6  -6    0.07    0.17 
  13   6   6    0.02    0.12 
  13   6   6    0.07    0.19 
  13  -6   6    0.06    0.15 
  13   6   7    1.19    0.22 
 -13   6  -7    1.17    0.22 
  13   6   7    1.18    0.17 
  13  -6   7    0.81    0.21 
 -13   7   4    1.58    0.22 
  13  -7  -4    1.80    0.21 
 -13   7   3    0.09    0.18 
  13   7  -3   -0.07    0.18 
  13  -7  -3   -0.11    0.15 
 -13   7   2    5.10    0.35 
  13   7  -2    4.93    0.16 
  13   7  -2    5.89    0.35 
  13  -7  -2    5.24    0.31 
 -13   7   1    0.32    0.19 
  13   7  -1    0.18    0.18 
  13   7  -1    0.22    0.08 
  13  -7  -1    0.27    0.16 
  13   7   0    1.55    0.11 
  13   7   0    1.31    0.21 
 -13   7   0    1.67    0.22 
  13  -7   0    1.13    0.19 
  13   7   1    0.00    0.09 
  13   7   1   -0.19    0.17 
 -13   7  -1   -0.10    0.17 
 -13   7  -2    0.03    0.17 
  13   7   2    0.11    0.09 
  13   7   2   -0.01    0.18 
  13   7   3    0.19    0.10 
  13   7   3   -0.04    0.18 
 -13   7  -3    0.20    0.18 
  14   0 -12    1.32    0.19 
  14   0 -11   -0.11    0.15 
  14   0 -10    0.22    0.15 
  14   0  -9   -0.10    0.14 
  14   0  -8    2.17    0.20 
 -14   0   7   -0.08    0.09 
  14   0  -7    0.00    0.13 
 -14   0   6    3.16    0.19 
  14   0  -6    2.75    0.19 
 -14   0   5   -0.03    0.09 
  14   0  -5    0.03    0.12 
  14   0  -4    2.17    0.17 
 -14   0   4    2.38    0.17 
  14   0  -3   -0.03    0.11 
 -14   0   3   -0.04    0.08 
 -14   0   2    1.35    0.12 
  14   0  -2    1.17    0.14 
  14   0  -1    0.14    0.11 
 -14   0   1    0.09    0.09 
 -14   0   0    7.34    0.25 
  14   0   0    7.41    0.28 
  14   0   1   -0.11    0.10 
 -14   0  -1   -0.09    0.09 
  14   0   1   -0.08    0.12 
  14   0   2    2.95    0.22 
  14   0   2    2.85    0.21 
 -14   0  -2    3.09    0.19 
  14   0   3   -0.14    0.12 
 -14   0  -3    0.13    0.10 
  14   0   3   -0.03    0.11 
  14   0   4    0.90    0.15 
  14   0   4    1.01    0.15 
  14   0   5    0.11    0.12 
  14   0   5   -0.05    0.14 
  14   0   6    0.85    0.16 
  14   0   6    0.63    0.15 
  14   0   7   -0.13    0.14 
  14   0   7   -0.11    0.14 
  14   0   8    1.50    0.19 
  14   0   8    1.13    0.18 
  14   0   9   -0.02    0.16 
  14   0   9   -0.12    0.15 
  14   0  10    0.97    0.19 
  14   0  10    0.71    0.19 
  14   0  11    0.01    0.16 
  14   0  11    0.01    0.17 
  14   1 -12    1.64    0.21 
  14  -1 -12    1.35    0.20 
  14   1 -11    2.28    0.21 
  14  -1 -11    1.78    0.21 
  14   1 -10    0.99    0.16 
  14  -1 -10    0.85    0.18 
  14   1  -9    4.65    0.27 
 -14   1   9    4.46    0.24 
  14  -1  -9    5.08    0.30 
 -14   1   8   -0.08    0.11 
  14   1  -8    0.11    0.12 
  14  -1  -8   -0.10    0.14 
  14   1  -7    1.03    0.15 
 -14   1   7    0.66    0.13 
  14  -1  -7    0.91    0.16 
 -14   1   6    5.13    0.23 
  14   1  -6    4.47    0.24 
  14  -1  -6    4.78    0.27 
  14   1  -5    2.67    0.18 
 -14   1   5    2.34    0.16 
 -14  -1   5    2.93    0.21 
  14  -1  -5    2.15    0.17 
 -14   1   4    0.05    0.10 
  14   1  -4    0.11    0.11 
  14  -1  -4    0.24    0.13 
 -14  -1   4   -0.01    0.07 
  14   1  -3    7.62    0.27 
 -14   1   3    7.41    0.26 
  14  -1  -3    7.43    0.29 
 -14  -1   3    7.48    0.22 
 -14   1   2    0.53    0.12 
  14   1  -2    0.31    0.11 
  14  -1  -2    0.46    0.13 
 -14  -1   2    0.37    0.08 
 -14   1   1   19.28    0.45 
  14   1  -1   19.76    0.46 
  14  -1  -1   19.95    0.48 
 -14  -1   1   19.81    0.41 
  14   1   0    1.05    0.13 
 -14   1   0    1.26    0.13 
  14  -1   0    1.06    0.13 
  14  -1   0    1.09    0.15 
 -14  -1   0    1.00    0.10 
  14   1   1    0.58    0.13 
  14   1   1    0.45    0.12 
 -14   1  -1    0.48    0.12 
  14  -1   1    0.39    0.11 
  14  -1   1    0.43    0.13 
  14   1   2    0.04    0.12 
 -14   1  -2   -0.09    0.10 
  14   1   2    0.11    0.13 
  14  -1   2   -0.04    0.12 
  14  -1   2    0.08    0.11 
  14   1   3    9.25    0.31 
 -14   1  -3    9.78    0.31 
  14   1   3    9.50    0.31 
  14  -1   3    9.39    0.30 
  14  -1   3    9.14    0.32 
  14   1   4    2.62    0.20 
 -14   1  -4    2.30    0.17 
  14   1   4    2.46    0.19 
  14  -1   4    2.63    0.20 
  14  -1   4    2.17    0.18 
  14   1   5    1.98    0.19 
  14   1   5    2.00    0.18 
 -14   1  -5    2.39    0.18 
  14  -1   5    2.62    0.21 
  14  -1   5    1.91    0.17 
  14   1   6    0.48    0.16 
  14   1   6    0.56    0.15 
  14  -1   6    0.49    0.14 
  14  -1   6    0.59    0.17 
  14   1   7    0.13    0.15 
  14   1   7    0.04    0.13 
  14  -1   7    0.06    0.13 
  14  -1   7    0.01    0.14 
  14   1   8    0.28    0.15 
  14   1   8    0.19    0.16 
  14  -1   8    0.65    0.17 
  14  -1   8    0.69    0.16 
  14   1   9    0.29    0.17 
  14   1   9    0.17    0.16 
  14  -1   9    0.24    0.15 
  14  -1   9    0.14    0.16 
  14   1  10    0.21    0.16 
  14   1  10    0.33    0.19 
  14  -1  10    0.24    0.17 
  14  -1  10    0.29    0.17 
  14   1  11    0.29    0.18 
  14   1  11    0.15    0.17 
  14  -1  11    0.08    0.18 
  14  -1  11    0.35    0.18 
  14   2 -11   -0.08    0.14 
 -14   2  11   -0.03    0.24 
  14  -2 -11   -0.16    0.17 
  14   2 -10    0.31    0.14 
 -14   2  10    0.12    0.13 
  14  -2 -10    0.33    0.18 
  14   2  -9    1.43    0.16 
 -14   2   9    1.68    0.18 
  14  -2  -9    1.79    0.21 
  14   2  -8    6.39    0.28 
 -14   2   8    5.71    0.28 
  14  -2  -8    6.41    0.31 
  14   2  -7    2.43    0.18 
 -14   2   7    2.09    0.17 
  14  -2  -7    2.14    0.20 
 -14   2   6    8.33    0.30 
  14   2  -6    8.43    0.29 
  14  -2  -6    8.16    0.33 
  14   2  -5   -0.01    0.10 
 -14   2   5    0.11    0.12 
  14  -2  -5    0.15    0.14 
  14   2  -4    1.20    0.13 
 -14   2   4    1.40    0.15 
  14  -2  -4    1.58    0.17 
 -14   2   3    0.44    0.12 
  14   2  -3    0.25    0.11 
  14  -2  -3    0.54    0.15 
 -14   2   2    7.37    0.27 
  14   2  -2    7.14    0.25 
  14  -2  -2    7.45    0.29 
  14   2  -1    4.71    0.22 
 -14   2   1    4.90    0.23 
  14  -2  -1    4.71    0.26 
 -14   2   0    2.79    0.18 
  14   2   0    2.96    0.20 
  14   2   0    2.96    0.20 
  14  -2   0    2.63    0.18 
  14  -2   0    2.40    0.18 
  14   2   1    1.28    0.14 
  14   2   1    1.14    0.17 
 -14   2  -1    1.21    0.14 
  14  -2   1    1.05    0.12 
  14  -2   1    1.35    0.16 
  14   2   2    0.17    0.14 
 -14   2  -2    0.28    0.11 
  14   2   2    0.40    0.12 
  14  -2   2    0.30    0.11 
  14  -2   2    0.42    0.14 
 -14   2  -3    2.05    0.17 
  14   2   3    2.12    0.17 
  14   2   3    1.91    0.19 
  14  -2   3    1.78    0.17 
  14  -2   3    2.08    0.15 
  14   2   4    0.31    0.12 
  14   2   4    0.32    0.15 
 -14   2  -4    0.54    0.14 
  14  -2   4    0.27    0.11 
  14  -2   4    0.41    0.14 
  14   2   5    1.90    0.18 
  14   2   5    1.60    0.16 
 -14   2  -5    2.12    0.19 
  14  -2   5    2.09    0.19 
  14  -2   5    2.22    0.16 
  14   2   6    1.19    0.16 
  14   2   6    1.13    0.19 
 -14   2  -6    1.26    0.17 
  14  -2   6    1.21    0.15 
  14  -2   6    1.01    0.17 
  14   2   7    0.01    0.15 
  14   2   7    0.12    0.14 
  14  -2   7   -0.13    0.15 
  14  -2   7    0.20    0.13 
  14   2   8    0.29    0.16 
  14   2   8    0.23    0.14 
  14  -2   8    0.31    0.15 
  14  -2   8    0.37    0.16 
  14   2   9    0.17    0.15 
  14   2   9    0.35    0.17 
  14  -2   9    0.49    0.16 
  14  -2   9    0.26    0.16 
  14   2  10    0.01    0.17 
  14   2  10   -0.05    0.19 
  14  -2  10   -0.08    0.16 
  14  -2  10   -0.10    0.16 
  14   2  11    0.23    0.18 
  14   2  11    0.21    0.20 
  14  -2  11    0.45    0.19 
  14  -2  11    0.45    0.18 
 -14   3  11    2.79    0.23 
  14   3 -11    2.51    0.21 
  14  -3 -11    2.01    0.24 
  14   3 -10    3.16    0.21 
 -14   3  10    2.84    0.22 
  14  -3 -10    3.09    0.26 
 -14   3   9    2.25    0.20 
  14   3  -9    2.30    0.18 
  14  -3  -9    2.15    0.22 
  14   3  -8    0.09    0.12 
 -14   3   8    0.18    0.15 
  14  -3  -8    0.19    0.16 
  14   3  -7    0.21    0.12 
 -14   3   7    0.25    0.14 
  14  -3  -7    0.26    0.16 
  14   3  -6    0.66    0.12 
 -14   3   6    0.74    0.15 
  14  -3  -6    0.58    0.16 
  14   3  -5    5.38    0.23 
 -14   3   5    4.96    0.27 
  14  -3  -5    5.30    0.29 
 -14   3   4    8.60    0.31 
  14   3  -4    8.05    0.27 
  14  -3  -4    8.62    0.33 
 -14   3   3   10.59    0.35 
  14   3  -3   10.49    0.30 
  14  -3  -3   10.26    0.36 
 -14   3   2    0.41    0.14 
  14   3  -2    0.27    0.10 
  14  -3  -2    0.64    0.15 
  14   3  -1    0.48    0.11 
 -14   3   1    0.50    0.14 
  14  -3  -1    0.43    0.15 
  14  -3  -1    0.40    0.10 
  14   3   0    3.16    0.20 
 -14   3   0    3.13    0.24 
  14   3   0    2.49    0.20 
  14  -3   0    2.75    0.17 
  14  -3   0    3.14    0.21 
  14   3   1    5.16    0.23 
 -14   3  -1    4.58    0.26 
  14   3   1    5.14    0.29 
  14  -3   1    5.04    0.27 
  14  -3   1    5.10    0.21 
  14   3   2    4.87    0.29 
 -14   3  -2    5.10    0.27 
  14   3   2    4.74    0.23 
  14  -3   2    4.51    0.20 
  14  -3   2    5.07    0.28 
  14   3   3    5.43    0.25 
 -14   3  -3    5.31    0.28 
  14   3   3    5.27    0.28 
  14  -3   3    5.06    0.21 
  14  -3   3    5.56    0.29 
  14   3   4    2.13    0.22 
 -14   3  -4    2.46    0.20 
  14   3   4    1.77    0.16 
  14  -3   4    2.43    0.20 
  14  -3   4    2.41    0.16 
 -14   3  -5    1.47    0.18 
  14   3   5    1.31    0.15 
  14   3   5    1.66    0.20 
  14  -3   5    1.44    0.18 
  14  -3   5    1.72    0.15 
 -14   3  -6    0.31    0.15 
  14   3   6    0.11    0.15 
  14   3   6    0.24    0.13 
  14  -3   6    0.26    0.17 
  14  -3   6    0.12    0.11 
  14   3   7    0.42    0.16 
 -14   3  -7    0.42    0.16 
  14   3   7    0.44    0.14 
  14  -3   7    0.39    0.16 
  14  -3   7    0.34    0.13 
  14   3   8   -0.18    0.13 
  14   3   8   -0.31    0.17 
  14  -3   8   -0.09    0.15 
  14  -3   8   -0.11    0.13 
  14   3   9    0.61    0.20 
  14   3   9    0.65    0.16 
  14  -3   9    0.44    0.17 
  14  -3   9    0.76    0.16 
  14   3  10    0.05    0.20 
  14   3  10    0.17    0.17 
  14  -3  10    0.09    0.17 
 -14   4  10    0.44    0.18 
  14   4 -10    0.12    0.13 
  14  -4 -10    0.28    0.20 
  14   4  -9    0.67    0.14 
 -14   4   9    0.72    0.18 
  14  -4  -9    1.00    0.21 
  14   4  -8    2.93    0.18 
 -14   4   8    2.91    0.24 
  14  -4  -8    2.79    0.23 
 -14   4   7    3.04    0.24 
  14   4  -7    3.15    0.21 
  14  -4  -7    3.04    0.24 
 -14   4   6    4.03    0.28 
  14   4  -6    4.20    0.21 
  14  -4  -6    4.07    0.29 
 -14   4   5    0.97    0.17 
  14   4  -5    0.70    0.11 
  14  -4  -5    0.91    0.18 
  14   4  -4   -0.09    0.09 
 -14   4   4   -0.10    0.13 
  14  -4  -4    0.05    0.15 
 -14   4   3    0.29    0.14 
  14   4  -3    0.26    0.10 
  14  -4  -3    0.07    0.14 
  14   4  -2    3.90    0.19 
 -14   4   2    3.93    0.26 
  14  -4  -2    3.52    0.26 
  14   4  -1    1.50    0.13 
 -14   4   1    1.84    0.19 
  14  -4  -1    1.81    0.12 
  14  -4  -1    1.90    0.19 
  14   4   0    3.13    0.23 
  14   4   0    3.02    0.19 
 -14   4   0    3.00    0.21 
  14  -4   0    2.75    0.16 
  14  -4   0    3.38    0.23 
 -14   4  -1    0.70    0.17 
  14   4   1    0.47    0.11 
  14   4   1    0.44    0.16 
  14  -4   1    0.71    0.10 
  14  -4   1    0.54    0.15 
 -14   4  -2    0.61    0.15 
  14   4   2    0.79    0.17 
  14   4   2    0.56    0.12 
  14  -4   2    0.57    0.10 
  14  -4   2    0.53    0.15 
 -14   4  -3    0.66    0.16 
  14   4   3    0.60    0.16 
  14   4   3    0.94    0.13 
  14  -4   3    0.91    0.17 
  14  -4   3    0.73    0.10 
 -14   4  -4    0.06    0.15 
  14   4   4    0.24    0.16 
  14   4   4    0.32    0.12 
  14  -4   4    0.39    0.15 
  14  -4   4    0.35    0.10 
  14   4   5    0.44    0.13 
 -14   4  -5    0.46    0.16 
  14   4   5    0.28    0.16 
  14  -4   5    0.44    0.11 
  14  -4   5    0.47    0.16 
  14   4   6    0.45    0.18 
  14   4   6    0.39    0.13 
 -14   4  -6    0.09    0.17 
  14  -4   6    0.38    0.11 
  14  -4   6    0.09    0.17 
  14   4   7    0.33    0.14 
  14   4   7    0.55    0.20 
 -14   4  -7    0.39    0.17 
  14  -4   7    0.39    0.17 
  14  -4   7    0.22    0.12 
  14   4   8    0.05    0.15 
  14   4   8    0.19    0.19 
 -14   4  -8    0.05    0.16 
  14  -4   8    0.29    0.17 
  14   4   9   -0.25    0.17 
  14   4   9    0.09    0.15 
  14  -4   9    0.40    0.18 
 -14   5   8    0.31    0.17 
  14   5  -8    0.53    0.12 
  14  -5  -8    0.27    0.19 
 -14   5   7    0.73    0.18 
  14   5  -7    0.68    0.12 
  14  -5  -7    0.67    0.19 
  14   5  -6    0.43    0.11 
 -14   5   6    0.23    0.17 
  14  -5  -6    0.32    0.17 
  14   5  -5    5.01    0.21 
 -14   5   5    4.94    0.31 
  14  -5  -5    5.18    0.32 
  14   5  -4    4.21    0.20 
 -14   5   4    4.48    0.30 
  14  -5  -4    4.64    0.31 
 -14   5   3    2.57    0.22 
  14   5  -3    2.22    0.17 
  14  -5  -3    2.45    0.22 
 -14   5   2    2.03    0.21 
  14   5  -2    2.21    0.14 
  14  -5  -2    2.50    0.22 
 -14   5   1    0.04    0.15 
  14   5  -1    0.13    0.10 
  14   5  -1    0.10    0.17 
  14  -5  -1    0.10    0.14 
  14   5   0    0.04    0.16 
 -14   5   0    0.00    0.14 
  14   5   0    0.09    0.10 
  14  -5   0    0.10    0.15 
 -14   5  -1    0.31    0.15 
  14   5   1   -0.08    0.10 
  14   5   1   -0.08    0.16 
  14  -5   1    0.08    0.16 
  14   5   2    0.05    0.18 
 -14   5  -2    0.25    0.16 
  14   5   2    0.12    0.10 
  14  -5   2    0.01    0.15 
  14   5   3    2.10    0.22 
 -14   5  -3    1.99    0.21 
  14   5   3    2.00    0.15 
  14  -5   3    2.52    0.22 
 -14   5  -4    1.13    0.19 
  14   5   4    0.89    0.21 
  14   5   4    1.04    0.14 
  14  -5   4    1.03    0.19 
 -14   5  -5    0.62    0.18 
  14   5   5    0.82    0.14 
  14   5   5    0.50    0.18 
  14  -5   5    0.75    0.18 
 -14   5  -6    1.27    0.20 
  14   5   6    1.03    0.22 
  14   5   6    1.62    0.17 
  14  -5   6    1.16    0.19 
  14   5   7    1.54    0.23 
  14   5   7    1.51    0.18 
 -14   5  -7    1.34    0.21 
  14  -5   7    1.75    0.21 
  14   5   8    0.04    0.19 
 -14   5  -8    0.03    0.19 
  14   5   8    0.22    0.15 
  14  -5   8    0.33    0.18 
  14   6  -6    0.58    0.11 
 -14   6   6    0.78    0.20 
  14  -6  -6    0.55    0.19 
  14   6  -5    2.15    0.16 
 -14   6   5    2.11    0.23 
  14  -6  -5    2.03    0.22 
  14   6  -4   -0.04    0.08 
 -14   6   4   -0.01    0.17 
  14  -6  -4    0.08    0.16 
 -14   6   3    0.17    0.17 
  14   6  -3    0.06    0.09 
  14  -6  -3    0.30    0.17 
 -14   6   2    0.73    0.20 
  14   6  -2    0.54    0.10 
  14   6  -2    0.60    0.20 
  14  -6  -2    0.46    0.18 
  14   6  -1    0.70    0.20 
 -14   6   1    0.27    0.18 
  14   6  -1    0.44    0.10 
  14  -6  -1    0.71    0.18 
  14   6   0    2.23    0.17 
  14   6   0    1.87    0.21 
 -14   6   0    1.92    0.22 
  14  -6   0    2.37    0.22 
  14   6   1    1.13    0.20 
 -14   6  -1    1.58    0.22 
  14   6   1    1.35    0.13 
  14  -6   1    1.50    0.20 
 -14   6  -2   -0.03    0.17 
  14   6   2    0.03    0.10 
  14   6   2   -0.02    0.17 
  14  -6   2   -0.13    0.15 
 -14   6  -3    0.10    0.17 
  14   6   3    0.13    0.11 
  14   6   3   -0.04    0.19 
  14  -6   3    0.08    0.16 
  14   6   4    0.22    0.20 
 -14   6  -4    0.35    0.18 
  14   6   4    0.25    0.12 
  14  -6   4    0.48    0.17 
  14   6   5    0.40    0.21 
 -14   6  -5    0.42    0.19 
  14   6   5    0.45    0.13 
  14  -6   5    0.52    0.18 
  15   0 -11    0.12    0.17 
  15   0 -10   10.18    0.39 
  15   0  -9   -0.07    0.16 
  15   0  -8    9.32    0.35 
  15   0  -7    0.06    0.14 
  15   0  -6    0.65    0.15 
 -15   0   5   -0.03    0.09 
  15   0  -5   -0.09    0.12 
  15   0  -4    5.17    0.26 
 -15   0   4    5.10    0.22 
  15   0  -3    0.06    0.12 
 -15   0   3    0.07    0.09 
 -15   0   2    6.11    0.23 
  15   0  -2    6.27    0.28 
  15   0  -1    0.05    0.12 
 -15   0   1   -0.10    0.09 
 -15   0   0    1.98    0.15 
  15   0   0    1.91    0.17 
  15   0   0    2.47    0.19 
 -15   0  -1   -0.09    0.09 
  15   0   1   -0.05    0.12 
  15   0   1   -0.09    0.12 
 -15   0  -2    0.35    0.10 
  15   0   2    0.13    0.13 
  15   0   2    0.17    0.13 
  15   0   3   -0.01    0.12 
  15   0   3   -0.12    0.12 
 -15   0  -3    0.12    0.11 
  15   0   4    7.37    0.30 
  15   0   4    7.56    0.31 
  15   0   5    0.07    0.14 
  15   0   5   -0.16    0.14 
  15   0   6    0.54    0.16 
  15   0   6    0.32    0.15 
  15   0   7   -0.19    0.14 
  15   0   7   -0.05    0.15 
  15   0   8    0.52    0.17 
  15   0   8    0.90    0.18 
  15   0   9    0.18    0.17 
  15   0   9    0.25    0.18 
  15   0  10    0.65    0.20 
  15   0  10    0.55    0.18 
  15   1 -11    1.48    0.20 
  15  -1 -11    1.34    0.22 
  15   1 -10    0.51    0.16 
  15  -1 -10    0.56    0.19 
  15   1  -9    0.21    0.15 
  15  -1  -9    0.46    0.18 
  15   1  -8    0.35    0.15 
  15  -1  -8    0.46    0.16 
  15   1  -7    8.90    0.33 
 -15   1   7    9.36    0.31 
  15  -1  -7    9.01    0.36 
  15   1  -6    0.02    0.12 
 -15   1   6    0.08    0.12 
  15  -1  -6    0.23    0.14 
 -15   1   5    5.98    0.25 
  15   1  -5    5.62    0.27 
  15  -1  -5    5.79    0.29 
 -15   1   4    0.87    0.13 
  15   1  -4    1.06    0.14 
  15  -1  -4    0.63    0.14 
  15   1  -3    0.67    0.13 
 -15   1   3    0.83    0.13 
  15  -1  -3    0.46    0.14 
 -15   1   2    6.40    0.26 
  15   1  -2    6.67    0.27 
  15  -1  -2    6.75    0.29 
 -15   1   1    5.18    0.24 
  15   1  -1    5.28    0.26 
 -15  -1   1    5.01    0.21 
  15  -1  -1    5.28    0.27 
  15   1   0    0.19    0.14 
  15   1   0    0.12    0.12 
 -15   1   0    0.20    0.11 
  15  -1   0   -0.02    0.11 
 -15  -1   0    0.09    0.08 
  15  -1   0    0.14    0.14 
 -15   1  -1    9.74    0.31 
  15   1   1   10.90    0.34 
  15   1   1    9.92    0.35 
  15  -1   1   10.69    0.32 
  15  -1   1    9.61    0.34 
 -15   1  -2    2.40    0.17 
  15   1   2    2.58    0.21 
  15   1   2    2.65    0.19 
  15  -1   2    2.96    0.22 
  15  -1   2    2.26    0.19 
 -15   1  -3    0.24    0.12 
  15   1   3    0.25    0.13 
  15   1   3    0.22    0.15 
  15  -1   3    0.23    0.12 
  15  -1   3    0.14    0.14 
  15   1   4    0.16    0.13 
 -15   1  -4    0.25    0.13 
  15   1   4    0.34    0.15 
  15  -1   4    0.06    0.14 
  15  -1   4    0.41    0.13 
  15   1   5    0.93    0.17 
  15   1   5    0.65    0.16 
  15  -1   5    0.97    0.17 
  15  -1   5    0.76    0.15 
  15   1   6    0.38    0.15 
  15   1   6    0.23    0.16 
  15  -1   6    0.07    0.16 
  15  -1   6    0.27    0.14 
  15   1   7    0.23    0.16 
  15   1   7    0.53    0.15 
  15  -1   7    0.45    0.15 
  15  -1   7    0.23    0.16 
  15   1   8    0.42    0.18 
  15   1   8    0.23    0.16 
  15  -1   8    0.06    0.15 
  15  -1   8    0.22    0.16 
  15   1   9    0.11    0.16 
  15   1   9    0.12    0.16 
  15  -1   9    0.05    0.16 
  15  -1   9    0.11    0.17 
  15   1  10    0.30    0.20 
  15   1  10    0.57    0.18 
  15  -1  10    0.55    0.19 
  15  -1  10    0.53    0.18 
  15   2 -10    3.48    0.24 
  15  -2 -10    2.91    0.26 
  15   2  -9    0.81    0.16 
 -15   2   9    0.68    0.15 
  15  -2  -9    0.95    0.20 
  15   2  -8    5.05    0.28 
 -15   2   8    5.33    0.27 
  15  -2  -8    5.03    0.32 
 -15   2   7   -0.09    0.12 
  15   2  -7   -0.06    0.12 
  15  -2  -7   -0.08    0.15 
  15   2  -6    1.08    0.15 
 -15   2   6    0.91    0.15 
  15  -2  -6    0.82    0.17 
 -15   2   5    0.17    0.13 
  15   2  -5    0.11    0.12 
  15  -2  -5    0.12    0.15 
 -15   2   4    0.72    0.14 
  15   2  -4    0.65    0.13 
  15  -2  -4    0.68    0.16 
  15   2  -3    0.54    0.13 
 -15   2   3    0.50    0.13 
  15  -2  -3    0.57    0.15 
  15   2  -2    4.42    0.23 
 -15   2   2    4.46    0.24 
  15  -2  -2    4.64    0.27 
 -15   2   1    4.14    0.24 
  15   2  -1    3.93    0.23 
  15  -2  -1    4.31    0.27 
  15   2   0    1.20    0.18 
  15   2   0    0.86    0.14 
 -15   2   0    0.72    0.13 
  15  -2   0    1.12    0.13 
  15  -2   0    0.95    0.16 
  15   2   1    1.17    0.18 
 -15   2  -1    1.21    0.15 
  15   2   1    1.27    0.15 
  15  -2   1    1.47    0.18 
  15  -2   1    1.54    0.15 
 -15   2  -2    0.51    0.14 
  15   2   2    0.30    0.12 
  15   2   2    0.33    0.16 
  15  -2   2    0.47    0.15 
  15  -2   2    0.31    0.11 
 -15   2  -3    1.52    0.16 
  15   2   3    1.79    0.20 
  15   2   3    2.05    0.18 
  15  -2   3    1.53    0.17 
  15  -2   3    1.55    0.15 
  15   2   4    5.40    0.27 
  15   2   4    4.72    0.27 
 -15   2  -4    4.99    0.27 
  15  -2   4    4.42    0.24 
  15  -2   4    5.45    0.30 
  15   2   5    0.36    0.17 
 -15   2  -5    0.19    0.15 
  15   2   5    0.30    0.14 
  15  -2   5    0.13    0.12 
  15  -2   5    0.10    0.16 
 -15   2  -6    3.17    0.23 
  15   2   6    2.41    0.19 
  15   2   6    2.52    0.22 
  15  -2   6    2.95    0.23 
  15  -2   6    2.97    0.22 
  15   2   7    0.91    0.19 
  15   2   7    1.12    0.18 
  15  -2   7    1.18    0.17 
  15  -2   7    0.89    0.17 
  15   2   8   -0.04    0.15 
  15   2   8   -0.14    0.18 
  15  -2   8   -0.27    0.14 
  15  -2   8    0.01    0.16 
  15   2   9    0.27    0.19 
  15   2   9    0.26    0.17 
  15  -2   9    0.33    0.16 
  15  -2   9    0.10    0.17 
  15   2  10    0.20    0.16 
  15   2  10   -0.16    0.20 
  15  -2  10    0.02    0.17 
  15  -2  10   -0.21    0.18 
 -15   3  10    0.49    0.17 
  15   3 -10    0.74    0.16 
  15  -3 -10    0.80    0.20 
  15   3  -9    1.61    0.17 
 -15   3   9    1.94    0.21 
  15  -3  -9    1.54    0.21 
  15   3  -8    1.80    0.17 
 -15   3   8    1.80    0.20 
  15  -3  -8    1.72    0.22 
  15   3  -7    0.75    0.14 
 -15   3   7    0.64    0.16 
  15  -3  -7    0.65    0.18 
 -15   3   6    0.10    0.14 
  15   3  -6    0.16    0.12 
  15  -3  -6    0.17    0.16 
  15   3  -5    8.47    0.29 
 -15   3   5    8.83    0.33 
  15  -3  -5    8.23    0.35 
  15   3  -4    4.34    0.23 
 -15   3   4    4.52    0.27 
  15  -3  -4    4.80    0.30 
 -15   3   3    0.93    0.16 
  15   3  -3    1.13    0.13 
  15  -3  -3    1.23    0.18 
 -15   3   2   -0.10    0.12 
  15   3  -2    0.20    0.11 
  15  -3  -2    0.12    0.14 
 -15   3   1    0.17    0.13 
  15   3  -1    0.19    0.11 
  15  -3  -1    0.29    0.10 
  15  -3  -1    0.03    0.15 
 -15   3   0    0.18    0.14 
  15   3   0    0.25    0.12 
  15   3   0    0.11    0.16 
  15  -3   0    0.08    0.10 
  15  -3   0    0.20    0.15 
 -15   3  -1    0.64    0.15 
  15   3   1    1.03    0.19 
  15   3   1    0.91    0.13 
  15  -3   1    0.58    0.15 
  15  -3   1    0.73    0.12 
  15   3   2    0.40    0.13 
 -15   3  -2    0.13    0.13 
  15   3   2    0.38    0.17 
  15  -3   2    0.30    0.11 
  15  -3   2    0.25    0.15 
 -15   3  -3    0.25    0.14 
  15   3   3    0.42    0.13 
  15   3   3    0.22    0.17 
  15  -3   3    0.34    0.16 
  15  -3   3    0.24    0.11 
  15   3   4    0.33    0.18 
  15   3   4    0.57    0.14 
 -15   3  -4    0.70    0.17 
  15  -3   4    0.66    0.12 
  15  -3   4    0.32    0.15 
  15   3   5    0.01    0.17 
 -15   3  -5    0.02    0.15 
  15   3   5   -0.09    0.13 
  15  -3   5    0.14    0.12 
  15  -3   5    0.07    0.15 
  15   3   6   -0.09    0.15 
  15   3   6   -0.13    0.13 
 -15   3  -6    0.06    0.15 
  15  -3   6    0.11    0.17 
  15  -3   6    0.10    0.13 
 -15   3  -7    0.23    0.16 
  15   3   7    0.29    0.14 
  15   3   7    0.21    0.18 
  15  -3   7    0.42    0.14 
  15  -3   7    0.42    0.18 
  15   3   8    0.02    0.20 
  15   3   8    0.25    0.15 
  15  -3   8   -0.07    0.17 
  15  -3   8    0.06    0.14 
  15   3   9    0.40    0.19 
  15   3   9    0.30    0.17 
  15  -3   9    0.38    0.16 
  15  -3   9    0.57    0.18 
 -15   4   8    1.44    0.20 
  15   4  -8    1.29    0.16 
  15  -4  -8    1.23    0.21 
 -15   4   7    2.00    0.21 
  15   4  -7    2.42    0.17 
  15  -4  -7    2.06    0.23 
 -15   4   6    1.32    0.20 
  15   4  -6    1.19    0.14 
  15  -4  -6    0.94    0.19 
 -15   4   5    0.06    0.15 
  15   4  -5    0.04    0.10 
  15  -4  -5   -0.21    0.15 
  15   4  -4    0.87    0.13 
 -15   4   4    0.81    0.17 
  15  -4  -4    0.73    0.17 
  15   4  -3    1.64    0.14 
 -15   4   3    1.43    0.19 
  15  -4  -3    1.71    0.20 
 -15   4   2    3.00    0.22 
  15   4  -2    3.16    0.20 
  15  -4  -2    3.51    0.24 
  15  -4  -2    3.44    0.18 
 -15   4   1    2.56    0.21 
  15   4  -1    3.01    0.24 
  15   4  -1    2.53    0.17 
  15  -4  -1    3.03    0.18 
  15  -4  -1    2.35    0.20 
  15   4   0    2.61    0.24 
  15   4   0    2.79    0.21 
 -15   4   0    2.89    0.22 
  15  -4   0    2.73    0.17 
  15  -4   0    2.85    0.22 
  15   4   1    0.31    0.16 
 -15   4  -1    0.36    0.16 
  15   4   1    0.08    0.11 
  15  -4   1    0.19    0.09 
  15  -4   1    0.33    0.17 
 -15   4  -2    1.33    0.19 
  15   4   2    0.87    0.14 
  15   4   2    1.24    0.21 
  15  -4   2    1.29    0.19 
  15  -4   2    1.20    0.12 
 -15   4  -3    0.87    0.18 
  15   4   3    0.92    0.14 
  15   4   3    1.13    0.20 
  15  -4   3    1.10    0.12 
  15  -4   3    1.11    0.19 
 -15   4  -4    0.22    0.16 
  15   4   4    0.25    0.18 
  15   4   4    0.19    0.12 
  15  -4   4    0.30    0.13 
  15  -4   4    0.19    0.17 
  15   4   5    1.06    0.21 
  15   4   5    1.05    0.15 
 -15   4  -5    1.26    0.19 
  15  -4   5    0.85    0.19 
 -15   4  -6    1.31    0.19 
  15   4   6    1.13    0.21 
  15   4   6    1.07    0.16 
  15  -4   6    1.51    0.21 
  15   4   7    0.81    0.21 
  15   4   7    0.94    0.17 
 -15   4  -7    1.09    0.20 
  15  -4   7    1.12    0.20 
 -15   4  -8    0.26    0.19 
  15   4   8    0.10    0.16 
  15   4   8    0.26    0.21 
  15  -4   8    0.01    0.17 
 -15   5   6    2.36    0.24 
  15   5  -6    1.83    0.15 
  15  -5  -6    2.03    0.23 
 -15   5   5    0.33    0.17 
  15   5  -5    0.36    0.11 
  15  -5  -5    0.37    0.18 
  15   5  -4    2.07    0.15 
 -15   5   4    2.12    0.22 
  15  -5  -4    2.05    0.22 
  15   5  -3    2.56    0.16 
 -15   5   3    2.57    0.24 
  15  -5  -3    3.20    0.25 
  15   5  -2   -0.03    0.10 
 -15   5   2   -0.06    0.17 
  15  -5  -2   -0.13    0.15 
  15   5  -1    0.79    0.12 
  15   5  -1    0.44    0.18 
 -15   5   1    0.49    0.19 
  15  -5  -1    0.53    0.18 
  15   5   0    0.37    0.11 
  15   5   0    0.12    0.18 
 -15   5   0    0.33    0.18 
  15  -5   0    0.39    0.18 
  15   5   1    0.25    0.19 
 -15   5  -1    0.51    0.18 
  15   5   1    0.45    0.12 
  15  -5   1    0.26    0.16 
  15   5   2    1.38    0.14 
 -15   5  -2    1.29    0.19 
  15   5   2    1.10    0.21 
  15  -5   2    1.60    0.21 
  15   5   3    0.32    0.12 
  15   5   3    0.58    0.19 
 -15   5  -3    0.07    0.16 
  15  -5   3    0.45    0.17 
  15   5   4   -0.02    0.19 
 -15   5  -4   -0.06    0.17 
  15   5   4   -0.01    0.12 
  15  -5   4    0.01    0.16 
 -15   5  -5    0.17    0.19 
  15   5   5    0.14    0.13 
  15   5   5    0.07    0.20 
  15  -5   5    0.19    0.18 
  15   5   6   -0.04    0.20 
  15   5   6    0.37    0.14 
 -15   5  -6    0.04    0.19 
  15  -5   6    0.51    0.19 
  15   6  -3    2.28    0.14 
 -15   6   3    2.16    0.23 
  15  -6  -3    2.07    0.22 
 -15   6   2    0.17    0.19 
  15   6  -2    0.25    0.10 
  15   6  -2    0.21    0.19 
  15  -6  -2    0.28    0.17 
  15   6  -1    1.19    0.13 
  15   6  -1    1.36    0.23 
 -15   6   1    1.43    0.21 
  15  -6  -1    1.31    0.21 
  15   6   0    0.35    0.20 
  15   6   0    0.46    0.11 
 -15   6   0    0.36    0.18 
  15  -6   0    0.49    0.19 
  15   6   1    0.07    0.20 
 -15   6  -1   -0.04    0.19 
  15   6   1    0.01    0.10 
  15  -6   1    0.19    0.18 
  15   6   2   -0.04    0.18 
 -15   6  -2   -0.08    0.17 
  15   6   2   -0.08    0.11 
  15  -6   2   -0.07    0.16 
  16   0 -10    7.54    0.37 
  16   0  -9   -0.01    0.16 
  16   0  -8    0.86    0.18 
  16   0  -7    0.05    0.15 
  16   0  -6    0.42    0.15 
  16   0  -5   -0.06    0.13 
  16   0  -4    5.20    0.29 
  16   0  -3   -0.13    0.13 
 -16   0   2    0.57    0.13 
  16   0  -2    0.37    0.15 
  16   0  -1   -0.06    0.13 
 -16   0   1   -0.06    0.10 
  16   0   0    0.09    0.13 
 -16   0   0    0.07    0.10 
  16   0   0    0.00    0.14 
  16   0   1    0.16    0.14 
  16   0   1   -0.03    0.13 
 -16   0  -1   -0.04    0.10 
  16   0   2    3.04    0.21 
 -16   0  -2    2.87    0.21 
  16   0   2    2.76    0.21 
  16   0   3   -0.05    0.13 
  16   0   3    0.00    0.14 
  16   0   4    5.84    0.29 
  16   0   4    6.05    0.31 
  16   0   5   -0.11    0.14 
  16   0   5    0.05    0.15 
  16   0   6    0.15    0.16 
  16   0   6    0.01    0.16 
  16   0   7   -0.16    0.15 
  16   0   7   -0.04    0.16 
  16   0   8   -0.06    0.16 
  16   0   8   -0.20    0.15 
  16   0   9   -0.09    0.18 
  16   0   9   -0.04    0.17 
  16   1 -10    0.50    0.17 
  16  -1 -10    0.80    0.20 
  16   1  -9    0.58    0.17 
  16  -1  -9    0.22    0.17 
  16   1  -8    1.31    0.18 
  16  -1  -8    1.52    0.21 
  16   1  -7    7.71    0.33 
  16  -1  -7    8.24    0.36 
  16   1  -6   -0.01    0.14 
  16  -1  -6    0.03    0.15 
  16   1  -5    2.15    0.18 
 -16   1   5    2.17    0.17 
  16  -1  -5    2.11    0.20 
 -16   1   4    3.19    0.22 
  16   1  -4    2.68    0.20 
  16  -1  -4    2.62    0.21 
 -16   1   3   -0.11    0.11 
  16   1  -3   -0.08    0.12 
  16  -1  -3   -0.08    0.14 
  16   1  -2    0.23    0.13 
 -16   1   2    0.24    0.11 
  16  -1  -2    0.35    0.15 
  16   1  -1    7.78    0.31 
 -16   1   1    7.62    0.28 
  16  -1  -1    7.12    0.32 
 -16   1   0    0.43    0.12 
  16   1   0    0.72    0.16 
  16   1   0    0.38    0.14 
  16  -1   0    0.54    0.13 
  16  -1   0    0.47    0.15 
 -16   1  -1    4.08    0.24 
  16   1   1    4.09    0.26 
  16   1   1    4.26    0.25 
  16  -1   1    4.58    0.28 
  16  -1   1    4.72    0.24 
  16   1   2    1.10    0.18 
  16   1   2    0.95    0.16 
 -16   1  -2    0.81    0.14 
  16  -1   2    0.66    0.15 
  16  -1   2    0.92    0.17 
  16   1   3    2.98    0.21 
 -16   1  -3    3.33    0.24 
  16   1   3    2.71    0.21 
  16  -1   3    2.78    0.20 
  16  -1   3    3.35    0.24 
  16   1   4    0.25    0.16 
  16   1   4    0.31    0.14 
 -16   1  -4    0.14    0.13 
  16  -1   4    0.26    0.14 
  16  -1   4    0.24    0.15 
  16   1   5    0.13    0.15 
  16   1   5    0.19    0.15 
  16  -1   5    0.21    0.17 
  16  -1   5    0.07    0.14 
  16   1   6    0.13    0.17 
  16   1   6    0.07    0.16 
  16  -1   6    0.19    0.15 
  16  -1   6    0.38    0.18 
  16   1   7    3.77    0.26 
  16   1   7    3.44    0.24 
  16  -1   7    3.41    0.23 
  16  -1   7    3.16    0.24 
  16   1   8    0.10    0.17 
  16   1   8    0.12    0.18 
  16  -1   8   -0.04    0.17 
  16  -1   8    0.06    0.17 
  16   1   9    0.30    0.19 
  16   1   9    0.31    0.18 
  16  -1   9    0.21    0.19 
  16  -1   9    0.00    0.17 
  16   2  -9    0.00    0.15 
  16  -2  -9   -0.07    0.17 
  16   2  -8    1.83    0.19 
  16  -2  -8    2.11    0.23 
  16   2  -7    1.26    0.17 
 -16   2   7    1.53    0.18 
  16  -2  -7    1.30    0.20 
 -16   2   6    0.45    0.15 
  16   2  -6    0.34    0.14 
  16  -2  -6    0.60    0.18 
 -16   2   5    0.90    0.16 
  16   2  -5    1.11    0.15 
  16  -2  -5    0.73    0.18 
  16   2  -4    4.21    0.25 
 -16   2   4    4.42    0.26 
  16  -2  -4    4.98    0.31 
 -16   2   3    0.16    0.13 
  16   2  -3    0.21    0.12 
  16  -2  -3    0.13    0.15 
  16   2  -2    4.34    0.25 
 -16   2   2    4.13    0.26 
  16  -2  -2    4.18    0.28 
  16   2  -1    0.46    0.13 
 -16   2   1    0.28    0.13 
  16  -2  -1    0.39    0.15 
  16  -2  -1    0.42    0.13 
 -16   2   0    0.51    0.14 
  16   2   0    0.21    0.16 
  16   2   0    0.14    0.13 
  16  -2   0    0.02    0.14 
  16  -2   0    0.17    0.12 
 -16   2  -1   -0.06    0.13 
  16   2   1    0.07    0.13 
  16   2   1   -0.10    0.15 
  16  -2   1    0.05    0.14 
  16  -2   1    0.00    0.12 
  16   2   2    8.27    0.32 
 -16   2  -2    8.58    0.33 
  16   2   2    8.97    0.36 
  16  -2   2    8.36    0.30 
  16  -2   2    8.68    0.35 
  16   2   3    0.01    0.13 
 -16   2  -3   -0.02    0.14 
  16   2   3    0.18    0.17 
  16  -2   3    0.14    0.16 
  16  -2   3   -0.01    0.12 
  16   2   4    0.48    0.15 
 -16   2  -4    0.57    0.15 
  16   2   4    0.51    0.18 
  16  -2   4    0.31    0.16 
  16  -2   4    0.68    0.14 
  16   2   5    0.17    0.14 
 -16   2  -5    0.06    0.14 
  16   2   5   -0.09    0.17 
  16  -2   5    0.09    0.13 
  16  -2   5    0.07    0.16 
  16   2   6    0.00    0.17 
  16   2   6   -0.10    0.14 
 -16   2  -6   -0.03    0.15 
  16  -2   6   -0.02    0.16 
  16  -2   6   -0.15    0.13 
  16   2   7    1.19    0.20 
  16   2   7    0.91    0.17 
  16  -2   7    0.93    0.19 
  16  -2   7    1.50    0.19 
  16   2   8   -0.02    0.20 
  16   2   8   -0.06    0.15 
  16  -2   8   -0.10    0.15 
  16  -2   8    0.10    0.18 
 -16   3   8    1.74    0.20 
  16   3  -8    1.16    0.17 
  16  -3  -8    1.32    0.22 
  16   3  -7    1.04    0.16 
 -16   3   7    1.19    0.19 
  16  -3  -7    1.04    0.21 
  16   3  -6    0.23    0.13 
 -16   3   6    0.34    0.16 
  16  -3  -6    0.29    0.17 
  16   3  -5    0.54    0.13 
 -16   3   5    0.38    0.15 
  16  -3  -5    0.66    0.18 
  16   3  -4    0.85    0.14 
 -16   3   4    0.54    0.16 
  16  -3  -4    0.67    0.17 
 -16   3   3    2.05    0.20 
  16   3  -3    1.65    0.16 
  16  -3  -3    1.68    0.21 
 -16   3   2    0.99    0.17 
  16   3  -2    0.91    0.14 
  16  -3  -2    1.05    0.19 
  16   3  -1    1.04    0.18 
  16   3  -1    1.53    0.16 
 -16   3   1    1.35    0.18 
  16  -3  -1    1.70    0.15 
  16  -3  -1    1.33    0.18 
  16   3   0    0.45    0.13 
 -16   3   0    0.36    0.15 
  16   3   0    0.25    0.17 
  16  -3   0    0.36    0.12 
  16  -3   0    0.12    0.16 
 -16   3  -1    0.80    0.16 
  16   3   1    1.21    0.20 
  16   3   1    0.75    0.14 
  16  -3   1    0.72    0.17 
  16  -3   1    0.91    0.13 
 -16   3  -2    0.34    0.15 
  16   3   2    0.38    0.18 
  16   3   2    0.28    0.14 
  16  -3   2    0.44    0.16 
  16  -3   2    0.14    0.11 
  16   3   3    0.10    0.17 
 -16   3  -3    0.08    0.15 
  16   3   3    0.33    0.14 
  16  -3   3    0.25    0.16 
  16  -3   3    0.29    0.12 
  16   3   4    2.68    0.20 
 -16   3  -4    3.14    0.24 
  16   3   4    3.12    0.26 
  16  -3   4    2.33    0.22 
  16  -3   4    2.51    0.17 
  16   3   5    2.36    0.20 
  16   3   5    2.00    0.21 
 -16   3  -5    2.59    0.22 
  16  -3   5    2.44    0.18 
  16  -3   5    1.82    0.21 
  16   3   6    0.77    0.21 
  16   3   6    0.59    0.16 
 -16   3  -6    0.63    0.17 
  16  -3   6    1.01    0.20 
  16  -3   6    0.70    0.15 
  16   3   7    1.68    0.22 
 -16   3  -7    1.57    0.21 
  16   3   7    1.61    0.19 
  16  -3   7    1.63    0.23 
  16  -3   7    1.99    0.19 
 -16   4   7   -0.09    0.17 
  16   4  -7   -0.06    0.12 
  16  -4  -7    0.27    0.19 
  16   4  -6    1.01    0.15 
 -16   4   6    0.70    0.17 
  16  -4  -6    1.03    0.21 
  16   4  -5    1.20    0.15 
 -16   4   5    1.21    0.19 
  16  -4  -5    1.15    0.20 
  16   4  -4    3.42    0.22 
 -16   4   4    2.97    0.24 
  16  -4  -4    3.06    0.24 
 -16   4   3    1.65    0.21 
  16   4  -3    1.82    0.16 
  16  -4  -3    1.49    0.20 
  16   4  -2    0.08    0.12 
 -16   4   2    0.14    0.15 
  16  -4  -2    0.18    0.10 
  16  -4  -2   -0.01    0.16 
  16   4  -1    0.07    0.11 
 -16   4   1   -0.09    0.15 
  16   4  -1    0.05    0.18 
  16  -4  -1    0.08    0.11 
  16  -4  -1    0.08    0.16 
  16   4   0    0.54    0.13 
  16   4   0    0.80    0.19 
 -16   4   0    0.91    0.19 
  16  -4   0    0.65    0.17 
  16  -4   0    0.67    0.18 
 -16   4  -1    0.29    0.16 
  16   4   1    0.62    0.18 
  16   4   1    0.68    0.14 
  16  -4   1    0.54    0.18 
  16   4   2    0.29    0.20 
  16   4   2    0.52    0.14 
 -16   4  -2    0.41    0.17 
  16  -4   2    0.65    0.17 
  16   4   3    0.25    0.13 
  16   4   3    0.17    0.20 
 -16   4  -3    0.30    0.16 
  16  -4   3    0.18    0.18 
 -16   4  -4    0.15    0.17 
  16   4   4    0.22    0.13 
  16   4   4   -0.02    0.18 
  16  -4   4   -0.03    0.17 
 -16   4  -5   -0.02    0.18 
  16   4   5    0.04    0.17 
  16   4   5    0.09    0.14 
  16  -4   5    0.04    0.16 
  16   4   6   -0.07    0.14 
  16   4   6    0.05    0.20 
 -16   4  -6    0.17    0.18 
  16  -4   6    0.12    0.19 
 -16   5   4    0.06    0.17 
  16   5  -4    0.08    0.11 
  16  -5  -4    0.05    0.18 
  16   5  -3    1.47    0.15 
 -16   5   3    1.08    0.19 
  16  -5  -3    1.39    0.22 
 -16   5   2    1.94    0.23 
  16   5  -2    1.72    0.15 
  16   5  -2    1.36    0.21 
  16  -5  -2    1.59    0.21 
  16   5  -1    2.96    0.21 
  16   5  -1    3.58    0.28 
 -16   5   1    2.74    0.24 
  16  -5  -1    3.12    0.25 
  16   5   0    1.04    0.21 
  16   5   0    1.35    0.15 
 -16   5   0    1.56    0.22 
  16  -5   0    1.48    0.21 
  16   5   1    0.14    0.21 
 -16   5  -1   -0.08    0.18 
  16   5   1    0.03    0.12 
  16  -5   1   -0.16    0.16 
  16   5   2    0.82    0.23 
  16   5   2    0.64    0.14 
 -16   5  -2    0.51    0.19 
  16  -5   2    0.45    0.18 
  16   5   3    0.20    0.13 
 -16   5  -3    0.46    0.19 
  16   5   3    0.25    0.21 
  16  -5   3    0.26    0.18 
  17   0  -8    1.93    0.22 
  17   0  -7    0.09    0.16 
  17   0  -6    4.66    0.31 
  17   0  -5   -0.04    0.15 
  17   0  -4    1.54    0.20 
  17   0  -3   -0.21    0.13 
  17   0  -2    0.57    0.16 
  17   0  -1   -0.10    0.14 
  17   0  -1   -0.08    0.14 
  17   0   0    2.25    0.20 
  17   0   0    2.51    0.21 
  17   0   1   -0.01    0.14 
  17   0   1    0.00    0.15 
  17   0   2    1.19    0.18 
  17   0   2    1.55    0.19 
  17   0   3    0.01    0.15 
  17   0   3   -0.07    0.15 
  17   0   4    0.07    0.15 
  17   0   4   -0.09    0.15 
  17   0   5    0.10    0.16 
  17   0   5   -0.08    0.16 
  17   0   6    0.02    0.17 
  17   0   6    0.17    0.17 
  17   0   7   -0.12    0.17 
  17   0   7    0.03    0.18 
  17   1  -8    0.49    0.17 
  17  -1  -8    0.84    0.20 
  17   1  -7   -0.01    0.15 
  17  -1  -7    0.24    0.17 
  17   1  -6    0.65    0.16 
  17  -1  -6    0.51    0.18 
  17   1  -5    3.61    0.28 
  17  -1  -5    3.94    0.30 
  17   1  -4    0.17    0.15 
  17  -1  -4   -0.17    0.15 
  17   1  -3    3.11    0.22 
  17  -1  -3    2.98    0.22 
 -17   1   2    0.24    0.14 
  17   1  -2    0.12    0.15 
  17  -1  -2    0.27    0.16 
  17   1  -1    1.18    0.19 
 -17   1   1    1.17    0.15 
  17   1  -1    1.17    0.17 
  17  -1  -1    1.33    0.17 
  17  -1  -1    1.04    0.17 
 -17   1   0    0.04    0.12 
  17   1   0    0.08    0.15 
  17   1   0    0.00    0.14 
  17  -1   0    0.13    0.15 
  17  -1   0   -0.04    0.14 
 -17   1  -1    0.12    0.13 
  17   1   1    0.22    0.14 
  17   1   1    0.24    0.16 
  17  -1   1    0.16    0.14 
  17  -1   1    0.12    0.15 
  17   1   2    0.39    0.15 
  17   1   2    0.28    0.17 
 -17   1  -2    0.34    0.13 
  17  -1   2    0.35    0.15 
  17  -1   2    0.30    0.16 
 -17   1  -3    1.25    0.17 
  17   1   3    0.94    0.18 
  17   1   3    0.67    0.17 
  17  -1   3    0.98    0.18 
  17  -1   3    1.00    0.17 
  17   1   4    0.09    0.16 
 -17   1  -4   -0.09    0.13 
  17   1   4    0.01    0.16 
  17  -1   4   -0.03    0.16 
  17  -1   4    0.03    0.14 
  17   1   5    1.20    0.19 
  17   1   5    1.18    0.20 
  17  -1   5    1.14    0.20 
  17  -1   5    0.86    0.18 
  17   1   6    0.94    0.19 
  17   1   6    0.82    0.18 
  17  -1   6    1.23    0.18 
  17  -1   6    1.10    0.21 
  17   1   7    1.00    0.21 
  17   1   7    1.07    0.19 
  17  -1   7    0.98    0.20 
  17  -1   7    0.99    0.19 
  17   2  -7    0.31    0.16 
  17  -2  -7    0.19    0.18 
  17   2  -6    3.89    0.28 
  17  -2  -6    4.49    0.29 
 -17   2   5    1.72    0.20 
  17   2  -5    1.65    0.18 
  17  -2  -5    1.86    0.22 
  17   2  -4    0.82    0.16 
 -17   2   4    1.03    0.17 
  17  -2  -4    1.24    0.20 
  17   2  -3    0.02    0.13 
 -17   2   3    0.03    0.14 
  17  -2  -3    0.04    0.16 
 -17   2   2   -0.05    0.13 
  17   2  -2    0.05    0.14 
  17  -2  -2    0.27    0.17 
 -17   2   1    0.05    0.13 
  17   2  -1    0.05    0.14 
  17   2  -1   -0.04    0.15 
  17  -2  -1    0.18    0.17 
  17  -2  -1   -0.03    0.12 
  17   2   0    1.06    0.16 
  17   2   0    0.72    0.19 
 -17   2   0    0.95    0.16 
  17  -2   0    1.04    0.15 
  17  -2   0    0.85    0.17 
  17   2   1    1.96    0.22 
 -17   2  -1    2.26    0.20 
  17   2   1    2.02    0.19 
  17  -2   1    1.89    0.18 
  17  -2   1    2.31    0.22 
  17   2   2    1.00    0.20 
 -17   2  -2    0.82    0.16 
  17   2   2    0.64    0.16 
  17  -2   2    0.70    0.19 
  17  -2   2    0.69    0.14 
  17   2   3    2.46    0.22 
  17   2   3    2.63    0.22 
 -17   2  -3    2.53    0.21 
  17  -2   3    2.64    0.23 
  17  -2   3    2.29    0.19 
 -17   2  -4    0.11    0.15 
  17   2   4    0.10    0.18 
  17   2   4    0.20    0.15 
  17  -2   4    0.03    0.13 
  17  -2   4    0.07    0.17 
 -17   2  -5    0.14    0.16 
  17   2   5    0.39    0.17 
  17   2   5   -0.09    0.19 
  17  -2   5   -0.04    0.16 
  17  -2   5    0.15    0.14 
  17   2   6   -0.14    0.15 
  17   2   6    0.09    0.18 
  17  -2   6   -0.21    0.18 
  17  -2   6    0.12    0.15 
  17   2   7    0.07    0.20 
  17   2   7   -0.16    0.16 
  17  -2   7    0.07    0.16 
  17  -2   7    0.20    0.19 
 -17   3   6    0.02    0.16 
  17   3  -6    0.04    0.14 
  17  -3  -6    0.25    0.19 
  17   3  -5    0.72    0.15 
 -17   3   5    1.05    0.19 
  17  -3  -5    0.73    0.19 
 -17   3   4    0.11    0.15 
  17   3  -4    0.17    0.14 
  17  -3  -4    0.08    0.17 
 -17   3   3    5.06    0.31 
  17   3  -3    5.37    0.27 
  17  -3  -3    5.47    0.34 
 -17   3   2    1.15    0.18 
  17   3  -2    1.21    0.16 
  17  -3  -2    1.04    0.20 
  17  -3  -2    1.16    0.15 
  17   3  -1    2.64    0.23 
 -17   3   1    2.45    0.21 
  17   3  -1    2.55    0.19 
  17  -3  -1    2.17    0.22 
  17  -3  -1    2.54    0.18 
  17   3   0    2.24    0.18 
  17   3   0    2.04    0.22 
 -17   3   0    2.08    0.20 
  17  -3   0    2.10    0.17 
  17  -3   0    2.07    0.22 
 -17   3  -1   -0.12    0.15 
  17   3   1    0.06    0.13 
  17   3   1    0.20    0.17 
  17  -3   1    0.04    0.18 
  17  -3   1    0.11    0.12 
  17   3   2    0.15    0.14 
 -17   3  -2    0.01    0.15 
  17   3   2    0.14    0.19 
  17  -3   2    0.01    0.16 
  17  -3   2    0.27    0.12 
 -17   3  -3    0.90    0.18 
  17   3   3    0.80    0.21 
  17   3   3    0.46    0.16 
  17  -3   3    0.94    0.21 
  17  -3   3    0.86    0.14 
  17   3   4    0.32    0.19 
 -17   3  -4    0.46    0.18 
  17   3   4    0.49    0.16 
  17  -3   4    0.46    0.19 
  17  -3   4    0.46    0.14 
  17   3   5    0.47    0.19 
 -17   3  -5    0.50    0.18 
  17   3   5    0.55    0.16 
  17  -3   5    0.51    0.14 
  17  -3   5    0.45    0.19 
 -17   4   4    2.16    0.23 
  17   4  -4    2.22    0.18 
  17  -4  -4    2.17    0.24 
 -17   4   3    0.44    0.17 
  17   4  -3    0.54    0.14 
  17  -4  -3    0.27    0.19 
 -17   4   2   -0.20    0.16 
  17   4  -2    0.02    0.13 
  17   4  -2    0.08    0.19 
  17  -4  -2   -0.03    0.16 
 -17   4   1    0.39    0.17 
  17   4  -1    0.49    0.19 
  17   4  -1    0.68    0.14 
  17  -4  -1    0.60    0.19 
  17   4   0    2.28    0.18 
  17   4   0    2.48    0.26 
 -17   4   0    1.92    0.21 
  17  -4   0    2.67    0.25 
 -17   4  -1    0.53    0.17 
  17   4   1    0.91    0.22 
  17   4   1    0.61    0.15 
  17  -4   1    0.40    0.20 
 -17   4  -2    1.89    0.22 
  17   4   2    1.54    0.18 
  17   4   2    1.97    0.25 
  17  -4   2    1.46    0.22 
  17   4   3    0.41    0.15 
  17   4   3    0.57    0.20 
 -17   4  -3    0.29    0.18 
  17  -4   3    0.25    0.17 
  18   0  -6    7.75    0.37 
  18   0  -5   -0.21    0.16 
  18   0  -4    0.12    0.17 
  18   0  -3    0.09    0.16 
  18   0  -2    2.09    0.21 
  18   0  -1    0.03    0.16 
  18   0  -1   -0.13    0.16 
  18   0   0    4.32    0.30 
  18   0   0    4.11    0.29 
  18   0   1    0.03    0.16 
  18   0   1   -0.21    0.16 
  18   0   2    0.02    0.16 
  18   0   2    0.09    0.17 
  18   0   3   -0.10    0.17 
  18   0   3   -0.08    0.16 
  18   0   4    0.72    0.18 
  18   0   4    0.63    0.19 
  18   0   5    0.13    0.18 
  18   0   5   -0.27    0.17 
  18   1  -6   -0.01    0.16 
  18  -1  -6   -0.01    0.18 
  18   1  -5    2.99    0.23 
  18  -1  -5    3.59    0.27 
  18   1  -4    0.00    0.15 
  18  -1  -4    0.27    0.17 
  18   1  -3    4.18    0.26 
  18  -1  -3    4.43    0.32 
  18   1  -2    0.16    0.16 
  18  -1  -2    0.20    0.18 
  18   1  -1    0.21    0.16 
  18   1  -1    0.25    0.17 
  18  -1  -1    0.44    0.16 
  18  -1  -1    0.45    0.18 
  18   1   0    0.54    0.17 
  18   1   0    0.60    0.18 
  18  -1   0    0.40    0.18 
  18  -1   0    0.62    0.16 
  18   1   1    1.11    0.18 
  18   1   1    1.41    0.21 
  18  -1   1    1.47    0.19 
  18  -1   1    1.44    0.20 
  18   1   2   -0.06    0.17 
  18   1   2    0.05    0.15 
  18  -1   2    0.26    0.18 
  18  -1   2   -0.15    0.14 
  18   1   3    2.66    0.23 
  18   1   3    3.34    0.25 
  18  -1   3    3.37    0.26 
  18  -1   3    3.19    0.23 
  18   1   4    0.13    0.18 
  18   1   4   -0.18    0.16 
  18  -1   4    0.31    0.18 
  18  -1   4    0.00    0.15 
  18   1   5    0.45    0.19 
  18   1   5    0.49    0.18 
  18  -1   5    0.60    0.18 
  18  -1   5    0.49    0.20 
  18   2  -5    0.67    0.17 
  18  -2  -5    0.75    0.19 
  18   2  -4   -0.01    0.15 
  18  -2  -4   -0.02    0.17 
  18   2  -3    0.80    0.17 
  18  -2  -3    0.48    0.19 
  18   2  -2    0.84    0.17 
  18  -2  -2    0.77    0.19 
  18  -2  -2    1.03    0.16 
  18   2  -1    0.07    0.19 
  18   2  -1   -0.12    0.15 
 -18   2   1    0.03    0.16 
  18  -2  -1   -0.03    0.13 
  18  -2  -1   -0.02    0.16 
  18   2   0    1.29    0.18 
  18   2   0    1.19    0.22 
 -18   2   0    1.28    0.18 
  18  -2   0    1.07    0.19 
  18  -2   0    1.25    0.17 
  18   2   1    0.06    0.19 
 -18   2  -1    0.05    0.14 
  18   2   1   -0.01    0.15 
  18  -2   1    0.10    0.18 
  18  -2   1    0.08    0.14 
 -18   2  -2    0.24    0.15 
  18   2   2    0.49    0.17 
  18   2   2    0.25    0.19 
  18  -2   2    0.28    0.14 
  18  -2   2    0.44    0.18 
 -18   2  -3    0.14    0.15 
  18   2   3    0.04    0.17 
  18   2   3   -0.04    0.15 
  18  -2   3    0.04    0.18 
  18  -2   3    0.07    0.14 
 -18   2  -4    0.85    0.18 
  18   2   4    0.81    0.18 
  18   2   4    0.39    0.21 
  18  -2   4    0.54    0.16 
  18  -2   4    0.58    0.20 
  18   3  -3    1.38    0.18 
 -18   3   3    1.55    0.21 
  18  -3  -3    1.34    0.22 
  18   3  -2    0.07    0.15 
 -18   3   2    0.00    0.15 
  18   3  -2   -0.14    0.18 
  18  -3  -2    0.00    0.17 
  18  -3  -2   -0.02    0.13 
 -18   3   1    0.85    0.18 
  18   3  -1    0.72    0.21 
  18   3  -1    0.65    0.16 
  18  -3  -1    0.73    0.15 
  18  -3  -1    0.67    0.20 
  18   3   0    0.52    0.16 
 -18   3   0    0.69    0.18 
  18   3   0    0.14    0.19 
  18  -3   0    0.42    0.14 
  18  -3   0    0.19    0.17 
 -18   3  -1    0.26    0.17 
  18   3   1    0.08    0.21 
  18   3   1    0.26    0.15 
  18  -3   1    0.01    0.18 
  18  -3   1    0.27    0.13 
  18   3   2   -0.27    0.15 
  18   3   2    0.07    0.21 
 -18   3  -2   -0.10    0.16 
  18  -3   2    0.11    0.13 
  18  -3   2    0.11    0.18 
  19   0  -2    0.26    0.18 
  19   0  -2    0.11    0.18 
  19   0  -1    0.24    0.18 
  19   0  -1    0.00    0.17 
  19   0   0    0.19    0.17 
  19   0   0    0.23    0.17 
  19   0   1   -0.04    0.18 
  19   0   1   -0.13    0.17 
  19   0   2    0.73    0.19 
  19   1  -2    0.20    0.17 
  19  -1  -2   -0.09    0.18 
  19   1  -1    1.37    0.21 
  19   1  -1    1.47    0.23 
  19  -1  -1    1.12    0.22 
  19  -1  -1    1.43    0.20 
  19   1   0    0.28    0.20 
  19   1   0    0.14    0.17 
  19  -1   0    0.23    0.19 
  19  -1   0    0.12    0.17 
  19   1   1    0.38    0.17 
  19  -1   1    0.63    0.20 
   0   0   0    0.00    0.00 
;
_shelx_hkl_checksum              96382
loop_
_space_group_symop_operation_xyz
'x, y, z'
'-x, y+1/2, -z+1/2'
'-x, -y, -z'
'x, -y-1/2, z-1/2'
loop_
_atom_site_label
_atom_site_type_symbol
_atom_site_fract_x
_atom_site_fract_y
_atom_site_fract_z
_atom_site_U_iso_or_equiv
_atom_site_adp_type
_atom_site_occupancy
_atom_site_site_symmetry_order
_atom_site_calc_flag
_atom_site_refinement_flags_posn
_atom_site_refinement_flags_adp
C1 C 1.13490(14) 0.2398(3) 0.08653(18) 0.0555(6) Uani 1 1 d . .
H1 H 1.1438 0.3559 0.0913 0.067 Uiso 1 1 calc R U
C2 C 1.20197(14) 0.1418(4) 0.04810(19) 0.0585(7) Uani 1 1 d . .
H2 H 1.2527 0.1931 0.0258 0.070 Uiso 1 1 calc R U
C3 C 1.19247(14) -0.0280(3) 0.04358(17) 0.0530(6) Uani 1 1 d . .
H3 H 1.2371 -0.0949 0.0193 0.064 Uiso 1 1 calc R U
C4 C 1.11392(13) -0.1032(3) 0.07614(15) 0.0427(5) Uani 1 1 d . .
C5 C 1.09733(15) -0.2784(3) 0.07508(17) 0.0527(6) Uani 1 1 d . .
H5 H 1.1396 -0.3523 0.0521 0.063 Uiso 1 1 calc R U
C6 C 1.02000(16) -0.3402(3) 0.10738(17) 0.0540(6) Uani 1 1 d . .
H6 H 1.0103 -0.4564 0.1067 0.065 Uiso 1 1 calc R U
C7 C 0.95418(14) -0.2323(3) 0.14185(16) 0.0486(6) Uani 1 1 d . .
H7 H 0.9018 -0.2771 0.1640 0.058 Uiso 1 1 calc R U
C8 C 0.96764(13) -0.0612(3) 0.14260(15) 0.0379(5) Uani 1 1 d . .
C9 C 1.04903(13) 0.0073(3) 0.11097(14) 0.0370(5) Uani 1 1 d . .
C10 C 0.82162(13) 0.0412(3) 0.19717(15) 0.0388(5) Uani 1 1 d . .
C11 C 0.77362(12) 0.2003(3) 0.21375(15) 0.0364(5) Uani 1 1 d . .
C12 C 0.69763(12) 0.2169(3) 0.26423(14) 0.0356(5) Uani 1 1 d . .
C13 C 0.66847(13) 0.3872(3) 0.26846(16) 0.0416(5) Uani 1 1 d . .
H13 H 0.6179 0.4209 0.2994 0.050 Uiso 1 1 calc R U
C14 C 0.72173(15) 0.4950(3) 0.22293(17) 0.0470(6) Uani 1 1 d . .
H14 H 0.7123 0.6112 0.2194 0.056 Uiso 1 1 calc R U
C15 C 0.56401(12) 0.1524(3) 0.40339(16) 0.0385(5) Uani 1 1 d . .
C16 C 0.58519(14) 0.1721(3) 0.49796(17) 0.0467(6) Uani 1 1 d . .
H16 H 0.6387 0.1313 0.5221 0.056 Uiso 1 1 calc R U
C17 C 0.52713(16) 0.2522(3) 0.55690(18) 0.0544(6) Uani 1 1 d . .
H17 H 0.5414 0.2644 0.6208 0.065 Uiso 1 1 calc R U
C18 C 0.44843(15) 0.3141(3) 0.52163(19) 0.0522(6) Uani 1 1 d . .
H18 H 0.4096 0.3685 0.5615 0.063 Uiso 1 1 calc R U
C19 C 0.42711(14) 0.2958(3) 0.42762(18) 0.0518(6) Uani 1 1 d . .
H19 H 0.3739 0.3386 0.4037 0.062 Uiso 1 1 calc R U
C20 C 0.48394(13) 0.2143(3) 0.36830(16) 0.0460(6) Uani 1 1 d . .
H20 H 0.4687 0.2006 0.3047 0.055 Uiso 1 1 calc R U
N1 N 1.05979(11) 0.1773(2) 0.11645(13) 0.0459(5) Uani 1 1 d . .
N2 N 0.90692(11) 0.0605(3) 0.17155(14) 0.0427(5) Uani 1 1 d . .
O1 O 0.78518(10) -0.0952(2) 0.20691(12) 0.0522(4) Uani 1 1 d . .
S1 S 0.80821(4) 0.39463(7) 0.17260(4) 0.04748(16) Uani 1 1 d . .
Se1 Se 0.64236(2) 0.02909(3) 0.32325(2) 0.04962(10) Uani 1 1 d . .
H1N H 0.9261(14) 0.158(3) 0.1719(15) 0.040(7) Uiso 1 1 d . .
loop_
_atom_site_aniso_label
_atom_site_aniso_U_11
_atom_site_aniso_U_22
_atom_site_aniso_U_33
_atom_site_aniso_U_23
_atom_site_aniso_U_13
_atom_site_aniso_U_12
C1 0.0380(12) 0.0612(15) 0.0675(18) 0.0011(13) 0.0061(12) 0.0018(11)
C2 0.0297(11) 0.0814(19) 0.0648(18) 0.0053(15) 0.0080(11) 0.0058(11)
C3 0.0331(12) 0.0815(18) 0.0446(15) -0.0002(13) 0.0044(10) 0.0181(11)
C4 0.0352(11) 0.0627(15) 0.0302(12) 0.0005(11) 0.0000(9) 0.0161(10)
C5 0.0477(13) 0.0620(16) 0.0487(15) -0.0029(12) 0.0059(11) 0.0226(12)
C6 0.0576(14) 0.0491(13) 0.0554(16) -0.0009(12) 0.0045(12) 0.0126(11)
C7 0.0441(12) 0.0524(14) 0.0496(15) -0.0003(12) 0.0077(11) 0.0048(10)
C8 0.0329(10) 0.0517(14) 0.0290(12) -0.0036(10) 0.0037(9) 0.0090(9)
C9 0.0325(10) 0.0526(14) 0.0260(12) 0.0002(10) -0.0007(9) 0.0084(9)
C10 0.0347(11) 0.0491(13) 0.0329(13) -0.0030(10) 0.0059(9) 0.0019(10)
C11 0.0314(10) 0.0426(12) 0.0353(12) -0.0011(10) 0.0043(9) -0.0015(9)
C12 0.0305(10) 0.0419(12) 0.0344(12) -0.0022(9) 0.0026(9) -0.0023(8)
C13 0.0357(11) 0.0432(12) 0.0461(14) -0.0048(11) 0.0073(10) 0.0039(9)
C14 0.0473(13) 0.0408(12) 0.0529(15) -0.0017(11) 0.0031(11) 0.0033(10)
C15 0.0313(10) 0.0412(11) 0.0433(14) 0.0010(10) 0.0097(9) -0.0040(9)
C16 0.0367(11) 0.0538(13) 0.0495(15) 0.0075(12) 0.0005(11) -0.0032(10)
C17 0.0582(15) 0.0666(16) 0.0386(14) -0.0037(12) 0.0072(12) -0.0105(12)
C18 0.0436(13) 0.0571(14) 0.0567(17) -0.0133(13) 0.0193(12) -0.0035(11)
C19 0.0321(11) 0.0609(15) 0.0626(18) -0.0023(13) 0.0071(11) 0.0035(10)
C20 0.0384(11) 0.0597(14) 0.0401(14) -0.0027(11) 0.0028(10) -0.0019(10)
N1 0.0322(9) 0.0570(12) 0.0488(12) -0.0020(9) 0.0046(8) 0.0057(8)
N2 0.0338(10) 0.0467(12) 0.0480(12) -0.0080(9) 0.0105(8) 0.0015(8)
O1 0.0449(9) 0.0447(9) 0.0677(12) 0.0016(8) 0.0197(8) 0.0020(7)
S1 0.0418(3) 0.0485(3) 0.0526(4) 0.0035(3) 0.0130(3) -0.0034(2)
Se1 0.04493(14) 0.04160(14) 0.06332(19) -0.00012(11) 0.02267(11) 0.00058(10)
loop_
_atom_type_symbol
_atom_type_description
_atom_type_scat_dispersion_real
_atom_type_scat_dispersion_imag
_atom_type_scat_source
C C 0.0033 0.0016 'International Tables Vol C Tables 4.2.6.8 and 6.1.1.4'
H H 0.0000 0.0000 'International Tables Vol C Tables 4.2.6.8 and 6.1.1.4'
N N 0.0061 0.0033 'International Tables Vol C Tables 4.2.6.8 and 6.1.1.4'
O O 0.0106 0.0060 'International Tables Vol C Tables 4.2.6.8 and 6.1.1.4'
S S 0.1246 0.1234 'International Tables Vol C Tables 4.2.6.8 and 6.1.1.4'
Se Se -0.0929 2.2259 'International Tables Vol C Tables 4.2.6.8 and 6.1.1.4'
loop_
_geom_angle_atom_site_label_1
_geom_angle_atom_site_label_2
_geom_angle_atom_site_label_3
_geom_angle
N1 C1 C2 123.9(2)
N1 C1 H1 118.0
C2 C1 H1 118.0
C3 C2 C1 119.4(2)
C3 C2 H2 120.3
C1 C2 H2 120.3
C2 C3 C4 119.4(2)
C2 C3 H3 120.3
C4 C3 H3 120.3
C5 C4 C9 119.1(2)
C5 C4 C3 124.1(2)
C9 C4 C3 116.8(2)
C6 C5 C4 120.3(2)
C6 C5 H5 119.8
C4 C5 H5 119.8
C5 C6 C7 121.5(2)
C5 C6 H6 119.3
C7 C6 H6 119.3
C8 C7 C6 119.7(2)
C8 C7 H7 120.2
C6 C7 H7 120.2
C7 C8 N2 125.7(2)
C7 C8 C9 120.13(19)
N2 C8 C9 114.17(19)
N1 C9 C4 123.31(19)
N1 C9 C8 117.48(18)
C4 C9 C8 119.2(2)
O1 C10 N2 124.4(2)
O1 C10 C11 120.64(18)
N2 C10 C11 115.00(19)
C12 C11 C10 125.91(19)
C12 C11 S1 110.71(15)
C10 C11 S1 123.38(15)
C11 C12 C13 112.22(18)
C11 C12 Se1 122.29(15)
C13 C12 Se1 125.47(15)
C14 C13 C12 112.94(19)
C14 C13 H13 123.5
C12 C13 H13 123.5
C13 C14 S1 112.33(16)
C13 C14 H14 123.8
S1 C14 H14 123.8
C16 C15 C20 119.3(2)
C16 C15 Se1 119.77(16)
C20 C15 Se1 120.83(17)
C15 C16 C17 120.1(2)
C15 C16 H16 119.9
C17 C16 H16 119.9
C18 C17 C16 120.3(2)
C18 C17 H17 119.9
C16 C17 H17 119.9
C19 C18 C17 119.9(2)
C19 C18 H18 120.0
C17 C18 H18 120.0
C18 C19 C20 120.4(2)
C18 C19 H19 119.8
C20 C19 H19 119.8
C19 C20 C15 120.0(2)
C19 C20 H20 120.0
C15 C20 H20 120.0
C1 N1 C9 117.14(19)
C10 N2 C8 129.6(2)
C10 N2 H1N 116.1(15)
C8 N2 H1N 114.4(15)
C14 S1 C11 91.80(10)
C12 Se1 C15 98.43(8)
loop_
_geom_bond_atom_site_label_1
_geom_bond_atom_site_label_2
_geom_bond_distance
C1 N1 1.318(3)
C1 C2 1.397(3)
C1 H1 0.9300
C2 C3 1.351(4)
C2 H2 0.9300
C3 C4 1.416(3)
C3 H3 0.9300
C4 C5 1.407(3)
C4 C9 1.411(3)
C5 C6 1.357(3)
C5 H5 0.9300
C6 C7 1.407(3)
C6 H6 0.9300
C7 C8 1.367(3)
C7 H7 0.9300
C8 N2 1.398(3)
C8 C9 1.427(3)
C9 N1 1.355(3)
C10 O1 1.220(2)
C10 N2 1.358(3)
C10 C11 1.473(3)
C11 C12 1.374(3)
C11 S1 1.728(2)
C12 C13 1.417(3)
C12 Se1 1.906(2)
C13 C14 1.347(3)
C13 H13 0.9300
C14 S1 1.701(2)
C14 H14 0.9300
C15 C16 1.378(3)
C15 C20 1.388(3)
C15 Se1 1.925(2)
C16 C17 1.379(3)
C16 H16 0.9300
C17 C18 1.371(3)
C17 H17 0.9300
C18 C19 1.369(3)
C18 H18 0.9300
C19 C20 1.376(3)
C19 H19 0.9300
C20 H20 0.9300
N2 H1N 0.83(2)
loop_
_geom_torsion_atom_site_label_1
_geom_torsion_atom_site_label_2
_geom_torsion_atom_site_label_3
_geom_torsion_atom_site_label_4
_geom_torsion
N1 C1 C2 C3 -2.5(4)
C1 C2 C3 C4 1.3(4)
C2 C3 C4 C5 -179.7(2)
C2 C3 C4 C9 0.7(3)
C9 C4 C5 C6 -0.2(3)
C3 C4 C5 C6 -179.8(2)
C4 C5 C6 C7 0.6(4)
C5 C6 C7 C8 0.4(4)
C6 C7 C8 N2 177.6(2)
C6 C7 C8 C9 -1.7(3)
C5 C4 C9 N1 178.7(2)
C3 C4 C9 N1 -1.7(3)
C5 C4 C9 C8 -1.1(3)
C3 C4 C9 C8 178.5(2)
C7 C8 C9 N1 -177.7(2)
N2 C8 C9 N1 2.9(3)
C7 C8 C9 C4 2.1(3)
N2 C8 C9 C4 -177.26(18)
O1 C10 C11 C12 19.0(3)
N2 C10 C11 C12 -160.7(2)
O1 C10 C11 S1 -162.22(18)
N2 C10 C11 S1 18.1(3)
C10 C11 C12 C13 179.1(2)
S1 C11 C12 C13 0.2(2)
C10 C11 C12 Se1 0.7(3)
S1 C11 C12 Se1 -178.21(11)
C11 C12 C13 C14 -0.5(3)
Se1 C12 C13 C14 177.87(16)
C12 C13 C14 S1 0.6(3)
C20 C15 C16 C17 0.1(3)
Se1 C15 C16 C17 -176.45(17)
C15 C16 C17 C18 -0.6(3)
C16 C17 C18 C19 0.3(4)
C17 C18 C19 C20 0.5(4)
C18 C19 C20 C15 -1.0(3)
C16 C15 C20 C19 0.7(3)
Se1 C15 C20 C19 177.20(17)
C2 C1 N1 C9 1.5(4)
C4 C9 N1 C1 0.6(3)
C8 C9 N1 C1 -179.6(2)
O1 C10 N2 C8 6.8(4)
C11 C10 N2 C8 -173.5(2)
C7 C8 N2 C10 -5.9(4)
C9 C8 N2 C10 173.4(2)
C13 C14 S1 C11 -0.37(19)
C12 C11 S1 C14 0.08(18)
C10 C11 S1 C14 -178.86(19)
