#------------------------------------------------------------------------------
#$Date: 2016-08-13 04:39:14 +0300 (Sat, 13 Aug 2016) $
#$Revision: 185789 $
#$URL: file:///home/coder/svn-repositories/cod/cif/1/54/38/1543885.cif $
#------------------------------------------------------------------------------
#
# This file is available in the Crystallography Open Database (COD),
# http://www.crystallography.net/. The original data for this entry
# were provided by IUCr Journals, http://journals.iucr.org/.
#
# The file may be used within the scientific community so long as
# proper attribution is given to the journal article from which the
# data were obtained.
#
data_1543885
loop_
_publ_author_name
'El Ajlaoui, Rahhal'
'Belkhouya, Najat'
'Rakib, El Mostapha'
'Mojahidi, Souad'
'Saadi, Mohamed'
'El Ammari, Lahcen'
_publ_section_title
;
 (<i>Z</i>)-3-Allyl-5-(4-fluorobenzylidene)-2-sulfanylidenethiazolidin-4-one
;
_journal_coeditor_code           BT4020
_journal_issue                   8
_journal_name_full               IUCrData
_journal_page_first              x161236
_journal_paper_doi               10.1107/S2414314616012360
_journal_volume                  1
_journal_year                    2016
_chemical_formula_iupac          'C13 H10 F N O S2'
_chemical_formula_moiety         'C13 H10 F N O S2'
_chemical_formula_sum            'C13 H10 F N O S2'
_chemical_formula_weight         279.34
_chemical_melting_point          382
_chemical_name_systematic
;
(<i>Z</i>)-3-Allyl-5-(4-fluorobenzylidene)-2-sulfanylidenethiazolidin-4-one
;
_space_group_crystal_system      triclinic
_space_group_IT_number           2
_space_group_name_Hall           '-P 1'
_space_group_name_H-M_alt        'P -1'
_symmetry_space_group_name_Hall  '-P 1'
_symmetry_space_group_name_H-M   'P -1'
_atom_sites_solution_hydrogens   geom
_audit_creation_method           SHELXL-2014/7
_cell_angle_alpha                109.917(10)
_cell_angle_beta                 99.766(11)
_cell_angle_gamma                101.710(10)
_cell_formula_units_Z            2
_cell_length_a                   4.7764(10)
_cell_length_b                   11.750(3)
_cell_length_c                   13.067(3)
_cell_measurement_reflns_used    2861
_cell_measurement_temperature    296(2)
_cell_measurement_theta_max      27.098
_cell_measurement_theta_min      2.018
_cell_volume                     652.0(3)
_computing_cell_refinement
;
SAINT (Bruker, 2009)
;
_computing_data_collection
;
APEX2 (Bruker, 2009)
;
_computing_data_reduction
;
SAINT (Bruker, 2009)
;
_computing_molecular_graphics
;
ORTEPIII (Burnett & Johnson, 1996) and ORTEP-3 for Windows (Farrugia,
2012)
;
_computing_publication_material
;
PLATON (Spek, 2009) and publCIF (Westrip, 2010)
;
_computing_structure_refinement
;
SHELXL2014 (Sheldrick, 2015b)
;
_computing_structure_solution
;
SHELXT (Sheldrick, 2015a)
;
_diffrn_ambient_temperature      296(2)
_diffrn_measured_fraction_theta_full 0.999
_diffrn_measured_fraction_theta_max 0.999
_diffrn_measurement_device_type  'Bruker X8 APEX'
_diffrn_measurement_method       '\f and \w scans'
_diffrn_radiation_monochromator  graphite
_diffrn_radiation_source         'fine-focus sealed tube'
_diffrn_radiation_type           MoK\a
_diffrn_radiation_wavelength     0.71073
_diffrn_reflns_av_R_equivalents  0.0368
_diffrn_reflns_limit_h_max       6
_diffrn_reflns_limit_h_min       -6
_diffrn_reflns_limit_k_max       15
_diffrn_reflns_limit_k_min       -15
_diffrn_reflns_limit_l_max       16
_diffrn_reflns_limit_l_min       -16
_diffrn_reflns_number            17965
_diffrn_reflns_theta_full        25.242
_diffrn_reflns_theta_max         27.098
_diffrn_reflns_theta_min         2.018
_exptl_absorpt_coefficient_mu    0.406
_exptl_absorpt_correction_T_max  0.7453
_exptl_absorpt_correction_T_min  0.6819
_exptl_absorpt_correction_type   multi-scan
_exptl_absorpt_process_details
;
(SADABS; Krause <i>et al.</i>, 2015)
;
_exptl_crystal_colour            colourless
_exptl_crystal_density_diffrn    1.423
_exptl_crystal_description       block
_exptl_crystal_F_000             288
_exptl_crystal_size_max          0.350
_exptl_crystal_size_mid          0.310
_exptl_crystal_size_min          0.220
_refine_diff_density_max         0.539
_refine_diff_density_min         -0.229
_refine_ls_extinction_method     none
_refine_ls_goodness_of_fit_ref   1.066
_refine_ls_hydrogen_treatment    constr
_refine_ls_matrix_type           full
_refine_ls_number_parameters     163
_refine_ls_number_reflns         2861
_refine_ls_number_restraints     0
_refine_ls_restrained_S_all      1.066
_refine_ls_R_factor_all          0.0733
_refine_ls_R_factor_gt           0.0496
_refine_ls_shift/su_max          0.000
_refine_ls_shift/su_mean         0.000
_refine_ls_structure_factor_coef Fsqd
_refine_ls_weighting_details
'w=1/[\s^2^(Fo^2^)+(0.0706P)^2^+0.2274P] where P=(Fo^2^+2Fc^2^)/3'
_refine_ls_weighting_scheme      calc
_refine_ls_wR_factor_gt          0.1262
_refine_ls_wR_factor_ref         0.1475
_reflns_number_gt                2035
_reflns_number_total             2861
_reflns_threshold_expression     'I > 2\s(I)'
_cod_data_source_file            bt4020sup1.cif
_cod_data_source_block           I
_cod_database_code               1543885
_shelx_space_group_comment
;
The symmetry employed for this shelxl refinement is uniquely defined
by the following loop, which should always be used as a source of
symmetry information in preference to the above space-group names.
They are only intended as comments.
;
_shelx_hkl_file
;
  -1   0   0  678.13   25.20
  -1   0   0  760.92   25.30
  -1   0   0  724.23   25.20
  -1   0   0  700.33   25.20
  -1   0   0  720.73   25.20
  -1   0   0  726.43   25.40
  -1   0   0  750.82   25.20
  -1   0   0  761.82   25.30
   1   0   0  722.13   25.20
   1   0   0  732.13   25.20
   1   0   0  699.53   25.30
   1   0   0  741.53   25.30
   1   0   0  739.83   25.20
   1   0   0  724.13   25.20
   1   0   0  743.33   25.20
   1   0   0  708.83   25.30
   1   0   0  738.93   25.40
  -2   0   0   27.10    1.30
  -2   0   0   28.10    1.70
  -2   0   0   26.10    1.40
  -2   0   0   27.20    1.40
  -2   0   0   25.70    1.30
  -2   0   0   30.40    1.30
  -2   0   0   29.10    1.50
   2   0   0   28.20    1.50
   2   0   0   31.10    1.30
   2   0   0   29.80    1.50
   2   0   0   29.40    1.50
   2   0   0   28.80    1.40
   2   0   0   29.10    1.30
  -3   0   0   88.69    3.40
  -3   0   0   76.69    3.50
  -3   0   0   87.79    3.50
  -3   0   0   83.09    3.30
  -3   0   0   86.19    3.40
  -3   0   0   81.59    3.60
  -3   0   0   82.89    4.00
   3   0   0   87.19    3.50
   3   0   0   84.19    3.70
   3   0   0   84.69    3.80
   3   0   0   88.29    3.70
   3   0   0   89.19    3.40
  -4   0   0   23.60    1.60
  -4   0   0   25.40    2.50
  -4   0   0   22.40    1.70
  -4   0   0   23.50    1.70
   4   0   0   26.00    1.60
   4   0   0   24.40    2.10
   4   0   0   24.40    1.90
   4   0   0   25.70    2.00
  -5   0   0    0.30    0.70
  -5   0   0    2.50    1.60
   5   0   0    1.90    1.00
   5   0   0   -0.10    1.00
  -6   0   0   -0.10    2.00
  -6   0   0    0.00    0.90
   6   0   0   -0.30    1.20
   6   0   0    0.10    1.20
   6  -1   0    1.10    1.30
   6  -1   0    1.80    1.40
  -6   1   0    1.60    2.10
  -6   1   0    2.30    1.00
   5  -1   0    0.00    0.90
   5  -1   0   -1.10    0.90
  -5   1   0   -0.90    1.30
  -5   1   0    0.20    0.70
   4  -1   0   49.00    2.80
   4  -1   0   50.29    2.90
   4  -1   0   53.89    2.90
  -4   1   0   55.39    2.60
  -4   1   0   48.50    2.50
  -4   1   0   51.69    3.30
  -4   1   0   49.40    2.50
   3  -1   0    5.20    0.70
   3  -1   0    5.40    0.70
   3  -1   0    5.10    0.80
   3  -1   0    4.00    0.80
   3  -1   0    5.20    0.90
   3  -1   0    4.40    0.50
  -3   1   0    3.80    1.00
  -3   1   0    4.00    0.80
  -3   1   0    3.10    0.60
  -3   1   0    2.80    0.50
  -3   1   0    4.20    0.60
  -3   1   0    4.20    0.50
  -3   1   0    5.20    0.70
   2  -1   0    8.00    0.60
   2  -1   0    7.10    0.80
   2  -1   0    5.90    0.70
   2  -1   0    5.80    0.70
   2  -1   0    7.10    0.50
   2  -1   0    6.30    0.60
  -2   1   0    7.30    0.70
  -2   1   0    7.80    0.70
  -2   1   0    5.70    0.50
  -2   1   0    6.70    0.60
  -2   1   0    7.00    0.50
  -2   1   0    6.30    0.50
  -2   1   0    7.40    0.90
   1  -1   0  338.57   12.00
   1  -1   0  332.27   12.00
   1  -1   0  344.67   12.10
   1  -1   0  311.77   12.00
   1  -1   0  344.77   11.90
   1  -1   0  353.76   11.80
  -1   1   0  349.77   12.10
  -1   1   0  342.97   12.00
  -1   1   0  345.67   11.80
  -1   1   0  354.36   11.90
  -1   1   0  354.96   12.00
  -1   1   0  315.37   12.00
  -1   1   0  354.96   12.00
  -1  -1   0  127.39    4.80
  -1  -1   0  125.79    4.70
  -1  -1   0  128.39    4.60
  -1  -1   0  124.39    4.70
  -1  -1   0  127.29    4.70
  -1  -1   0  123.69    4.70
  -1  -1   0  132.09    4.60
   1   1   0  120.99    4.60
   1   1   0  133.99    4.70
   1   1   0  124.39    4.60
   1   1   0  123.89    4.70
   1   1   0  140.79    4.80
   1   1   0  126.99    4.60
   1   1   0  116.89    4.60
   1   1   0  126.39    4.70
  -2  -1   0    1.80    0.50
  -2  -1   0    1.40    0.50
  -2  -1   0    1.60    0.60
  -2  -1   0    2.90    0.40
  -2  -1   0    1.20    0.40
  -2  -1   0    2.00    0.50
   2   1   0    1.90    0.40
   2   1   0    1.70    0.50
   2   1   0    2.50    0.50
   2   1   0    2.70    0.60
   2   1   0    2.60    0.60
   2   1   0    2.50    0.50
  -3  -1   0   39.80    2.60
  -3  -1   0   40.50    2.00
  -3  -1   0   38.00    2.10
  -3  -1   0   37.50    2.10
  -3  -1   0   40.70    1.80
   3   1   0   41.50    2.40
   3   1   0   42.30    2.20
   3   1   0   41.30    2.00
   3   1   0   40.90    2.20
  -4  -1   0    3.50    0.90
  -4  -1   0    6.70    1.70
  -4  -1   0    3.20    0.90
  -4  -1   0    5.20    0.90
   4   1   0    4.20    0.80
   4   1   0    4.10    1.00
   4   1   0    5.20    1.10
   4   1   0    4.40    1.10
  -5  -1   0   31.90    2.40
  -5  -1   0   38.10    3.60
   5   1   0   34.80    2.90
   5   1   0   35.40    2.70
  -6  -1   0    0.80    1.00
  -6  -1   0    2.10    2.20
   6   1   0   -0.10    1.30
   6   1   0    0.60    1.30
   6  -2   0    3.10    1.40
   6  -2   0    5.30    1.50
  -6   2   0    2.10    2.00
  -6   2   0    2.50    0.90
   5  -2   0    3.30    1.10
   5  -2   0    4.20    1.30
  -5   2   0    6.20    1.80
  -5   2   0    2.90    0.80
   4  -2   0    0.30    0.80
   4  -2   0    0.00    0.70
   4  -2   0    0.60    0.60
  -4   2   0    0.00    0.50
  -4   2   0    0.80    0.50
  -4   2   0   -0.40    0.90
  -4   2   0    1.30    0.80
   3  -2   0  191.18    7.40
   3  -2   0  187.18    7.30
   3  -2   0  190.58    7.30
   3  -2   0  189.48    6.80
   3  -2   0  194.68    7.20
  -3   2   0  178.18    6.90
  -3   2   0  192.18    6.80
  -3   2   0  195.48    7.30
  -3   2   0  190.58    7.60
  -3   2   0  191.68    6.90
   2  -2   0  163.68    6.30
   2  -2   0  165.98    6.20
   2  -2   0  164.18    6.30
   2  -2   0  164.88    6.30
  -2   2   0  158.48    6.00
  -2   2   0  168.38    6.40
  -2   2   0  181.78    6.30
  -2   2   0  176.88    5.90
  -2   2   0  168.98    6.00
   1  -2   0  512.45   17.10
   1  -2   0  471.75   17.00
   1  -2   0  478.25   16.90
   1  -2   0  487.45   17.10
   1  -2   0  494.55   17.00
   1  -2   0  480.65   16.90
  -1   2   0  459.45   17.00
  -1   2   0  516.15   17.10
  -1   2   0  484.95   17.20
  -1   2   0  516.45   17.10
  -1   2   0  484.55   16.90
  -1   2   0  471.75   17.20
  -1   2   0  515.55   17.10
  -1   2   0  469.35   16.90
  -1   2   0  485.55   17.00
   0  -2   0   14.70    0.80
   0  -2   0   12.10    0.80
   0  -2   0   12.70    0.70
   0  -2   0   13.60    0.70
   0  -2   0   12.30    0.70
   0  -2   0   12.10    0.80
   0  -2   0   12.90    0.70
   0  -2   0   13.20    0.70
   0   2   0   13.00    0.70
   0   2   0   13.60    0.70
   0   2   0   12.30    0.80
   0   2   0   11.90    0.70
   0   2   0   12.60    0.80
   0   2   0   12.20    0.80
   0   2   0   12.60    0.70
  -1  -2   0 1016.60   34.90
  -1  -2   0  981.10   35.00
  -1  -2   0  956.40   34.70
  -1  -2   0 1004.50   35.00
  -1  -2   0  981.00   35.00
  -1  -2   0 1067.59   34.80
  -1  -2   0  994.30   35.00
  -1  -2   0 1064.89   34.90
   1   2   0  969.00   34.70
   1   2   0 1070.49   34.90
   1   2   0  967.50   34.70
   1   2   0  965.80   34.90
   1   2   0 1023.00   35.10
   1   2   0  964.70   34.90
   1   2   0 1020.60   35.00
  -2  -2   0   78.79    3.00
  -2  -2   0   81.29    3.30
  -2  -2   0   80.19    3.40
  -2  -2   0   76.69    3.60
  -2  -2   0   81.29    3.40
   2   2   0   78.09    3.20
   2   2   0   84.89    3.40
   2   2   0   76.09    3.20
   2   2   0   81.19    3.30
  -3  -2   0   14.20    1.40
  -3  -2   0   12.30    1.30
  -3  -2   0   16.70    1.90
  -3  -2   0   13.20    1.40
  -3  -2   0   14.10    0.90
   3   2   0   14.00    1.30
   3   2   0   14.10    1.30
   3   2   0   14.90    1.40
   3   2   0   13.50    1.30
   3   2   0   12.70    1.50
  -4  -2   0   37.70    2.60
  -4  -2   0   44.10    3.30
  -4  -2   0   44.60    2.50
   4   2   0   46.80    2.50
   4   2   0   45.50    2.60
   4   2   0   40.30    2.80
   4   2   0   43.90    2.60
  -5  -2   0    0.80    0.90
  -5  -2   0   -1.50    1.50
   5   2   0    0.70    1.00
   5   2   0    0.30    1.10
  -6  -2   0    2.30    2.30
  -6  -2   0   -1.00    0.90
   6   2   0   -0.30    1.20
   6   2   0    1.00    1.40
   6  -3   0    3.50    1.30
   6  -3   0    1.80    1.30
  -6   3   0    2.00    0.80
  -6   3   0    1.90    1.90
   5  -3   0    0.00    0.90
   5  -3   0    0.70    0.90
  -5   3   0    0.00    0.50
  -5   3   0   -0.50    0.50
  -5   3   0    1.00    1.40
   4  -3   0   12.10    1.50
   4  -3   0    7.90    1.30
   4  -3   0    9.00    1.20
  -4   3   0   11.20    1.70
  -4   3   0   11.60    1.60
  -4   3   0    7.90    0.80
  -4   3   0    8.60    0.90
   3  -3   0   90.99    3.90
   3  -3   0   91.19    3.80
   3  -3   0   90.09    3.90
  -3   3   0   92.69    4.00
  -3   3   0   91.39    3.50
  -3   3   0   84.99    3.40
   2  -3   0   22.30    1.30
   2  -3   0   23.20    1.30
   2  -3   0   23.60    1.40
   2  -3   0   23.40    1.00
  -2   3   0   26.70    1.60
  -2   3   0   26.20    1.10
  -2   3   0   23.60    1.10
  -2   3   0   24.40    1.00
   1  -3   0   11.10    0.80
   1  -3   0   12.90    0.70
   1  -3   0   12.50    1.00
   1  -3   0   13.70    0.90
   1  -3   0   13.40    0.80
   1  -3   0   14.00    0.80
  -1   3   0   16.00    1.10
  -1   3   0   14.00    0.80
  -1   3   0   10.10    0.60
  -1   3   0    9.30    0.90
  -1   3   0   16.50    0.90
  -1   3   0   15.20    0.80
  -1   3   0    9.00    0.80
   0  -3   0  958.10   35.40
   0  -3   0 1026.70   35.30
   0  -3   0 1080.79   35.40
   0  -3   0  991.80   35.40
   0  -3   0 1029.30   35.30
   0  -3   0 1060.59   35.40
   0  -3   0  941.11   35.40
   0  -3   0 1041.20   35.40
   0   3   0 1020.20   35.30
   0   3   0 1011.50   35.40
   0   3   0 1001.00   35.50
   0   3   0 1037.60   35.50
   0   3   0  990.30   35.30
   0   3   0 1054.79   35.40
   0   3   0 1029.90   35.40
   0   3   0  995.70   35.40
  -1  -3   0  123.49    5.00
  -1  -3   0  123.99    4.80
  -1  -3   0  130.89    4.50
  -1  -3   0  132.29    4.90
  -1  -3   0  112.69    4.60
  -1  -3   0  132.29    5.00
   1   3   0  119.89    4.60
   1   3   0  131.39    5.00
   1   3   0  122.99    4.80
   1   3   0  120.99    4.80
   1   3   0  117.89    4.50
  -2  -3   0  441.86   15.50
  -2  -3   0  396.86   15.60
  -2  -3   0  423.66   15.50
  -2  -3   0  438.96   15.30
   2   3   0  413.26   15.10
   2   3   0  443.16   15.40
   2   3   0  414.86   15.10
   2   3   0  427.86   15.30
  -3  -3   0   40.60    2.40
  -3  -3   0   38.10    2.40
  -3  -3   0   40.50    2.50
  -3  -3   0   39.40    2.80
   3   3   0   41.00    2.30
   3   3   0   39.20    2.20
   3   3   0   37.30    2.50
   3   3   0   41.50    2.30
   3   3   0   42.10    2.10
  -4  -3   0    0.60    1.30
  -4  -3   0    1.50    0.80
  -4  -3   0    0.80    0.80
   4   3   0    0.00    0.80
   4   3   0    0.20    0.80
   4   3   0    0.20    0.80
   4   3   0    0.30    0.70
  -5  -3   0    6.00    2.20
  -5  -3   0    4.20    1.30
   5   3   0    8.00    1.80
   5   3   0    4.80    1.40
   6  -4   0    3.00    1.40
   6  -4   0    2.60    1.30
  -6   4   0    3.50    2.10
  -6   4   0    1.50    0.70
   5  -4   0   -0.10    0.90
   5  -4   0   -0.40    0.80
   5  -4   0    0.60    0.80
  -5   4   0   -0.20    0.50
  -5   4   0   -0.80    1.00
  -5   4   0    0.00    0.50
  -5   4   0   -1.80    1.20
   4  -4   0    3.30    0.90
   4  -4   0    3.40    0.80
   4  -4   0    3.90    1.00
  -4   4   0    2.50    0.60
  -4   4   0    3.80    1.20
   3  -4   0   12.10    1.30
   3  -4   0    8.20    1.10
   3  -4   0    9.90    1.20
  -3   4   0    9.20    0.80
  -3   4   0    7.60    0.70
  -3   4   0   10.20    1.40
   2  -4   0   83.89    3.30
   2  -4   0   85.39    3.50
   2  -4   0   78.19    3.10
  -2   4   0   83.69    3.10
  -2   4   0   81.69    3.70
  -2   4   0   82.89    3.20
  -2   4   0   78.29    3.10
  -2   4   0   83.79    3.20
   1  -4   0    5.70    0.50
   1  -4   0    4.90    0.60
   1  -4   0    5.50    0.60
   1  -4   0    5.00    0.70
   1  -4   0    6.10    0.60
   1  -4   0    6.60    0.70
  -1   4   0    5.20    0.60
  -1   4   0    5.60    0.60
  -1   4   0    6.00    0.60
  -1   4   0    5.10    0.60
  -1   4   0    4.70    0.70
  -1   4   0    6.00    0.90
   0  -4   0  106.79    4.00
   0  -4   0  102.49    4.00
   0  -4   0   98.89    3.90
   0  -4   0   94.69    3.90
   0  -4   0   99.49    4.00
   0  -4   0   95.49    4.00
   0  -4   0   97.49    3.80
   0  -4   0   97.09    3.80
   0   4   0  102.99    3.90
   0   4   0   96.39    3.90
   0   4   0   96.89    4.00
   0   4   0   97.69    4.00
   0   4   0  100.49    4.00
   0   4   0   95.89    4.00
  -1  -4   0  126.69    4.90
  -1  -4   0  121.89    4.70
  -1  -4   0  117.39    4.90
  -1  -4   0  110.29    4.50
  -1  -4   0  120.09    4.80
  -1  -4   0  119.59    4.30
  -1  -4   0  116.89    4.40
   1   4   0  117.69    4.70
   1   4   0  113.49    4.80
   1   4   0  114.59    4.50
  -2  -4   0   18.00    1.60
  -2  -4   0   18.10    1.70
  -2  -4   0   17.70    1.50
  -2  -4   0   18.10    1.60
   2   4   0   18.00    1.20
   2   4   0   18.80    1.20
   2   4   0   15.00    1.40
  -3  -4   0    1.20    0.70
  -3  -4   0   -0.30    0.90
  -3  -4   0   -0.30    0.80
   3   4   0    0.10    0.50
   3   4   0   -0.60    0.70
   3   4   0    0.30    0.60
  -4  -4   0   30.00    2.50
  -4  -4   0   31.90    3.20
  -4  -4   0   32.90    2.30
   4   4   0   31.60    2.10
   4   4   0   25.90    2.40
   4   4   0   33.30    2.40
   4   4   0   28.00    2.10
  -5  -4   0    3.20    2.10
  -5  -4   0    3.00    1.40
   5   4   0    4.30    1.50
   6  -5   0    2.40    1.30
   6  -5   0    3.00    1.40
  -6   5   0    5.10    2.20
   5  -5   0   -0.30    0.80
   5  -5   0    0.10    0.80
   5  -5   0    0.90    0.80
  -5   5   0    0.20    0.50
  -5   5   0    0.00    0.50
  -5   5   0   -1.70    1.20
  -5   5   0    0.70    1.30
   4  -5   0    0.10    0.80
   4  -5   0    2.10    0.80
   4  -5   0    2.20    0.80
  -4   5   0    0.80    0.50
  -4   5   0    1.70    0.50
  -4   5   0    2.20    1.20
   3  -5   0   57.19    2.70
   3  -5   0   54.49    2.20
   3  -5   0   56.79    2.80
  -3   5   0   54.29    2.40
  -3   5   0   55.29    3.10
  -3   5   0   55.19    2.40
   2  -5   0  137.29    5.10
   2  -5   0  142.49    5.10
   2  -5   0  138.99    5.00
   2  -5   0  134.09    5.10
   2  -5   0  134.89    5.20
   2  -5   0  138.69    5.40
  -2   5   0  135.79    5.10
  -2   5   0  128.69    5.00
  -2   5   0  128.29    5.20
  -2   5   0  138.69    5.70
  -2   5   0  133.99    5.10
  -2   5   0  135.69    5.10
  -2   5   0  139.99    5.20
   1  -5   0   -0.20    0.40
   1  -5   0   -0.40    0.30
   1  -5   0   -0.30    0.30
   1  -5   0   -0.40    0.40
   1  -5   0    0.20    0.20
  -1   5   0   -0.20    0.30
  -1   5   0   -1.00    0.30
  -1   5   0   -0.10    0.40
  -1   5   0   -0.10    0.60
  -1   5   0   -0.10    0.30
   0  -5   0    1.90    0.60
   0  -5   0    3.00    0.60
   0  -5   0    1.00    0.50
   0  -5   0    1.60    0.40
   0  -5   0    1.10    0.50
   0  -5   0    2.80    0.80
   0   5   0    2.00    0.60
   0   5   0    2.40    0.60
   0   5   0    1.60    0.60
   0   5   0    1.40    0.60
  -1  -5   0   65.69    3.10
  -1  -5   0   71.69    2.60
  -1  -5   0   66.69    2.80
  -1  -5   0   73.59    3.30
  -1  -5   0   60.59    3.30
  -1  -5   0   64.29    2.90
  -1  -5   0   69.69    3.30
   1   5   0   68.29    3.00
   1   5   0   69.09    3.30
   1   5   0   65.29    3.10
  -2  -5   0    1.20    0.40
  -2  -5   0   -0.20    0.60
  -2  -5   0    0.90    0.70
  -2  -5   0    0.10    0.80
  -2  -5   0    0.30    0.70
   2   5   0    0.30    0.60
   2   5   0    0.60    0.60
   2   5   0    0.80    0.50
  -3  -5   0   -0.80    1.10
  -3  -5   0   -1.20    0.80
  -3  -5   0    1.10    0.80
   3   5   0    0.10    0.50
   3   5   0   -0.10    0.70
  -4  -5   0   -0.50    0.90
  -4  -5   0    0.20    1.60
  -4  -5   0   -1.70    0.80
   4   5   0   -0.50    0.90
   4   5   0   -1.60    0.90
  -5  -5   0    0.50    1.20
  -5  -5   0   -1.70    1.90
   5   5   0    0.10    1.20
   6  -6   0   -1.60    1.00
   6  -6   0    0.60    1.20
   6  -6   0   -0.80    0.80
  -6   6   0   -0.70    0.50
  -6   6   0   -0.70    1.70
   5  -6   0    6.50    1.40
   5  -6   0    3.40    1.20
   5  -6   0    7.10    1.40
  -5   6   0    6.40    0.80
  -5   6   0    6.00    1.80
   4  -6   0    0.20    0.70
   4  -6   0    0.10    0.70
  -4   6   0    0.40    0.40
  -4   6   0   -0.10    1.10
  -4   6   0    0.80    0.40
   3  -6   0   60.79    2.60
   3  -6   0   66.79    3.00
   3  -6   0   66.79    3.20
  -3   6   0   67.09    3.60
  -3   6   0   63.09    2.80
  -3   6   0   65.19    2.90
  -3   6   0   62.29    2.60
   2  -6   0  257.87    9.00
   2  -6   0  255.77    9.10
   2  -6   0  241.88    9.10
   2  -6   0  254.37    9.50
   2  -6   0  253.67    9.10
  -2   6   0  249.78    9.80
  -2   6   0  232.68    9.10
  -2   6   0  257.77    9.30
  -2   6   0  250.47    9.10
  -2   6   0  242.18    9.30
  -2   6   0  250.57    9.20
   1  -6   0   57.89    2.20
   1  -6   0   58.49    2.70
   1  -6   0   52.79    2.60
   1  -6   0   50.19    2.60
  -1   6   0   60.19    2.70
  -1   6   0   58.49    2.70
  -1   6   0   56.49    3.00
  -1   6   0   55.19    2.60
   0  -6   0   18.60    1.70
   0  -6   0   22.00    1.50
   0  -6   0   21.30    1.60
   0  -6   0   21.00    1.40
   0  -6   0   21.00    1.30
   0   6   0   20.50    1.60
   0   6   0   19.10    1.50
   0   6   0   23.90    1.60
   0   6   0   20.10    1.60
  -1  -6   0   21.00    1.90
  -1  -6   0   18.40    1.60
  -1  -6   0   21.10    1.70
  -1  -6   0   18.90    1.30
  -1  -6   0   21.30    1.60
   1   6   0   19.30    1.60
   1   6   0   21.40    1.50
   1   6   0   16.50    1.50
  -2  -6   0   96.09    4.90
  -2  -6   0   93.49    3.80
  -2  -6   0   97.89    4.50
  -2  -6   0   96.39    4.70
  -2  -6   0   98.99    4.70
   2   6   0   96.89    4.60
   2   6   0   96.59    4.00
   2   6   0   96.29    4.50
  -3  -6   0    0.20    0.90
  -3  -6   0    0.70    1.30
  -3  -6   0    0.20    0.90
   3   6   0   -0.20    0.50
   3   6   0   -0.20    0.90
  -4  -6   0   -0.50    0.90
  -4  -6   0   -3.90    1.50
  -4  -6   0   -0.80    0.90
   4   6   0   -0.10    1.10
   4   6   0   -1.60    1.00
  -5  -6   0    3.00    1.50
  -5  -6   0    4.00    2.60
   5   6   0    3.60    1.70
   6  -7   0    1.00    1.00
   6  -7   0   -0.30    1.10
  -6   7   0    4.10    2.10
   5  -7   0    6.00    1.40
   5  -7   0    4.20    1.30
  -5   7   0    6.00    2.00
  -5   7   0    5.00    0.80
  -5   7   0    5.80    0.90
   4  -7   0    4.00    1.10
   4  -7   0    4.10    1.10
  -4   7   0    3.50    0.70
  -4   7   0    4.20    1.60
  -4   7   0    3.00    0.70
   3  -7   0    0.90    0.50
   3  -7   0    0.20    0.70
   3  -7   0    0.40    0.70
  -3   7   0   -0.50    0.40
  -3   7   0    0.40    1.10
  -3   7   0    0.80    0.50
  -3   7   0    0.40    0.60
  -3   7   0    0.50    0.50
  -3   7   0    0.70    0.40
   2  -7   0  139.89    5.40
   2  -7   0  137.99    5.30
   2  -7   0  128.99    5.70
   2  -7   0  132.79    5.40
   2  -7   0  142.09    5.30
  -2   7   0  136.09    5.30
  -2   7   0  132.79    5.60
  -2   7   0  142.49    6.10
  -2   7   0  143.89    5.60
  -2   7   0  134.69    5.40
   1  -7   0   22.60    1.00
   1  -7   0   21.90    1.60
   1  -7   0   18.40    1.50
  -1   7   0   23.10    1.60
  -1   7   0   21.40    1.90
  -1   7   0   23.40    1.60
  -1   7   0   20.10    1.60
   0  -7   0    0.00    0.50
   0  -7   0   -0.10    0.50
   0  -7   0    0.60    0.60
   0  -7   0   -0.50    0.60
   0  -7   0    1.40    0.90
   0   7   0   -0.20    0.70
   0   7   0   -0.20    0.50
   0   7   0    0.30    0.50
   0   7   0   -0.30    0.50
  -1  -7   0   68.99    3.10
  -1  -7   0   67.09    3.50
  -1  -7   0   67.59    3.80
  -1  -7   0   75.09    3.70
   1   7   0   72.29    3.40
   1   7   0   67.59    3.60
   1   7   0   63.99    3.50
  -2  -7   0    2.50    1.00
  -2  -7   0    3.50    1.30
  -2  -7   0    1.80    0.60
  -2  -7   0    1.10    1.00
   2   7   0    3.10    0.90
   2   7   0    3.20    1.20
   2   7   0    1.90    0.90
  -3  -7   0   15.70    2.10
  -3  -7   0   15.00    1.90
  -3  -7   0   18.60    2.80
   3   7   0   12.60    1.80
  -4  -7   0   -1.00    1.10
  -4  -7   0    0.90    1.80
  -4  -7   0   -0.40    1.20
   4   7   0    2.10    1.30
   4   7   0    0.60    1.30
   6  -8   0   -0.20    0.90
   6  -8   0    1.70    1.30
  -6   8   0    3.30    2.00
  -6   8   0   -1.00    2.40
   5  -8   0    5.60    1.40
   5  -8   0    6.30    1.40
  -5   8   0    6.90    2.10
  -5   8   0    4.60    0.90
   4  -8   0    0.10    0.80
   4  -8   0    0.90    0.80
  -4   8   0   -0.30    0.50
  -4   8   0   -0.10    0.50
  -4   8   0   -1.10    1.20
   3  -8   0    8.40    1.00
   3  -8   0   11.30    1.20
   3  -8   0    9.20    1.30
   2  -8   0    1.00    0.50
   2  -8   0    0.30    0.70
   2  -8   0    0.80    0.50
   2  -8   0    0.70    0.60
   2  -8   0    0.60    0.60
  -2   8   0    0.80    1.10
  -2   8   0    0.40    0.50
  -2   8   0   -0.20    0.50
  -2   8   0    0.60    0.60
  -2   8   0   -0.50    0.50
   1  -8   0   28.50    2.00
   1  -8   0   28.30    2.00
  -1   8   0   28.10    2.00
  -1   8   0   33.30    2.20
  -1   8   0   34.10    2.10
  -1   8   0   29.90    2.30
   0  -8   0   27.30    2.50
   0  -8   0   22.00    2.10
   0  -8   0   26.30    2.00
   0  -8   0   22.20    1.80
   0   8   0   23.00    2.10
   0   8   0   21.10    2.20
   0   8   0   26.30    2.10
  -1  -8   0    5.40    1.60
  -1  -8   0    4.80    1.30
  -1  -8   0    4.80    1.00
  -1  -8   0    6.60    1.30
   1   8   0    6.50    1.30
   1   8   0    4.80    1.40
   1   8   0    3.40    1.20
  -2  -8   0   -0.60    1.00
  -2  -8   0    0.20    0.60
  -2  -8   0    1.20    1.40
  -2  -8   0    0.90    1.00
   2   8   0    0.20    1.00
   2   8   0    0.30    0.80
  -3  -8   0   14.00    2.00
  -3  -8   0   15.50    2.20
  -3  -8   0   13.10    2.60
   3   8   0   10.10    1.80
  -4  -8   0   -1.50    1.20
  -4  -8   0    0.40    2.20
  -4  -8   0    1.30    1.30
   4   8   0    0.00    1.20
   4   8   0    0.20    1.30
   6  -9   0    0.40    1.20
   6  -9   0   -0.80    1.00
  -6   9   0    0.00    1.90
   5  -9   0    5.10    1.30
   5  -9   0    3.00    1.20
  -5   9   0    3.20    0.80
  -5   9   0    3.90    2.10
   4  -9   0    0.40    0.70
   4  -9   0   -1.30    0.70
  -4   9   0    0.30    0.60
  -4   9   0   -0.50    1.30
   3  -9   0    0.80    0.60
   3  -9   0    1.40    0.70
   3  -9   0    1.50    0.90
   3  -9   0    0.10    0.60
  -3   9   0    0.40    0.60
  -3   9   0    0.90    0.60
  -3   9   0   -0.30    0.60
  -3   9   0    0.00    1.20
  -3   9   0    0.70    0.70
   2  -9   0   16.40    1.50
   2  -9   0   14.70    1.50
   2  -9   0   13.20    1.60
   2  -9   0   14.90    1.10
   2  -9   0   14.50    1.40
  -2   9   0   14.30    1.60
  -2   9   0   13.40    1.60
  -2   9   0   16.10    1.50
  -2   9   0   13.20    1.40
  -2   9   0   16.90    2.20
   1  -9   0  242.88    9.50
   1  -9   0  228.48    9.40
  -1   9   0  246.98    9.50
  -1   9   0  248.08    9.70
  -1   9   0  246.68    9.80
  -1   9   0  235.68    9.80
   0  -9   0  159.78    7.00
   0  -9   0  162.58    7.10
   0  -9   0  160.98    6.70
   0   9   0  172.48    7.30
   0   9   0  174.18    7.20
   0   9   0  162.38    7.00
  -1  -9   0   17.00    2.00
  -1  -9   0   15.50    2.30
  -1  -9   0   17.90    1.50
  -1  -9   0   18.40    2.10
   1   9   0   17.40    2.10
   1   9   0   21.40    2.30
   1   9   0   15.00    1.80
  -2  -9   0   15.50    2.50
  -2  -9   0   14.70    2.00
  -2  -9   0   17.90    2.20
   2   9   0   14.60    1.90
  -3  -9   0    1.70    1.30
  -3  -9   0   -1.20    1.10
  -3  -9   0   -1.70    1.60
   3   9   0   -0.90    1.10
  -4  -9   0   -2.80    2.10
  -4  -9   0   -0.50    1.30
  -4  -9   0   -1.30    1.30
   4   9   0    0.60    1.40
   4   9   0   -0.90    1.30
   6 -10   0   -0.70    1.00
   6 -10   0    0.20    1.10
  -6  10   0    0.20    2.20
  -6  10   0   -0.10    0.70
   5 -10   0    0.20    1.00
   5 -10   0   -0.30    0.80
  -5  10   0   -0.60    1.70
  -5  10   0    1.10    0.70
   4 -10   0    2.70    0.90
   4 -10   0    1.80    1.00
  -4  10   0    0.60    1.60
  -4  10   0    2.60    1.00
   3 -10   0    0.60    0.60
   3 -10   0    0.00    0.60
   3 -10   0    0.90    0.80
   3 -10   0   -0.60    0.60
  -3  10   0    0.70    0.60
  -3  10   0    0.10    0.60
  -3  10   0    0.50    0.70
  -3  10   0   -1.20    1.20
   2 -10   0    1.90    1.00
   2 -10   0    0.40    0.70
   2 -10   0    0.80    0.70
   2 -10   0   -0.10    0.50
  -2  10   0    1.40    1.30
  -2  10   0    1.40    0.80
  -2  10   0    1.30    0.70
  -2  10   0    0.70    0.90
   1 -10   0    0.20    0.90
   1 -10   0   -0.10    0.80
  -1  10   0    1.00    0.80
  -1  10   0    1.10    0.90
  -1  10   0    0.60    1.30
   0 -10   0    2.00    1.00
   0 -10   0    0.40    0.80
   0 -10   0    0.80    1.40
   0 -10   0    0.10    0.80
   0  10   0    1.00    1.00
   0  10   0    0.90    0.90
   0  10   0    1.30    1.30
  -1 -10   0    0.20    1.00
  -1 -10   0   -0.50    1.50
  -1 -10   0    0.00    0.70
  -1 -10   0   -0.80    0.90
   1  10   0    0.00    0.90
   1  10   0    2.60    1.30
   1  10   0    0.10    1.00
  -2 -10   0    0.30    1.20
  -2 -10   0    0.40    1.10
  -2 -10   0   -0.40    1.80
   2  10   0   -0.60    1.00
  -3 -10   0    7.90    2.00
  -3 -10   0    6.30    2.50
  -3 -10   0    9.30    2.00
   3  10   0    8.30    2.00
   5 -11   0    5.00    1.60
   5 -11   0    4.70    1.40
  -5  11   0    3.50    1.00
  -5  11   0    6.40    2.40
   4 -11   0    0.40    0.70
   4 -11   0    0.70    0.90
  -4  11   0    0.10    0.80
  -4  11   0    0.80    1.70
   3 -11   0    3.00    1.10
   3 -11   0   -0.20    0.60
   3 -11   0    0.00    0.70
   3 -11   0    1.10    0.70
  -3  11   0    0.10    1.30
  -3  11   0    0.30    0.60
  -3  11   0    0.60    0.90
  -3  11   0    1.00    0.70
   2 -11   0   24.00    2.00
   2 -11   0   17.60    2.10
   2 -11   0   19.50    1.90
  -2  11   0   20.30    2.00
  -2  11   0   25.40    2.00
  -2  11   0   23.50    2.90
  -2  11   0   18.60    2.20
   1 -11   0    0.60    1.00
   1 -11   0    1.50    1.00
  -1  11   0    0.00    1.00
  -1  11   0    1.60    1.00
  -1  11   0    0.80    1.40
   0 -11   0    1.60    1.00
   0 -11   0    4.90    1.30
   0 -11   0    2.00    1.80
   0  11   0    2.10    1.00
   0  11   0    3.50    1.40
   0  11   0    3.10    1.50
  -1 -11   0    1.40    0.90
  -1 -11   0    2.30    2.10
  -1 -11   0    0.30    1.20
   1  11   0    3.70    1.70
   1  11   0    2.60    1.30
  -2 -11   0    7.10    1.90
  -2 -11   0   12.30    3.00
   2  11   0    6.20    1.70
  -3 -11   0    3.80    2.80
  -3 -11   0    0.60    1.50
   3  11   0   -1.40    1.30
   5 -12   0   -0.30    1.00
   5 -12   0   -0.70    0.90
  -5  12   0   -1.60    1.80
  -5  12   0   -0.40    0.70
   4 -12   0   -0.80    0.80
   4 -12   0   -1.00    0.80
  -4  12   0    0.80    1.80
  -4  12   0    1.00    0.90
   3 -12   0   -0.60    0.70
   3 -12   0    0.40    0.90
   3 -12   0   -1.50    0.60
  -3  12   0    2.00    1.10
  -3  12   0    0.90    1.70
  -3  12   0    0.70    0.90
  -3  12   0    0.70    0.80
   2 -12   0   10.70    1.70
   2 -12   0    5.80    1.30
   2 -12   0    7.40    1.40
  -2  12   0   10.50    1.90
  -2  12   0    7.70    2.10
  -2  12   0    7.80    1.40
  -2  12   0    9.50    1.50
   1 -12   0    1.80    1.10
   1 -12   0    0.00    1.00
  -1  12   0    1.40    1.20
  -1  12   0    2.40    1.60
  -1  12   0    2.90    1.20
   0 -12   0    8.30    1.70
   0 -12   0    4.20    1.20
   0 -12   0    5.00    2.30
   0  12   0    4.60    1.50
   0  12   0    3.80    1.90
   0  12   0    3.90    1.50
  -1 -12   0    0.80    1.40
  -1 -12   0    3.10    2.30
   1  12   0    0.80    1.50
   1  12   0    1.30    1.20
  -2 -12   0    3.70    2.90
  -2 -12   0    3.70    1.70
   2  12   0    7.10    1.80
   5 -13   0    0.30    1.10
  -5  13   0   -1.00    2.10
  -5  13   0   -0.70    0.80
   4 -13   0   -0.30    1.00
  -4  13   0   -0.50    1.00
  -4  13   0    1.20    2.00
   3 -13   0    0.50    0.90
   3 -13   0   -0.30    0.90
   3 -13   0    0.10    1.00
  -3  13   0    0.00    1.60
  -3  13   0    0.70    1.00
  -3  13   0   -1.00    0.80
  -3  13   0    0.20    0.80
   2 -13   0    1.00    1.10
   2 -13   0   -0.90    1.00
   2 -13   0    2.30    1.10
  -2  13   0    0.80    1.00
  -2  13   0    1.00    1.80
  -2  13   0   -0.50    1.10
  -2  13   0   -0.30    1.00
   1 -13   0    8.30    1.70
   1 -13   0    6.70    1.60
  -1  13   0   11.60    2.80
  -1  13   0    7.80    1.70
  -1  13   0    5.80    1.80
   0 -13   0   -1.10    1.20
   0 -13   0   -0.60    1.00
   0 -13   0    2.10    2.20
   0  13   0    0.20    1.20
   0  13   0    1.60    1.90
   0  13   0   -0.60    1.10
  -1 -13   0   -1.00    1.30
  -1 -13   0   -2.90    2.40
   1  13   0    0.20    1.30
  -2 -13   0   -1.50    2.70
   4 -14   0    0.10    1.00
  -4  14   0    3.10    1.30
  -4  14   0    2.00    2.30
   3 -14   0    0.10    1.10
   3 -14   0    0.00    1.10
   3 -14   0    0.40    1.10
  -3  14   0   -0.40    1.00
  -3  14   0   -0.80    1.00
  -3  14   0    0.30    1.90
  -3  14   0    0.70    1.30
   2 -14   0   -0.90    1.10
   2 -14   0   -0.80    1.20
   2 -14   0    0.50    1.10
  -2  14   0   -1.40    1.80
  -2  14   0   -0.60    1.20
  -2  14   0   -0.40    1.10
  -2  14   0   -0.90    1.00
   1 -14   0    0.70    1.20
   1 -14   0    1.40    1.20
   1 -14   0    3.30    1.40
  -1  14   0    0.30    1.20
  -1  14   0    0.10    1.40
  -1  14   0   -1.30    1.90
  -1  14   0    0.50    1.20
   0 -14   0    0.70    1.20
   0 -14   0   -1.70    1.10
   0  14   0    0.80    1.90
   0  14   0    0.10    1.30
  -1 -14   0   -0.60    1.40
  -1 -14   0    0.50    2.80
   1  14   0   -0.30    1.30
   3 -15   0    0.90    1.20
  -3  15   0    0.40    2.10
  -3  15   0    3.60    1.60
   2 -15   0    0.10    1.30
   2 -15   0    1.70    1.30
   2 -15   0    2.20    1.40
  -2  15   0    1.90    1.50
  -2  15   0    0.60    1.30
  -2  15   0    3.70    1.40
  -2  15   0    1.20    2.20
   1 -15   0   -0.70    1.30
   1 -15   0   -0.60    1.10
   1 -15   0    0.50    1.30
  -1  15   0   -0.80    1.20
  -1  15   0    1.00    1.30
  -1  15   0   -0.40    1.40
  -1  15   0    0.00    2.20
   0  15   0    3.00    3.70
   0  15  -1    4.30    2.40
   0  15  -1    2.30    1.60
   0  15  -1    2.50    1.50
   0 -15   1    3.70    1.60
   0 -15   1   -1.30    1.00
   0 -15   1    0.50    1.40
  -1  15  -1   -0.10    1.20
  -1  15  -1    0.80    2.10
  -1  15  -1    1.10    1.50
  -1  15  -1    0.40    1.40
   1 -15   1   -1.00    1.20
   1 -15   1   -2.00    1.10
   1 -15   1   -1.50    1.10
  -2  15  -1    2.90    1.40
  -2  15  -1    3.50    2.60
  -2  15  -1   -0.60    1.20
  -2  15  -1    1.10    1.40
   2 -15   1    3.10    1.40
   2 -15   1    0.70    1.30
   2 -15   1    2.60    1.30
  -3  15  -1   -1.30    1.90
  -3  15  -1    1.00    1.40
   3 -15   1    1.00    1.30
   3 -15   1   -0.40    1.30
   1  14  -1    2.20    1.70
  -1 -14   1    1.90    1.70
  -1 -14   1    1.40    2.80
   0  14  -1   -2.10    1.80
   0  14  -1    1.80    1.40
   0 -14   1   -0.60    1.10
   0 -14   1    1.20    1.20
  -1  14  -1   14.40    3.00
  -1  14  -1    9.70    2.00
  -1  14  -1   13.90    2.40
  -1  14  -1   12.20    1.90
   1 -14   1   10.80    2.00
   1 -14   1   11.00    1.90
   1 -14   1    8.60    1.80
  -2  14  -1    0.40    1.10
  -2  14  -1   -0.60    1.00
  -2  14  -1    0.80    1.90
  -2  14  -1    2.40    1.40
   2 -14   1    0.20    1.00
   2 -14   1   -0.10    1.10
   2 -14   1    0.60    1.10
  -3  14  -1    1.10    2.10
  -3  14  -1   -0.20    0.90
  -3  14  -1   -0.70    1.00
  -3  14  -1   -0.30    1.00
   3 -14   1   -0.50    1.00
   3 -14   1   -0.10    1.00
   3 -14   1    0.10    1.00
  -4  14  -1    0.20    0.90
  -4  14  -1    1.40    2.00
   4 -14   1    0.50    1.10
   2  13  -1   -0.70    1.30
  -2 -13   1    1.40    2.70
  -2 -13   1    0.20    1.50
   1  13  -1    5.50    1.70
  -1 -13   1    6.60    1.80
  -1 -13   1    1.30    2.50
   0  13  -1   -0.90    1.10
   0  13  -1   -1.40    1.60
   0  13  -1   -1.20    1.10
   0 -13   1   -1.20    1.00
   0 -13   1   -0.50    1.10
   0 -13   1    1.00    2.10
  -1  13  -1    4.00    1.20
  -1  13  -1    0.40    1.20
  -1  13  -1    3.80    1.40
  -1  13  -1    1.30    1.80
   1 -13   1    3.20    1.30
   1 -13   1    1.50    1.10
   1 -13   1    0.90    1.20
  -2  13  -1   -0.70    0.80
  -2  13  -1    1.00    1.20
  -2  13  -1    1.20    1.10
  -2  13  -1   -0.60    1.60
   2 -13   1    0.20    1.00
   2 -13   1    0.00    1.10
   2 -13   1    0.20    0.90
  -3  13  -1    0.60    1.10
  -3  13  -1   -0.20    0.90
  -3  13  -1   -0.30    1.80
  -3  13  -1   -1.00    0.80
   3 -13   1   -0.70    0.90
   3 -13   1   -0.50    0.90
   3 -13   1    1.30    1.20
  -4  13  -1   -0.60    0.80
  -4  13  -1    0.90    2.00
   4 -13   1    0.60    1.10
  -5  13  -1   -0.60    0.80
  -5  13  -1   -1.80    1.90
   5 -13   1    1.40    1.10
   2  12  -1   15.50    2.30
  -2 -12   1   16.60    3.50
  -2 -12   1   14.50    2.40
   1  12  -1   -0.40    1.00
   1  12  -1   -0.10    1.40
  -1 -12   1   -1.20    1.10
  -1 -12   1   -0.20    2.10
  -1 -12   1   -0.20    0.90
   0  12  -1   -0.40    1.10
   0  12  -1    0.50    1.10
   0  12  -1    0.90    1.60
   0 -12   1    1.40    1.90
   0 -12   1    3.40    1.30
   0 -12   1    0.30    1.00
  -1  12  -1    2.90    1.70
  -1  12  -1    2.20    1.20
  -1  12  -1    1.20    1.20
  -1  12  -1    2.60    1.10
   1 -12   1    4.80    1.30
   1 -12   1    1.70    1.00
   1 -12   1    1.40    1.10
  -2  12  -1   20.00    2.10
  -2  12  -1   22.40    2.20
  -2  12  -1   18.10    2.80
  -2  12  -1   19.30    2.40
   2 -12   1   15.10    1.90
   2 -12   1   19.50    2.10
   2 -12   1   18.30    2.30
  -3  12  -1    1.60    0.90
  -3  12  -1    1.50    1.10
  -3  12  -1    1.20    1.60
  -3  12  -1    0.80    0.80
   3 -12   1    2.10    1.00
   3 -12   1    0.60    1.00
   3 -12   1    1.10    0.90
   3 -12   1    1.20    0.90
  -4  12  -1    0.80    0.80
  -4  12  -1   -0.50    1.60
   4 -12   1   -1.30    0.70
   4 -12   1   -0.50    0.90
  -5  12  -1    0.90    0.80
  -5  12  -1    3.20    2.20
   5 -12   1    0.90    1.30
   5 -12   1    1.60    1.10
   3  11  -1    0.30    1.30
  -3 -11   1   -0.90    1.40
  -3 -11   1   -1.60    2.30
   2  11  -1    4.50    1.60
  -2 -11   1    7.20    1.80
  -2 -11   1    7.30    2.40
   1  11  -1   11.70    2.10
   1  11  -1    8.90    1.60
  -1 -11   1   11.50    1.90
  -1 -11   1    9.40    1.40
  -1 -11   1   11.50    2.60
   0  11  -1    3.50    1.30
   0  11  -1    3.10    1.20
   0  11  -1    5.80    1.90
   0 -11   1    2.80    1.80
   0 -11   1    3.50    1.30
   0 -11   1    4.60    1.20
  -1  11  -1   84.89    4.70
  -1  11  -1   88.99    4.90
  -1  11  -1   87.59    4.40
   1 -11   1   83.89    4.30
   1 -11   1   77.99    4.20
  -2  11  -1    1.90    0.90
  -2  11  -1    1.50    0.90
  -2  11  -1    2.60    1.20
  -2  11  -1    3.40    1.60
   2 -11   1    3.70    1.10
   2 -11   1    4.10    1.20
  -3  11  -1   24.30    1.90
  -3  11  -1   21.80    2.20
  -3  11  -1   25.00    2.00
  -3  11  -1   25.50    3.20
   3 -11   1   22.60    1.90
   3 -11   1   24.50    1.80
   3 -11   1   19.50    1.90
   3 -11   1   19.90    2.30
  -4  11  -1    0.20    1.70
  -4  11  -1    1.90    0.90
   4 -11   1    1.10    1.10
   4 -11   1    2.10    1.00
  -5  11  -1   -0.10    0.70
  -5  11  -1   -1.00    1.80
   5 -11   1    1.50    1.00
   5 -11   1    0.30    1.10
   3  10  -1    1.00    1.20
  -3 -10   1    0.50    1.30
  -3 -10   1    1.10    1.90
  -3 -10   1   -0.60    1.20
   2  10  -1    1.50    1.20
  -2 -10   1    2.30    2.00
  -2 -10   1    3.70    1.40
  -2 -10   1    3.40    1.40
   1  10  -1    9.20    1.60
   1  10  -1   14.20    2.10
   1  10  -1   13.20    2.10
  -1 -10   1   13.50    2.50
  -1 -10   1   12.80    1.80
  -1 -10   1   13.30    1.50
  -1 -10   1   12.60    1.80
   0  10  -1    9.40    1.90
   0  10  -1    9.40    1.60
   0  10  -1    9.30    1.70
   0 -10   1    8.00    2.00
   0 -10   1    8.60    1.40
   0 -10   1    8.30    1.50
   0 -10   1   10.00    1.50
  -1  10  -1    7.60    1.80
  -1  10  -1    9.10    1.50
  -1  10  -1    6.40    1.30
   1 -10   1    5.60    1.30
   1 -10   1    8.40    1.50
   1 -10   1    5.20    1.20
  -2  10  -1   14.50    1.60
  -2  10  -1   14.40    2.20
  -2  10  -1   16.10    1.90
  -2  10  -1   14.40    1.60
   2 -10   1   16.80    1.70
   2 -10   1   14.30    1.60
   2 -10   1   17.50    2.00
   2 -10   1   15.90    1.20
  -3  10  -1    7.30    1.10
  -3  10  -1    7.00    1.30
  -3  10  -1    9.30    2.00
   3 -10   1    7.80    1.10
   3 -10   1    9.00    1.20
   3 -10   1    6.60    1.30
  -4  10  -1    1.80    1.70
  -4  10  -1    0.60    0.70
   4 -10   1    0.10    0.90
   4 -10   1   -0.20    0.80
  -5  10  -1   -1.00    1.70
  -5  10  -1    1.30    0.70
   5 -10   1   -0.30    1.00
   5 -10   1   -0.20    0.90
  -6  10  -1   -0.10    1.90
   6 -10   1    1.90    1.20
   6 -10   1    2.10    1.30
   4   9  -1    0.40    1.50
   4   9  -1   -1.70    1.10
  -4  -9   1   -0.50    1.30
  -4  -9   1   -0.10    1.30
  -4  -9   1   -1.10    2.10
   3   9  -1   -0.30    1.10
  -3  -9   1   -0.50    1.20
  -3  -9   1    3.50    1.40
  -3  -9   1    2.50    1.80
   2   9  -1   45.10    3.20
   2   9  -1   46.60    2.80
  -2  -9   1   46.20    3.20
  -2  -9   1   41.50    2.40
  -2  -9   1   49.90    3.80
  -2  -9   1   43.70    3.30
   1   9  -1   39.40    2.70
   1   9  -1   32.40    2.60
   1   9  -1   37.10    2.80
  -1  -9   1   33.10    2.70
  -1  -9   1   31.40    2.60
  -1  -9   1   36.00    2.20
  -1  -9   1   39.90    3.20
   0   9  -1   67.99    3.70
   0   9  -1   62.99    3.50
   0   9  -1   65.49    3.80
   0  -9   1   65.49    3.30
   0  -9   1   63.99    3.60
   0  -9   1   63.49    3.60
  -1   9  -1   74.49    4.10
  -1   9  -1   84.39    4.00
  -1   9  -1   79.59    4.00
  -1   9  -1   73.09    3.80
   1  -9   1   73.69    3.80
   1  -9   1   77.09    3.00
   1  -9   1   69.69    3.60
   1  -9   1   74.39    3.80
  -2   9  -1    4.80    1.00
  -2   9  -1    5.60    1.50
  -2   9  -1    3.60    0.90
  -2   9  -1    5.40    1.10
  -2   9  -1    4.20    0.90
   2  -9   1    4.20    1.00
   2  -9   1    3.10    0.80
   2  -9   1    5.70    1.20
   2  -9   1    3.00    0.90
   2  -9   1    6.00    0.80
  -3   9  -1    4.10    1.50
  -3   9  -1    3.50    0.90
  -3   9  -1    3.20    0.90
  -3   9  -1    4.00    0.80
   3  -9   1    4.30    0.90
   3  -9   1    3.50    1.00
   3  -9   1    4.80    0.80
  -4   9  -1    5.00    1.00
  -4   9  -1    8.40    2.10
   4  -9   1    6.70    1.40
   4  -9   1    7.40    1.30
  -5   9  -1    3.10    0.90
  -5   9  -1    5.40    2.10
   5  -9   1    2.20    1.10
   5  -9   1    1.70    1.10
  -6   9  -1    0.70    3.00
   6  -9   1    0.20    1.00
   6  -9   1   -0.40    1.00
   4   8  -1    4.30    1.50
   4   8  -1    0.60    1.40
  -4  -8   1    3.20    2.30
  -4  -8   1    2.80    1.40
  -4  -8   1    2.00    1.40
   3   8  -1    0.80    1.10
  -3  -8   1    0.90    1.10
  -3  -8   1    2.50    1.70
  -3  -8   1    2.10    1.20
   2   8  -1    0.40    1.00
   2   8  -1    2.60    0.90
  -2  -8   1    0.90    1.00
  -2  -8   1    3.90    1.50
  -2  -8   1    1.50    0.70
  -2  -8   1    4.30    1.20
   1   8  -1   33.20    2.60
   1   8  -1   37.10    2.50
   1   8  -1   26.60    2.30
  -1  -8   1   34.90    2.50
  -1  -8   1   33.70    2.50
  -1  -8   1   36.00    2.90
  -1  -8   1   34.10    2.10
   0   8  -1    4.30    1.00
   0   8  -1    9.10    1.40
   0   8  -1    4.80    1.30
   0   8  -1    6.10    1.10
   0  -8   1    5.20    1.30
   0  -8   1    5.50    1.10
   0  -8   1    3.80    1.00
   0  -8   1    5.60    1.00
  -1   8  -1   -0.40    0.60
  -1   8  -1   -1.10    0.60
  -1   8  -1    0.20    0.50
  -1   8  -1    0.00    0.80
   1  -8   1    0.50    0.40
   1  -8   1   -0.20    0.60
   1  -8   1    0.40    0.30
   1  -8   1    0.40    0.60
  -2   8  -1    0.20    0.60
  -2   8  -1    1.20    0.50
  -2   8  -1    0.40    0.60
  -2   8  -1    1.00    0.60
  -2   8  -1    0.40    1.00
   2  -8   1    0.10    0.60
   2  -8   1   -0.10    0.60
   2  -8   1    1.40    0.50
   2  -8   1    0.90    0.70
   2  -8   1   -0.30    0.40
  -3   8  -1  110.19    4.70
  -3   8  -1  121.89    5.60
  -3   8  -1  101.99    4.40
  -3   8  -1  105.79    4.80
   3  -8   1  104.19    4.40
   3  -8   1  112.59    4.60
   3  -8   1  109.29    5.00
  -4   8  -1    2.30    1.40
  -4   8  -1   -0.40    0.50
  -4   8  -1    0.70    0.60
   4  -8   1    0.70    0.80
   4  -8   1    0.10    0.70
  -5   8  -1   -0.10    1.50
  -5   8  -1    0.20    0.60
   5  -8   1   -0.40    0.80
   5  -8   1   -0.50    0.80
  -6   8  -1    2.60    0.80
  -6   8  -1    4.30    2.10
   6  -8   1    3.30    1.30
   6  -8   1    3.30    1.30
   5   7  -1    3.70    1.70
  -5  -7   1    5.00    2.60
   4   7  -1    0.70    1.20
   4   7  -1   -0.70    1.10
  -4  -7   1    0.20    1.10
  -4  -7   1    1.00    1.80
  -4  -7   1    3.30    1.40
   3   7  -1    0.30    0.70
   3   7  -1   -1.30    0.90
  -3  -7   1   -0.10    0.90
  -3  -7   1    0.20    1.40
  -3  -7   1   -0.10    0.90
   2   7  -1    9.80    1.50
   2   7  -1   13.50    1.50
   2   7  -1    8.00    1.40
  -2  -7   1    8.70    1.40
  -2  -7   1    8.40    1.00
  -2  -7   1    8.00    1.40
  -2  -7   1    6.30    1.50
   1   7  -1   65.79    3.50
   1   7  -1   65.89    3.20
   1   7  -1   58.99    3.20
  -1  -7   1   63.09    3.40
  -1  -7   1   62.09    3.50
  -1  -7   1   65.89    3.30
  -1  -7   1   62.09    2.90
  -1  -7   1   61.59    2.50
   0   7  -1    9.20    1.30
   0   7  -1   12.90    1.40
   0   7  -1   14.10    1.60
   0   7  -1   11.60    1.30
   0  -7   1   11.40    1.00
   0  -7   1   10.80    1.30
   0  -7   1   13.20    1.70
   0  -7   1   13.50    1.40
   0  -7   1   10.50    1.20
  -1   7  -1    1.90    0.90
  -1   7  -1    1.60    0.60
  -1   7  -1    0.80    0.50
  -1   7  -1    1.20    0.70
   1  -7   1    1.30    0.60
   1  -7   1    1.30    0.60
   1  -7   1    2.20    0.50
  -2   7  -1   17.70    1.40
  -2   7  -1   17.30    1.50
  -2   7  -1   16.00    1.30
  -2   7  -1   17.10    1.40
  -2   7  -1   17.60    2.00
   2  -7   1   15.00    1.30
   2  -7   1   15.80    1.40
   2  -7   1   18.30    1.20
   2  -7   1   18.20    1.20
   2  -7   1   16.70    1.60
  -3   7  -1    2.00    0.60
  -3   7  -1    2.40    0.50
  -3   7  -1    2.50    0.60
  -3   7  -1    2.30    0.70
  -3   7  -1    3.20    1.30
  -3   7  -1    1.40    0.50
   3  -7   1    1.00    0.70
   3  -7   1    0.70    0.50
   3  -7   1    0.80    0.70
  -4   7  -1    1.20    0.50
  -4   7  -1    1.10    0.50
  -4   7  -1    0.80    1.20
   4  -7   1    0.10    0.40
   4  -7   1   -0.40    0.60
   4  -7   1    0.10    0.70
  -5   7  -1    3.20    1.70
   5  -7   1    2.90    1.10
   5  -7   1    4.80    1.20
  -6   7  -1   -0.30    1.70
  -6   7  -1    1.00    0.70
   6  -7   1    0.20    1.10
   6  -7   1   -1.00    0.90
   5   6  -1    5.00    1.60
  -5  -6   1    3.90    1.50
  -5  -6   1    3.20    2.50
   4   6  -1    3.00    1.40
   4   6  -1    1.80    1.10
  -4  -6   1    3.10    1.90
  -4  -6   1    1.30    1.10
  -4  -6   1    3.90    1.30
   3   6  -1   11.10    1.50
   3   6  -1   11.20    1.30
  -3  -6   1    9.00    1.80
  -3  -6   1   12.20    1.60
  -3  -6   1   11.90    1.60
   2   6  -1   14.70    1.30
   2   6  -1   14.50    1.70
   2   6  -1   14.00    1.60
  -2  -6   1   16.70    1.80
  -2  -6   1   15.50    1.70
  -2  -6   1   16.20    2.00
  -2  -6   1   13.60    1.60
  -2  -6   1   14.70    1.20
  -2  -6   1   14.70    1.20
   1   6  -1    0.20    0.60
   1   6  -1   -0.20    0.50
   1   6  -1    0.70    0.60
  -1  -6   1    0.30    0.30
  -1  -6   1    0.20    0.50
  -1  -6   1   -0.70    0.70
  -1  -6   1    0.50    0.60
  -1  -6   1    0.10    0.60
  -1  -6   1   -0.60    0.40
   0   6  -1  199.28    7.50
   0   6  -1  191.28    7.50
   0   6  -1  191.78    7.40
   0   6  -1  179.98    7.30
   0  -6   1  190.08    7.20
   0  -6   1  200.78    7.30
   0  -6   1  188.38    7.00
   0  -6   1  181.58    7.30
   0  -6   1  184.48    7.50
  -1   6  -1   41.60    2.20
  -1   6  -1   42.40    2.10
  -1   6  -1   42.80    2.40
  -1   6  -1   40.10    2.30
   1  -6   1   43.60    2.20
   1  -6   1   38.90    2.10
   1  -6   1   44.10    1.80
  -2   6  -1   22.40    1.40
  -2   6  -1   26.20    1.60
  -2   6  -1   24.90    2.00
  -2   6  -1   25.10    1.50
  -2   6  -1   17.50    1.50
   2  -6   1   21.90    1.50
   2  -6   1   26.10    1.30
   2  -6   1   26.60    1.40
   2  -6   1   23.60    1.40
   2  -6   1   24.40    1.70
  -3   6  -1   60.99    2.50
  -3   6  -1   57.19    2.60
  -3   6  -1   54.59    2.70
  -3   6  -1   62.59    3.40
  -3   6  -1   54.19    2.40
   3  -6   1   57.89    2.80
   3  -6   1   53.49    2.40
   3  -6   1   58.89    3.00
  -4   6  -1    7.20    0.90
  -4   6  -1    7.70    0.90
  -4   6  -1   10.40    1.80
   4  -6   1    7.80    1.30
   4  -6   1    4.80    1.00
   4  -6   1    9.00    1.30
  -5   6  -1    0.70    1.30
  -5   6  -1    0.00    0.50
  -5   6  -1   -0.70    1.20
  -5   6  -1    0.40    0.50
   5  -6   1   -1.60    0.70
   5  -6   1    0.10    0.80
   5  -6   1    0.60    0.90
  -6   6  -1    1.90    1.90
  -6   6  -1    0.20    0.60
   6  -6   1    0.50    1.10
   6  -6   1   -1.60    1.00
   5   5  -1    0.90    1.30
  -5  -5   1    2.30    1.20
  -5  -5   1    0.40    2.00
   4   5  -1    9.70    1.30
   4   5  -1   11.80    1.60
   4   5  -1   11.10    1.80
  -4  -5   1    8.60    1.60
  -4  -5   1   12.10    2.40
  -4  -5   1   12.90    1.70
   3   5  -1   13.90    1.40
   3   5  -1   11.60    1.50
  -3  -5   1   13.30    1.60
  -3  -5   1   13.00    1.70
  -3  -5   1   14.90    2.20
   2   5  -1    2.00    0.80
   2   5  -1    3.50    0.80
   2   5  -1    4.10    0.70
  -2  -5   1    4.10    0.90
  -2  -5   1    2.00    1.00
  -2  -5   1    2.50    0.80
  -2  -5   1    3.20    0.80
  -2  -5   1    3.20    0.60
   1   5  -1  204.68    7.80
   1   5  -1  199.78    7.90
   1   5  -1  197.28    8.00
  -1  -5   1  212.08    8.10
  -1  -5   1  201.08    7.70
  -1  -5   1  214.78    7.40
  -1  -5   1  201.48    7.90
  -1  -5   1  220.08    8.10
  -1  -5   1  207.68    8.00
   0   5  -1  257.67    9.70
   0   5  -1  276.87    9.70
   0   5  -1  252.67    9.70
   0   5  -1  250.57    9.50
   0  -5   1  258.87    9.60
   0  -5   1  268.17    9.50
   0  -5   1  257.67    9.80
   0  -5   1  264.17    9.70
   0  -5   1  253.57    9.50
  -1   5  -1   28.20    1.70
  -1   5  -1   21.80    1.40
  -1   5  -1   25.40    1.30
  -1   5  -1   20.40    1.40
  -1   5  -1   25.60    1.40
   1  -5   1   21.70    1.30
   1  -5   1   24.20    1.40
   1  -5   1   26.70    1.40
   1  -5   1   20.70    1.30
  -2   5  -1  105.59    4.70
  -2   5  -1  102.29    4.10
  -2   5  -1  108.19    4.20
  -2   5  -1  105.79    4.30
  -2   5  -1  110.09    4.10
   2  -5   1  104.59    4.20
   2  -5   1  107.89    4.40
   2  -5   1  106.39    4.10
   2  -5   1  111.89    4.10
   2  -5   1  113.19    4.20
  -3   5  -1   83.29    3.90
  -3   5  -1   79.59    3.20
  -3   5  -1   80.59    3.20
  -3   5  -1   73.49    3.00
  -3   5  -1   73.09    3.20
   3  -5   1   72.49    3.40
   3  -5   1   80.79    3.60
   3  -5   1   80.49    3.50
   3  -5   1   73.59    3.00
  -4   5  -1    7.60    0.90
  -4   5  -1    6.40    0.80
  -4   5  -1   12.50    1.80
   4  -5   1    6.40    1.10
   4  -5   1    5.00    1.10
   4  -5   1    5.90    1.10
  -5   5  -1   -0.10    1.20
  -5   5  -1    0.10    1.40
  -5   5  -1    0.00    0.60
  -5   5  -1   -0.20    0.50
   5  -5   1    0.00    0.80
   5  -5   1    1.50    0.90
   5  -5   1    0.60    1.00
  -6   5  -1   -1.00    1.50
  -6   5  -1    0.30    0.70
   6  -5   1    1.30    1.10
   6  -5   1    1.70    1.20
   5   4  -1    4.10    1.50
  -5  -4   1    3.30    1.30
  -5  -4   1    5.50    2.10
   4   4  -1   12.10    1.70
   4   4  -1   15.60    1.60
   4   4  -1   17.20    1.70
  -4  -4   1   15.70    1.70
  -4  -4   1   17.20    2.50
  -4  -4   1   17.40    2.00
   3   4  -1   21.20    1.90
   3   4  -1   24.90    1.70
   3   4  -1   23.50    1.90
   3   4  -1   22.50    1.60
   3   4  -1   24.50    1.80
  -3  -4   1   18.50    1.90
  -3  -4   1   24.70    2.30
  -3  -4   1   23.20    1.90
  -3  -4   1   22.40    1.80
   2   4  -1   82.29    3.10
   2   4  -1   75.79    3.50
  -2  -4   1   79.19    3.60
  -2  -4   1   75.69    3.70
  -2  -4   1   74.59    3.60
  -2  -4   1   77.49    3.10
  -2  -4   1   79.69    3.50
   1   4  -1  125.79    5.10
   1   4  -1  125.79    4.90
   1   4  -1  117.39    4.90
  -1  -4   1  126.49    5.10
  -1  -4   1  131.29    4.60
  -1  -4   1  125.29    4.80
  -1  -4   1  122.09    5.10
  -1  -4   1  129.59    5.10
  -1  -4   1  124.39    4.90
   0   4  -1  122.29    4.70
   0   4  -1  122.99    4.70
   0   4  -1  117.99    4.80
   0   4  -1  122.99    4.60
   0   4  -1  116.39    4.60
   0   4  -1  118.89    4.70
   0  -4   1  126.99    4.70
   0  -4   1  124.59    4.60
   0  -4   1  113.09    4.70
   0  -4   1  119.49    4.70
   0  -4   1  117.29    4.60
   0  -4   1  121.19    4.70
  -1   4  -1   25.70    1.40
  -1   4  -1   28.50    1.60
  -1   4  -1   25.30    1.30
  -1   4  -1   27.00    1.40
  -1   4  -1   24.80    1.40
  -1   4  -1   29.60    1.40
   1  -4   1   26.20    1.30
   1  -4   1   25.60    1.30
   1  -4   1   27.20    1.40
   1  -4   1   28.90    1.40
   1  -4   1   25.40    1.40
   1  -4   1   26.00    1.50
   1  -4   1   26.80    1.30
  -2   4  -1   27.90    1.40
  -2   4  -1   28.50    1.30
  -2   4  -1   27.60    1.40
  -2   4  -1   28.80    1.80
  -2   4  -1   27.70    1.30
  -2   4  -1   31.30    1.30
   2  -4   1   27.90    1.60
   2  -4   1   27.90    1.50
   2  -4   1   27.30    1.30
   2  -4   1   29.80    1.40
   2  -4   1   27.70    1.50
   2  -4   1   28.00    1.30
  -3   4  -1   10.00    1.40
  -3   4  -1    9.30    0.70
  -3   4  -1    9.40    0.90
  -3   4  -1    8.90    0.80
  -3   4  -1    7.30    0.80
   3  -4   1    9.20    1.10
   3  -4   1    8.20    1.10
   3  -4   1    8.40    0.70
   3  -4   1    8.60    1.00
  -4   4  -1   11.10    1.10
  -4   4  -1   14.50    1.80
  -4   4  -1   14.50    2.00
  -4   4  -1   10.20    1.10
   4  -4   1   13.20    1.40
   4  -4   1   14.60    1.60
   4  -4   1   11.30    1.50
  -5   4  -1    7.60    1.40
  -5   4  -1    7.80    2.00
  -5   4  -1    6.40    1.00
   5  -4   1    9.00    1.60
   5  -4   1    7.70    1.20
   5  -4   1    6.70    1.40
  -6   4  -1    0.80    0.80
  -6   4  -1    2.30    2.00
   6  -4   1    2.40    1.30
   6  -4   1   -0.80    1.00
   6   3  -1   -1.40    1.20
  -6  -3   1   -0.40    2.20
   5   3  -1    4.00    1.40
   5   3  -1    3.50    1.30
  -5  -3   1    3.50    1.20
  -5  -3   1    6.10    2.10
   4   3  -1   44.80    2.90
   4   3  -1   42.80    2.50
   4   3  -1   49.99    2.70
   4   3  -1   35.80    2.50
  -4  -3   1   42.20    2.50
  -4  -3   1   43.50    3.30
  -4  -3   1   39.00    2.70
   3   3  -1   89.99    4.30
   3   3  -1   92.69    4.10
   3   3  -1   98.89    4.10
   3   3  -1   96.89    4.20
   3   3  -1  105.09    4.20
  -3  -3   1  101.39    4.20
  -3  -3   1   95.79    4.60
  -3  -3   1   95.29    4.30
  -3  -3   1   91.69    4.30
  -3  -3   1   89.69    3.70
   2   3  -1   25.50    1.40
   2   3  -1   22.90    1.30
   2   3  -1   25.40    1.60
   2   3  -1   23.10    1.50
  -2  -3   1   24.50    1.60
  -2  -3   1   20.70    1.20
  -2  -3   1   23.80    1.60
  -2  -3   1   22.40    1.50
  -2  -3   1   27.40    1.80
   1   3  -1  489.45   17.40
   1   3  -1  486.45   17.50
   1   3  -1  486.85   17.40
   1   3  -1  484.95   17.50
   1   3  -1  480.55   17.30
   1   3  -1  474.35   17.40
  -1  -3   1  496.85   17.40
  -1  -3   1  513.75   17.20
  -1  -3   1  515.95   17.40
  -1  -3   1  471.35   17.50
  -1  -3   1  509.95   17.50
  -1  -3   1  488.65   17.30
   0   3  -1  459.35   16.30
   0   3  -1  437.96   16.20
   0   3  -1  472.35   16.30
   0   3  -1  434.36   16.30
   0   3  -1  463.25   16.30
   0   3  -1  475.75   16.30
   0  -3   1  457.25   16.30
   0  -3   1  467.45   16.30
   0  -3   1  496.55   16.30
   0  -3   1  461.05   16.30
   0  -3   1  464.85   16.30
   0  -3   1  455.55   16.40
  -1   3  -1 1155.88   40.10
  -1   3  -1 1148.39   40.00
  -1   3  -1 1125.49   40.30
  -1   3  -1 1169.68   40.00
  -1   3  -1 1128.89   40.10
  -1   3  -1 1168.08   40.10
  -1   3  -1 1154.98   40.00
  -1   3  -1 1142.89   40.00
  -1   3  -1 1170.48   40.00
  -1   3  -1 1115.59   39.90
   1  -3   1 1158.08   40.00
   1  -3   1 1187.18   40.00
   1  -3   1 1168.88   40.10
   1  -3   1 1181.68   40.00
   1  -3   1 1154.18   40.00
   1  -3   1 1086.69   40.20
   1  -3   1 1174.98   40.00
   1  -3   1 1226.18   40.00
   1  -3   1 1131.89   40.10
  -2   3  -1   78.49    3.00
  -2   3  -1   82.19    2.90
  -2   3  -1   71.79    3.00
  -2   3  -1   78.49    2.90
  -2   3  -1   72.59    3.30
  -2   3  -1   77.39    3.00
   2  -3   1   80.39    2.90
   2  -3   1   73.79    3.10
   2  -3   1   74.19    3.10
   2  -3   1   75.39    2.90
   2  -3   1   76.79    3.10
  -3   3  -1    8.70    0.80
  -3   3  -1    6.40    0.70
  -3   3  -1    8.20    1.30
  -3   3  -1    8.20    0.70
   3  -3   1    5.50    0.90
   3  -3   1    8.20    0.70
   3  -3   1    7.80    1.00
   3  -3   1    7.90    1.00
  -4   3  -1   35.10    2.00
  -4   3  -1   44.30    2.50
  -4   3  -1   37.60    2.00
  -4   3  -1   42.70    3.00
   4  -3   1   35.60    2.40
   4  -3   1   40.30    2.20
   4  -3   1   39.50    2.50
  -5   3  -1    1.30    1.50
  -5   3  -1    1.70    0.70
   5  -3   1    1.00    0.90
   5  -3   1    0.30    0.90
  -6   3  -1    0.80    0.80
  -6   3  -1    3.40    2.00
   6  -3   1    0.10    1.10
   6  -3   1    1.50    1.30
   6   2  -1    0.40    1.20
  -6  -2   1    2.10    2.30
  -6  -2   1   -1.10    0.80
   5   2  -1    0.90    0.90
   5   2  -1    1.80    1.20
   5   2  -1   -0.80    0.90
  -5  -2   1   -0.50    1.60
  -5  -2   1    1.10    0.90
   4   2  -1   22.30    1.70
   4   2  -1   19.80    1.90
   4   2  -1   22.20    1.90
   4   2  -1   19.60    2.10
  -4  -2   1   22.80    1.70
  -4  -2   1   19.10    1.80
  -4  -2   1   26.20    2.60
   3   2  -1    1.20    0.60
   3   2  -1    0.60    0.50
   3   2  -1    1.30    0.60
   3   2  -1    1.30    0.70
   3   2  -1    1.00    0.50
  -3  -2   1    0.00    0.50
  -3  -2   1    0.10    0.50
  -3  -2   1    0.00    0.50
  -3  -2   1    0.10    0.40
  -3  -2   1   -0.10    0.80
   2   2  -1    6.20    0.70
   2   2  -1    5.80    0.70
   2   2  -1    6.70    0.70
   2   2  -1    5.90    0.70
   2   2  -1    6.20    0.80
   2   2  -1    6.20    0.80
   2   2  -1    5.50    0.80
  -2  -2   1    4.90    0.70
  -2  -2   1    4.60    0.80
  -2  -2   1    5.80    0.60
  -2  -2   1    5.30    0.70
  -2  -2   1    5.60    0.70
  -2  -2   1    4.30    0.70
   1   2  -1  243.68    9.00
   1   2  -1  249.78    9.00
   1   2  -1  262.87    9.10
   1   2  -1  258.57    8.90
   1   2  -1  240.48    9.00
  -1  -2   1  255.17    8.90
  -1  -2   1  253.57    9.00
  -1  -2   1  241.88    9.10
  -1  -2   1  262.67    9.10
  -1  -2   1  242.08    9.00
  -1  -2   1  241.28    9.00
  -1  -2   1  254.57    8.90
   0   2  -1 2192.68   74.29
   0   2  -1 2147.49   74.09
   0   2  -1 2075.09   73.99
   0   2  -1 1979.20   73.79
   0   2  -1 2123.09   73.89
   0   2  -1 2190.38   73.79
   0  -2   1 2068.29   73.79
   0  -2   1 2130.89   73.79
   0  -2   1 2044.70   74.09
   0  -2   1 2252.57   73.99
   0  -2   1 2234.78   73.79
  -1   2  -1 1714.63   58.89
  -1   2  -1 1727.73   58.79
  -1   2  -1 1558.14   59.09
  -1   2  -1 1686.33   58.89
  -1   2  -1 1669.23   58.89
  -1   2  -1 1777.52   59.09
  -1   2  -1 1701.63   58.79
  -1   2  -1 1616.04   58.89
   1  -2   1 1808.02   58.89
   1  -2   1 1696.43   58.79
   1  -2   1 1689.43   58.89
   1  -2   1 1650.83   58.99
   1  -2   1 1709.33   58.89
   1  -2   1 1702.23   58.99
   1  -2   1 1742.73   58.99
   1  -2   1 1777.32   58.99
  -2   2  -1   77.89    3.30
  -2   2  -1   78.89    3.10
  -2   2  -1   76.59    3.10
  -2   2  -1   80.09    3.10
  -2   2  -1   83.29    3.20
  -2   2  -1   87.69    3.10
   2  -2   1   80.09    3.20
   2  -2   1   79.39    3.30
   2  -2   1   78.99    3.30
   2  -2   1   82.39    3.00
  -3   2  -1   33.80    1.70
  -3   2  -1   34.90    2.00
  -3   2  -1   29.20    1.70
  -3   2  -1   36.00    1.60
  -3   2  -1   35.20    2.30
  -3   2  -1   37.30    1.70
   3  -2   1   37.50    2.00
   3  -2   1   35.20    1.80
   3  -2   1   33.40    2.00
   3  -2   1   35.40    1.60
  -4   2  -1   29.20    2.60
  -4   2  -1   21.70    1.60
  -4   2  -1   28.10    1.90
  -4   2  -1   27.20    1.70
  -4   2  -1   22.00    1.60
   4  -2   1   29.90    2.20
   4  -2   1   25.30    1.60
   4  -2   1   25.50    1.90
  -5   2  -1    7.60    1.90
  -5   2  -1    6.40    1.10
   5  -2   1    9.70    1.70
   5  -2   1    7.70    1.40
  -6   2  -1   -0.70    1.70
  -6   2  -1    0.30    0.80
   6  -2   1   -0.10    1.20
   6  -2   1    0.00    1.10
   6   1  -1    0.00    1.30
   6   1  -1    1.70    1.30
  -6  -1   1    0.60    2.00
  -6  -1   1   -0.40    0.90
   5   1  -1    2.80    1.10
   5   1  -1    2.60    1.20
   5   1  -1    2.80    1.20
  -5  -1   1    3.00    1.70
  -5  -1   1    1.90    0.90
   4   1  -1   12.00    1.50
   4   1  -1   13.00    1.20
   4   1  -1   13.20    1.60
   4   1  -1   13.40    1.70
  -4  -1   1   10.00    1.20
  -4  -1   1   11.70    1.90
  -4  -1   1   13.00    1.20
  -4  -1   1   13.70    1.40
   3   1  -1  117.89    4.90
   3   1  -1  122.89    4.90
   3   1  -1  115.29    5.00
   3   1  -1  126.99    4.60
  -3  -1   1  121.79    4.80
  -3  -1   1  120.89    4.60
  -3  -1   1  123.79    5.30
  -3  -1   1  116.69    4.50
  -3  -1   1  104.69    4.70
   2   1  -1  108.39    4.50
   2   1  -1  113.39    4.30
   2   1  -1  107.39    4.40
   2   1  -1  112.19    4.40
   2   1  -1  120.69    4.20
   2   1  -1  111.99    4.20
  -2  -1   1  113.59    4.20
  -2  -1   1  112.79    4.20
  -2  -1   1  113.49    4.30
  -2  -1   1  108.49    4.30
  -2  -1   1  114.59    4.60
   1   1  -1  926.61   30.50
   1   1  -1  982.60   30.60
   1   1  -1  855.01   30.40
   1   1  -1  859.81   30.40
   1   1  -1  866.51   30.40
   1   1  -1  836.72   30.40
   1   1  -1  843.12   30.50
   1   1  -1  876.31   30.40
  -1  -1   1  839.22   30.40
  -1  -1   1  820.62   30.40
  -1  -1   1  901.11   30.40
  -1  -1   1  877.31   30.40
  -1  -1   1  868.61   30.40
  -1  -1   1  830.32   30.40
  -1  -1   1  969.60   30.50
   0   1  -1   -1.40    0.10
   0   1  -1   -1.30    0.10
   0   1  -1   -1.30    0.10
   0   1  -1   -1.30    0.10
   0   1  -1   -1.30    0.10
   0   1  -1   -1.30    0.10
   0  -1   1   -1.30    0.10
   0  -1   1   -1.40    0.10
   0  -1   1   -1.30    0.10
   0  -1   1   -1.30    0.10
  -1   1  -1    1.60    0.30
  -1   1  -1    1.70    0.40
  -1   1  -1    1.40    0.30
  -1   1  -1    0.20    0.30
  -1   1  -1    1.90    0.30
  -1   1  -1    1.60    0.30
  -1   1  -1    0.40    0.30
  -1   1  -1    2.40    0.40
  -1   1  -1    1.90    0.30
   1  -1   1    1.30    0.40
   1  -1   1    1.50    0.30
   1  -1   1    1.40    0.30
   1  -1   1    1.60    0.30
   1  -1   1    1.50    0.30
   1  -1   1    1.40    0.40
   1  -1   1    1.40    0.30
   1  -1   1    1.80    0.30
   1  -1   1    2.00    0.40
  -2   1  -1   96.39    3.70
  -2   1  -1   97.19    3.80
  -2   1  -1   92.39    3.60
  -2   1  -1   91.19    3.60
  -2   1  -1   86.29    3.60
  -2   1  -1   96.29    3.70
  -2   1  -1   98.39    3.60
  -2   1  -1   96.19    4.00
   2  -1   1  100.99    3.60
   2  -1   1  101.39    3.60
   2  -1   1   95.39    3.80
   2  -1   1   96.29    3.80
   2  -1   1   87.79    3.70
   2  -1   1   93.59    3.60
   2  -1   1   95.59    3.70
  -3   1  -1   15.10    1.20
  -3   1  -1   15.20    1.00
  -3   1  -1   12.20    1.10
  -3   1  -1   13.00    1.60
  -3   1  -1   13.40    1.10
  -3   1  -1   14.50    1.20
  -3   1  -1   13.10    1.10
  -3   1  -1   14.80    1.00
   3  -1   1   14.40    1.20
   3  -1   1   14.70    1.40
   3  -1   1   13.20    1.10
   3  -1   1   16.10    1.00
   3  -1   1   13.90    1.10
   3  -1   1   16.60    1.00
  -4   1  -1   29.00    1.90
  -4   1  -1   33.50    2.00
  -4   1  -1   30.60    1.80
  -4   1  -1   32.50    1.80
  -4   1  -1   35.40    2.80
  -4   1  -1   33.40    2.00
   4  -1   1   34.80    2.40
   4  -1   1   30.00    2.10
   4  -1   1   33.30    1.90
  -5   1  -1    4.10    1.80
  -5   1  -1    4.30    1.00
   5  -1   1    5.10    1.30
   5  -1   1    5.20    1.40
  -6   1  -1   -0.30    0.80
  -6   1  -1    1.40    2.00
   6  -1   1    1.30    1.30
   6  -1   1    0.10    1.20
   6   0  -1    0.20    1.20
   6   0  -1    0.50    1.30
  -6   0   1   -0.90    0.70
  -6   0   1   -2.30    1.70
   5   0  -1   -1.10    0.80
   5   0  -1    0.00    1.10
   5   0  -1    0.70    1.00
  -5   0   1    0.50    0.70
  -5   0   1    0.10    1.30
   4   0  -1   56.39    3.00
   4   0  -1   49.99    2.90
   4   0  -1   54.29    3.10
  -4   0   1   57.19    2.60
  -4   0   1   61.69    3.50
  -4   0   1   49.40    2.60
  -4   0   1   52.49    2.60
   3   0  -1  108.19    4.00
   3   0  -1  104.19    4.40
   3   0  -1  100.69    4.40
   3   0  -1   99.49    4.30
  -3   0   1  101.89    4.60
  -3   0   1   96.79    4.00
  -3   0   1  105.19    3.90
  -3   0   1  100.79    4.10
   2   0  -1   45.90    2.10
   2   0  -1   48.70    2.20
   2   0  -1   46.40    2.20
   2   0  -1   49.50    1.90
  -2   0   1   50.99    2.00
  -2   0   1   47.40    1.90
  -2   0   1   52.49    2.30
  -2   0   1   39.60    1.90
  -2   0   1   42.10    1.90
   1   0  -1  152.48    5.50
   1   0  -1  142.29    5.40
   1   0  -1  145.69    5.40
   1   0  -1  147.69    5.40
  -1   0   1  153.68    5.40
  -1   0   1  150.08    5.40
  -1   0   1  143.89    5.40
  -1   0   1  157.98    5.50
  -1   0   1  137.39    5.20
  -1   0   1  153.68    5.40
   0   0  -1   -0.10    0.10
   0   0  -1    0.00    0.10
   0   0  -1   -0.10    0.10
   0   0  -1   -0.10    0.10
   0   0  -1   -0.10    0.10
   0   0  -1    0.00    0.10
   0   0  -1   -0.10    0.10
   0   0   1   -0.10    0.10
   0   0   1   -0.10    0.10
   0   0   1   -0.10    0.10
   0   0   1   -0.10    0.10
   0   0   1   -0.10    0.10
   0   0   1   -0.10    0.10
   0   0   1   -0.20    0.10
  -1   0  -1 1301.47   43.50
  -1   0  -1 1268.57   43.50
  -1   0  -1 1259.87   43.30
  -1   0  -1 1211.88   43.60
  -1   0  -1 1253.77   43.50
  -1   0  -1 1317.17   43.40
   1   0   1 1264.77   43.60
   1   0   1 1250.37   43.50
   1   0   1 1253.77   43.50
   1   0   1 1244.48   43.50
   1   0   1 1226.18   43.50
   1   0   1 1224.18   43.40
  -2   0  -1   21.40    1.30
  -2   0  -1   22.10    1.20
  -2   0  -1   21.20    1.50
  -2   0  -1   23.20    1.30
  -2   0  -1   21.90    1.30
  -2   0  -1   24.10    1.30
  -2   0  -1   25.20    1.10
   2   0   1   24.10    1.30
   2   0   1   23.10    1.00
   2   0   1   24.40    1.20
   2   0   1   24.60    1.40
   2   0   1   21.40    1.30
   2   0   1   24.30    1.30
  -3   0  -1    2.40    0.70
  -3   0  -1    1.00    0.60
  -3   0  -1    1.50    0.50
  -3   0  -1    1.00    0.60
  -3   0  -1    0.60    0.50
  -3   0  -1    2.10    1.00
   3   0   1    0.90    0.60
   3   0   1    1.70    0.70
   3   0   1    2.10    0.70
   3   0   1    0.90    0.60
  -4   0  -1    3.30    0.90
  -4   0  -1    2.80    0.90
  -4   0  -1    4.90    0.80
  -4   0  -1    3.30    1.50
   4   0   1    6.10    0.90
   4   0   1    3.00    1.00
   4   0   1    5.30    1.20
  -5   0  -1    6.20    2.00
  -5   0  -1    6.40    1.30
   5   0   1    5.80    1.40
   5   0   1    6.90    1.60
  -6   0  -1    0.90    2.00
  -6   0  -1   -0.50    0.90
   6   0   1   -1.10    1.10
   6   0   1   -1.50    1.20
   6  -1  -1   -0.10    1.20
   6  -1  -1   -0.50    1.20
  -6   1   1   -0.30    0.70
  -6   1   1   -1.60    1.70
   5  -1  -1    8.30    1.50
   5  -1  -1    8.40    1.50
   5  -1  -1   10.00    1.70
  -5   1   1    8.20    1.10
  -5   1   1   11.20    2.20
   4  -1  -1    1.00    0.90
   4  -1  -1    0.60    0.80
   4  -1  -1    1.70    0.90
  -4   1   1    2.50    0.60
  -4   1   1    3.50    0.90
  -4   1   1    4.00    1.30
   3  -1  -1  155.88    6.00
   3  -1  -1  155.98    5.80
   3  -1  -1  155.98    6.10
   3  -1  -1  158.28    6.10
  -3   1   1  152.68    5.60
  -3   1   1  156.68    6.30
  -3   1   1  139.89    5.60
  -3   1   1  146.69    5.40
   2  -1  -1   17.10    1.10
   2  -1  -1   18.50    1.20
   2  -1  -1   16.20    1.10
   2  -1  -1   16.90    1.00
  -2   1   1   17.70    1.10
   1  -1  -1  388.86   13.70
   1  -1  -1  391.96   13.80
   1  -1  -1  378.16   13.80
   1  -1  -1  382.86   13.70
  -1   1   1  389.96   13.70
  -1   1   1  412.86   13.80
  -1   1   1  400.86   13.80
  -1   1   1  384.46   13.70
   0  -1  -1  580.34   20.20
   0  -1  -1  634.74   20.30
   0  -1  -1  548.55   20.20
   0  -1  -1  566.64   20.20
   0  -1  -1  607.04   20.20
   0  -1  -1  605.44   20.20
   0   1   1  563.94   20.20
   0   1   1  580.34   20.20
   0   1   1  582.94   20.20
   0   1   1  592.44   20.20
   0   1   1  553.84   20.20
   0   1   1  573.04   20.10
   0   1   1  573.54   20.20
  -1  -1  -1  287.27   10.20
  -1  -1  -1  287.17   10.40
  -1  -1  -1  281.37   10.20
  -1  -1  -1  285.27   10.30
  -1  -1  -1  310.57   10.10
  -1  -1  -1  299.17   10.30
   1   1   1  286.97   10.00
   1   1   1  278.47   10.20
   1   1   1  277.97   10.30
   1   1   1  290.47   10.30
   1   1   1  274.47   10.20
   1   1   1  270.47   10.10
  -2  -1  -1  185.28    6.90
  -2  -1  -1  184.98    7.00
  -2  -1  -1  181.78    7.30
  -2  -1  -1  184.78    7.10
  -2  -1  -1  184.88    7.10
   2   1   1  180.58    6.90
   2   1   1  198.28    7.00
   2   1   1  189.28    6.80
   2   1   1  186.38    6.90
  -3  -1  -1   19.90    1.70
  -3  -1  -1   17.70    1.50
  -3  -1  -1   20.70    1.90
  -3  -1  -1   19.60    1.50
  -3  -1  -1   19.90    1.50
   3   1   1   17.30    1.40
   3   1   1   20.20    1.40
   3   1   1   19.80    1.70
   3   1   1   18.40    1.40
   3   1   1   17.20    1.40
  -4  -1  -1   45.80    3.40
  -4  -1  -1   46.90    2.50
  -4  -1  -1   37.80    2.60
   4   1   1   43.50    2.60
   4   1   1   46.10    2.60
   4   1   1   46.60    2.90
   4   1   1   47.80    2.50
  -5  -1  -1   12.20    2.50
  -5  -1  -1   11.00    1.60
   5   1   1   12.40    1.90
   5   1   1   11.10    1.80
  -6  -1  -1    2.40    1.20
  -6  -1  -1    2.10    2.40
   6   1   1    2.60    1.40
   6   1   1    1.30    1.40
   6  -2  -1    6.50    1.70
   6  -2  -1   10.00    1.90
  -6   2   1    8.40    2.20
  -6   2   1    5.60    1.00
   5  -2  -1    4.10    1.20
   5  -2  -1    2.20    1.10
  -5   2   1    2.80    0.70
  -5   2   1    4.00    1.60
  -5   2   1    2.00    0.70
   4  -2  -1   35.80    2.30
   4  -2  -1   37.60    2.50
   4  -2  -1   37.20    2.40
   4  -2  -1   39.20    2.10
  -4   2   1   36.50    1.80
  -4   2   1   38.40    2.30
  -4   2   1   32.20    1.70
  -4   2   1   37.00    2.70
   3  -2  -1   76.29    3.60
   3  -2  -1   83.79    3.80
   3  -2  -1   78.09    3.60
   3  -2  -1   76.49    3.50
  -3   2   1   92.99    3.90
  -3   2   1   86.79    3.70
   2  -2  -1    1.00    0.40
   2  -2  -1    0.60    0.30
   2  -2  -1    0.70    0.40
   2  -2  -1    1.00    0.50
   1  -2  -1    9.60    0.70
   1  -2  -1    7.40    0.60
   1  -2  -1    8.80    0.50
   1  -2  -1    9.20    0.60
   1  -2  -1   10.50    0.80
  -1   2   1    8.10    0.70
  -1   2   1   10.90    0.80
  -1   2   1    9.50    0.60
  -1   2   1    9.60    0.60
  -1   2   1   10.00    0.60
  -1   2   1   10.00    0.60
  -1   2   1   11.10    0.70
  -1   2   1    8.60    0.50
  -1   2   1    9.40    0.50
  -1   2   1   10.90    0.80
   0  -2  -1  414.56   15.30
   0  -2  -1  464.65   15.20
   0  -2  -1  450.75   15.20
   0  -2  -1  428.46   15.30
   0  -2  -1  455.15   15.30
   0  -2  -1  440.16   15.30
   0  -2  -1  446.46   15.20
   0  -2  -1  436.96   15.20
   0   2   1  446.86   15.30
   0   2   1  420.16   15.20
   0   2   1  435.06   15.30
   0   2   1  421.56   15.20
   0   2   1  408.16   15.20
   0   2   1  417.36   15.20
   0   2   1  450.55   15.20
   0   2   1  418.46   15.30
   0   2   1  422.46   15.30
  -1  -2  -1   15.40    0.80
  -1  -2  -1   15.70    1.10
  -1  -2  -1   14.80    1.00
  -1  -2  -1   14.00    1.00
  -1  -2  -1   13.40    1.10
  -1  -2  -1   14.70    1.10
  -1  -2  -1   14.40    1.20
   1   2   1   15.00    1.00
   1   2   1   12.40    1.10
   1   2   1   14.70    1.00
   1   2   1   16.30    0.80
   1   2   1   14.40    1.00
  -2  -2  -1   14.10    1.50
  -2  -2  -1   13.50    1.20
  -2  -2  -1   13.60    1.30
  -2  -2  -1   12.90    1.20
  -2  -2  -1   11.70    1.20
   2   2   1   13.40    1.10
   2   2   1   15.20    1.20
   2   2   1   13.20    0.90
   2   2   1   13.10    1.00
  -3  -2  -1   17.60    1.60
  -3  -2  -1   19.30    1.70
  -3  -2  -1   19.40    2.20
  -3  -2  -1   17.00    1.60
  -3  -2  -1   18.60    1.90
   3   2   1   19.00    1.60
   3   2   1   18.70    1.50
   3   2   1   18.80    1.70
   3   2   1   18.20    1.50
   3   2   1   21.00    1.40
  -4  -2  -1    6.50    1.20
  -4  -2  -1    6.10    1.60
  -4  -2  -1    9.50    1.30
   4   2   1    5.80    1.20
   4   2   1    7.40    1.30
   4   2   1    7.70    1.20
   4   2   1    7.10    1.10
  -5  -2  -1    3.20    2.00
  -5  -2  -1    2.20    1.10
   5   2   1    2.70    1.40
   5   2   1    5.00    1.40
  -6  -2  -1    1.60    2.30
   6  -3  -1   -1.30    1.00
   6  -3  -1    0.20    1.20
  -6   3   1   -0.10    0.50
  -6   3   1    2.30    1.80
   5  -3  -1   11.00    1.70
   5  -3  -1    8.40    1.40
  -5   3   1    7.80    0.90
  -5   3   1    6.70    0.90
  -5   3   1    9.30    2.00
  -5   3   1   12.70    1.80
   4  -3  -1   -0.10    0.70
   4  -3  -1   -0.30    0.70
   4  -3  -1    0.80    0.70
  -4   3   1   -0.10    0.80
  -4   3   1   -0.90    0.90
  -4   3   1    0.20    0.30
   3  -3  -1   26.10    1.70
   3  -3  -1   26.30    1.60
   3  -3  -1   27.60    1.90
   3  -3  -1   22.20    1.70
  -3   3   1   29.50    1.90
   2  -3  -1  172.78    6.70
   2  -3  -1  179.28    6.60
   2  -3  -1  169.58    6.60
   2  -3  -1  177.58    6.50
  -2   3   1  172.48    6.70
   1  -3  -1   34.50    1.50
   1  -3  -1   32.20    1.40
   1  -3  -1   32.90    1.40
   1  -3  -1   31.70    1.60
   1  -3  -1   32.40    1.40
   1  -3  -1   34.10    1.40
   1  -3  -1   33.50    1.40
  -1   3   1   30.80    1.40
  -1   3   1   34.10    1.50
  -1   3   1   34.00    1.50
  -1   3   1   31.20    1.40
  -1   3   1   33.90    1.60
  -1   3   1   31.80    1.50
  -1   3   1   35.70    1.40
  -1   3   1   30.70    1.50
  -1   3   1   35.20    1.60
  -1   3   1   31.20    1.70
   0  -3  -1    3.20    0.50
   0  -3  -1    3.60    0.70
   0  -3  -1    3.60    0.60
   0  -3  -1    4.90    0.60
   0  -3  -1    3.80    0.50
   0  -3  -1    4.60    0.60
   0  -3  -1    3.60    0.50
   0  -3  -1    2.80    0.50
   0   3   1    2.80    0.60
   0   3   1    4.10    0.60
   0   3   1    4.60    0.70
   0   3   1    4.40    0.50
   0   3   1    4.00    0.60
   0   3   1    3.50    0.50
   0   3   1    2.90    0.50
   0   3   1    3.30    0.50
   0   3   1    4.10    0.60
  -1  -3  -1  258.17    9.30
  -1  -3  -1  269.17    9.40
  -1  -3  -1  248.58    9.40
  -1  -3  -1  248.68    9.30
  -1  -3  -1  269.67    8.90
  -1  -3  -1  247.28    8.90
  -1  -3  -1  256.17    9.40
   1   3   1  250.27    9.40
   1   3   1  239.38    8.90
   1   3   1  257.97    9.30
   1   3   1  235.48    9.00
   1   3   1  242.48    9.20
  -2  -3  -1  227.18    8.20
  -2  -3  -1  217.68    8.10
  -2  -3  -1  202.88    8.10
  -2  -3  -1  211.78    7.90
  -2  -3  -1  202.08    8.20
   2   3   1  204.48    7.50
   2   3   1  207.58    7.70
   2   3   1  193.58    7.90
  -3  -3  -1   -0.10    0.70
  -3  -3  -1   -1.40    0.50
  -3  -3  -1    1.20    1.00
  -3  -3  -1   -0.70    0.70
   3   3   1    0.10    0.60
   3   3   1   -0.40    0.50
   3   3   1   -1.00    0.60
   3   3   1    0.00    0.60
  -4  -3  -1    0.10    0.90
  -4  -3  -1   -0.90    1.30
  -4  -3  -1    1.00    0.90
   4   3   1    0.50    0.70
   4   3   1    1.10    1.00
   4   3   1    0.50    0.80
   4   3   1    1.10    0.90
  -5  -3  -1    4.10    2.10
  -5  -3  -1    3.30    1.20
   5   3   1    4.20    1.30
   5   3   1    1.00    1.30
   6  -4  -1    2.20    1.30
   6  -4  -1    4.80    1.60
  -6   4   1    7.20    2.20
   5  -4  -1    3.50    1.10
   5  -4  -1    5.00    1.30
   5  -4  -1    4.60    1.10
  -5   4   1    5.70    1.70
  -5   4   1    5.00    1.70
   4  -4  -1    2.50    0.80
   4  -4  -1    1.80    0.80
   4  -4  -1    1.00    0.80
  -4   4   1    2.90    1.20
   3  -4  -1   26.60    1.80
   3  -4  -1   26.10    1.70
   3  -4  -1   25.30    1.70
  -3   4   1   28.60    2.10
   2  -4  -1  190.58    7.10
   2  -4  -1  195.68    6.90
   2  -4  -1  195.28    6.70
  -2   4   1  181.28    6.90
  -2   4   1  176.98    6.80
  -2   4   1  189.08    6.70
  -2   4   1  187.38    7.30
  -2   4   1  178.68    6.80
  -2   4   1  191.28    6.80
   1  -4  -1    1.50    0.40
   1  -4  -1    1.50    0.30
   1  -4  -1    0.80    0.30
   1  -4  -1    0.10    0.40
   1  -4  -1    1.30    0.40
   1  -4  -1    1.10    0.40
  -1   4   1    0.70    0.40
  -1   4   1    1.10    0.60
  -1   4   1    1.30    0.30
  -1   4   1    1.30    0.30
  -1   4   1    1.40    0.40
  -1   4   1    1.10    0.40
  -1   4   1    0.80    0.40
  -1   4   1    1.40    0.40
   0  -4  -1  126.29    4.70
   0  -4  -1  126.39    4.90
   0  -4  -1  121.29    4.90
   0  -4  -1  120.79    4.80
   0  -4  -1  123.19    4.80
   0  -4  -1  121.39    4.60
   0   4   1  121.79    4.60
   0   4   1  116.99    4.80
   0   4   1  120.69    4.90
   0   4   1  127.49    4.90
   0   4   1  113.99    4.70
  -1  -4  -1  266.77   10.00
  -1  -4  -1  265.27    9.40
  -1  -4  -1  268.57    9.80
  -1  -4  -1  275.17   10.00
  -1  -4  -1  268.87    9.90
   1   4   1  255.67    9.30
   1   4   1  251.57    9.80
   1   4   1  257.97    9.60
   1   4   1  267.67   10.00
  -2  -4  -1    0.60    0.60
  -2  -4  -1    0.70    0.60
  -2  -4  -1    0.80    0.90
  -2  -4  -1    0.90    0.70
   2   4   1    1.10    0.40
   2   4   1    1.60    0.70
   2   4   1    1.10    0.50
   2   4   1    1.20    0.60
  -3  -4  -1   18.90    1.80
  -3  -4  -1   19.40    2.30
  -3  -4  -1   19.10    1.90
   3   4   1   18.90    1.50
   3   4   1   19.20    1.30
   3   4   1   18.00    1.70
  -4  -4  -1   10.30    1.70
  -4  -4  -1    8.30    2.00
  -4  -4  -1    7.20    1.30
   4   4   1    5.70    1.40
   4   4   1    9.80    1.50
   4   4   1    8.30    1.40
  -5  -4  -1    0.70    1.10
  -5  -4  -1   -0.30    1.80
   5   4   1    0.90    1.10
   5   4   1    1.30    1.30
   6  -5  -1    1.00    1.20
   6  -5  -1    1.40    1.20
  -6   5   1    2.90    1.90
   5  -5  -1    1.60    0.90
   5  -5  -1    2.50    1.00
   5  -5  -1    1.80    1.10
  -5   5   1    2.70    1.50
  -5   5   1    0.30    1.30
   4  -5  -1   12.20    1.50
   4  -5  -1   15.20    1.70
   4  -5  -1   11.70    1.50
  -4   5   1   13.40    2.00
   3  -5  -1   13.70    1.30
   3  -5  -1   14.10    1.50
  -3   5   1    9.40    0.90
  -3   5   1   16.80    1.70
  -3   5   1   10.40    0.90
   2  -5  -1   18.90    1.10
   2  -5  -1   19.80    1.40
   2  -5  -1   16.40    1.00
   2  -5  -1   17.60    1.10
  -2   5   1   15.60    1.00
  -2   5   1   18.70    1.60
  -2   5   1   13.70    1.10
  -2   5   1   13.70    1.10
  -2   5   1   17.00    1.00
  -2   5   1   15.60    1.00
  -2   5   1   13.70    1.00
  -2   5   1   16.80    1.10
   1  -5  -1  142.19    5.50
   1  -5  -1  144.89    5.20
   1  -5  -1  139.09    5.50
   1  -5  -1  138.79    5.60
   1  -5  -1  142.49    5.30
  -1   5   1  156.78    5.70
  -1   5   1  141.69    5.80
  -1   5   1  146.39    5.50
  -1   5   1  138.29    5.30
  -1   5   1  150.68    5.70
   0  -5  -1    1.30    0.50
   0  -5  -1    2.10    0.60
   0  -5  -1    1.90    0.50
   0  -5  -1    2.10    0.50
   0  -5  -1    2.70    0.80
   0   5   1    1.80    0.50
   0   5   1    2.90    0.70
   0   5   1    2.60    0.70
   0   5   1    2.40    0.70
  -1  -5  -1   32.70    1.60
  -1  -5  -1   31.70    2.20
  -1  -5  -1   34.40    2.00
  -1  -5  -1   33.30    2.10
  -1  -5  -1   35.00    2.10
   1   5   1   32.10    2.00
   1   5   1   34.30    2.10
   1   5   1   33.90    1.80
  -2  -5  -1   33.60    2.60
  -2  -5  -1   35.20    1.60
  -2  -5  -1   39.60    2.50
  -2  -5  -1   37.00    2.30
  -2  -5  -1   34.30    2.40
   2   5   1   36.10    1.80
   2   5   1   33.70    1.70
   2   5   1   38.50    2.30
   2   5   1   36.40    2.40
  -3  -5  -1    2.20    1.00
  -3  -5  -1    1.70    1.00
  -3  -5  -1    1.40    1.30
   3   5   1    1.60    0.50
   3   5   1    0.80    0.80
   3   5   1    1.10    0.70
  -4  -5  -1    0.50    1.70
  -4  -5  -1    0.60    0.90
  -4  -5  -1    0.40    1.00
   4   5   1   -0.20    1.00
   4   5   1   -0.20    1.00
   4   5   1    0.10    0.80
  -5  -5  -1    0.50    1.20
  -5  -5  -1   -1.40    2.30
   5   5   1   -2.50    1.00
   6  -6  -1    0.80    0.90
   6  -6  -1    2.50    1.30
   6  -6  -1    0.00    1.10
  -6   6   1   -0.20    1.70
   5  -6  -1   18.10    2.10
   5  -6  -1   21.10    2.30
  -5   6   1   25.10    2.90
   4  -6  -1    0.60    0.70
   4  -6  -1    0.60    0.80
  -4   6   1    0.30    1.20
  -4   6   1    1.30    0.50
  -4   6   1    1.20    0.50
   3  -6  -1    6.20    0.60
   3  -6  -1    4.80    0.90
   3  -6  -1    6.70    1.10
  -3   6   1    4.10    0.50
  -3   6   1    5.00    1.40
  -3   6   1    2.50    0.60
  -3   6   1    2.10    0.60
  -3   6   1    4.60    0.80
   2  -6  -1  445.76   17.00
   2  -6  -1  462.75   16.70
   2  -6  -1  475.95   16.60
   2  -6  -1  483.05   16.60
  -2   6   1  469.65   16.70
  -2   6   1  505.85   16.90
  -2   6   1  469.75   16.90
  -2   6   1  472.55   17.40
  -2   6   1  438.06   16.50
   1  -6  -1    9.70    1.10
   1  -6  -1    8.50    1.00
   1  -6  -1    7.20    0.70
   1  -6  -1    9.60    1.00
  -1   6   1    7.50    0.80
  -1   6   1   11.30    1.10
  -1   6   1   11.50    1.20
  -1   6   1   10.80    1.40
  -1   6   1   10.20    1.00
   0  -6  -1    0.30    0.50
   0  -6  -1   -0.20    0.70
   0  -6  -1   -0.80    0.40
   0  -6  -1   -0.60    0.40
   0   6   1   -0.60    0.60
   0   6   1   -0.40    0.40
   0   6   1    0.10    0.50
   0   6   1   -0.40    0.50
  -1  -6  -1    0.10    0.80
  -1  -6  -1    0.00    0.70
  -1  -6  -1    0.30    0.50
  -1  -6  -1    0.60    0.70
   1   6   1   -0.50    0.60
   1   6   1    0.00    0.70
   1   6   1   -0.30    0.60
  -2  -6  -1   33.60    2.40
  -2  -6  -1   29.40    2.30
  -2  -6  -1   28.00    2.50
  -2  -6  -1   26.90    1.50
   2   6   1   28.30    1.60
   2   6   1   28.00    2.20
   2   6   1   30.30    2.30
  -3  -6  -1    3.50    1.20
  -3  -6  -1    4.40    1.70
  -3  -6  -1    4.30    1.30
   3   6   1    4.50    1.30
  -4  -6  -1    0.50    1.10
  -4  -6  -1    1.40    1.20
  -4  -6  -1    1.90    2.00
   4   6   1    1.90    1.30
   4   6   1    0.60    1.10
  -5  -6  -1    2.00    2.80
   5   6   1    1.50    1.40
   6  -7  -1    1.70    1.10
   6  -7  -1    1.90    1.20
  -6   7   1    1.70    2.30
  -6   7   1    0.80    1.80
   5  -7  -1    0.60    0.90
   5  -7  -1    0.50    1.00
  -5   7   1    0.50    1.50
  -5   7   1    2.30    1.10
   4  -7  -1   12.80    1.50
   4  -7  -1   11.40    1.60
  -4   7   1   14.40    1.20
  -4   7   1   14.40    1.20
  -4   7   1   14.30    1.50
  -4   7   1   18.20    2.60
   3  -7  -1   26.70    1.70
   3  -7  -1   26.50    1.50
   3  -7  -1   28.10    2.10
  -3   7   1   26.80    1.50
  -3   7   1   28.00    1.70
  -3   7   1   25.50    1.40
  -3   7   1   29.00    2.50
  -3   7   1   24.90    1.60
  -3   7   1   26.80    1.70
  -3   7   1   26.20    1.60
   2  -7  -1    6.80    0.80
   2  -7  -1    5.80    0.80
   2  -7  -1    8.50    0.90
   2  -7  -1    5.60    1.00
  -2   7   1    6.80    1.00
  -2   7   1    5.70    1.00
  -2   7   1    7.00    0.90
  -2   7   1    9.30    1.60
   1  -7  -1   20.00    1.50
   1  -7  -1   16.70    1.40
   1  -7  -1   15.50    1.10
  -1   7   1   17.60    1.40
  -1   7   1   18.60    1.60
  -1   7   1   18.80    1.80
  -1   7   1   19.30    1.50
   0  -7  -1  129.39    5.60
   0  -7  -1  132.39    5.70
   0  -7  -1  136.29    6.00
   0  -7  -1  129.09    5.40
   0   7   1  126.89    5.50
   0   7   1  128.39    5.60
   0   7   1  138.69    5.80
   0   7   1  144.49    5.80
  -1  -7  -1  109.29    5.10
  -1  -7  -1  114.99    4.60
  -1  -7  -1  121.79    5.30
  -1  -7  -1  106.59    5.40
   1   7   1  115.69    4.90
   1   7   1  115.19    5.30
   1   7   1  107.09    5.00
  -2  -7  -1   11.70    1.90
  -2  -7  -1   14.90    1.10
  -2  -7  -1   15.00    1.90
  -2  -7  -1   13.60    1.80
   2   7   1   15.20    1.30
   2   7   1   14.40    1.80
   2   7   1   13.50    1.90
  -3  -7  -1   27.80    2.60
  -3  -7  -1   26.20    3.30
  -3  -7  -1   27.50    2.70
   3   7   1   27.40    2.70
  -4  -7  -1    1.90    2.10
  -4  -7  -1    0.40    1.20
  -4  -7  -1    0.50    1.20
   4   7   1    0.90    1.20
   4   7   1    0.90    1.30
   6  -8  -1    0.70    1.10
   6  -8  -1   -0.30    1.00
  -6   8   1   -0.40    1.70
  -6   8   1   -1.00    1.60
   5  -8  -1    7.80    1.60
   5  -8  -1    7.10    1.40
  -5   8   1    5.70    0.90
  -5   8   1    9.00    1.10
  -5   8   1   10.10    2.40
   4  -8  -1    7.10    1.20
   4  -8  -1    5.20    1.30
  -4   8   1    5.60    0.90
  -4   8   1    7.70    1.10
  -4   8   1    9.40    2.20
   3  -8  -1    3.70    0.80
   3  -8  -1    3.50    1.10
   3  -8  -1    3.30    0.70
   3  -8  -1    3.20    0.60
  -3   8   1    2.40    0.80
  -3   8   1    2.50    0.80
  -3   8   1    1.90    0.60
  -3   8   1    4.10    1.50
  -3   8   1    3.30    0.70
   2  -8  -1   11.90    1.20
   2  -8  -1   12.40    1.00
   2  -8  -1   12.40    1.10
   2  -8  -1   10.30    1.40
  -2   8   1   11.90    1.40
  -2   8   1   15.50    2.20
  -2   8   1   12.00    1.40
  -2   8   1   13.50    1.30
   1  -8  -1   23.40    1.90
   1  -8  -1   24.80    1.90
   1  -8  -1   24.00    1.40
  -1   8   1   22.20    2.30
  -1   8   1   24.20    2.10
  -1   8   1   22.00    1.90
  -1   8   1   27.30    2.00
   0  -8  -1    4.70    1.60
   0  -8  -1    6.60    1.20
   0  -8  -1    6.70    1.10
   0  -8  -1    6.00    1.20
   0   8   1    6.90    1.30
   0   8   1    5.60    1.10
   0   8   1    6.90    1.60
  -1  -8  -1    7.70    1.10
  -1  -8  -1    7.10    1.50
  -1  -8  -1    6.80    1.40
  -1  -8  -1    9.30    1.80
   1   8   1    6.00    1.30
   1   8   1    8.30    1.60
   1   8   1    8.40    1.50
  -2  -8  -1   18.00    2.20
  -2  -8  -1   18.60    2.20
  -2  -8  -1   15.20    2.50
   2   8   1   13.80    1.90
  -3  -8  -1    3.60    1.50
  -3  -8  -1    4.00    2.00
  -3  -8  -1    3.20    1.40
   3   8   1    3.20    1.40
  -4  -8  -1   -0.70    1.30
  -4  -8  -1   -0.70    2.20
  -4  -8  -1    1.20    1.40
   4   8   1   -0.50    1.20
   4   8   1   -0.90    1.10
   6  -9  -1    0.80    1.10
   6  -9  -1    1.00    1.10
  -6   9   1   -1.50    1.90
   5  -9  -1    2.20    1.20
   5  -9  -1    3.40    1.20
  -5   9   1    3.40    0.80
  -5   9   1    4.80    2.10
   4  -9  -1    0.80    0.80
   4  -9  -1    0.60    0.80
  -4   9   1    2.50    0.80
  -4   9   1    2.70    1.80
   3  -9  -1    4.60    0.80
   3  -9  -1    4.50    0.90
   3  -9  -1    4.20    1.10
   3  -9  -1    6.40    1.00
  -3   9   1    6.10    1.90
  -3   9   1    5.20    0.90
  -3   9   1    4.90    0.90
  -3   9   1    6.70    1.10
   2  -9  -1   89.29    3.50
   2  -9  -1   83.29    3.90
   2  -9  -1   85.79    4.30
  -2   9   1   84.79    4.30
  -2   9   1   87.89    4.70
  -2   9   1   88.09    4.00
   1  -9  -1    1.60    0.90
   1  -9  -1    1.90    0.90
  -1   9   1    2.60    1.40
  -1   9   1    1.60    1.00
  -1   9   1    2.40    0.90
   0  -9  -1  106.99    4.70
   0  -9  -1  106.29    5.10
   0  -9  -1  103.39    5.10
   0  -9  -1  110.49    5.70
   0   9   1  111.59    5.40
   0   9   1  104.19    5.00
   0   9   1  108.29    5.20
  -1  -9  -1    6.60    1.50
  -1  -9  -1    6.60    1.10
  -1  -9  -1    5.40    1.80
  -1  -9  -1    8.80    1.60
   1   9   1    6.50    1.50
   1   9   1    8.70    1.60
   1   9   1    5.40    1.40
  -2  -9  -1    3.50    1.40
  -2  -9  -1    5.60    1.50
  -2  -9  -1    5.40    2.00
   2   9   1    5.20    1.40
  -3  -9  -1    0.80    1.40
  -3  -9  -1    2.70    1.40
  -3  -9  -1    4.80    2.30
   3   9   1    3.20    1.40
   6 -10  -1    1.50    1.10
   6 -10  -1    1.00    1.20
  -6  10   1   -0.20    2.00
   5 -10  -1   -0.20    0.90
   5 -10  -1    0.30    1.00
  -5  10   1   -0.20    1.80
  -5  10   1    0.00    0.60
   4 -10  -1    5.20    1.30
   4 -10  -1    4.80    1.10
  -4  10   1    5.40    1.20
  -4  10   1    6.10    2.10
   3 -10  -1    0.80    0.80
   3 -10  -1    0.40    0.70
   3 -10  -1   -1.40    0.50
   3 -10  -1   -0.60    0.60
  -3  10   1    0.10    0.60
  -3  10   1   -0.40    0.50
  -3  10   1   -0.40    0.70
  -3  10   1   -1.20    1.30
   2 -10  -1   13.50    1.80
   2 -10  -1   11.00    1.00
   2 -10  -1   13.60    1.50
  -2  10   1   15.30    2.40
  -2  10   1   14.60    1.60
  -2  10   1   11.20    1.70
   1 -10  -1   54.09    3.20
   1 -10  -1   52.59    3.10
  -1  10   1   57.29    3.70
  -1  10   1   52.69    3.40
  -1  10   1   57.39    3.20
   0 -10  -1   15.10    2.50
   0 -10  -1   15.10    1.90
   0 -10  -1   19.00    1.80
   0  10   1   20.70    2.50
   0  10   1   17.60    2.30
   0  10   1   14.20    1.80
  -1 -10  -1    0.80    1.10
  -1 -10  -1    1.20    1.50
  -1 -10  -1   -0.80    0.70
  -1 -10  -1   -0.10    1.70
   1  10   1   -0.50    1.20
   1  10   1    0.20    1.00
   1  10   1    1.00    1.10
  -2 -10  -1   -0.70    1.20
  -2 -10  -1    1.40    1.30
  -2 -10  -1    1.60    2.00
   2  10   1   -0.30    1.10
  -3 -10  -1   12.70    2.30
  -3 -10  -1   15.10    3.20
   3  10   1   10.20    2.20
   5 -11  -1    6.00    1.70
   5 -11  -1    3.50    1.20
  -5  11   1    1.40    0.80
  -5  11   1    5.70    2.40
   4 -11  -1    1.00    1.00
   4 -11  -1    0.00    0.70
  -4  11   1    0.00    0.80
  -4  11   1    0.00    1.50
   3 -11  -1   -1.00    0.60
   3 -11  -1    0.60    0.90
   3 -11  -1   -0.90    0.60
   3 -11  -1   -0.50    0.60
  -3  11   1    0.20    1.40
  -3  11   1   -0.30    0.70
  -3  11   1    0.20    0.90
  -3  11   1    0.00    0.70
   2 -11  -1    0.40    0.90
   2 -11  -1    0.30    0.90
  -2  11   1   -1.10    0.90
  -2  11   1   -1.40    0.70
  -2  11   1   -0.40    1.30
   1 -11  -1    2.50    1.10
   1 -11  -1    4.40    1.20
  -1  11   1    5.80    1.30
  -1  11   1    5.80    1.50
  -1  11   1    5.40    1.80
   0 -11  -1    3.90    1.10
   0 -11  -1    4.70    2.10
   0 -11  -1    4.00    1.30
   0  11   1    2.60    1.30
   0  11   1    6.40    1.80
   0  11   1    2.20    1.10
  -1 -11  -1   -0.10    1.30
  -1 -11  -1   -0.80    2.00
   1  11   1   -1.10    1.30
   1  11   1   -2.10    1.00
  -2 -11  -1   -0.30    1.40
  -2 -11  -1    6.30    2.70
   2  11   1    2.80    1.60
  -3 -11  -1    0.90    3.50
   5 -12  -1   -0.10    1.10
  -5  12   1    1.70    0.90
  -5  12   1   -1.00    1.80
   4 -12  -1   -0.20    0.90
  -4  12   1    0.90    1.70
  -4  12   1    0.40    0.90
   3 -12  -1    2.80    1.00
   3 -12  -1    4.80    1.20
   3 -12  -1    2.90    1.30
  -3  12   1    4.20    1.10
  -3  12   1    3.90    1.40
  -3  12   1    4.50    1.90
  -3  12   1    3.40    1.00
   2 -12  -1    0.50    1.00
   2 -12  -1   -0.70    0.80
  -2  12   1   -1.10    1.00
  -2  12   1   -1.40    0.70
  -2  12   1   -1.20    1.40
   1 -12  -1    1.10    1.10
   1 -12  -1    1.90    1.10
  -1  12   1    0.00    1.50
  -1  12   1    1.70    1.30
  -1  12   1    1.10    1.10
   0 -12  -1   25.20    3.70
   0 -12  -1   20.50    2.50
   0 -12  -1   21.10    2.20
   0  12   1   16.50    2.30
   0  12   1   16.90    2.50
   0  12   1   23.10    3.00
  -1 -12  -1   -2.60    2.10
  -1 -12  -1   -1.90    1.20
   1  12   1    0.00    1.20
  -2 -12  -1    0.20    2.80
  -2 -12  -1    2.90    1.70
   2  12   1    1.50    1.50
   4 -13  -1    0.20    1.20
  -4  13   1    2.90    2.10
  -4  13   1   -0.40    1.00
   3 -13  -1    0.30    1.00
   3 -13  -1   -0.10    1.00
   3 -13  -1   -0.50    0.90
  -3  13   1   -0.70    0.80
  -3  13   1   -0.20    0.90
  -3  13   1    0.00    1.10
  -3  13   1    0.00    1.80
   2 -13  -1    1.20    1.00
   2 -13  -1    1.10    1.00
   2 -13  -1    0.10    1.00
  -2  13   1    0.50    0.90
  -2  13   1   -1.30    1.70
  -2  13   1    2.10    1.10
  -2  13   1    1.30    1.20
   1 -13  -1   -0.30    1.10
   1 -13  -1   -0.10    1.10
  -1  13   1    1.40    1.40
  -1  13   1   -1.70    1.10
  -1  13   1    1.00    1.80
   0 -13  -1   -0.50    1.40
   0 -13  -1    2.50    2.30
   0 -13  -1    0.60    0.90
   0  13   1    0.80    1.80
   0  13   1   -0.50    1.10
  -1 -13  -1    1.80    2.70
  -1 -13  -1    0.00    1.40
   1  13   1   -0.80    1.30
   4 -14  -1   -0.70    0.90
  -4  14   1    0.70    1.10
  -4  14   1   -0.80    2.10
   3 -14  -1    0.70    1.20
   3 -14  -1   -0.60    1.40
  -3  14   1    0.50    1.90
  -3  14   1    1.90    1.30
   2 -14  -1   -0.10    1.20
   2 -14  -1   -1.10    0.90
   2 -14  -1    4.00    1.30
  -2  14   1    0.70    1.30
  -2  14   1    2.10    1.50
  -2  14   1    1.80    2.20
  -2  14   1    2.30    1.30
   1 -14  -1   -0.70    1.20
   1 -14  -1   -1.00    1.00
  -1  14   1    0.80    1.30
  -1  14   1   -0.90    1.80
  -1  14   1    1.30    1.40
   0 -14  -1   -0.40    1.30
   0  14   1    0.60    1.40
   0  14   1   -0.80    1.90
   3 -15  -1    1.30    1.20
  -3  15   1    0.90    2.20
  -3  15   1    1.40    1.50
   2 -15  -1   -0.60    1.10
   2 -15  -1    2.50    1.40
   2 -15  -1    0.30    1.30
  -2  15   1    1.10    1.50
  -2  15   1    2.70    2.30
  -2  15   1    4.40    1.60
  -2  15   1    2.20    1.30
   1 -15  -1   -0.80    1.00
   1 -15  -1    0.00    1.30
  -1  15   1    0.60    1.70
  -1  15   1    0.60    1.40
  -1  15   1    1.90    2.30
  -1  16  -2    0.10    2.40
  -1  16  -2    0.20    1.40
  -1  16  -2   -0.50    1.10
   1 -16   2    0.30    1.30
   1 -16   2   -3.30    1.20
  -2  16  -2   -0.80    1.30
  -2  16  -2    1.10    1.50
  -2  16  -2   -0.10    1.20
  -2  16  -2   -0.80    2.30
   2 -16   2   -0.50    1.20
   2 -16   2    0.10    1.30
   2 -16   2   -1.20    1.20
   0  15  -2    0.40    1.40
   0  15  -2   -0.30    1.90
   0  15  -2    0.90    1.40
   0 -15   2    1.10    1.50
   0 -15   2   -1.10    1.10
   0 -15   2   -2.00    1.30
  -1  15  -2   -1.50    1.30
  -1  15  -2    0.90    1.40
  -1  15  -2    1.10    1.30
  -1  15  -2    0.20    2.10
   1 -15   2    0.00    1.30
   1 -15   2    2.40    1.50
   1 -15   2    1.20    1.50
  -2  15  -2   -1.20    1.10
  -2  15  -2    1.70    2.30
  -2  15  -2    2.20    1.60
  -2  15  -2    3.50    1.30
   2 -15   2    1.10    1.20
   2 -15   2    2.90    1.40
   2 -15   2    0.70    1.40
  -3  15  -2    1.10    1.20
  -3  15  -2   -0.50    1.90
  -3  15  -2   -1.00    1.00
   3 -15   2    0.00    1.10
   3 -15   2   -0.50    1.10
  -4  15  -2    0.40    2.30
   4 -15   2    0.10    1.20
   1  14  -2    3.50    1.60
   1  14  -2    4.50    1.90
  -1 -14   2    2.90    1.60
  -1 -14   2    3.10    1.80
  -1 -14   2    5.50    2.90
   0  14  -2    0.40    1.90
   0  14  -2    0.80    1.30
   0  14  -2    3.20    1.40
   0 -14   2    1.90    1.20
   0 -14   2   -0.20    1.30
   0 -14   2    1.60    1.30
  -1  14  -2    1.10    1.30
  -1  14  -2    0.30    1.20
  -1  14  -2    1.60    1.30
  -1  14  -2    2.10    2.10
   1 -14   2    0.60    1.20
   1 -14   2   -0.10    1.30
   1 -14   2    1.00    1.30
  -2  14  -2    0.10    1.00
  -2  14  -2    1.90    1.90
  -2  14  -2   -0.30    1.00
  -2  14  -2   -0.80    1.10
   2 -14   2   -1.60    0.90
   2 -14   2   -0.10    1.10
   2 -14   2   -0.40    1.00
  -3  14  -2    1.80    1.20
  -3  14  -2    2.60    1.10
  -3  14  -2    3.50    2.30
   3 -14   2    2.70    1.20
   3 -14   2    1.00    1.30
  -4  14  -2    2.10    2.10
  -4  14  -2    0.00    1.00
   4 -14   2   -1.20    0.90
   2  13  -2    0.80    1.40
  -2 -13   2   -1.20    2.50
  -2 -13   2    0.70    1.60
   1  13  -2   13.20    2.50
   1  13  -2    7.90    1.80
  -1 -13   2   14.40    2.30
  -1 -13   2    9.60    2.90
  -1 -13   2    9.60    1.60
   0  13  -2    5.10    1.60
   0  13  -2    5.80    2.10
   0  13  -2    2.10    1.30
   0  13  -2    1.20    1.20
   0 -13   2    4.80    1.50
   0 -13   2    1.30    1.30
   0 -13   2    5.20    1.40
  -1  13  -2    0.40    1.00
  -1  13  -2   -0.60    1.00
  -1  13  -2    1.10    1.70
  -1  13  -2    0.30    1.00
   1 -13   2    1.50    1.20
   1 -13   2    0.50    1.10
   1 -13   2    0.30    1.10
  -2  13  -2    2.50    1.10
  -2  13  -2    3.00    1.80
  -2  13  -2    1.60    1.30
  -2  13  -2    2.00    1.00
   2 -13   2    0.10    1.00
   2 -13   2    2.80    1.20
   2 -13   2    2.00    1.20
  -3  13  -2    8.70    2.40
  -3  13  -2    3.70    1.30
  -3  13  -2    4.90    1.20
   3 -13   2    5.20    1.30
   3 -13   2    2.20    1.40
  -4  13  -2    0.90    1.00
  -4  13  -2    2.90    2.10
   4 -13   2    1.00    1.10
  -5  13  -2    0.40    0.80
  -5  13  -2    1.90    2.10
   5 -13   2   -0.50    0.90
   5 -13   2    0.70    1.20
   3  12  -2    0.20    1.60
  -3 -12   2    0.30    1.60
  -3 -12   2    0.20    2.60
   2  12  -2    6.70    1.80
  -2 -12   2    8.30    2.80
  -2 -12   2    6.90    1.90
   1  12  -2    2.40    1.60
   1  12  -2    1.00    1.00
  -1 -12   2   -0.40    1.10
  -1 -12   2   -2.90    1.70
  -1 -12   2   -0.50    0.80
   0  12  -2   -0.60    1.00
   0  12  -2    1.60    1.10
   0  12  -2    0.70    1.50
   0 -12   2    0.80    1.00
   0 -12   2    0.30    1.10
   0 -12   2   -1.80    1.60
  -1  12  -2   -0.50    0.90
  -1  12  -2   -1.80    1.30
  -1  12  -2    0.40    1.00
  -1  12  -2    0.50    0.90
   1 -12   2    0.40    0.90
   1 -12   2   -0.40    1.00
   1 -12   2    0.50    1.00
  -2  12  -2    0.90    1.10
  -2  12  -2    1.40    1.00
  -2  12  -2    2.60    1.70
  -2  12  -2    1.90    1.10
   2 -12   2    1.40    1.10
   2 -12   2   -0.60    1.00
   2 -12   2    0.50    0.90
  -3  12  -2    1.10    1.70
  -3  12  -2    0.20    0.90
  -3  12  -2    1.10    0.80
   3 -12   2    1.20    0.90
   3 -12   2    1.20    1.10
   3 -12   2   -0.30    0.70
  -4  12  -2   -0.20    0.80
  -4  12  -2    0.00    1.70
   4 -12   2   -0.60    0.90
   4 -12   2    0.50    1.00
  -5  12  -2    0.70    2.10
  -5  12  -2   -0.20    0.70
   5 -12   2    1.50    1.10
   5 -12   2    0.90    1.00
   3  11  -2    2.20    1.60
  -3 -11   2    4.10    1.70
  -3 -11   2    0.00    1.50
  -3 -11   2    0.60    2.30
   2  11  -2   -0.40    1.00
  -2 -11   2    0.70    1.20
  -2 -11   2   -1.10    1.70
  -2 -11   2   -0.60    1.10
   1  11  -2    9.50    1.70
   1  11  -2    9.30    2.80
   1  11  -2   16.40    2.30
  -1 -11   2   13.00    2.60
  -1 -11   2    7.70    1.70
  -1 -11   2   11.10    1.50
  -1 -11   2    8.60    1.80
   0  11  -2   17.90    2.20
   0  11  -2   18.20    2.00
   0  11  -2   19.70    2.60
   0 -11   2   18.70    2.00
   0 -11   2   12.90    1.80
   0 -11   2   22.00    2.90
  -1  11  -2   63.39    3.40
  -1  11  -2   61.19    3.90
  -1  11  -2   61.89    3.60
  -1  11  -2   63.89    4.00
   1 -11   2   60.39    3.50
   1 -11   2   60.89    3.50
   1 -11   2   52.19    3.50
   1 -11   2   62.99    2.60
  -2  11  -2   83.09    4.80
  -2  11  -2   79.29    4.00
  -2  11  -2   74.49    4.30
  -2  11  -2   79.29    3.90
   2 -11   2   72.09    3.90
   2 -11   2   78.39    4.20
   2 -11   2   72.39    3.90
   2 -11   2   80.19    3.40
  -3  11  -2    6.50    1.30
  -3  11  -2    8.20    1.20
  -3  11  -2   10.40    2.30
   3 -11   2    7.60    1.60
   3 -11   2   10.00    1.30
   3 -11   2    6.50    1.20
  -4  11  -2   -0.20    1.60
  -4  11  -2   -0.10    0.80
   4 -11   2    0.90    1.00
   4 -11   2    0.10    0.90
  -5  11  -2    0.40    0.70
  -5  11  -2   -0.10    1.80
   5 -11   2   -0.40    0.80
   5 -11   2   -0.90    0.90
   4  10  -2    0.40    1.50
   4  10  -2    2.20    1.50
  -4 -10   2    2.00    2.50
  -4 -10   2    0.70    1.40
  -4 -10   2    0.20    1.40
   3  10  -2    0.20    1.20
  -3 -10   2    0.40    1.40
  -3 -10   2   -0.30    1.80
  -3 -10   2    0.10    1.20
   2  10  -2   13.10    1.90
   2  10  -2   18.70    2.10
  -2 -10   2   15.60    2.20
  -2 -10   2   20.30    3.00
  -2 -10   2   15.70    1.60
  -2 -10   2   19.90    2.40
   1  10  -2    4.00    1.20
   1  10  -2    6.10    1.60
   1  10  -2    3.30    1.10
  -1 -10   2    4.10    1.10
  -1 -10   2    2.70    1.10
  -1 -10   2    7.70    2.00
  -1 -10   2    3.10    1.30
   0  10  -2    2.30    1.10
   0  10  -2   -0.50    1.00
   0  10  -2   -0.30    1.20
   0 -10   2    3.60    1.60
   0 -10   2    2.50    1.00
   0 -10   2    1.60    1.00
   0 -10   2    0.40    1.10
  -1  10  -2   -0.70    0.70
  -1  10  -2   -0.90    0.80
  -1  10  -2    0.10    0.80
  -1  10  -2   -2.50    1.10
   1 -10   2   -0.40    0.50
   1 -10   2   -0.90    0.80
   1 -10   2   -0.60    0.70
   1 -10   2   -0.20    0.60
   1 -10   2   -2.30    0.70
  -2  10  -2   21.70    1.90
  -2  10  -2   24.10    2.90
  -2  10  -2   21.10    2.10
  -2  10  -2   22.70    1.80
   2 -10   2   24.50    1.90
   2 -10   2   22.80    2.10
   2 -10   2   21.10    1.80
   2 -10   2   28.90    1.60
  -3  10  -2    0.10    0.60
  -3  10  -2    0.00    1.30
  -3  10  -2    0.90    0.70
   3 -10   2   -0.20    0.60
   3 -10   2    0.10    0.60
   3 -10   2    0.50    0.80
  -4  10  -2    1.30    0.80
  -4  10  -2    3.80    1.90
   4 -10   2    2.50    1.10
   4 -10   2    3.30    1.00
  -5  10  -2   -0.50    1.70
  -5  10  -2   -0.60    0.60
   5 -10   2    0.00    0.90
   5 -10   2    0.50    1.00
   6 -10   2    1.80    1.20
   6 -10   2    0.70    1.10
   4   9  -2    2.20    1.60
   4   9  -2    3.20    1.50
  -4  -9   2    5.20    1.60
  -4  -9   2    2.60    1.50
  -4  -9   2    0.70    2.30
   3   9  -2    1.60    1.30
  -3  -9   2    2.90    1.30
  -3  -9   2    4.20    1.50
  -3  -9   2    3.90    1.90
   2   9  -2   40.10    2.60
   2   9  -2   40.00    2.90
  -2  -9   2   36.90    2.90
  -2  -9   2   38.70    3.00
  -2  -9   2   37.10    2.30
  -2  -9   2   42.10    3.50
   1   9  -2   18.40    2.20
   1   9  -2   13.70    1.80
   1   9  -2   21.30    2.40
  -1  -9   2   22.10    2.10
  -1  -9   2   17.50    2.40
  -1  -9   2   18.40    2.00
  -1  -9   2   19.00    1.80
   0   9  -2   71.19    4.00
   0   9  -2   74.19    3.80
   0   9  -2   73.69    4.00
   0  -9   2   78.39    3.90
   0  -9   2   77.79    4.20
   0  -9   2   79.59    3.70
   0  -9   2   71.69    3.80
  -1   9  -2    5.20    1.50
  -1   9  -2    3.80    1.10
  -1   9  -2    5.50    1.00
  -1   9  -2    4.80    1.10
  -1   9  -2    7.90    1.20
   1  -9   2    4.40    1.10
   1  -9   2    4.80    1.00
   1  -9   2    7.20    0.80
   1  -9   2    5.50    1.10
   1  -9   2    2.40    1.00
  -2   9  -2    4.60    1.40
  -2   9  -2    5.50    1.00
  -2   9  -2    6.00    1.00
  -2   9  -2    7.00    1.10
  -2   9  -2    5.50    1.10
   2  -9   2    6.40    0.90
   2  -9   2    6.30    1.20
   2  -9   2    6.20    1.10
   2  -9   2    6.00    1.00
   2  -9   2    6.90    1.00
  -3   9  -2   20.80    2.70
  -3   9  -2   18.20    1.70
  -3   9  -2   17.10    1.70
  -3   9  -2   16.50    1.40
   3  -9   2   17.50    1.90
   3  -9   2   16.80    1.40
   3  -9   2   20.10    1.60
  -4   9  -2    3.40    1.80
  -4   9  -2    0.90    0.70
   4  -9   2    1.20    0.90
   4  -9   2   -0.20    0.80
  -5   9  -2    0.80    0.70
  -5   9  -2    0.10    1.60
   5  -9   2    1.40    1.00
   5  -9   2    0.10    1.00
  -6   9  -2    0.20    0.70
  -6   9  -2    2.60    2.20
   6  -9   2    0.10    1.00
   6  -9   2   -0.90    0.90
   4   8  -2   11.90    2.00
   4   8  -2   10.20    2.00
  -4  -8   2   11.80    2.00
  -4  -8   2   11.50    2.10
  -4  -8   2   14.40    2.90
   3   8  -2   -1.20    0.60
   3   8  -2   -1.20    0.90
  -3  -8   2    0.20    1.10
  -3  -8   2    0.30    1.50
  -3  -8   2    0.20    1.10
   2   8  -2    4.30    1.10
   2   8  -2    5.80    1.30
   2   8  -2    3.00    1.10
  -2  -8   2    4.90    1.00
  -2  -8   2    4.80    1.50
  -2  -8   2    4.60    1.20
  -2  -8   2    4.60    1.20
   1   8  -2   74.79    3.80
   1   8  -2   75.29    3.80
   1   8  -2   72.89    4.00
  -1  -8   2   78.39    4.20
  -1  -8   2   74.49    3.90
  -1  -8   2   80.79    4.00
  -1  -8   2   75.49    3.00
  -1  -8   2   76.19    3.50
   0   8  -2    4.70    1.00
   0   8  -2    8.10    1.50
   0   8  -2    5.80    1.10
   0   8  -2    5.80    1.20
   0  -8   2    5.30    1.30
   0  -8   2    5.30    1.10
   0  -8   2    4.40    0.90
   0  -8   2    6.20    0.80
   0  -8   2    5.00    1.00
  -1   8  -2    7.70    1.20
  -1   8  -2    8.00    1.10
  -1   8  -2    8.30    1.20
  -1   8  -2   12.30    1.70
  -1   8  -2   11.10    1.20
   1  -8   2    8.60    1.20
   1  -8   2    7.20    1.20
   1  -8   2    9.50    1.20
   1  -8   2    5.50    1.00
  -2   8  -2    9.40    1.70
  -2   8  -2    8.80    1.10
  -2   8  -2    8.40    1.20
  -2   8  -2    9.20    1.10
  -2   8  -2   10.40    1.20
   2  -8   2   12.40    1.20
   2  -8   2    9.20    1.00
   2  -8   2    9.20    1.10
   2  -8   2    7.50    1.00
   2  -8   2    9.60    1.30
  -3   8  -2  108.79    5.30
  -3   8  -2  102.69    4.20
  -3   8  -2  103.79    4.50
  -3   8  -2   95.09    4.50
   3  -8   2   98.49    4.20
   3  -8   2  102.89    4.40
   3  -8   2  110.49    4.80
  -4   8  -2    8.40    1.20
  -4   8  -2    6.90    1.00
  -4   8  -2    9.70    1.50
  -4   8  -2   12.70    2.30
   4  -8   2   11.20    1.50
   4  -8   2    8.90    0.90
   4  -8   2    7.70    1.40
  -5   8  -2   -0.60    0.60
  -5   8  -2   -0.50    1.40
   5  -8   2   -0.10    0.90
   5  -8   2   -1.10    0.70
  -6   8  -2    0.40    0.80
  -6   8  -2    0.60    2.00
   6  -8   2    2.00    1.30
   5   7  -2    1.60    1.50
  -5  -7   2    0.90    2.20
  -5  -7   2    2.50    1.50
   4   7  -2   -1.00    1.10
   4   7  -2   -0.50    1.00
  -4  -7   2   -1.70    0.90
  -4  -7   2   -2.60    1.50
  -4  -7   2    0.60    1.00
   3   7  -2   -0.60    0.60
   3   7  -2    0.40    0.90
  -3  -7   2    0.60    1.40
  -3  -7   2    0.10    0.90
  -3  -7   2   -0.40    0.80
   2   7  -2    4.50    1.10
   2   7  -2    4.50    1.10
   2   7  -2    2.30    1.00
  -2  -7   2    4.80    1.40
  -2  -7   2    5.50    1.20
  -2  -7   2    4.90    1.20
   1   7  -2   11.50    1.30
   1   7  -2   12.90    1.60
   1   7  -2   12.70    1.60
  -1  -7   2   12.10    1.40
  -1  -7   2   12.20    0.90
  -1  -7   2   15.60    1.80
  -1  -7   2   12.40    1.30
  -1  -7   2   12.50    1.50
   0   7  -2   38.30    2.30
   0   7  -2   28.60    2.20
   0   7  -2   37.60    2.10
   0   7  -2   31.20    2.10
   0  -7   2   34.20    2.00
   0  -7   2   34.50    2.10
   0  -7   2   29.70    2.20
  -1   7  -2    7.80    1.10
  -1   7  -2    9.40    1.10
  -1   7  -2   15.10    1.50
  -2   7  -2   11.80    1.70
  -2   7  -2    9.90    1.00
  -2   7  -2    7.90    1.10
  -2   7  -2    9.50    1.10
   2  -7   2    9.30    0.90
   2  -7   2   11.10    1.10
   2  -7   2   10.00    1.30
   2  -7   2   12.90    1.20
  -3   7  -2   24.40    2.30
  -3   7  -2   23.00    1.70
  -3   7  -2   24.80    1.50
  -3   7  -2   22.30    1.40
  -3   7  -2   25.40    1.60
   3  -7   2   24.30    1.70
   3  -7   2   26.80    2.00
   3  -7   2   24.40    1.50
  -4   7  -2   15.50    1.10
  -4   7  -2   13.80    1.40
  -4   7  -2   17.00    1.40
  -4   7  -2   16.70    1.40
  -4   7  -2   19.70    2.60
   4  -7   2   15.50    1.70
   4  -7   2   18.40    1.90
   4  -7   2   14.60    1.10
  -5   7  -2    0.80    1.30
   5  -7   2    1.20    0.90
   5  -7   2    1.00    1.00
   5  -7   2   -0.20    0.80
  -6   7  -2   -0.50    1.80
  -6   7  -2   -0.20    0.70
   6  -7   2    0.10    1.10
   6  -7   2    0.70    1.10
   5   6  -2    0.30    1.30
  -5  -6   2   -0.10    1.10
  -5  -6   2   -2.00    2.10
   4   6  -2   12.80    1.60
   4   6  -2   11.70    1.90
   4   6  -2   16.30    1.90
  -4  -6   2   13.30    1.90
  -4  -6   2   14.10    2.60
  -4  -6   2   18.70    2.00
   3   6  -2   69.69    3.40
   3   6  -2   67.89    3.60
  -3  -6   2   63.29    3.70
  -3  -6   2   69.99    4.20
  -3  -6   2   67.29    3.60
   2   6  -2   12.60    1.50
   2   6  -2   12.60    1.50
   2   6  -2   14.80    1.30
  -2  -6   2   12.30    1.50
  -2  -6   2   14.20    1.60
  -2  -6   2   14.30    1.50
  -2  -6   2   13.60    1.80
   1   6  -2   39.30    2.10
   1   6  -2   32.60    2.00
   1   6  -2   33.30    2.20
  -1  -6   2   35.90    1.60
  -1  -6   2   33.30    2.20
  -1  -6   2   32.60    2.10
  -1  -6   2   30.90    2.10
  -1  -6   2   35.80    2.20
   0   6  -2  156.88    6.30
   0   6  -2  161.38    6.30
   0   6  -2  162.38    6.40
   0   6  -2  161.48    6.20
   0  -6   2  153.18    6.20
   0  -6   2  158.88    6.40
   0  -6   2  157.48    6.10
   0  -6   2  153.38    6.30
  -1   6  -2   67.89    3.00
  -1   6  -2   67.09    2.90
  -1   6  -2   60.59    3.00
  -1   6  -2   63.49    3.20
  -1   6  -2   58.59    2.80
   1  -6   2   68.19    2.90
   1  -6   2   62.49    2.80
   1  -6   2   63.19    2.90
  -2   6  -2   12.50    1.20
  -2   6  -2   13.70    1.10
  -2   6  -2   12.50    1.60
  -2   6  -2   12.80    1.00
   2  -6   2   13.50    1.10
   2  -6   2   12.50    1.30
   2  -6   2   12.20    1.00
   2  -6   2   11.70    1.00
  -3   6  -2   17.70    1.40
  -3   6  -2   18.70    2.00
  -3   6  -2   20.40    1.40
  -3   6  -2   19.90    1.20
   3  -6   2   20.20    1.50
   3  -6   2   19.10    1.20
   3  -6   2   20.90    1.60
  -4   6  -2    3.10    0.70
  -4   6  -2    2.40    0.70
  -4   6  -2    2.70    1.30
  -4   6  -2    2.50    0.70
   4  -6   2    2.80    0.90
   4  -6   2    1.80    0.90
   4  -6   2    2.80    0.90
  -5   6  -2    0.10    0.60
  -5   6  -2    0.30    1.20
  -5   6  -2   -1.20    1.40
   5  -6   2    0.10    0.70
   5  -6   2    0.10    0.90
   5  -6   2   -0.80    0.80
  -6   6  -2   -1.90    1.60
  -6   6  -2   -0.40    0.60
   6  -6   2    1.10    1.20
   6  -6   2    0.50    1.00
   5   5  -2    0.60    1.30
  -5  -5   2    2.10    2.10
  -5  -5   2    3.70    1.40
   4   5  -2    9.70    1.40
   4   5  -2   12.20    1.90
   4   5  -2   11.90    1.60
  -4  -5   2   11.40    1.60
  -4  -5   2   10.00    1.60
  -4  -5   2   12.70    2.20
   3   5  -2    2.50    0.80
   3   5  -2    1.90    1.00
  -3  -5   2    2.40    1.30
  -3  -5   2    1.80    0.90
  -3  -5   2    0.30    0.70
   2   5  -2   21.80    1.70
   2   5  -2   25.80    1.50
  -2  -5   2   25.50    2.00
  -2  -5   2   21.60    1.70
  -2  -5   2   21.50    1.40
  -2  -5   2   20.10    1.80
  -2  -5   2   19.10    1.70
   1   5  -2  753.02   26.70
   1   5  -2  790.12   26.90
   1   5  -2  720.33   26.60
  -1  -5   2  774.22   26.90
  -1  -5   2  741.33   26.80
  -1  -5   2  732.33   26.70
  -1  -5   2  766.62   26.80
  -1  -5   2  738.73   26.70
  -1  -5   2  775.42   26.30
   0   5  -2   78.19    3.40
   0   5  -2   78.79    3.40
   0   5  -2   67.79    3.20
   0   5  -2   74.79    3.40
   0  -5   2   78.69    3.40
   0  -5   2   78.09    3.30
   0  -5   2   80.69    3.40
   0  -5   2   79.69    3.40
  -1   5  -2  300.37   10.70
  -1   5  -2  288.77   10.60
  -1   5  -2  302.47   10.60
  -1   5  -2  297.87   10.60
  -1   5  -2  277.87   10.90
  -1   5  -2  291.37   10.80
   1  -5   2  295.37   10.60
   1  -5   2  298.87   10.60
   1  -5   2  291.57   10.70
  -2   5  -2   16.40    1.20
  -2   5  -2   18.50    1.20
  -2   5  -2   18.70    1.10
  -2   5  -2   18.90    1.10
  -2   5  -2   18.20    1.60
  -2   5  -2   18.60    1.10
  -2   5  -2   17.10    1.10
   2  -5   2   16.70    1.10
   2  -5   2   19.40    1.40
   2  -5   2   19.70    1.10
   2  -5   2   17.90    1.10
   2  -5   2   17.00    1.10
   2  -5   2   18.70    1.20
  -3   5  -2    4.00    0.60
  -3   5  -2    3.80    0.70
  -3   5  -2    4.40    0.70
  -3   5  -2    6.20    0.80
  -3   5  -2    5.20    0.70
  -3   5  -2    5.60    0.80
  -3   5  -2    5.60    1.30
   3  -5   2    6.10    1.00
   3  -5   2    4.10    0.60
   3  -5   2    6.70    0.90
   3  -5   2    7.20    0.70
   3  -5   2    5.30    0.70
   3  -5   2    6.50    1.00
  -4   5  -2   14.20    1.20
  -4   5  -2   12.30    1.20
  -4   5  -2   16.80    2.00
   4  -5   2   13.50    1.60
   4  -5   2   11.60    1.60
   4  -5   2   13.50    1.50
  -5   5  -2    0.30    1.50
  -5   5  -2    0.80    0.70
  -5   5  -2    2.00    1.30
   5  -5   2   -0.70    0.70
   5  -5   2    1.50    1.00
   5  -5   2    1.60    1.00
  -6   5  -2   -1.70    1.70
  -6   5  -2   -0.40    0.70
   6  -5   2    1.00    1.10
   6  -5   2    1.20    1.10
   5   4  -2   -0.10    1.00
  -5  -4   2    0.80    1.00
  -5  -4   2    0.40    1.60
   4   4  -2    0.80    1.00
   4   4  -2    0.80    0.80
   4   4  -2    0.80    0.80
  -4  -4   2   -1.30    1.20
  -4  -4   2   -0.70    0.70
  -4  -4   2    0.50    0.80
   3   4  -2   92.69    4.10
   3   4  -2   87.79    4.20
   3   4  -2   91.59    4.10
   3   4  -2   93.59    4.10
  -3  -4   2   90.19    3.60
  -3  -4   2   88.99    4.10
  -3  -4   2   92.79    4.30
  -3  -4   2   96.19    4.60
  -3  -4   2   84.69    4.20
   2   4  -2  103.39    4.30
   2   4  -2  106.19    4.20
   2   4  -2  103.19    4.40
  -2  -4   2   96.69    4.40
  -2  -4   2  103.89    4.40
  -2  -4   2  109.39    4.20
  -2  -4   2  107.79    4.60
  -2  -4   2  103.29    4.50
   1   4  -2  271.37    9.90
   1   4  -2  273.07    9.90
   1   4  -2  260.17   10.00
  -1  -4   2  276.77   10.00
  -1  -4   2  270.17   10.10
  -1  -4   2  267.37   10.00
  -1  -4   2  260.17    9.90
  -1  -4   2  277.27    9.60
  -1  -4   2  274.77    9.90
   0   4  -2 1635.74   60.39
   0   4  -2 1825.02   60.49
   0   4  -2 1715.03   60.49
   0   4  -2 1789.52   60.49
   0   4  -2 1663.43   60.59
   0   4  -2 1774.92   60.39
   0   4  -2 1693.93   60.39
   0  -4   2 1816.92   60.49
   0  -4   2 1764.92   60.59
   0  -4   2 1688.33   60.39
   0  -4   2 1775.22   60.49
   0  -4   2 1813.52   60.59
   0  -4   2 1701.13   60.49
  -1   4  -2  162.88    5.80
  -1   4  -2  159.18    5.60
  -1   4  -2  147.49    5.70
  -1   4  -2  146.99    5.90
  -1   4  -2  141.79    6.00
  -1   4  -2  155.38    5.80
  -1   4  -2  157.38    5.50
  -1   4  -2  151.48    5.80
   1  -4   2  152.88    5.70
   1  -4   2  153.68    5.80
   1  -4   2  156.38    5.80
   1  -4   2  157.08    5.80
   1  -4   2  162.98    5.70
   1  -4   2  162.88    5.80
   1  -4   2  157.28    6.20
  -2   4  -2    8.00    0.70
  -2   4  -2    8.20    0.70
  -2   4  -2    9.40    0.80
  -2   4  -2    8.60    0.80
  -2   4  -2    6.40    0.80
  -2   4  -2    7.90    0.80
  -2   4  -2    8.00    1.10
   2  -4   2    7.70    0.70
   2  -4   2    7.60    0.80
   2  -4   2    7.90    0.70
   2  -4   2    8.30    0.70
   2  -4   2    8.50    0.70
   2  -4   2    9.60    1.00
   2  -4   2    8.30    0.90
  -3   4  -2   11.60    1.10
  -3   4  -2   10.90    1.00
  -3   4  -2   10.50    1.00
  -3   4  -2   12.60    1.60
  -3   4  -2   10.70    0.90
   3  -4   2   11.90    0.90
   3  -4   2   11.40    1.20
   3  -4   2   11.00    1.30
   3  -4   2   13.20    1.30
  -4   4  -2   33.90    2.30
  -4   4  -2   27.10    1.80
  -4   4  -2   30.00    1.90
  -4   4  -2   31.90    2.70
  -4   4  -2   30.90    1.80
   4  -4   2   31.40    1.90
   4  -4   2   26.00    2.10
   4  -4   2   33.20    2.20
  -5   4  -2    0.70    0.70
  -5   4  -2    1.30    1.50
   5  -4   2   -0.10    0.90
   5  -4   2    0.70    1.00
   5  -4   2   -0.40    0.60
  -6   4  -2    1.10    0.80
  -6   4  -2    1.40    2.00
   6  -4   2    0.90    1.20
   6  -4   2    1.30    1.20
   6   3  -2    0.40    1.30
  -6  -3   2   -0.80    0.90
  -6  -3   2   -0.50    2.00
   5   3  -2    4.00    1.50
   5   3  -2    4.00    1.20
  -5  -3   2    5.60    2.00
  -5  -3   2    1.80    1.00
   4   3  -2  136.39    5.70
   4   3  -2  130.29    5.40
   4   3  -2  129.09    5.70
   4   3  -2  125.39    5.90
  -4  -3   2  123.59    5.70
  -4  -3   2  141.39    6.30
  -4  -3   2  133.29    5.50
   3   3  -2   57.49    2.80
   3   3  -2   60.79    2.80
   3   3  -2   55.49    3.00
   3   3  -2   58.19    2.70
   3   3  -2   58.19    2.90
  -3  -3   2   59.29    3.30
  -3  -3   2   57.79    2.80
  -3  -3   2   57.49    2.90
  -3  -3   2   51.59    2.90
  -3  -3   2   58.59    2.50
   2   3  -2  176.98    6.90
   2   3  -2  183.58    6.80
   2   3  -2  186.58    6.90
   2   3  -2  183.48    6.80
  -2  -3   2  173.58    6.90
  -2  -3   2  179.18    7.00
  -2  -3   2  177.98    6.70
  -2  -3   2  182.18    6.80
  -2  -3   2  177.68    7.00
   1   3  -2    5.10    0.70
   1   3  -2    5.10    0.70
   1   3  -2    6.40    0.80
   1   3  -2    7.20    0.80
   1   3  -2    6.00    0.70
  -1  -3   2    5.70    0.80
  -1  -3   2    4.30    0.70
  -1  -3   2    6.30    0.80
  -1  -3   2    4.60    0.70
  -1  -3   2    5.70    0.70
  -1  -3   2    5.80    0.60
  -1  -3   2    6.00    0.80
   0   3  -2    3.60    0.50
   0   3  -2    3.00    0.50
   0   3  -2    3.60    0.50
   0   3  -2    4.40    0.60
   0   3  -2    3.40    0.70
   0   3  -2    2.00    0.40
   0   3  -2    3.60    0.50
   0  -3   2    3.90    0.50
   0  -3   2    2.50    0.50
   0  -3   2    3.40    0.50
   0  -3   2    3.80    0.60
   0  -3   2    2.50    0.40
   0  -3   2    2.70    0.50
   0  -3   2    3.20    0.60
   0  -3   2    4.10    0.50
  -1   3  -2   83.39    3.50
  -1   3  -2   92.99    3.50
  -1   3  -2   95.09    3.50
  -1   3  -2   90.79    3.40
  -1   3  -2   89.39    3.50
  -1   3  -2   87.99    3.40
  -1   3  -2   83.79    3.70
  -1   3  -2   86.99    3.30
   1  -3   2   90.49    3.40
   1  -3   2   97.99    3.50
   1  -3   2   88.99    3.50
   1  -3   2   93.09    3.70
   1  -3   2   87.39    3.50
   1  -3   2   89.29    3.50
   1  -3   2   88.89    3.40
   1  -3   2   95.19    3.40
  -2   3  -2   31.30    1.60
  -2   3  -2   33.00    1.80
  -2   3  -2   33.40    1.80
  -2   3  -2   31.10    1.50
  -2   3  -2   37.60    1.60
  -2   3  -2   32.50    1.60
  -2   3  -2   33.60    1.70
   2  -3   2   35.30    1.80
   2  -3   2   32.70    1.50
   2  -3   2   33.80    1.70
   2  -3   2   36.00    1.60
   2  -3   2   35.90    1.70
   2  -3   2   32.70    1.50
   2  -3   2   33.60    1.70
  -3   3  -2    3.40    0.60
  -3   3  -2    4.70    0.80
  -3   3  -2    3.50    0.60
  -3   3  -2    2.70    0.90
  -3   3  -2    3.60    0.70
  -3   3  -2    4.80    1.00
   3  -3   2    4.30    0.70
   3  -3   2    4.20    0.60
   3  -3   2    3.00    0.80
   3  -3   2    3.00    0.80
  -4   3  -2    3.90    0.90
  -4   3  -2    4.50    0.90
  -4   3  -2    5.50    1.50
  -4   3  -2    5.90    1.00
  -4   3  -2    7.00    1.30
   4  -3   2    4.90    0.90
   4  -3   2    4.10    1.00
   4  -3   2    3.90    1.00
  -5   3  -2    6.40    1.90
  -5   3  -2    6.60    1.10
   5  -3   2    5.20    1.30
   5  -3   2    7.40    1.50
  -6   3  -2    0.90    1.80
  -6   3  -2   -0.10    0.80
   6  -3   2   -0.70    1.00
   6  -3   2    3.30    1.50
   6   2  -2    3.10    1.50
  -6  -2   2    4.10    1.30
  -6  -2   2    4.90    2.40
   5   2  -2   -0.10    1.00
   5   2  -2    0.00    0.90
   5   2  -2    0.90    1.10
  -5  -2   2    0.50    0.80
  -5  -2   2   -2.00    1.40
   4   2  -2    7.80    1.30
   4   2  -2    8.90    1.50
   4   2  -2    9.10    1.10
   4   2  -2    7.60    1.30
  -4  -2   2    9.70    1.10
  -4  -2   2    7.00    1.10
  -4  -2   2    8.60    1.20
  -4  -2   2   10.50    1.80
   3   2  -2  125.59    5.50
   3   2  -2  135.99    5.40
   3   2  -2  138.09    5.10
   3   2  -2  129.29    5.30
  -3  -2   2  127.99    5.30
  -3  -2   2  130.59    5.10
  -3  -2   2  123.59    5.30
  -3  -2   2  136.89    5.10
  -3  -2   2  133.39    5.60
   2   2  -2  179.58    6.70
   2   2  -2  179.28    6.90
   2   2  -2  179.48    6.80
   2   2  -2  185.98    6.70
   2   2  -2  182.78    6.70
   2   2  -2  173.08    6.70
   2   2  -2  183.88    6.70
  -2  -2   2  185.68    6.90
  -2  -2   2  178.68    6.70
  -2  -2   2  182.18    6.70
  -2  -2   2  167.48    6.80
  -2  -2   2  189.48    6.70
  -2  -2   2  179.38    6.80
   1   2  -2    1.00    0.30
   1   2  -2    0.90    0.40
   1   2  -2    1.70    0.40
   1   2  -2    2.00    0.50
   1   2  -2    1.70    0.50
   1   2  -2    0.90    0.40
   1   2  -2    1.40    0.40
  -1  -2   2    1.20    0.40
  -1  -2   2    0.70    0.40
  -1  -2   2    1.00    0.40
  -1  -2   2    1.80    0.40
  -1  -2   2    0.70    0.40
  -1  -2   2    1.10    0.40
  -1  -2   2    1.70    0.40
   0   2  -2  930.51   30.50
   0   2  -2  925.51   30.50
   0   2  -2  877.01   30.50
   0   2  -2  870.31   30.50
   0   2  -2  947.71   30.60
   0   2  -2  873.91   30.50
   0   2  -2  854.21   30.60
   0   2  -2  855.41   30.60
   0  -2   2  849.81   30.50
   0  -2   2  888.81   30.70
   0  -2   2  851.61   30.50
   0  -2   2  865.21   30.60
   0  -2   2  860.51   30.60
   0  -2   2  903.31   30.50
   0  -2   2  842.42   30.50
  -1   2  -2 9402.16  333.07
  -1   2  -2 9560.54  333.17
  -1   2  -2 9407.26  332.47
  -1   2  -2 9295.17  333.37
  -1   2  -2 9768.12  332.87
  -1   2  -2 9369.86  333.37
  -1   2  -2 9910.51  332.87
  -1   2  -2 9780.92  333.27
   1  -2   2 9676.13  333.37
   1  -2   2 9770.62  332.97
   1  -2   2 9715.53  333.57
   1  -2   2 9473.65  332.47
   1  -2   2 9563.24  333.07
   1  -2   2 9999.00  332.87
   1  -2   2 9584.04  333.17
   1  -2   2 9859.81  332.97
  -2   2  -2  126.39    4.60
  -2   2  -2  120.89    4.60
  -2   2  -2  123.49    4.60
  -2   2  -2  117.09    4.70
  -2   2  -2  119.59    4.70
   2  -2   2  124.69    4.50
   2  -2   2  118.79    4.70
   2  -2   2  120.89    4.70
   2  -2   2  125.19    4.60
   2  -2   2  123.49    4.70
   2  -2   2  114.29    4.50
  -3   2  -2    7.70    1.00
  -3   2  -2    5.70    0.80
  -3   2  -2    4.90    0.80
  -3   2  -2    6.00    0.90
  -3   2  -2    6.70    1.30
   3  -2   2    8.00    1.10
   3  -2   2    5.10    0.70
   3  -2   2    4.90    0.90
  -4   2  -2   28.10    2.60
  -4   2  -2   27.60    1.80
  -4   2  -2   24.00    1.80
  -4   2  -2   28.90    1.70
  -4   2  -2   25.00    1.80
  -4   2  -2   29.00    1.80
   4  -2   2   27.00    1.60
   4  -2   2   28.00    2.10
   4  -2   2   24.80    1.90
   4  -2   2   27.90    1.70
  -5   2  -2    6.20    1.10
  -5   2  -2    6.30    1.90
   5  -2   2    6.50    1.40
   5  -2   2    7.40    1.50
  -6   2  -2   -0.50    0.80
  -6   2  -2    1.90    2.00
   6  -2   2    1.20    1.20
   6  -2   2   -0.20    1.10
   6   1  -2   -0.60    1.50
   6   1  -2    0.90    1.20
  -6  -1   2   -0.80    0.80
  -6  -1   2    0.70    1.80
   5   1  -2   13.90    2.00
   5   1  -2   16.00    2.00
   5   1  -2   15.20    1.90
  -5  -1   2   12.00    1.40
  -5  -1   2   16.70    2.50
   4   1  -2    1.10    0.80
   4   1  -2    1.90    0.80
   4   1  -2    0.30    0.80
  -4  -1   2   -0.30    0.50
  -4  -1   2    0.80    0.60
  -4  -1   2    1.50    0.60
  -4  -1   2    1.40    1.10
   3   1  -2  126.29    5.30
   3   1  -2  136.39    5.00
   3   1  -2  129.19    5.00
   3   1  -2  128.39    5.30
   3   1  -2  130.69    5.40
  -3  -1   2  121.29    5.10
  -3  -1   2  132.39    5.20
  -3  -1   2  138.39    5.60
  -3  -1   2  137.69    5.00
   2   1  -2    1.30    0.40
   2   1  -2    0.80    0.40
   2   1  -2    1.50    0.50
   2   1  -2    1.90    0.50
   2   1  -2    1.10    0.50
   2   1  -2    1.10    0.30
   2   1  -2    0.90    0.30
   2   1  -2    0.60    0.30
  -2  -1   2   -0.10    0.40
  -2  -1   2    1.50    0.40
  -2  -1   2    2.30    0.50
  -2  -1   2    0.80    0.30
  -2  -1   2    2.60    0.60
  -2  -1   2   -0.70    0.40
   1   1  -2  413.76   14.20
   1   1  -2  419.86   14.30
   1   1  -2  395.66   14.30
   1   1  -2  409.56   14.20
   1   1  -2  419.66   14.40
   1   1  -2  399.66   14.20
   1   1  -2  415.06   14.20
   1   1  -2  416.06   14.20
  -1  -1   2  397.76   14.20
  -1  -1   2  417.96   14.30
  -1  -1   2  395.16   14.20
  -1  -1   2  393.36   14.20
  -1  -1   2  391.06   14.20
  -1  -1   2  398.86   14.20
  -1  -1   2  410.26   14.30
  -1  -1   2  401.76   14.20
  -1  -1   2  409.06   14.30
   0   1  -2  162.28    6.30
   0   1  -2  185.78    6.30
   0   1  -2  176.08    6.30
   0   1  -2  182.78    6.20
   0   1  -2  177.78    6.20
   0   1  -2  172.78    6.30
   0  -1   2  174.98    6.20
   0  -1   2  173.18    6.30
   0  -1   2  176.38    6.30
   0  -1   2  173.28    6.20
   0  -1   2  169.88    6.30
   0  -1   2  162.88    6.10
  -1   1  -2  991.70   33.80
  -1   1  -2  912.61   33.70
  -1   1  -2  982.30   33.70
  -1   1  -2  948.61   33.60
  -1   1  -2 1003.00   33.60
  -1   1  -2  945.61   33.70
  -1   1  -2  968.20   33.60
   1  -1   2  984.10   33.70
   1  -1   2  958.70   33.80
   1  -1   2  992.20   33.60
   1  -1   2  951.40   33.50
   1  -1   2  966.10   33.60
   1  -1   2  980.50   33.60
   1  -1   2  977.00   33.70
  -2   1  -2   47.70    2.20
  -2   1  -2   48.30    2.10
  -2   1  -2   46.00    2.40
  -2   1  -2   48.00    2.10
  -2   1  -2   49.30    2.20
  -2   1  -2   46.80    2.00
  -2   1  -2   45.80    2.20
   2  -1   2   45.80    2.20
   2  -1   2   49.50    2.30
   2  -1   2   49.80    2.20
   2  -1   2   50.29    2.10
   2  -1   2   49.20    2.10
   2  -1   2   48.10    1.90
  -3   1  -2    0.10    0.50
  -3   1  -2   -0.60    0.70
  -3   1  -2   -0.10    0.50
  -3   1  -2    0.10    0.50
  -3   1  -2    0.10    0.60
   3  -1   2    0.90    0.60
   3  -1   2    1.00    0.40
   3  -1   2    0.50    0.60
  -4   1  -2   14.50    1.40
  -4   1  -2   16.70    1.60
  -4   1  -2   13.40    2.10
  -4   1  -2   15.60    1.50
  -4   1  -2   11.90    1.40
   4  -1   2   13.80    1.50
   4  -1   2   14.50    1.70
   4  -1   2   16.30    1.40
  -5   1  -2   -0.30    0.80
  -5   1  -2    0.90    1.60
   5  -1   2    1.70    1.10
   5  -1   2    1.50    1.00
  -6   1  -2    4.50    1.30
  -6   1  -2    5.20    2.50
   6  -1   2    3.30    1.50
   6  -1   2    4.30    1.60
   6   0  -2    1.10    1.30
   6   0  -2   -1.80    1.00
  -6   0   2    0.60    0.70
  -6   0   2   -0.80    1.80
   5   0  -2   12.50    1.80
   5   0  -2    9.10    1.70
   5   0  -2   10.50    1.70
  -5   0   2   12.60    2.30
  -5   0   2    7.20    1.10
   4   0  -2   11.70    1.50
   4   0  -2    9.60    1.40
   4   0  -2   10.80    1.40
  -4   0   2   13.30    1.20
  -4   0   2   13.70    1.80
  -4   0   2   12.50    1.20
   3   0  -2   30.90    1.90
   3   0  -2   32.10    2.00
   3   0  -2   35.20    2.00
  -3   0   2   37.60    2.20
  -3   0   2   28.30    1.50
  -3   0   2   29.80    1.60
   2   0  -2  975.60   35.30
   2   0  -2  971.40   34.90
   2   0  -2  976.30   35.20
   2   0  -2 1047.00   35.40
  -2   0   2  989.80   34.90
  -2   0   2 1009.60   35.30
  -2   0   2 1011.10   35.00
  -2   0   2 1085.19   35.30
  -2   0   2 1027.10   35.00
   1   0  -2   29.60    1.30
   1   0  -2   29.30    1.20
   1   0  -2   30.10    1.20
   1   0  -2   27.90    1.40
  -1   0   2   31.50    1.40
  -1   0   2   30.60    1.20
  -1   0   2   30.20    1.30
  -1   0   2   28.80    1.40
  -1   0   2   28.90    1.20
  -1   0   2   27.90    1.20
  -1   0   2   30.80    1.40
  -1   0   2   29.00    1.20
   0   0  -2   51.69    2.00
   0   0  -2   52.59    2.10
   0   0  -2   48.70    2.00
   0   0  -2   52.89    2.00
   0   0  -2   54.79    2.00
   0   0  -2   59.69    2.10
   0   0  -2   52.59    2.10
   0   0   2   52.49    2.00
   0   0   2   49.99    2.00
   0   0   2   48.30    2.00
   0   0   2   51.99    2.10
   0   0   2   51.69    2.00
   0   0   2   47.10    1.90
   0   0   2   52.09    2.00
  -1   0  -2  225.18    8.80
  -1   0  -2  255.07    9.10
  -1   0  -2  247.98    9.10
  -1   0  -2  258.37    9.20
  -1   0  -2  252.97    8.80
  -1   0  -2  240.58    9.00
  -1   0  -2  272.67    9.10
   1   0   2  246.28    9.00
   1   0   2  251.67    9.20
   1   0   2  255.97    9.00
   1   0   2  245.38    8.80
   1   0   2  253.47    9.10
  -2   0  -2  210.78    8.40
  -2   0  -2  225.38    8.00
  -2   0  -2  227.68    8.20
  -2   0  -2  217.88    8.20
  -2   0  -2  214.18    8.20
   2   0   2  209.48    8.10
   2   0   2  229.88    8.10
  -3   0  -2    1.70    0.70
  -3   0  -2    2.30    1.00
  -3   0  -2    2.00    0.80
  -3   0  -2    1.20    0.60
  -3   0  -2    1.90    0.70
   3   0   2    2.60    0.80
   3   0   2    1.90    0.70
   3   0   2    2.60    0.60
   3   0   2    1.80    0.70
  -4   0  -2    3.00    0.80
  -4   0  -2    1.60    1.30
  -4   0  -2    2.90    1.00
  -4   0  -2    0.40    0.80
   4   0   2    2.60    1.00
   4   0   2    1.70    0.80
   4   0   2    2.70    0.90
  -5   0  -2    5.90    1.30
  -5   0  -2   13.20    2.60
   5   0   2   10.10    1.70
   5   0   2    9.80    1.70
  -6   0  -2   -1.00    0.90
  -6   0  -2   -1.00    1.80
   6   0   2   -1.00    1.10
   6   0   2   -1.20    1.20
   6  -1  -2   -0.40    1.20
   6  -1  -2    2.30    1.30
  -6   1   2    1.30    0.70
  -6   1   2    1.40    1.80
   5  -1  -2   12.30    1.80
   5  -1  -2   11.70    1.80
   5  -1  -2   12.60    1.80
  -5   1   2   10.20    1.10
  -5   1   2   10.70    1.10
  -5   1   2   14.60    2.40
   4  -1  -2    0.50    0.70
   4  -1  -2    0.20    0.70
   4  -1  -2    0.30    0.80
  -4   1   2    0.00    0.80
  -4   1   2    1.20    1.00
  -4   1   2    0.40    0.40
  -4   1   2    0.50    0.40
   3  -1  -2   44.50    2.20
   3  -1  -2   46.60    2.50
   3  -1  -2   39.40    2.30
   3  -1  -2   41.60    2.30
  -3   1   2   51.39    2.60
   2  -1  -2  193.88    7.10
   2  -1  -2  187.28    7.10
   2  -1  -2  188.18    7.20
   2  -1  -2  193.08    7.10
   1  -1  -2   43.40    1.80
   1  -1  -2   44.50    1.90
   1  -1  -2   45.50    2.00
   1  -1  -2   45.30    2.00
   1  -1  -2   45.90    1.70
  -1   1   2   47.40    1.90
  -1   1   2   46.10    1.70
  -1   1   2   45.30    1.80
  -1   1   2   46.10    1.70
  -1   1   2   45.50    1.70
  -1   1   2   48.30    2.00
  -1   1   2   52.09    2.00
  -1   1   2   48.40    2.00
  -1   1   2   43.30    2.00
   0  -1  -2  264.07    9.00
   0  -1  -2  270.27    9.00
   0  -1  -2  250.17    8.90
   0  -1  -2  246.78    9.00
   0  -1  -2  243.78    9.00
   0  -1  -2  244.48    8.80
   0  -1  -2  250.27    8.90
   0   1   2  242.18    9.00
   0   1   2  241.58    8.90
   0   1   2  256.27    8.90
   0   1   2  254.67    8.80
   0   1   2  252.87    9.00
   0   1   2  252.67    9.00
   0   1   2  240.48    9.00
  -1  -1  -2  437.06   15.60
  -1  -1  -2  441.16   15.60
  -1  -1  -2  424.06   15.60
  -1  -1  -2  470.25   15.60
  -1  -1  -2  449.06   15.70
   1   1   2  454.85   15.60
   1   1   2  418.56   15.60
   1   1   2  433.66   15.60
   1   1   2  428.16   15.40
   1   1   2  424.06   15.60
  -2  -1  -2   60.99    2.70
  -2  -1  -2   56.49    2.90
  -2  -1  -2   61.19    2.80
  -2  -1  -2   58.79    2.80
  -2  -1  -2   59.99    2.80
   2   1   2   57.99    2.60
   2   1   2   55.29    2.50
   2   1   2   62.99    2.70
  -3  -1  -2  133.19    5.90
  -3  -1  -2  152.28    5.90
  -3  -1  -2  142.89    6.00
  -3  -1  -2  140.39    6.40
  -3  -1  -2  151.88    6.00
   3   1   2  142.39    5.80
   3   1   2  151.88    6.10
   3   1   2  141.59    5.80
   3   1   2  152.98    5.90
  -4  -1  -2   10.10    1.50
  -4  -1  -2   12.10    1.70
  -4  -1  -2   12.70    1.40
  -4  -1  -2   12.40    2.20
   4   1   2   10.30    1.30
   4   1   2   13.10    1.70
   4   1   2   12.40    1.50
  -5  -1  -2    2.00    1.10
  -5  -1  -2   -0.60    1.60
   5   1   2    0.70    1.20
   5   1   2    0.60    1.00
  -6  -1  -2   -0.80    2.10
   6   1   2    2.00    1.40
   6  -2  -2    1.50    1.30
   6  -2  -2    2.80    1.40
  -6   2   2    1.70    0.70
  -6   2   2    4.70    2.00
   5  -2  -2    7.20    1.40
   5  -2  -2    4.90    1.30
   5  -2  -2    7.00    1.50
  -5   2   2    9.10    1.60
  -5   2   2    6.00    0.80
  -5   2   2    6.40    0.80
  -5   2   2    8.70    1.90
   4  -2  -2    4.50    1.00
   4  -2  -2    3.30    1.00
   4  -2  -2    5.60    0.90
   4  -2  -2    3.50    0.90
  -4   2   2    6.50    1.30
  -4   2   2    6.80    1.40
   3  -2  -2   47.70    2.50
   3  -2  -2   49.10    2.40
   3  -2  -2   50.29    2.60
   3  -2  -2   42.70    2.40
   2  -2  -2   52.89    2.40
   2  -2  -2   52.39    2.30
   2  -2  -2   50.09    2.40
   2  -2  -2   52.79    2.50
   1  -2  -2  330.37   11.80
   1  -2  -2  318.37   11.80
   1  -2  -2  317.37   11.60
   1  -2  -2  311.27   11.70
   1  -2  -2  346.47   11.60
   1  -2  -2  346.77   11.60
   1  -2  -2  325.87   11.80
  -1   2   2  330.77   11.70
  -1   2   2  345.07   11.70
  -1   2   2  347.07   11.90
  -1   2   2  316.87   11.70
  -1   2   2  341.77   11.70
  -1   2   2  336.57   11.60
  -1   2   2  313.37   11.80
  -1   2   2  349.87   11.90
   0  -2  -2   80.19    3.10
   0  -2  -2   75.69    2.90
   0  -2  -2   74.99    3.10
   0  -2  -2   74.49    3.00
   0  -2  -2   77.49    3.10
   0  -2  -2   76.69    3.00
   0  -2  -2   74.19    3.10
   0   2   2   77.99    3.00
   0   2   2   70.19    3.00
   0   2   2   72.19    2.90
   0   2   2   73.89    3.00
   0   2   2   75.29    3.10
   0   2   2   74.29    2.80
   0   2   2   74.89    3.10
  -1  -2  -2   56.69    2.50
  -1  -2  -2   58.69    2.60
  -1  -2  -2   59.69    2.70
  -1  -2  -2   57.49    2.60
  -1  -2  -2   63.09    2.70
   1   2   2   57.49    2.60
   1   2   2   57.89    2.50
   1   2   2   58.99    2.60
   1   2   2   53.29    2.20
   1   2   2   55.09    2.30
  -2  -2  -2  115.69    4.60
  -2  -2  -2  111.39    4.70
  -2  -2  -2  113.69    4.80
  -2  -2  -2  112.99    4.80
  -2  -2  -2  106.99    4.90
   2   2   2  107.59    4.40
   2   2   2  111.99    4.60
  -3  -2  -2    4.20    1.20
  -3  -2  -2    3.60    0.90
  -3  -2  -2    3.20    1.20
  -3  -2  -2    4.00    1.00
  -3  -2  -2    3.50    1.00
   3   2   2    3.10    0.80
   3   2   2    0.50    0.70
   3   2   2    4.60    0.90
  -4  -2  -2    0.30    0.90
  -4  -2  -2    1.20    1.40
  -4  -2  -2    0.80    0.80
   4   2   2    0.70    0.80
   4   2   2    1.20    0.90
   4   2   2    2.20    0.90
  -5  -2  -2    5.60    1.50
  -5  -2  -2   11.30    2.60
   5   2   2    6.70    1.60
   5   2   2    9.30    1.80
   6  -3  -2    0.70    1.20
   6  -3  -2    1.90    1.30
  -6   3   2    1.70    1.60
   5  -3  -2   20.80    2.30
   5  -3  -2   24.80    2.20
  -5   3   2   29.40    2.40
  -5   3   2   28.30    2.80
   4  -3  -2    3.00    0.90
   4  -3  -2    3.10    1.10
   4  -3  -2    2.60    0.90
   4  -3  -2    3.90    1.00
  -4   3   2    1.70    1.00
  -4   3   2    5.40    1.30
   3  -3  -2    8.70    1.10
   3  -3  -2   10.50    1.30
   3  -3  -2    7.40    1.10
   3  -3  -2   13.00    1.30
   2  -3  -2  379.96   13.40
   2  -3  -2  367.16   13.60
   2  -3  -2  372.16   13.50
  -2   3   2  374.56   13.40
  -2   3   2  351.66   13.00
  -2   3   2  394.86   13.10
   1  -3  -2  490.85   17.80
   1  -3  -2  485.55   17.90
   1  -3  -2  549.85   17.80
   1  -3  -2  510.75   17.70
   1  -3  -2  494.45   17.80
   1  -3  -2  485.15   17.70
  -1   3   2  503.05   17.70
  -1   3   2  492.75   17.80
  -1   3   2  510.45   17.80
  -1   3   2  519.55   17.60
  -1   3   2  508.95   17.80
  -1   3   2  531.65   17.90
  -1   3   2  517.05   17.90
  -1   3   2  474.25   17.80
   0  -3  -2   15.50    1.10
   0  -3  -2   15.40    0.90
   0  -3  -2   16.40    1.10
   0  -3  -2   14.00    1.10
   0  -3  -2   16.00    1.10
   0  -3  -2   17.50    1.20
   0  -3  -2   17.00    1.10
   0   3   2   14.80    0.90
   0   3   2   14.70    1.00
   0   3   2   14.70    1.10
   0   3   2   14.60    0.80
   0   3   2   15.50    1.20
   0   3   2   15.30    1.10
   0   3   2   15.00    1.10
   0   3   2   16.40    1.10
  -1  -3  -2    5.80    0.90
  -1  -3  -2    4.70    0.80
  -1  -3  -2    7.00    1.10
  -1  -3  -2    6.20    0.80
  -1  -3  -2    5.20    0.50
  -1  -3  -2    4.90    0.80
   1   3   2    4.60    0.80
   1   3   2    5.30    0.50
   1   3   2    5.60    0.60
   1   3   2    6.40    0.80
  -2  -3  -2   12.90    1.50
  -2  -3  -2   13.20    1.40
  -2  -3  -2   13.30    1.70
  -2  -3  -2   13.00    1.50
  -2  -3  -2   14.20    1.40
   2   3   2   12.50    1.00
   2   3   2   13.10    1.30
   2   3   2   12.00    1.30
  -3  -3  -2    1.30    1.10
  -3  -3  -2    1.20    1.10
  -3  -3  -2    0.90    0.80
  -3  -3  -2    0.20    0.70
   3   3   2    1.70    0.80
   3   3   2    1.70    0.70
  -4  -3  -2    1.50    0.90
  -4  -3  -2    0.40    0.90
  -4  -3  -2    0.10    1.40
   4   3   2   -0.30    0.90
   4   3   2   -0.70    0.90
   4   3   2    1.30    0.90
  -5  -3  -2   -0.70    1.00
  -5  -3  -2   -1.00    1.90
   5   3   2   -0.30    1.10
   5   3   2   -0.40    1.00
   6  -4  -2    5.20    1.60
   6  -4  -2    5.90    1.60
  -6   4   2    3.60    1.90
   5  -4  -2   -0.30    0.90
   5  -4  -2    0.50    0.80
   5  -4  -2    0.70    0.90
  -5   4   2    1.50    1.20
  -5   4   2   -0.40    1.30
   4  -4  -2   10.80    1.40
   4  -4  -2    8.60    1.30
   4  -4  -2    7.50    1.20
  -4   4   2   13.60    1.90
   3  -4  -2    5.10    0.90
   3  -4  -2    4.70    0.90
   3  -4  -2    4.30    0.80
  -3   4   2    3.40    0.90
  -3   4   2    4.60    1.20
   2  -4  -2   73.49    3.30
   2  -4  -2   77.39    3.10
   2  -4  -2   71.29    2.80
  -2   4   2   72.79    2.90
  -2   4   2   72.39    2.90
  -2   4   2   70.19    3.10
  -2   4   2   77.99    3.00
  -2   4   2   76.79    3.50
   1  -4  -2  656.83   22.90
   1  -4  -2  687.93   22.90
   1  -4  -2  617.04   23.00
   1  -4  -2  622.94   22.90
   1  -4  -2  664.13   23.00
  -1   4   2  675.43   22.70
  -1   4   2  702.03   23.10
  -1   4   2  650.43   23.00
  -1   4   2  622.04   22.90
  -1   4   2  650.23   22.90
  -1   4   2  655.13   23.00
  -1   4   2  633.54   23.20
   0  -4  -2   80.49    3.40
   0  -4  -2   76.29    3.50
   0  -4  -2   79.69    3.40
   0  -4  -2   90.59    3.60
   0  -4  -2   77.49    3.30
   0  -4  -2   78.79    3.20
   0  -4  -2   77.59    3.50
   0   4   2   80.09    3.50
   0   4   2   83.89    3.50
   0   4   2   79.99    3.40
   0   4   2   75.39    3.30
   0   4   2   72.29    3.30
   0   4   2   75.59    3.40
  -1  -4  -2   10.20    1.20
  -1  -4  -2    9.90    1.30
  -1  -4  -2    7.50    1.20
  -1  -4  -2   11.10    0.70
  -1  -4  -2    8.90    1.10
  -1  -4  -2    9.60    1.10
   1   4   2   10.30    0.60
   1   4   2    9.00    0.90
   1   4   2    9.30    1.10
   1   4   2    8.30    1.10
  -2  -4  -2    2.40    0.80
  -2  -4  -2    0.40    0.70
  -2  -4  -2    2.40    1.00
  -2  -4  -2    1.50    1.00
  -2  -4  -2    2.30    0.80
   2   4   2    1.00    0.50
   2   4   2    1.30    0.70
   2   4   2    2.00    0.70
  -3  -4  -2   28.30    2.40
  -3  -4  -2   36.10    2.90
  -3  -4  -2   32.50    2.40
   3   4   2   33.40    2.40
   3   4   2   35.50    2.00
  -4  -4  -2    0.50    1.50
  -4  -4  -2   -0.70    0.90
  -4  -4  -2   -2.20    0.80
   4   4   2    0.50    1.00
   4   4   2   -0.10    0.80
   4   4   2    0.80    1.00
  -5  -4  -2    0.30    2.00
  -5  -4  -2   -0.20    1.10
   5   4   2   -0.40    1.10
   5   4   2   -0.50    1.10
   6  -5  -2    0.20    1.10
   6  -5  -2    1.30    1.10
  -6   5   2   -0.50    1.40
   5  -5  -2   10.20    1.60
   5  -5  -2    9.60    1.60
   5  -5  -2    9.90    1.60
  -5   5   2    9.90    2.00
  -5   5   2   14.90    2.30
   4  -5  -2   36.50    2.40
   4  -5  -2   36.00    2.30
  -4   5   2   36.90    2.80
  -4   5   2   38.20    2.50
   3  -5  -2    0.60    0.60
   3  -5  -2   -0.20    0.50
  -3   5   2   -0.30    0.50
  -3   5   2    0.00    0.30
  -3   5   2    0.30    0.40
  -3   5   2    0.20    0.90
   2  -5  -2   35.60    1.80
   2  -5  -2   37.50    1.70
   2  -5  -2   32.70    2.00
   2  -5  -2   35.00    1.70
  -2   5   2   35.50    1.80
  -2   5   2   37.10    1.80
  -2   5   2   32.50    2.20
  -2   5   2   33.60    1.80
  -2   5   2   35.70    1.70
  -2   5   2   34.60    1.80
   1  -5  -2  325.27   12.20
   1  -5  -2  335.97   12.20
   1  -5  -2  329.17   12.10
   1  -5  -2  336.07   12.00
  -1   5   2  354.76   12.30
  -1   5   2  337.67   12.10
  -1   5   2  347.67   11.80
  -1   5   2  332.97   12.50
  -1   5   2  336.07   12.30
  -1   5   2  319.67   12.00
   0  -5  -2   20.10    1.40
   0  -5  -2   18.50    1.30
   0  -5  -2   19.60    1.40
   0  -5  -2   20.90    1.70
   0   5   2   20.80    1.50
   0   5   2   19.30    1.40
   0   5   2   19.60    1.50
   0   5   2   22.20    1.50
   0   5   2   19.70    1.40
  -1  -5  -2    2.40    0.50
  -1  -5  -2    2.20    0.90
  -1  -5  -2    2.60    0.80
  -1  -5  -2    2.00    0.90
  -1  -5  -2    4.00    0.90
   1   5   2    2.60    0.80
   1   5   2    3.00    0.80
   1   5   2    3.20    0.80
  -2  -5  -2   62.59    3.70
  -2  -5  -2   73.99    3.50
  -2  -5  -2   68.39    3.70
  -2  -5  -2   61.29    3.50
   2   5   2   63.99    3.40
   2   5   2   65.49    2.80
   2   5   2   68.79    3.60
  -3  -5  -2    0.40    1.40
  -3  -5  -2    2.60    1.00
  -3  -5  -2    2.10    1.10
   3   5   2    0.00    1.00
   3   5   2    1.20    0.70
  -4  -5  -2    4.60    1.30
  -4  -5  -2    0.80    1.80
  -4  -5  -2    5.60    1.50
   4   5   2    3.00    1.10
   4   5   2    4.50    1.40
   4   5   2    3.50    1.30
  -5  -5  -2   -3.00    2.20
  -5  -5  -2    0.00    1.30
   5   5   2   -0.20    1.20
   6  -6  -2    0.40    1.00
   6  -6  -2    1.80    1.10
  -6   6   2    1.10    2.20
  -6   6   2   -0.20    1.60
   5  -6  -2   15.40    2.00
   5  -6  -2   16.30    2.00
  -5   6   2   17.00    2.50
  -5   6   2   22.40    2.30
   4  -6  -2   11.40    1.60
   4  -6  -2   12.70    1.50
  -4   6   2   13.40    1.60
  -4   6   2   13.10    1.00
  -4   6   2   15.80    2.20
   3  -6  -2   11.80    1.50
   3  -6  -2    9.60    0.80
   3  -6  -2    9.70    1.20
  -3   6   2   11.10    1.00
  -3   6   2   11.20    1.20
  -3   6   2   13.00    1.90
  -3   6   2   10.20    0.80
  -3   6   2    9.90    1.00
   2  -6  -2    4.50    0.70
   2  -6  -2    4.20    0.90
   2  -6  -2    3.90    0.70
   2  -6  -2    4.60    0.70
  -2   6   2    3.50    0.70
  -2   6   2    4.40    0.90
  -2   6   2    5.90    1.30
  -2   6   2    3.40    0.60
  -2   6   2    4.20    0.80
   1  -6  -2    2.20    0.50
   1  -6  -2    1.70    0.50
   1  -6  -2    1.70    0.60
   1  -6  -2    2.00    0.70
  -1   6   2    2.70    0.90
  -1   6   2    1.40    0.50
  -1   6   2    2.70    0.60
  -1   6   2    2.80    0.70
  -1   6   2    2.60    0.60
   0  -6  -2   11.90    1.30
   0  -6  -2   11.80    1.30
   0  -6  -2   13.50    1.20
   0  -6  -2   15.10    1.70
   0   6   2   11.00    1.20
   0   6   2   14.10    1.40
   0   6   2   15.30    1.40
   0   6   2   11.60    1.40
  -1  -6  -2    8.80    1.00
  -1  -6  -2   13.70    1.80
  -1  -6  -2    9.10    1.40
  -1  -6  -2    9.60    1.30
   1   6   2    9.70    1.40
   1   6   2    7.40    1.20
   1   6   2    8.60    1.30
  -2  -6  -2    6.20    1.60
  -2  -6  -2    7.20    1.40
  -2  -6  -2    2.20    1.10
   2   6   2    4.90    1.20
   2   6   2    6.20    1.30
  -3  -6  -2   -1.10    0.90
  -3  -6  -2    0.80    1.50
  -3  -6  -2    0.40    1.10
   3   6   2    0.30    1.10
  -4  -6  -2    7.10    1.70
  -4  -6  -2    5.80    1.70
  -4  -6  -2    7.80    2.40
   4   6   2    6.60    1.60
   4   6   2    5.00    1.50
   6  -7  -2    0.20    1.10
   6  -7  -2    2.30    1.20
  -6   7   2    1.70    1.90
  -6   7   2    0.70    1.70
   5  -7  -2    2.10    1.10
   5  -7  -2    2.70    1.10
  -5   7   2    4.80    1.90
   4  -7  -2   14.90    1.70
   4  -7  -2   11.60    1.70
  -4   7   2   12.10    1.20
  -4   7   2   18.10    2.50
  -4   7   2   14.10    1.50
  -4   7   2   15.90    1.20
   3  -7  -2    2.60    0.90
   3  -7  -2    3.20    0.80
   3  -7  -2    4.00    0.70
   3  -7  -2    3.40    0.60
  -3   7   2    3.00    0.60
  -3   7   2    3.00    1.40
  -3   7   2    2.50    0.70
  -3   7   2    2.00    0.70
  -3   7   2    3.10    0.60
  -3   7   2    3.80    0.80
   2  -7  -2    8.70    1.20
   2  -7  -2   13.50    1.20
   2  -7  -2   13.60    1.10
   2  -7  -2   13.10    1.00
  -2   7   2   12.40    1.10
  -2   7   2   13.50    1.40
  -2   7   2   12.40    1.20
  -2   7   2   12.90    1.30
  -2   7   2   13.60    1.90
   1  -7  -2   16.70    1.50
   1  -7  -2   16.80    1.50
   1  -7  -2   19.80    2.10
   1  -7  -2   17.30    1.30
  -1   7   2   19.30    1.60
  -1   7   2   19.90    1.50
  -1   7   2   20.50    1.90
  -1   7   2   19.50    1.70
  -1   7   2   18.10    1.30
   0  -7  -2  313.47   12.40
   0  -7  -2  325.77   12.50
   0  -7  -2  317.07   12.80
   0  -7  -2  332.07   12.20
   0   7   2  348.27   12.80
   0   7   2  324.67   12.50
   0   7   2  355.96   12.70
   0   7   2  327.67   12.40
  -1  -7  -2  116.39    5.40
  -1  -7  -2  110.19    5.30
  -1  -7  -2  113.19    4.70
  -1  -7  -2  112.59    5.60
   1   7   2  122.49    5.10
   1   7   2  120.19    5.50
   1   7   2  110.69    5.20
  -2  -7  -2   17.10    2.00
  -2  -7  -2   17.00    2.10
  -2  -7  -2   17.40    2.40
   2   7   2   15.50    2.00
  -3  -7  -2    9.70    1.90
  -3  -7  -2    9.40    1.80
  -3  -7  -2    7.20    2.10
   3   7   2    9.10    1.60
  -4  -7  -2    0.40    1.30
  -4  -7  -2   -1.20    1.90
  -4  -7  -2   -0.50    1.10
   4   7   2   -0.60    1.10
   6  -8  -2    3.00    1.40
   6  -8  -2    5.60    1.50
  -6   8   2    1.70    2.10
   5  -8  -2    4.00    1.30
   5  -8  -2    1.40    1.00
  -5   8   2    1.40    1.70
  -5   8   2    1.10    0.60
   4  -8  -2    3.30    1.00
   4  -8  -2    4.70    1.30
  -4   8   2    4.70    1.80
  -4   8   2    3.30    0.80
  -4   8   2    4.10    0.80
   3  -8  -2    0.30    0.50
   3  -8  -2    0.00    0.50
   3  -8  -2   -0.20    0.70
   3  -8  -2    0.40    0.60
  -3   8   2    0.70    0.60
  -3   8   2    0.70    0.50
  -3   8   2    0.40    0.60
  -3   8   2   -0.50    1.10
  -3   8   2    0.20    0.50
  -3   8   2   -0.20    0.50
   2  -8  -2   -0.10    0.40
   2  -8  -2   -0.60    0.40
   2  -8  -2   -0.50    0.70
   2  -8  -2   -0.60    0.50
  -2   8   2    0.30    0.60
  -2   8   2    0.20    0.40
  -2   8   2    0.00    0.60
  -2   8   2   -0.70    0.50
  -2   8   2   -0.80    1.00
   1  -8  -2    6.10    1.10
   1  -8  -2    6.00    1.10
  -1   8   2    6.00    1.20
  -1   8   2    5.20    1.50
  -1   8   2    6.00    1.20
  -1   8   2    5.20    1.00
   0  -8  -2    7.00    1.20
   0  -8  -2    2.80    1.60
   0  -8  -2    5.40    1.20
   0  -8  -2    4.90    1.20
   0   8   2    4.00    1.20
   0   8   2    3.50    1.40
   0   8   2    4.60    1.10
  -1  -8  -2    2.30    1.10
  -1  -8  -2    3.30    1.10
  -1  -8  -2    4.70    1.70
  -1  -8  -2    3.10    0.80
   1   8   2    3.20    1.20
   1   8   2    2.20    1.00
   1   8   2    4.90    1.30
  -2  -8  -2    0.20    1.00
  -2  -8  -2   -1.00    1.00
  -2  -8  -2   -0.30    1.40
   2   8   2   -0.70    1.00
  -3  -8  -2    1.70    1.80
  -3  -8  -2    0.70    1.10
  -3  -8  -2    0.40    1.20
   3   8   2    0.40    1.20
  -4  -8  -2    2.40    2.60
  -4  -8  -2    5.30    1.80
  -4  -8  -2    3.80    1.70
   4   8   2    3.50    1.60
   6  -9  -2   -0.30    1.10
   6  -9  -2   -1.60    1.10
  -6   9   2   -0.50    1.90
   5  -9  -2    1.50    1.00
   5  -9  -2    0.40    1.10
  -5   9   2    0.10    0.60
  -5   9   2    1.00    1.80
   4  -9  -2    6.80    1.40
   4  -9  -2   12.40    1.50
  -4   9   2   10.80    1.40
  -4   9   2   13.30    2.50
   3  -9  -2    7.50    1.10
   3  -9  -2    6.00    1.00
   3  -9  -2    7.00    1.00
   3  -9  -2    6.80    1.40
  -3   9   2    4.90    1.00
  -3   9   2    5.40    1.80
  -3   9   2    6.70    1.00
  -3   9   2    6.70    1.00
   2  -9  -2    1.60    0.70
   2  -9  -2    0.20    0.80
  -2   9   2    1.70    0.80
  -2   9   2    0.20    0.80
  -2   9   2    0.40    1.20
   1  -9  -2   51.69    3.00
   1  -9  -2   50.79    2.90
  -1   9   2   52.19    3.40
  -1   9   2   48.30    3.20
  -1   9   2   51.99    3.00
   0  -9  -2   -0.50    0.70
   0  -9  -2    0.10    0.80
   0  -9  -2    0.30    0.90
   0  -9  -2    0.20    1.40
   0   9   2    0.90    1.00
   0   9   2   -0.40    1.10
   0   9   2   -0.80    0.80
  -1  -9  -2    1.20    1.10
  -1  -9  -2   -0.90    1.50
  -1  -9  -2   -0.90    0.90
  -1  -9  -2    0.20    0.60
   1   9   2    1.40    1.00
   1   9   2    1.30    1.10
   1   9   2   -0.30    0.80
  -2  -9  -2    1.10    1.10
  -2  -9  -2   -0.30    1.50
  -2  -9  -2    2.10    1.30
   2   9   2    1.50    1.10
  -3  -9  -2    6.60    1.90
  -3  -9  -2    4.30    2.30
  -3  -9  -2    0.10    1.40
   3   9   2    4.10    1.70
   6 -10  -2   -1.20    1.00
  -6  10   2   -0.70    1.90
   5 -10  -2   -0.60    0.90
   5 -10  -2   -1.00    1.00
  -5  10   2    0.40    1.90
  -5  10   2    0.00    0.60
   4 -10  -2    2.90    1.00
   4 -10  -2   -0.20    0.90
  -4  10   2    0.90    0.80
  -4  10   2    2.00    1.70
   3 -10  -2    0.30    0.90
   3 -10  -2    0.30    0.70
   3 -10  -2    0.00    0.60
   3 -10  -2    0.60    0.60
  -3  10   2   -0.40    0.80
  -3  10   2   -1.20    1.20
  -3  10   2    0.20    0.60
  -3  10   2    0.30    0.60
   2 -10  -2    0.30    0.70
   2 -10  -2    0.30    0.80
  -2  10   2    0.90    1.40
  -2  10   2    1.30    0.80
  -2  10   2   -0.70    0.80
   1 -10  -2   21.90    2.20
   1 -10  -2   21.00    2.10
  -1  10   2   24.10    2.10
  -1  10   2   28.00    3.10
  -1  10   2   21.40    2.40
   0 -10  -2    0.50    0.90
   0 -10  -2   -1.50    1.60
   0 -10  -2    1.00    0.80
   0  10   2   -0.80    0.90
   0  10   2   -1.40    1.10
   0  10   2    2.10    1.00
  -1 -10  -2    6.60    2.30
  -1 -10  -2    4.40    1.50
  -1 -10  -2    3.10    1.30
   1  10   2    7.10    1.70
   1  10   2    6.60    1.60
  -2 -10  -2    3.30    2.40
  -2 -10  -2    2.40    1.50
   2  10   2   -0.90    1.10
  -3 -10  -2    6.80    2.80
  -3 -10  -2    5.50    1.90
   3  10   2    5.00    1.90
   5 -11  -2    0.30    1.20
   5 -11  -2    0.90    1.10
  -5  11   2    0.70    0.70
  -5  11   2   -0.70    2.10
   4 -11  -2    1.70    1.20
   4 -11  -2    3.50    1.10
  -4  11   2    2.10    1.00
  -4  11   2    4.40    2.10
   3 -11  -2    0.20    0.70
   3 -11  -2   -0.60    0.80
   3 -11  -2    1.50    0.80
  -3  11   2    0.10    0.90
  -3  11   2    0.70    0.70
  -3  11   2    1.40    1.60
  -3  11   2    0.20    0.70
   2 -11  -2    1.80    0.90
   2 -11  -2    2.40    1.10
  -2  11   2    2.10    1.00
  -2  11   2   -0.30    1.00
  -2  11   2   -0.60    1.50
   1 -11  -2   -1.00    0.90
   1 -11  -2    1.40    0.90
  -1  11   2    0.40    1.00
  -1  11   2   -2.00    1.20
  -1  11   2    0.70    1.00
   0 -11  -2    3.80    2.20
   0 -11  -2    4.80    1.40
   0 -11  -2    2.10    0.90
   0  11   2    3.90    1.70
   0  11   2    5.80    1.50
   0  11   2    4.20    1.50
  -1 -11  -2   -0.40    1.20
  -1 -11  -2   -1.60    1.90
   1  11   2    1.30    1.20
  -2 -11  -2    2.50    1.60
  -2 -11  -2   -0.70    2.30
   2  11   2   -0.40    1.30
   5 -12  -2    0.20    1.10
  -5  12   2    0.60    1.00
  -5  12   2   -1.00    1.90
   4 -12  -2    0.20    1.00
  -4  12   2   -0.50    1.90
  -4  12   2    1.50    1.00
   3 -12  -2    2.80    1.00
   3 -12  -2    4.20    1.40
   3 -12  -2    4.00    1.10
  -3  12   2    3.70    1.10
  -3  12   2    5.60    2.30
  -3  12   2    3.60    1.10
  -3  12   2    2.90    1.30
   2 -12  -2   -0.20    0.90
   2 -12  -2    0.70    1.00
  -2  12   2    1.80    1.30
  -2  12   2    2.10    1.80
  -2  12   2    0.80    1.00
   1 -12  -2   -0.40    0.90
   1 -12  -2    1.60    1.20
  -1  12   2    0.40    1.10
  -1  12   2    0.40    1.20
  -1  12   2    0.30    1.60
   0 -12  -2    5.70    1.80
   0 -12  -2    4.40    1.30
   0 -12  -2    4.90    2.50
   0  12   2    7.80    2.20
   0  12   2    4.20    1.60
   0  12   2    3.90    1.60
  -1 -12  -2    1.40    2.60
  -1 -12  -2    0.00    1.30
   1  12   2    0.60    1.20
  -2 -12  -2   -1.60    2.70
  -2 -12  -2    0.20    1.70
   2  12   2    1.20    1.60
   4 -13  -2    1.30    1.20
  -4  13   2   -0.60    1.90
  -4  13   2    1.30    1.10
   3 -13  -2    0.10    1.00
   3 -13  -2    0.20    1.00
   3 -13  -2    2.30    1.30
  -3  13   2   -1.30    1.80
  -3  13   2    1.30    1.20
  -3  13   2   -0.50    1.20
   2 -13  -2    2.20    1.30
   2 -13  -2    2.00    1.20
  -2  13   2    2.50    1.50
  -2  13   2    2.30    2.00
  -2  13   2    2.30    1.30
   1 -13  -2    3.90    1.50
   1 -13  -2    2.30    1.30
  -1  13   2    2.70    1.50
  -1  13   2    3.60    2.00
  -1  13   2    1.30    1.50
   0 -13  -2   -0.70    2.20
   0 -13  -2   -0.10    1.30
   0  13   2   -0.70    1.60
   0  13   2    0.10    1.20
  -1 -13  -2    2.60    2.90
  -1 -13  -2    1.60    1.70
   1  13   2    0.40    1.50
   4 -14  -2   -0.90    1.10
  -4  14   2    0.00    2.30
   3 -14  -2   -0.20    1.20
  -3  14   2    2.30    2.30
  -3  14   2   -0.50    1.20
   2 -14  -2   -0.40    1.10
   2 -14  -2    0.40    1.10
   2 -14  -2    2.10    1.30
  -2  14   2   -1.40    1.10
  -2  14   2    0.30    1.10
  -2  14   2    1.40    1.40
  -2  14   2   -0.90    2.10
   1 -14  -2   -0.60    1.00
   1 -14  -2   -1.20    1.10
  -1  14   2    0.10    1.40
  -1  14   2   -1.20    1.10
  -1  14   2   -5.10    1.60
   0 -14  -2    0.30    1.30
   0  14   2    0.00    1.20
  -1  16  -3    1.30    2.40
  -1  16  -3   -0.70    1.20
  -1  16  -3    1.50    1.40
   1 -16   3   -2.50    1.20
   1 -16   3   -1.70    1.10
   1 -16   3    0.10    1.40
  -2  16  -3    0.50    1.20
  -2  16  -3    3.50    1.50
  -2  16  -3    7.20    3.00
  -2  16  -3    1.80    1.40
   2 -16   3   -0.20    1.50
   2 -16   3    2.60    1.50
   2 -16   3    1.10    1.50
   3 -16   3   -0.70    1.20
   1  15  -3    1.40    1.50
   1  15  -3   -0.30    1.60
  -1 -15   3    3.10    2.70
  -1 -15   3    2.60    1.80
  -1 -15   3   -0.20    1.50
   0  15  -3    4.40    1.70
   0  15  -3    6.10    2.50
   0  15  -3    5.70    1.70
   0 -15   3    3.50    1.50
   0 -15   3    2.90    1.70
   0 -15   3    2.60    1.60
  -1  15  -3   -0.40    1.20
  -1  15  -3    1.30    2.30
  -1  15  -3   -0.30    1.20
  -1  15  -3    2.20    1.50
   1 -15   3    0.80    1.40
   1 -15   3   -1.30    1.20
   1 -15   3   -1.80    1.20
  -2  15  -3    2.50    2.20
  -2  15  -3    3.40    1.50
  -2  15  -3    2.10    1.20
  -2  15  -3    2.10    1.30
   2 -15   3    4.40    1.50
   2 -15   3    1.40    1.30
   2 -15   3    0.90    1.30
  -3  15  -3    0.10    1.00
  -3  15  -3   -0.50    2.00
  -3  15  -3   -0.40    1.00
   3 -15   3    1.40    1.40
   3 -15   3   -0.50    1.10
  -4  15  -3    0.00    2.20
  -4  15  -3   -0.50    1.00
   4 -15   3   -1.40    1.00
  -2 -14   3    3.20    2.90
   1  14  -3   18.30    2.90
   1  14  -3   11.70    2.20
   1  14  -3   14.70    2.30
  -1 -14   3   12.70    2.30
  -1 -14   3   10.00    1.90
  -1 -14   3   19.40    3.80
  -1 -14   3   12.10    2.20
   0  14  -3    1.90    1.40
   0  14  -3   -1.10    1.00
   0  14  -3    0.70    1.90
   0 -14   3   -0.20    1.10
   0 -14   3   -2.30    1.00
   0 -14   3   -1.90    1.00
  -1  14  -3   -0.20    1.20
  -1  14  -3    0.50    1.90
  -1  14  -3   -0.70    1.10
  -1  14  -3    2.70    1.40
   1 -14   3    0.70    1.20
   1 -14   3   -1.80    0.90
   1 -14   3    0.70    1.20
  -2  14  -3    3.00    1.20
  -2  14  -3    2.30    2.00
  -2  14  -3    0.80    1.10
  -2  14  -3    2.90    1.30
   2 -14   3    2.00    1.20
   2 -14   3    0.90    1.30
   2 -14   3    0.70    1.10
  -3  14  -3    1.60    2.00
  -3  14  -3    2.90    1.10
  -3  14  -3    0.20    1.10
   3 -14   3    2.00    1.40
   3 -14   3    3.90    1.30
  -4  14  -3    0.20    1.00
  -4  14  -3    0.10    1.90
   4 -14   3    2.20    1.30
   2  13  -3    1.50    1.40
   2  13  -3    0.00    1.60
  -2 -13   3    1.00    1.30
  -2 -13   3   -1.40    1.40
  -2 -13   3    3.20    2.70
   1  13  -3    7.70    2.10
   1  13  -3    9.00    2.10
   1  13  -3    8.50    1.80
  -1 -13   3    3.40    1.70
  -1 -13   3   10.80    2.80
  -1 -13   3    6.00    1.60
  -1 -13   3    7.70    1.60
   0  13  -3    6.20    2.10
   0  13  -3    1.50    1.30
   0  13  -3    1.20    1.20
   0  13  -3    3.50    1.30
   0 -13   3    0.00    1.20
   0 -13   3    3.00    1.20
   0 -13   3    1.10    1.30
  -1  13  -3    2.10    1.20
  -1  13  -3    3.70    1.50
  -1  13  -3    1.50    1.70
  -1  13  -3    1.00    1.10
   1 -13   3    1.60    1.20
   1 -13   3    1.40    1.20
   1 -13   3    0.90    1.20
  -2  13  -3   24.60    3.30
  -2  13  -3   16.50    2.20
  -2  13  -3   17.90    2.10
  -2  13  -3   22.20    2.30
   2 -13   3   15.30    2.10
   2 -13   3   15.80    2.00
   2 -13   3   18.40    2.30
  -3  13  -3    1.70    1.10
  -3  13  -3    3.60    2.00
  -3  13  -3    2.90    1.10
   3 -13   3    2.10    1.30
   3 -13   3    2.40    1.20
   3 -13   3    1.00    1.00
  -4  13  -3    2.30    1.10
  -4  13  -3    6.90    2.60
   4 -13   3    3.80    1.50
   4 -13   3    4.70    1.30
  -5  13  -3    0.60    2.20
  -5  13  -3    0.00    0.90
   5 -13   3    0.80    1.10
   5 -13   3    0.90    1.20
   3  12  -3    1.70    1.40
   3  12  -3   -0.90    1.30
  -3 -12   3    3.20    1.60
  -3 -12   3   -1.20    2.40
  -3 -12   3   -0.20    1.50
   2  12  -3   -0.90    1.00
  -2 -12   3    1.80    1.30
  -2 -12   3   -0.50    2.10
  -2 -12   3    0.80    1.30
   1  12  -3    2.50    1.30
   1  12  -3    2.90    1.50
   1  12  -3    1.20    1.20
  -1 -12   3    4.10    2.20
  -1 -12   3    1.00    1.00
  -1 -12   3    0.20    1.10
  -1 -12   3    1.20    1.30
   0  12  -3   18.80    2.20
   0  12  -3   19.00    2.40
   0  12  -3   17.90    2.70
   0  12  -3   15.40    2.00
   0 -12   3   13.10    1.80
   0 -12   3   13.20    1.90
   0 -12   3   13.10    2.00
  -1  12  -3    9.20    1.60
  -1  12  -3    8.10    2.10
  -1  12  -3    6.50    1.40
  -1  12  -3    7.30    1.70
   1 -12   3    7.10    1.60
   1 -12   3    7.60    1.50
   1 -12   3    8.20    1.50
  -2  12  -3   10.10    1.70
  -2  12  -3   11.30    1.60
  -2  12  -3   11.80    1.70
  -2  12  -3   13.20    2.50
   2 -12   3   12.00    1.70
   2 -12   3   14.50    1.40
   2 -12   3   14.80    2.00
   2 -12   3   10.90    1.70
  -3  12  -3    7.00    2.10
  -3  12  -3    4.40    1.20
  -3  12  -3    4.30    1.10
   3 -12   3    6.40    1.50
   3 -12   3    4.30    1.10
   3 -12   3    8.80    1.30
  -4  12  -3    0.80    0.90
  -4  12  -3    0.50    1.80
   4 -12   3    1.40    1.00
   4 -12   3    0.80    1.10
  -5  12  -3    1.30    2.00
  -5  12  -3   -0.50    0.70
   5 -12   3   -0.50    0.90
   5 -12   3   -0.30    1.00
   3  11  -3   -0.50    1.30
  -3 -11   3    3.30    2.40
  -3 -11   3   -0.30    1.30
  -3 -11   3    1.80    1.50
   2  11  -3    2.00    1.40
   2  11  -3    1.30    1.20
  -2 -11   3    1.80    0.90
  -2 -11   3    0.10    1.20
  -2 -11   3    3.90    1.40
  -2 -11   3   -0.50    1.80
   1  11  -3   57.19    4.00
   1  11  -3   58.79    3.90
  -1 -11   3   60.79    3.80
  -1 -11   3   67.19    4.60
  -1 -11   3   60.39    4.00
  -1 -11   3   59.59    3.40
   0  11  -3   12.90    1.80
   0  11  -3   12.20    1.70
   0  11  -3   10.20    2.10
   0  11  -3    9.60    1.70
   0 -11   3   10.90    1.60
   0 -11   3   12.10    2.20
   0 -11   3   10.60    1.70
   0 -11   3    9.80    1.60
   0 -11   3    8.20    1.50
  -1  11  -3   38.90    3.00
  -1  11  -3   38.20    3.20
  -1  11  -3   40.20    2.90
  -1  11  -3   34.60    2.50
   1 -11   3   40.80    2.80
   1 -11   3   37.30    2.80
   1 -11   3   31.60    2.60
   1 -11   3   36.40    1.90
  -2  11  -3   38.40    2.60
  -2  11  -3   38.50    2.80
  -2  11  -3   36.40    2.50
  -2  11  -3   38.40    3.20
   2 -11   3   40.50    2.20
   2 -11   3   39.00    2.70
   2 -11   3   34.20    2.60
   2 -11   3   36.40    2.50
  -3  11  -3   -0.80    1.30
  -3  11  -3    0.00    0.70
  -3  11  -3    0.00    0.80
   3 -11   3   -0.10    0.90
   3 -11   3    0.20    0.70
   3 -11   3   -1.10    0.70
  -4  11  -3   -1.80    1.40
  -4  11  -3    0.00    0.70
   4 -11   3    0.90    1.00
   4 -11   3    1.30    0.90
  -5  11  -3    2.20    2.00
  -5  11  -3    0.00    0.70
   5 -11   3   -0.80    0.90
   5 -11   3   -0.30    1.00
   4  10  -3    1.40    1.40
   4  10  -3    4.90    1.80
  -4 -10   3    4.10    1.70
  -4 -10   3    2.70    1.40
  -4 -10   3    3.60    1.60
  -4 -10   3    1.80    2.40
   3  10  -3    6.50    1.70
  -3 -10   3    6.50    1.80
  -3 -10   3    5.50    2.40
  -3 -10   3    9.60    1.90
   2  10  -3    0.10    1.10
   2  10  -3   -0.10    0.90
  -2 -10   3    0.20    1.60
  -2 -10   3    0.20    0.80
  -2 -10   3    0.00    1.10
  -2 -10   3   -0.60    1.00
   1  10  -3    3.50    1.20
   1  10  -3    5.00    1.50
   1  10  -3    3.90    1.10
  -1 -10   3    4.70    1.10
  -1 -10   3    4.90    1.30
  -1 -10   3    4.00    1.70
  -1 -10   3    2.30    1.10
   0  10  -3   10.40    1.90
   0  10  -3    4.80    1.20
   0  10  -3    6.00    1.40
   0  10  -3    3.70    1.10
   0 -10   3    5.60    1.30
   0 -10   3    6.90    1.30
   0 -10   3    6.80    1.30
   0 -10   3    7.70    1.40
   0 -10   3    7.70    1.60
  -1  10  -3    0.40    0.80
  -1  10  -3   -1.80    1.10
  -1  10  -3    0.40    0.90
  -1  10  -3    1.80    1.00
   1 -10   3   -0.60    0.80
   1 -10   3    0.00    1.00
   1 -10   3    1.60    0.80
   1 -10   3    0.00    0.80
  -2  10  -3    0.40    0.70
  -2  10  -3   -0.10    0.80
  -2  10  -3   -0.10    0.70
  -2  10  -3    1.00    1.20
   2 -10   3    1.40    0.70
   2 -10   3   -0.30    0.70
   2 -10   3    2.10    1.00
   2 -10   3    0.70    0.80
  -3  10  -3    0.20    0.70
  -3  10  -3    0.30    0.70
  -3  10  -3    0.70    1.30
   3 -10   3    0.10    0.80
   3 -10   3    1.50    0.70
   3 -10   3    0.60    0.70
  -4  10  -3   13.60    1.70
  -4  10  -3   25.20    3.20
   4 -10   3   26.90    2.10
   4 -10   3   20.40    2.30
  -5  10  -3   -0.10    0.80
  -5  10  -3    0.50    1.70
   5 -10   3   -0.30    0.90
   5 -10   3   -1.00    0.80
   6 -10   3   -0.40    0.90
   4   9  -3    6.30    1.90
   4   9  -3    8.70    1.90
  -4  -9   3    9.20    2.80
  -4  -9   3    9.50    1.90
  -4  -9   3    4.70    1.70
   3   9  -3    3.30    1.20
   3   9  -3    1.40    1.10
  -3  -9   3    2.80    1.80
  -3  -9   3    1.30    1.30
  -3  -9   3    3.20    1.30
   2   9  -3   -0.40    0.90
   2   9  -3    0.40    1.00
  -2  -9   3   -0.60    0.70
  -2  -9   3   -0.70    0.90
  -2  -9   3   -1.40    1.00
  -2  -9   3    3.90    1.60
   1   9  -3    0.70    0.80
   1   9  -3    1.30    0.90
   1   9  -3    1.10    1.10
  -1  -9   3   -0.10    0.80
  -1  -9   3    0.80    1.20
  -1  -9   3    0.00    0.90
  -1  -9   3   -0.40    0.70
   0   9  -3   67.29    3.50
   0   9  -3   69.59    3.80
   0   9  -3   69.89    3.40
   0   9  -3   68.09    3.70
   0  -9   3   72.39    3.90
   0  -9   3   68.29    3.60
   0  -9   3   68.39    3.50
   0  -9   3   67.39    3.40
   0  -9   3   63.49    3.50
   0  -9   3   64.29    3.00
  -1   9  -3    1.70    0.70
  -1   9  -3    2.70    1.20
  -1   9  -3    2.80    0.90
  -1   9  -3    1.40    0.90
  -1   9  -3    3.60    0.90
   1  -9   3    3.10    0.90
   1  -9   3    1.40    0.90
   1  -9   3    1.90    0.80
   1  -9   3    1.70    0.80
  -2   9  -3    2.20    0.80
  -2   9  -3    2.20    1.30
  -2   9  -3    2.10    0.90
  -2   9  -3    3.30    0.90
   2  -9   3    4.20    0.90
   2  -9   3    3.30    1.00
   2  -9   3    3.70    0.80
   2  -9   3    2.50    0.80
  -3   9  -3   12.20    1.50
  -3   9  -3   11.30    2.10
  -3   9  -3   12.40    1.30
   3  -9   3   13.20    1.30
   3  -9   3   12.20    1.60
   3  -9   3   13.20    1.50
  -4   9  -3   -0.20    0.70
  -4   9  -3   -1.10    1.40
  -4   9  -3    0.50    0.70
   4  -9   3    0.40    0.60
   4  -9   3    0.10    0.80
   4  -9   3    0.50    0.80
  -5   9  -3    0.00    1.60
  -5   9  -3    0.60    0.70
   5  -9   3    1.50    1.00
   5  -9   3    1.30    1.00
  -6   9  -3   -3.60    1.50
  -6   9  -3    0.60    0.80
   6  -9   3    0.40    1.00
   4   8  -3   15.10    2.10
   4   8  -3   12.70    2.20
  -4  -8   3   17.70    3.00
  -4  -8   3   11.60    2.00
  -4  -8   3   13.80    2.00
   3   8  -3    5.70    1.40
   3   8  -3    9.80    1.40
  -3  -8   3   10.20    1.80
  -3  -8   3    8.90    1.60
  -3  -8   3    8.00    2.00
   2   8  -3   10.00    1.50
   2   8  -3   13.00    1.60
   2   8  -3   10.00    1.40
  -2  -8   3   11.60    1.60
  -2  -8   3    7.10    1.50
  -2  -8   3   12.90    2.00
   1   8  -3   46.00    2.80
   1   8  -3   43.90    2.80
   1   8  -3   48.80    3.00
  -1  -8   3   47.40    3.00
  -1  -8   3   47.70    2.90
  -1  -8   3   47.60    2.60
  -1  -8   3   48.50    2.90
   0   8  -3    1.50    0.80
   0   8  -3    1.00    0.70
   0   8  -3    0.90    0.60
   0   8  -3    1.50    0.90
   0  -8   3   -1.00    0.60
   0  -8   3    0.70    0.70
   0  -8   3    0.40    0.60
   0  -8   3    0.20    0.60
   0  -8   3   -0.80    0.90
  -1   8  -3   52.49    3.10
  -1   8  -3   56.39    2.90
  -1   8  -3   51.09    2.70
  -1   8  -3   49.20    3.00
  -1   8  -3   56.29    2.80
   1  -8   3   50.39    2.70
   1  -8   3   56.99    2.80
   1  -8   3   52.09    2.80
   1  -8   3   48.80    2.70
  -2   8  -3    1.30    0.60
  -2   8  -3    1.20    0.70
  -2   8  -3    1.30    0.60
  -2   8  -3    1.40    1.10
   2  -8   3    1.80    0.70
   2  -8   3    1.90    0.60
   2  -8   3    2.50    0.70
   2  -8   3    2.30    0.90
  -3   8  -3   -0.70    1.10
  -3   8  -3    0.50    0.60
  -3   8  -3    0.80    0.70
  -3   8  -3    0.70    0.60
   3  -8   3    1.50    0.80
   3  -8   3    0.10    0.60
   3  -8   3    0.70    0.80
  -4   8  -3   14.70    2.40
  -4   8  -3   11.40    1.10
  -4   8  -3   13.10    1.40
  -4   8  -3    9.20    1.30
   4  -8   3   10.20    1.60
   4  -8   3   11.30    1.50
   4  -8   3   11.00    1.10
  -5   8  -3    0.70    1.50
  -5   8  -3    0.50    0.70
   5  -8   3   -0.10    0.90
   5  -8   3    1.00    0.90
  -6   8  -3   -2.40    1.60
  -6   8  -3   -0.40    0.80
   6  -8   3    0.80    1.20
   5   7  -3    0.70    1.60
  -5  -7   3    6.20    2.50
  -5  -7   3    0.80    1.30
   4   7  -3    3.90    1.10
   4   7  -3    2.70    1.20
   4   7  -3    1.00    1.10
  -4  -7   3    2.00    1.80
  -4  -7   3    2.90    1.30
  -4  -7   3    1.80    1.20
   3   7  -3   12.40    1.80
   3   7  -3   11.70    1.60
   3   7  -3   12.80    1.70
  -3  -7   3   10.40    2.10
  -3  -7   3   10.30    1.60
  -3  -7   3   12.10    1.60
   2   7  -3   20.50    1.90
   2   7  -3   24.30    1.80
   2   7  -3   17.70    1.80
  -2  -7   3   24.30    2.00
  -2  -7   3   23.90    2.50
  -2  -7   3   23.50    2.30
  -2  -7   3   20.40    2.10
   1   7  -3    3.30    0.80
   1   7  -3    4.70    1.00
   1   7  -3    5.10    1.10
  -1  -7   3    1.60    1.00
  -1  -7   3    2.10    0.90
  -1  -7   3    3.80    1.10
  -1  -7   3    3.30    0.90
   0   7  -3  152.18    6.20
   0   7  -3  147.69    6.30
   0   7  -3  156.98    6.30
   0   7  -3  146.79    6.00
   0   7  -3  145.79    5.90
   0  -7   3  148.69    6.00
   0  -7   3  154.28    6.20
   0  -7   3  143.29    6.00
   0  -7   3  154.18    6.10
   0  -7   3  150.48    6.20
  -1   7  -3  136.09    5.90
  -1   7  -3  132.99    5.70
  -1   7  -3  141.79    5.60
  -1   7  -3  145.79    5.70
  -1   7  -3  138.89    5.50
   1  -7   3  127.49    5.50
   1  -7   3  142.69    5.60
   1  -7   3  142.99    5.70
   1  -7   3  140.99    5.60
  -2   7  -3    1.90    0.70
  -2   7  -3    3.70    0.70
  -2   7  -3    3.70    1.20
  -2   7  -3    2.30    0.70
   2  -7   3    3.70    0.90
   2  -7   3    4.20    0.80
   2  -7   3    2.80    0.60
   2  -7   3    2.90    0.70
  -3   7  -3    6.80    1.00
  -3   7  -3    8.10    0.90
  -3   7  -3   10.60    1.10
  -3   7  -3    9.50    1.20
  -3   7  -3    8.40    1.70
   3  -7   3    9.80    1.10
   3  -7   3    9.40    1.20
   3  -7   3   10.30    1.40
  -4   7  -3   14.10    1.40
  -4   7  -3   15.80    1.50
  -4   7  -3   14.50    1.20
  -4   7  -3   16.30    1.50
  -4   7  -3   20.40    2.50
   4  -7   3   17.00    1.80
   4  -7   3   14.10    1.20
   4  -7   3   17.70    1.90
  -5   7  -3   -1.20    1.30
  -5   7  -3    0.40    0.70
  -5   7  -3   -1.30    1.20
   5  -7   3    0.40    0.90
   5  -7   3   -0.10    0.80
   5  -7   3    2.20    0.90
  -6   7  -3    1.40    0.90
  -6   7  -3    0.30    1.80
   6  -7   3   -0.30    1.10
   6  -7   3    0.30    1.00
   5   6  -3    1.30    1.40
  -5  -6   3    1.60    1.20
  -5  -6   3    2.00    2.40
   4   6  -3    9.10    1.50
   4   6  -3    8.40    1.70
   4   6  -3    7.50    1.40
  -4  -6   3   10.50    1.60
  -4  -6   3    8.40    1.60
  -4  -6   3    9.50    2.30
   3   6  -3   55.29    3.10
   3   6  -3   56.99    3.10
   3   6  -3   50.99    3.20
  -3  -6   3   57.39    3.80
  -3  -6   3   54.29    3.10
  -3  -6   3   56.49    3.40
   2   6  -3   10.00    1.30
   2   6  -3   18.00    1.60
  -2  -6   3    8.10    1.40
  -2  -6   3   13.90    1.40
  -2  -6   3   14.50    1.80
  -2  -6   3    9.20    1.40
   1   6  -3  203.98    8.00
   1   6  -3  209.78    8.30
   1   6  -3  208.28    8.10
  -1  -6   3  207.48    8.20
  -1  -6   3  216.48    8.10
  -1  -6   3  213.98    8.30
  -1  -6   3  210.88    8.30
   0   6  -3  194.68    7.60
   0   6  -3  186.28    7.30
   0   6  -3  184.18    7.20
   0   6  -3  191.08    7.50
   0   6  -3  208.08    7.50
   0  -6   3  187.68    7.30
   0  -6   3  185.88    7.40
   0  -6   3  195.48    8.30
   0  -6   3  188.48    7.40
  -1   6  -3    4.00    1.00
  -1   6  -3    4.70    0.70
  -1   6  -3    3.60    0.70
  -1   6  -3    3.10    0.70
  -1   6  -3    2.70    0.70
   1  -6   3    4.20    0.80
   1  -6   3    4.20    0.80
   1  -6   3    3.60    0.70
  -2   6  -3   44.50    2.00
  -2   6  -3   35.90    2.20
  -2   6  -3   38.40    2.10
  -2   6  -3   38.80    1.80
  -2   6  -3   39.80    2.50
   2  -6   3   43.00    2.00
   2  -6   3   37.20    2.00
   2  -6   3   43.50    2.20
   2  -6   3   43.20    2.00
  -3   6  -3    0.60    1.00
  -3   6  -3    0.70    0.50
  -3   6  -3    1.10    0.70
  -3   6  -3    0.20    0.50
  -3   6  -3    0.40    0.50
   3  -6   3    1.50    0.70
   3  -6   3    0.50    0.60
   3  -6   3    0.70    0.50
   3  -6   3    1.20    0.70
  -4   6  -3    0.80    0.60
  -4   6  -3    2.30    1.20
  -4   6  -3    1.10    0.70
  -4   6  -3   -0.20    0.50
   4  -6   3   -0.60    0.70
   4  -6   3    1.20    0.80
   4  -6   3   -0.30    0.60
  -5   6  -3    1.40    1.40
  -5   6  -3    0.30    1.50
  -5   6  -3    0.60    0.70
   5  -6   3    0.40    0.80
   5  -6   3    1.80    1.00
   5  -6   3    0.30    1.00
  -6   6  -3    0.50    0.80
  -6   6  -3    1.30    1.90
   6  -6   3    1.10    1.20
   6  -6   3    0.20    1.10
   5   5  -3    1.10    1.30
  -5  -5   3   -1.10    1.80
  -5  -5   3   -0.10    1.00
   4   5  -3   11.40    1.50
   4   5  -3    8.50    1.50
   4   5  -3   10.90    1.60
  -4  -5   3   13.40    2.30
  -4  -5   3   12.20    1.60
  -4  -5   3   10.10    1.50
   3   5  -3   96.39    4.60
   3   5  -3  100.59    4.40
   3   5  -3   98.29    4.40
  -3  -5   3   99.69    6.00
  -3  -5   3  102.19    4.50
  -3  -5   3  108.49    5.00
  -3  -5   3   83.49    4.60
   2   5  -3  244.88    8.90
   2   5  -3  227.88    8.90
  -2  -5   3  242.98    9.00
  -2  -5   3  229.18    9.20
  -2  -5   3  242.98    9.20
  -2  -5   3  229.78    9.20
   1   5  -3   19.60    1.50
   1   5  -3   16.20    1.40
   1   5  -3   17.30    1.40
  -1  -5   3   16.50    1.50
  -1  -5   3   18.90    1.50
  -1  -5   3   18.70    1.50
  -1  -5   3   25.90    1.60
   0   5  -3  399.36   15.00
   0   5  -3  410.46   14.70
   0   5  -3  410.16   14.90
   0   5  -3  436.36   14.90
   0   5  -3  413.36   14.80
   0  -5   3  423.46   14.80
   0  -5   3  394.46   14.50
   0  -5   3  404.26   14.80
   0  -5   3  393.46   14.80
   0  -5   3  404.96   14.80
   0  -5   3  437.26   15.00
  -1   5  -3   78.79    3.50
  -1   5  -3   80.99    3.30
  -1   5  -3   76.79    3.60
  -1   5  -3   82.79    3.00
  -1   5  -3   82.29    3.40
  -1   5  -3   77.59    3.00
   1  -5   3   82.29    3.30
   1  -5   3   80.69    3.40
   1  -5   3   79.09    3.00
  -2   5  -3   63.79    3.20
  -2   5  -3   62.99    2.70
  -2   5  -3   61.39    2.90
  -2   5  -3   51.39    2.90
  -2   5  -3   64.69    2.70
  -2   5  -3   60.49    2.80
   2  -5   3   65.69    2.90
   2  -5   3   66.59    2.80
   2  -5   3   60.79    2.70
   2  -5   3   65.49    2.70
  -3   5  -3    3.40    1.10
  -3   5  -3    4.00    0.70
  -3   5  -3    4.20    0.80
  -3   5  -3    3.80    0.80
  -3   5  -3    4.20    0.80
   3  -5   3    4.70    0.70
   3  -5   3    4.50    0.90
   3  -5   3    4.00    0.90
   3  -5   3    3.90    0.80
  -4   5  -3    2.50    0.80
  -4   5  -3    4.30    1.40
  -4   5  -3    5.00    1.00
  -4   5  -3    2.80    1.20
  -4   5  -3    3.60    0.80
   4  -5   3    5.00    1.00
   4  -5   3    2.20    0.90
   4  -5   3    4.70    1.00
  -5   5  -3    5.50    1.10
  -5   5  -3    4.90    1.70
   5  -5   3    6.60    1.40
   5  -5   3    7.70    1.60
   5  -5   3    6.50    1.20
  -6   5  -3   -0.90    0.80
  -6   5  -3   -0.40    1.60
   6  -5   3    2.00    1.20
   6  -5   3    0.10    1.10
  -6  -4   3    6.60    2.60
   5   4  -3    0.90    1.20
   5   4  -3    0.90    1.10
  -5  -4   3   -0.10    0.90
  -5  -4   3    3.70    1.90
   4   4  -3   -0.20    0.80
   4   4  -3   -0.70    0.80
   4   4  -3    0.90    0.90
  -4  -4   3    0.70    0.80
  -4  -4   3    1.60    0.90
  -4  -4   3    0.50    1.30
   3   4  -3   51.09    2.90
   3   4  -3   49.20    2.60
   3   4  -3   51.59    2.60
   3   4  -3   47.80    2.70
  -3  -4   3   49.00    2.60
  -3  -4   3   58.19    3.10
  -3  -4   3   48.10    2.50
  -3  -4   3   48.50    2.80
  -3  -4   3   45.00    2.70
   2   4  -3    2.20    0.70
   2   4  -3    1.60    0.70
   2   4  -3    0.70    0.60
   2   4  -3    0.70    0.50
  -2  -4   3    1.90    0.70
  -2  -4   3    3.60    0.80
  -2  -4   3   -0.90    0.70
  -2  -4   3    4.30    0.90
   1   4  -3   26.20    1.40
   1   4  -3   29.00    1.60
   1   4  -3   28.60    1.60
   1   4  -3   27.20    1.60
  -1  -4   3   22.50    1.50
  -1  -4   3   26.50    1.60
  -1  -4   3   26.30    1.50
  -1  -4   3   25.30    1.60
  -1  -4   3   27.10    1.60
  -1  -4   3   28.90    1.70
   0   4  -3   47.50    2.20
   0   4  -3   48.80    2.20
   0   4  -3   48.30    2.30
   0   4  -3   44.10    2.30
   0   4  -3   51.09    2.20
   0   4  -3   50.19    2.20
   0   4  -3   53.19    2.20
   0   4  -3   50.19    2.20
   0  -4   3   46.50    2.00
   0  -4   3   51.29    2.10
   0  -4   3   46.60    2.20
   0  -4   3   46.70    2.20
   0  -4   3   44.30    2.10
   0  -4   3   47.80    2.30
   0  -4   3   50.39    2.30
   0  -4   3   48.40    2.20
  -1   4  -3  440.26   14.90
  -1   4  -3  419.76   15.00
  -1   4  -3  419.16   14.90
  -1   4  -3  413.46   14.70
  -1   4  -3  410.16   14.60
  -1   4  -3  393.26   15.00
  -1   4  -3  394.26   15.10
  -1   4  -3  415.66   14.90
   1  -4   3  435.96   14.90
   1  -4   3  456.55   14.90
   1  -4   3  424.06   14.90
   1  -4   3  415.46   15.00
   1  -4   3  413.66   14.70
  -2   4  -3  132.39    5.00
  -2   4  -3  130.09    5.30
  -2   4  -3  130.49    4.90
  -2   4  -3  135.79    4.90
  -2   4  -3  130.29    4.90
  -2   4  -3  125.69    5.00
  -2   4  -3  122.99    5.00
  -2   4  -3  117.89    5.00
   2  -4   3  127.29    4.90
   2  -4   3  128.79    4.90
   2  -4   3  121.99    5.00
   2  -4   3  129.89    4.90
  -3   4  -3   12.50    1.20
  -3   4  -3   10.40    1.10
  -3   4  -3   11.70    1.10
  -3   4  -3   13.60    1.60
   3  -4   3   10.70    1.30
   3  -4   3   13.40    1.20
   3  -4   3   12.50    1.20
  -4   4  -3   14.00    1.40
  -4   4  -3   15.90    1.50
  -4   4  -3   18.90    2.00
  -4   4  -3   16.80    1.50
  -4   4  -3   16.70    2.20
   4  -4   3   15.90    1.70
   4  -4   3   16.50    1.70
   4  -4   3   15.60    1.40
  -5   4  -3    4.30    1.70
  -5   4  -3    2.50    0.90
   5  -4   3    2.10    1.10
   5  -4   3    3.90    1.20
  -6   4  -3    2.60    2.00
  -6   4  -3    1.80    0.90
   6  -4   3    0.60    1.10
   6  -4   3    1.10    1.20
   6   3  -3    2.00    1.50
  -6  -3   3    0.80    2.20
  -6  -3   3    2.30    1.20
   5   3  -3    1.30    1.10
   5   3  -3    2.30    1.30
  -5  -3   3   -0.40    0.80
  -5  -3   3    3.20    1.70
   4   3  -3    6.40    1.30
   4   3  -3    6.60    1.10
   4   3  -3    8.70    1.30
  -4  -3   3    8.30    1.10
  -4  -3   3    7.70    1.20
  -4  -3   3   13.70    1.90
   3   3  -3   41.70    2.20
   3   3  -3   39.10    2.40
   3   3  -3   42.40    2.40
  -3  -3   3   45.40    2.70
  -3  -3   3   39.90    2.30
  -3  -3   3   38.00    2.10
  -3  -3   3   43.80    2.40
  -3  -3   3   42.20    2.20
   2   3  -3  171.98    6.30
   2   3  -3  158.98    6.40
   2   3  -3  171.58    6.30
   2   3  -3  164.28    6.40
  -2  -3   3  167.38    6.40
  -2  -3   3  162.58    6.40
  -2  -3   3  162.98    6.30
  -2  -3   3  161.58    6.30
  -2  -3   3  163.48    6.40
   1   3  -3  223.58    7.90
   1   3  -3  207.18    7.80
   1   3  -3  231.98    7.90
   1   3  -3  211.98    7.80
   1   3  -3  213.38    7.90
   1   3  -3  218.08    7.90
   1   3  -3  221.78    8.00
  -1  -3   3  214.18    7.90
  -1  -3   3  201.38    7.80
  -1  -3   3  207.78    8.00
  -1  -3   3  210.38    7.90
  -1  -3   3  219.68    7.90
  -1  -3   3  215.88    8.00
  -1  -3   3  212.18    8.00
   0   3  -3  103.19    3.80
   0   3  -3  100.59    3.70
   0   3  -3   95.79    3.60
   0   3  -3   98.69    3.70
   0   3  -3   93.39    3.70
   0   3  -3   96.99    3.80
   0   3  -3   94.09    3.70
   0   3  -3   93.09    3.90
   0  -3   3   95.79    3.70
   0  -3   3   94.39    3.80
   0  -3   3   91.29    3.60
   0  -3   3   96.99    3.70
   0  -3   3   91.89    3.70
   0  -3   3   96.79    3.90
   0  -3   3   91.29    3.70
  -1   3  -3  199.78    7.30
  -1   3  -3  203.38    7.30
  -1   3  -3  192.98    7.40
  -1   3  -3  203.38    7.40
  -1   3  -3  189.98    7.50
  -1   3  -3  193.28    7.20
  -1   3  -3  194.08    7.00
   1  -3   3  193.98    7.30
   1  -3   3  212.08    7.40
   1  -3   3  192.38    7.20
   1  -3   3  199.88    7.00
   1  -3   3  211.38    7.30
   1  -3   3  207.98    7.50
  -2   3  -3  223.28    7.90
  -2   3  -3  224.38    8.10
  -2   3  -3  212.28    8.00
  -2   3  -3  213.78    7.80
  -2   3  -3  215.48    8.00
  -2   3  -3  205.78    8.00
   2  -3   3  212.38    7.90
   2  -3   3  211.88    7.80
   2  -3   3  204.88    8.00
   2  -3   3  212.08    7.80
   2  -3   3  218.38    7.90
   2  -3   3  221.88    7.90
   2  -3   3  212.08    8.00
  -3   3  -3    6.60    1.00
  -3   3  -3    6.10    1.30
  -3   3  -3    7.00    1.10
  -3   3  -3    5.60    0.80
  -3   3  -3    6.50    0.90
   3  -3   3    6.00    0.90
   3  -3   3    4.40    0.90
   3  -3   3    7.70    0.90
  -4   3  -3    2.00    0.80
  -4   3  -3    1.40    0.70
  -4   3  -3    2.30    0.90
  -4   3  -3    1.40    0.70
  -4   3  -3    1.40    1.10
   4  -3   3    1.10    0.60
   4  -3   3    2.90    0.90
   4  -3   3    2.00    0.90
  -5   3  -3    8.00    2.00
  -5   3  -3    7.60    1.30
   5  -3   3    7.40    1.50
   5  -3   3    7.50    1.50
  -6   3  -3    0.80    1.00
  -6   3  -3    2.80    2.00
   6  -3   3   -0.10    1.10
   6  -3   3    0.30    1.10
   6   2  -3    4.20    1.90
   6   2  -3   10.00    2.10
  -6  -2   3   13.10    2.80
  -6  -2   3    7.40    1.40
   5   2  -3   -0.20    1.00
   5   2  -3    2.30    1.10
  -5  -2   3   -1.90    1.40
  -5  -2   3    0.60    0.70
   4   2  -3   -0.20    0.50
   4   2  -3    0.30    0.80
   4   2  -3   -0.30    0.80
  -4  -2   3    1.10    0.60
  -4  -2   3    0.60    0.60
  -4  -2   3    0.20    1.00
  -4  -2   3    0.20    0.60
  -4  -2   3   -0.20    0.60
   3   2  -3  158.88    5.90
   3   2  -3  151.68    6.30
   3   2  -3  149.09    6.30
  -3  -2   3  162.18    6.40
  -3  -2   3  157.98    5.90
  -3  -2   3  146.09    6.10
  -3  -2   3  161.78    6.20
  -3  -2   3  164.08    7.10
   2   2  -3  230.38    8.40
   2   2  -3  243.78    8.40
   2   2  -3  228.68    8.40
   2   2  -3  232.58    8.60
   2   2  -3  241.28    8.40
   2   2  -3  225.38    8.60
  -2  -2   3  237.78    8.60
  -2  -2   3  222.98    8.60
  -2  -2   3  229.18    8.60
  -2  -2   3  224.98    8.40
  -2  -2   3  232.48    8.40
  -2  -2   3  236.88    8.60
  -2  -2   3  234.98    8.40
   1   2  -3  164.98    6.10
   1   2  -3  166.68    6.00
   1   2  -3  167.98    6.20
   1   2  -3  166.78    6.00
   1   2  -3  162.78    6.00
   1   2  -3  169.58    6.00
   1   2  -3  167.58    6.00
   1   2  -3  170.58    6.00
   1   2  -3  162.88    6.00
  -1  -2   3  156.88    6.00
  -1  -2   3  158.68    6.00
  -1  -2   3  168.68    6.10
  -1  -2   3  161.18    6.00
  -1  -2   3  167.18    6.00
  -1  -2   3  160.18    6.20
  -1  -2   3  159.18    6.10
   0   2  -3  667.33   22.80
   0   2  -3  677.73   22.90
   0   2  -3  642.44   22.90
   0   2  -3  668.03   22.90
   0   2  -3  675.23   22.80
   0   2  -3  627.14   23.00
   0  -2   3  643.54   22.90
   0  -2   3  641.94   22.90
   0  -2   3  624.74   22.80
   0  -2   3  662.83   22.80
   0  -2   3  638.04   22.90
   0  -2   3  679.13   23.00
  -1   2  -3 1196.88   41.80
  -1   2  -3 1170.48   41.60
  -1   2  -3 1159.18   41.70
  -1   2  -3 1156.98   41.70
  -1   2  -3 1187.18   41.80
  -1   2  -3 1239.28   41.70
  -1   2  -3 1248.38   41.80
   1  -2   3 1156.88   41.60
   1  -2   3 1226.28   41.80
   1  -2   3 1202.08   41.80
   1  -2   3 1201.98   41.80
   1  -2   3 1201.98   41.50
   1  -2   3 1248.88   41.60
  -2   2  -3  429.56   16.00
  -2   2  -3  446.56   15.90
  -2   2  -3  443.56   16.20
  -2   2  -3  463.05   16.00
  -2   2  -3  460.45   16.00
  -2   2  -3  443.26   16.00
   2  -2   3  470.05   15.90
   2  -2   3  427.56   16.00
   2  -2   3  455.05   15.90
   2  -2   3  432.76   15.70
   2  -2   3  443.96   15.90
  -3   2  -3    1.80    0.60
  -3   2  -3    1.50    0.60
  -3   2  -3    1.10    0.70
  -3   2  -3    2.20    1.00
  -3   2  -3    2.20    0.70
   3  -2   3    1.30    0.70
   3  -2   3    1.20    0.40
   3  -2   3    2.30    0.70
   3  -2   3    1.50    0.70
  -4   2  -3   -0.10    0.60
  -4   2  -3   -1.50    0.60
  -4   2  -3    0.20    1.00
  -4   2  -3    1.30    0.80
   4  -2   3   -0.20    0.70
   4  -2   3    0.50    0.50
   4  -2   3   -0.10    0.70
   4  -2   3    0.20    0.70
  -5   2  -3    1.50    0.90
  -5   2  -3    1.20    1.60
   5  -2   3   -0.40    0.90
   5  -2   3    0.50    1.00
  -6   2  -3    2.30    2.10
  -6   2  -3   -0.70    0.90
   6  -2   3    2.50    1.40
   6  -2   3    2.70    1.30
   6   1  -3    0.30    1.30
   6   1  -3   -0.60    1.20
  -6  -1   3   -0.30    1.80
  -6  -1   3    0.00    0.70
   5   1  -3    2.70    1.20
   5   1  -3   -0.20    1.00
   5   1  -3    2.70    1.20
  -5  -1   3    1.00    0.70
  -5  -1   3    0.60    1.40
   4   1  -3   32.80    2.20
   4   1  -3   34.10    2.40
   4   1  -3   35.60    1.70
   4   1  -3   31.60    2.40
  -4  -1   3   36.70    1.70
  -4  -1   3   37.60    2.70
  -4  -1   3   30.80    1.90
  -4  -1   3   29.10    1.90
   3   1  -3    6.10    0.90
   3   1  -3    7.10    0.70
   3   1  -3    8.30    1.10
   3   1  -3    8.50    0.80
   3   1  -3    6.40    0.60
   3   1  -3    5.50    0.90
  -3  -1   3    6.60    0.80
  -3  -1   3    7.70    1.20
  -3  -1   3    6.40    0.70
  -3  -1   3    5.50    0.70
  -3  -1   3    6.70    0.70
   2   1  -3  300.27   11.00
   2   1  -3  304.87   10.70
   2   1  -3  310.57   10.80
   2   1  -3  299.17   10.70
   2   1  -3  301.77   11.10
  -2  -1   3  303.07   10.80
  -2  -1   3  312.57   10.90
  -2  -1   3  295.57   11.00
  -2  -1   3  302.37   10.80
  -2  -1   3  309.37   10.80
  -2  -1   3  300.77   10.80
   1   1  -3  107.29    4.20
   1   1  -3  110.89    4.00
   1   1  -3  110.29    4.00
   1   1  -3  113.39    4.10
   1   1  -3  112.99    4.00
   1   1  -3  108.79    4.10
   1   1  -3  114.69    4.00
   1   1  -3  116.49    4.00
  -1  -1   3  110.69    4.10
  -1  -1   3  108.19    4.10
  -1  -1   3  103.09    4.00
  -1  -1   3  108.29    4.10
  -1  -1   3  104.79    4.00
  -1  -1   3  107.79    4.00
  -1  -1   3  103.89    4.30
  -1  -1   3  109.09    4.20
  -1  -1   3  106.89    4.00
   0   1  -3  145.89    5.20
   0   1  -3  135.79    5.20
   0   1  -3  140.49    5.20
   0   1  -3  144.79    5.20
   0   1  -3  154.58    5.10
   0   1  -3  127.39    5.20
   0   1  -3  141.99    5.10
   0  -1   3  129.09    5.10
   0  -1   3  140.49    5.20
   0  -1   3  139.89    5.10
   0  -1   3  141.19    5.20
   0  -1   3  138.29    5.20
   0  -1   3  134.79    5.20
  -1   1  -3  801.12   29.00
  -1   1  -3  778.92   29.00
  -1   1  -3  809.52   28.90
  -1   1  -3  817.42   29.00
  -1   1  -3  844.82   28.90
  -1   1  -3  835.92   29.00
  -1   1  -3  848.12   29.10
   1  -1   3  826.72   29.00
   1  -1   3  852.21   29.10
   1  -1   3  834.82   29.00
   1  -1   3  853.61   28.90
   1  -1   3  848.02   28.90
  -2   1  -3   88.49    4.10
  -2   1  -3   93.79    3.90
  -2   1  -3   91.39    3.60
  -2   1  -3   88.99    3.90
  -2   1  -3   94.49    3.70
  -2   1  -3   92.99    3.90
   2  -1   3   88.19    3.60
   2  -1   3  100.69    3.80
   2  -1   3   93.99    3.80
   2  -1   3   92.49    3.50
   2  -1   3  100.59    3.80
  -3   1  -3   68.09    3.20
  -3   1  -3   64.89    3.60
  -3   1  -3   67.59    3.20
  -3   1  -3   62.59    3.10
   3  -1   3   70.59    3.00
   3  -1   3   69.49    3.30
   3  -1   3   64.59    2.60
   3  -1   3   63.89    3.10
  -4   1  -3   12.20    1.50
  -4   1  -3   13.80    1.50
  -4   1  -3   10.30    1.30
  -4   1  -3   11.60    2.00
   4  -1   3   13.00    1.60
   4  -1   3   13.40    1.40
   4  -1   3   16.30    1.90
  -5   1  -3    5.70    1.30
  -5   1  -3    4.80    1.90
   5  -1   3    8.50    1.60
   5  -1   3    5.20    1.50
  -6   1  -3    2.20    1.20
  -6   1  -3    3.00    2.30
   6  -1   3    2.90    1.40
   6  -1   3    1.50    1.40
   6   0  -3    1.80    1.40
   6   0  -3    0.40    1.20
  -6   0   3    0.60    1.80
  -6   0   3    0.50    0.70
   5   0  -3   27.30    2.40
   5   0  -3   37.40    2.80
   5   0  -3   35.40    2.80
  -5   0   3   29.10    1.90
  -5   0   3   35.90    3.10
  -5   0   3   30.90    1.90
   4   0  -3    4.40    1.10
   4   0  -3    5.30    1.20
   4   0  -3    5.10    1.10
  -4   0   3    6.60    1.40
  -4   0   3    5.90    0.80
  -4   0   3    5.20    0.70
   3   0  -3  146.59    5.90
   3   0  -3  149.09    6.00
   3   0  -3  143.79    6.00
  -3   0   3  151.98    6.00
  -3   0   3  149.99    5.30
  -3   0   3  143.59    5.50
  -3   0   3  149.79    5.60
   2   0  -3  186.88    7.60
   2   0  -3  218.38    8.00
   2   0  -3  224.38    8.10
  -2   0   3  208.68    7.60
  -2   0   3  218.38    7.70
  -2   0   3  223.08    7.90
  -2   0   3  230.18    7.70
   1   0  -3  272.97   10.70
   1   0  -3  295.37   10.60
   1   0  -3  312.97   10.60
   1   0  -3  305.07   10.80
   1   0  -3  300.87   10.70
   1   0  -3  300.07   10.60
   1   0  -3  314.97   10.60
   1   0  -3  302.47   10.60
  -1   0   3  282.77   10.60
  -1   0   3  313.27   10.80
  -1   0   3  298.37   10.60
  -1   0   3  318.17   10.80
  -1   0   3  289.57   10.80
  -1   0   3  299.87   10.60
  -1   0   3  307.97   10.70
   0   0  -3    4.60    0.50
   0   0  -3    4.50    0.50
   0   0  -3    5.10    0.70
   0   0  -3    4.20    0.50
   0   0  -3    5.00    0.50
   0   0  -3    3.90    0.50
   0   0   3    4.40    0.50
   0   0   3    4.80    0.50
   0   0   3    4.50    0.50
   0   0   3    4.00    0.50
   0   0   3    5.10    0.60
   0   0   3    4.40    0.60
  -1   0  -3   25.40    1.30
  -1   0  -3   22.50    1.30
  -1   0  -3   21.70    1.40
  -1   0  -3   24.50    1.40
  -1   0  -3   25.10    1.80
  -1   0  -3   21.70    1.40
   1   0   3   22.10    1.30
   1   0   3   24.00    1.10
   1   0   3   24.20    1.30
   1   0   3   24.80    1.40
   1   0   3   23.80    1.30
   1   0   3   23.00    1.30
   1   0   3   24.10    1.50
  -2   0  -3    1.30    0.50
  -2   0  -3    2.30    0.60
  -2   0  -3    1.10    0.70
  -2   0  -3    3.00    0.50
  -2   0  -3   -0.10    0.70
   2   0   3    3.30    0.60
   2   0   3    1.40    0.50
  -3   0  -3   15.40    2.00
  -3   0  -3   14.30    1.50
  -3   0  -3   15.90    1.60
  -3   0  -3   13.40    1.50
  -3   0  -3   14.30    1.40
   3   0   3   17.90    1.80
   3   0   3   15.10    1.50
   3   0   3   14.70    1.40
   3   0   3   15.20    1.40
  -4   0  -3    1.20    1.00
  -4   0  -3    1.70    0.90
  -4   0  -3    1.90    0.80
  -4   0  -3    2.30    1.30
   4   0   3    3.90    1.10
   4   0   3    1.70    0.90
   4   0   3    0.30    0.80
  -5   0  -3    3.20    1.20
  -5   0  -3    5.40    2.10
   5   0   3    3.70    1.30
   5   0   3    4.30    1.20
  -6   0  -3   -1.50    2.10
   6  -1  -3    2.80    1.40
   6  -1  -3    0.60    1.20
   6  -1  -3    2.70    1.40
  -6   1   3    1.60    0.70
  -6   1   3    2.30    1.70
   5  -1  -3    0.40    1.00
   5  -1  -3    0.80    1.00
   5  -1  -3    2.60    1.20
  -5   1   3    4.70    1.30
  -5   1   3    2.20    1.40
  -5   1   3    1.50    0.60
  -5   1   3    1.60    0.60
   4  -1  -3   28.80    2.10
   4  -1  -3   35.40    2.40
   4  -1  -3   31.90    2.20
  -4   1   3   26.00    1.50
  -4   1   3   38.00    2.50
  -4   1   3   29.40    1.60
   3  -1  -3   26.90    1.70
   3  -1  -3   27.50    1.90
   3  -1  -3   24.60    1.70
  -3   1   3   26.70    1.80
   2  -1  -3   67.89    3.10
   2  -1  -3   68.99    3.00
   2  -1  -3   72.29    2.90
   2  -1  -3   69.49    3.00
   1  -1  -3 1236.38   42.90
   1  -1  -3 1195.48   43.10
   1  -1  -3 1317.27   42.90
   1  -1  -3 1175.78   42.90
   1  -1  -3 1259.47   42.90
   1  -1  -3 1257.77   43.10
   1  -1  -3 1216.88   43.10
  -1   1   3 1217.68   42.90
  -1   1   3 1348.27   43.10
  -1   1   3 1173.08   42.90
  -1   1   3 1232.88   42.80
  -1   1   3 1270.97   43.10
  -1   1   3 1253.37   42.90
  -1   1   3 1272.77   43.00
  -1   1   3 1212.78   42.90
  -1   1   3 1188.98   43.10
   0  -1  -3  114.69    4.30
   0  -1  -3  107.39    4.20
   0  -1  -3  104.59    3.90
   0  -1  -3  115.59    4.20
   0  -1  -3  104.59    4.10
   0  -1  -3  108.59    4.20
   0   1   3  103.59    4.10
   0   1   3  107.59    4.30
   0   1   3  104.39    4.20
   0   1   3  112.79    4.20
   0   1   3  110.49    4.00
   0   1   3  109.09    4.20
  -1  -1  -3   36.10    2.00
  -1  -1  -3   38.90    2.00
  -1  -1  -3   37.20    2.00
  -1  -1  -3   40.90    2.00
   1   1   3   39.90    1.60
   1   1   3   38.60    2.10
   1   1   3   40.50    2.00
   1   1   3   37.70    1.90
  -2  -1  -3  106.49    4.70
  -2  -1  -3  110.09    4.50
  -2  -1  -3   98.29    4.40
  -2  -1  -3  109.09    4.50
   2   1   3  101.29    4.20
  -3  -1  -3   46.40    2.70
  -3  -1  -3   45.60    2.70
  -3  -1  -3   43.60    3.10
  -3  -1  -3   46.00    2.60
  -3  -1  -3   44.10    2.60
   3   1   3   42.90    2.50
   3   1   3   45.40    2.40
   3   1   3   44.90    2.50
   3   1   3   47.60    2.70
  -4  -1  -3   -0.50    0.80
  -4  -1  -3    0.30    0.90
  -4  -1  -3   -0.20    1.20
  -4  -1  -3   -1.00    0.70
   4   1   3    0.20    0.90
   4   1   3   -0.40    0.70
   4   1   3    0.00    0.80
  -5  -1  -3    1.20    1.10
  -5  -1  -3    0.50    1.70
   5   1   3    1.00    1.10
   5   1   3    1.50    1.10
   6  -2  -3    0.30    1.10
   6  -2  -3   -1.10    1.00
  -6   2   3    0.70    1.50
   5  -2  -3   18.00    2.20
   5  -2  -3   28.60    2.70
   5  -2  -3   27.30    2.30
  -5   2   3   27.70    2.70
  -5   2   3   28.50    2.30
   4  -2  -3   17.80    1.70
   4  -2  -3   16.90    2.00
   4  -2  -3   16.60    1.80
  -4   2   3   20.50    2.00
   3  -2  -3   30.00    2.00
   3  -2  -3   30.70    1.90
   3  -2  -3   33.90    1.90
   3  -2  -3   31.70    1.90
   2  -2  -3  207.98    7.90
   2  -2  -3  212.68    7.90
   2  -2  -3  205.88    8.00
   2  -2  -3  218.38    7.80
  -2   2   3  209.88    7.90
  -2   2   3  199.08    7.40
  -2   2   3  220.88    7.50
   1  -2  -3   52.69    2.20
   1  -2  -3   49.60    2.10
   1  -2  -3   47.50    2.20
   1  -2  -3   52.49    2.10
   1  -2  -3   45.50    2.10
   1  -2  -3   47.80    2.20
  -1   2   3   50.59    2.10
  -1   2   3   51.39    2.20
  -1   2   3   57.19    2.30
  -1   2   3   47.00    2.20
  -1   2   3   51.19    2.10
  -1   2   3   48.00    2.10
  -1   2   3   52.99    2.00
   0  -2  -3    6.60    0.80
   0  -2  -3    7.40    0.60
   0  -2  -3    4.30    0.70
   0  -2  -3    6.70    0.70
   0  -2  -3    5.70    0.70
   0  -2  -3    7.40    0.80
   0   2   3    6.50    0.80
   0   2   3    5.20    0.70
   0   2   3    5.20    0.70
   0   2   3    5.60    0.80
   0   2   3    7.30    0.80
   0   2   3    6.10    0.60
   0   2   3    6.90    0.50
  -1  -2  -3   46.50    2.40
  -1  -2  -3   45.00    2.20
  -1  -2  -3   48.60    2.30
  -1  -2  -3   48.60    2.30
  -1  -2  -3   43.70    2.30
   1   2   3   44.30    2.20
   1   2   3   39.80    2.30
   1   2   3   42.40    2.20
   1   2   3   44.50    1.90
  -2  -2  -3   73.99    3.40
  -2  -2  -3   72.89    3.30
  -2  -2  -3   77.09    3.50
  -2  -2  -3   69.59    3.40
  -2  -2  -3   68.29    3.60
   2   2   3   68.49    2.90
   2   2   3   65.89    3.20
   2   2   3   60.99    3.20
  -3  -2  -3    4.50    1.10
  -3  -2  -3    5.30    1.10
  -3  -2  -3    2.30    1.30
  -3  -2  -3    4.40    1.20
   3   2   3    3.60    1.00
   3   2   3    3.20    0.90
  -4  -2  -3    4.00    1.10
  -4  -2  -3    6.10    1.50
  -4  -2  -3    4.20    1.20
  -4  -2  -3    2.10    1.50
   4   2   3    3.10    1.10
   4   2   3    5.80    1.10
   4   2   3    3.70    1.20
  -5  -2  -3    1.10    1.10
  -5  -2  -3   -0.10    1.80
   5   2   3    1.50    1.20
   5   2   3    2.80    1.30
   6  -3  -3   -0.40    1.10
   6  -3  -3    1.10    1.20
  -6   3   3    0.00    1.60
   5  -3  -3   11.20    1.70
   5  -3  -3    7.70    1.50
   5  -3  -3   11.40    1.70
  -5   3   3    8.50    1.80
  -5   3   3   12.60    1.90
   4  -3  -3    2.90    0.90
   4  -3  -3   -0.40    0.80
   4  -3  -3    1.80    0.80
   4  -3  -3    1.20    0.80
  -4   3   3    1.60    1.00
   3  -3  -3   52.29    2.60
   3  -3  -3   52.29    2.80
   3  -3  -3   51.99    2.70
   3  -3  -3   47.10    2.60
  -3   3   3   51.49    2.70
   2  -3  -3    0.70    0.50
   2  -3  -3    0.10    0.40
   2  -3  -3    0.40    0.50
  -2   3   3   -0.20    0.20
  -2   3   3    0.10    0.30
  -2   3   3    0.20    0.40
  -2   3   3    0.00    0.20
   1  -3  -3  191.98    7.20
   1  -3  -3  182.18    7.10
   1  -3  -3  188.18    7.10
   1  -3  -3  197.78    7.20
   1  -3  -3  186.58    7.10
   1  -3  -3  194.38    7.10
  -1   3   3  202.98    7.20
  -1   3   3  194.38    7.20
  -1   3   3  185.48    7.10
  -1   3   3  205.38    6.90
  -1   3   3  192.88    7.10
  -1   3   3  189.48    7.20
  -1   3   3  198.98    7.20
   0  -3  -3  176.48    7.00
   0  -3  -3  180.28    6.90
   0  -3  -3  183.98    7.10
   0  -3  -3  200.98    7.10
   0  -3  -3  185.88    7.00
   0  -3  -3  189.48    6.80
   0   3   3  180.38    7.00
   0   3   3  196.28    7.10
   0   3   3  181.18    6.80
   0   3   3  175.28    6.90
   0   3   3  184.78    6.70
   0   3   3  181.38    7.00
  -1  -3  -3    0.10    0.50
  -1  -3  -3    0.00    0.40
  -1  -3  -3   -0.10    0.50
  -1  -3  -3    0.10    0.30
  -1  -3  -3    0.00    0.60
  -1  -3  -3    0.90    0.70
   1   3   3    0.00    0.20
   1   3   3    0.10    0.40
   1   3   3   -0.50    0.30
   1   3   3   -0.20    0.50
   1   3   3    0.20    0.30
  -2  -3  -3    0.40    0.60
  -2  -3  -3   -0.40    0.60
  -2  -3  -3   -0.60    0.80
  -2  -3  -3    0.60    0.80
  -2  -3  -3    0.70    0.60
   2   3   3    0.70    0.50
   2   3   3    0.10    0.50
   2   3   3    0.60    0.60
  -3  -3  -3   20.30    2.40
  -3  -3  -3   26.90    2.40
  -3  -3  -3   20.60    2.10
  -3  -3  -3   20.70    2.00
   3   3   3   20.80    1.60
   3   3   3   21.20    1.90
  -4  -3  -3    1.50    1.00
  -4  -3  -3    2.70    1.60
  -4  -3  -3    1.00    0.90
   4   3   3    2.10    1.00
   4   3   3    1.80    1.10
   4   3   3    1.90    1.00
  -5  -3  -3   -0.50    1.90
  -5  -3  -3   -0.50    1.20
   5   3   3    0.40    1.30
   5   3   3   -0.50    1.10
   6  -4  -3   -0.80    1.00
   6  -4  -3   -0.20    1.10
  -6   4   3    0.00    1.60
   5  -4  -3    4.80    1.40
   5  -4  -3    4.60    1.30
   5  -4  -3    5.20    1.20
  -5   4   3    9.10    1.90
  -5   4   3    4.00    1.60
   4  -4  -3   74.19    3.80
   4  -4  -3   78.59    4.00
   4  -4  -3   77.49    3.80
   4  -4  -3   71.79    3.80
  -4   4   3   77.49    4.00
  -4   4   3   86.09    4.20
   3  -4  -3    2.60    0.90
   3  -4  -3    2.10    0.70
   3  -4  -3    2.40    0.80
  -3   4   3    2.80    0.80
   2  -4  -3    2.80    0.70
   2  -4  -3    2.00    0.50
   2  -4  -3    1.90    0.40
   2  -4  -3    1.60    0.60
  -2   4   3    1.90    0.50
  -2   4   3    2.50    0.50
  -2   4   3    1.80    0.50
  -2   4   3    2.50    0.60
  -2   4   3    2.40    0.40
   1  -4  -3 1030.80   36.40
   1  -4  -3 1064.19   36.60
   1  -4  -3 1034.00   36.40
   1  -4  -3 1025.10   36.40
   1  -4  -3 1016.50   36.50
   1  -4  -3 1042.50   36.50
  -1   4   3 1045.40   36.40
  -1   4   3 1098.99   36.60
  -1   4   3 1080.99   36.10
  -1   4   3 1006.30   36.40
  -1   4   3 1022.00   36.50
   0  -4  -3   21.00    1.60
   0  -4  -3   18.30    1.40
   0  -4  -3   17.20    1.20
   0  -4  -3   22.00    1.50
   0  -4  -3   18.10    1.70
   0   4   3   24.40    1.50
   0   4   3   18.20    1.50
   0   4   3   20.90    1.50
   0   4   3   19.00    1.40
   0   4   3   18.30    1.10
  -1  -4  -3    0.00    0.80
  -1  -4  -3    0.00    0.50
  -1  -4  -3    0.20    0.30
  -1  -4  -3   -0.20    0.50
  -1  -4  -3    0.00    0.50
  -1  -4  -3    0.40    0.70
   1   4   3    1.00    0.60
   1   4   3   -0.10    0.50
   1   4   3    0.50    0.50
   1   4   3    0.60    0.30
  -2  -4  -3    3.70    1.20
  -2  -4  -3    4.60    1.00
  -2  -4  -3    3.10    1.30
  -2  -4  -3    5.10    1.10
  -2  -4  -3    5.90    1.20
   2   4   3    4.80    1.10
   2   4   3    5.00    0.70
   2   4   3    6.10    1.10
  -3  -4  -3   12.30    2.00
  -3  -4  -3   19.60    2.40
  -3  -4  -3   14.40    1.80
  -3  -4  -3   16.50    1.80
   3   4   3   15.20    1.50
   3   4   3   15.20    1.70
  -4  -4  -3    3.50    1.80
  -4  -4  -3    2.30    1.10
  -4  -4  -3    0.10    1.10
   4   4   3    2.00    1.10
   4   4   3    0.40    0.80
   4   4   3    1.70    1.20
  -5  -4  -3    2.10    2.40
  -5  -4  -3    1.10    1.30
   5   4   3    0.60    1.20
   6  -5  -3    0.10    1.20
   6  -5  -3   -1.40    1.00
  -6   5   3   -0.40    1.50
  -6   5   3    2.60    1.40
   5  -5  -3    9.40    1.60
   5  -5  -3    7.50    1.50
   5  -5  -3    9.70    1.50
  -5   5   3   11.10    2.10
  -5   5   3    7.10    1.80
  -5   5   3    9.70    1.70
   4  -5  -3    1.50    0.90
   4  -5  -3    1.30    0.80
  -4   5   3    2.40    1.30
  -4   5   3    0.60    0.90
   3  -5  -3   48.40    2.70
   3  -5  -3   48.30    2.40
   3  -5  -3   48.20    1.90
  -3   5   3   51.69    2.20
  -3   5   3   45.20    2.10
  -3   5   3   46.20    2.90
  -3   5   3   48.10    2.50
   2  -5  -3  197.58    7.50
   2  -5  -3  204.88    7.60
   2  -5  -3  202.08    8.00
  -2   5   3  206.28    7.70
  -2   5   3  200.28    7.60
  -2   5   3  191.18    7.70
  -2   5   3  208.38    7.60
  -2   5   3  207.78    8.20
  -2   5   3  224.88    7.80
   1  -5  -3   18.50    1.30
   1  -5  -3   17.90    1.30
   1  -5  -3   22.00    1.70
   1  -5  -3   16.90    1.40
   1  -5  -3   19.70    1.30
  -1   5   3   19.00    0.90
  -1   5   3   20.40    1.50
  -1   5   3   19.80    1.40
  -1   5   3   21.00    1.40
  -1   5   3   21.00    1.40
  -1   5   3   21.70    1.70
   0  -5  -3    8.30    1.20
   0  -5  -3    7.90    1.00
   0  -5  -3    8.50    1.10
   0  -5  -3    9.90    1.00
   0  -5  -3    8.40    1.30
   0   5   3    8.60    1.10
   0   5   3    8.30    1.10
   0   5   3    6.10    1.00
   0   5   3   10.50    1.30
   0   5   3    8.30    1.10
   0   5   3    7.90    0.80
  -1  -5  -3   80.39    3.90
  -1  -5  -3   79.19    3.20
  -1  -5  -3   75.39    3.90
  -1  -5  -3   77.59    4.00
  -1  -5  -3   76.99    3.70
   1   5   3   74.99    3.70
   1   5   3   77.59    3.40
   1   5   3   83.59    3.90
  -2  -5  -3   34.20    2.40
  -2  -5  -3   33.50    2.50
  -2  -5  -3   30.90    2.70
  -2  -5  -3   35.80    2.90
   2   5   3   29.80    2.30
   2   5   3   32.00    1.70
   2   5   3   32.70    2.50
  -3  -5  -3    5.50    1.80
  -3  -5  -3    4.20    1.30
  -3  -5  -3    5.50    1.40
   3   5   3    5.10    1.00
   3   5   3    5.60    1.40
  -4  -5  -3    6.00    1.60
  -4  -5  -3    6.50    2.20
  -4  -5  -3    9.40    1.70
   4   5   3    6.70    1.60
   4   5   3    5.60    1.60
   6  -6  -3    0.00    1.20
   6  -6  -3    0.30    0.90
  -6   6   3    0.70    1.50
  -6   6   3   -0.60    1.50
   5  -6  -3    1.40    1.10
   5  -6  -3    2.60    1.20
  -5   6   3    2.00    1.10
  -5   6   3    2.70    1.60
   4  -6  -3   33.10    2.20
   4  -6  -3   28.00    2.30
  -4   6   3   35.00    2.40
  -4   6   3   35.50    2.90
   3  -6  -3   26.00    1.30
   3  -6  -3   24.40    2.00
   3  -6  -3   23.20    1.70
  -3   6   3   24.60    1.40
  -3   6   3   26.30    1.30
  -3   6   3   25.70    1.60
  -3   6   3   26.40    1.80
  -3   6   3   29.60    1.60
  -3   6   3   26.60    2.40
   2  -6  -3    6.90    0.80
   2  -6  -3    5.90    1.10
   2  -6  -3    4.80    0.70
  -2   6   3    6.50    0.80
  -2   6   3    6.40    0.90
  -2   6   3    5.80    0.90
  -2   6   3    8.70    1.50
  -2   6   3    7.40    1.00
   1  -6  -3   11.00    1.50
   1  -6  -3   11.90    1.30
   1  -6  -3    9.50    1.00
   1  -6  -3   10.90    1.20
  -1   6   3    9.50    1.20
  -1   6   3    9.60    1.10
  -1   6   3   13.40    1.70
  -1   6   3    9.30    1.20
  -1   6   3   10.40    1.20
   0  -6  -3   57.59    3.10
   0  -6  -3   54.99    2.90
   0  -6  -3   55.59    2.70
   0  -6  -3   60.79    3.30
   0   6   3   54.59    3.00
   0   6   3   55.19    2.90
   0   6   3   60.89    3.20
   0   6   3   62.19    3.20
   0   6   3   53.79    3.00
  -1  -6  -3   10.00    1.10
  -1  -6  -3    7.90    1.30
  -1  -6  -3    6.80    1.40
  -1  -6  -3    6.50    1.50
   1   6   3   11.20    1.60
   1   6   3    6.80    1.30
   1   6   3    8.40    1.40
  -2  -6  -3    2.50    1.40
  -2  -6  -3   -2.20    0.90
  -2  -6  -3    0.90    0.90
   2   6   3    1.20    1.00
   2   6   3   -0.50    0.50
   2   6   3   -1.60    0.90
  -3  -6  -3    7.90    1.60
  -3  -6  -3    4.70    1.90
  -3  -6  -3    6.60    1.60
   3   6   3    6.40    1.60
  -4  -6  -3    3.00    1.50
  -4  -6  -3   -0.90    2.00
  -4  -6  -3    2.20    1.40
   4   6   3    0.90    1.20
   6  -7  -3    2.00    1.30
   6  -7  -3    0.80    1.20
  -6   7   3    0.50    1.60
  -6   7   3    3.20    2.10
   5  -7  -3    6.00    1.50
   5  -7  -3    2.60    1.20
  -5   7   3    6.70    2.10
   4  -7  -3   25.50    2.00
   4  -7  -3   25.20    2.20
  -4   7   3   22.40    1.60
  -4   7   3   25.90    2.10
  -4   7   3   24.70    1.60
  -4   7   3   26.50    2.70
   3  -7  -3    1.60    0.70
   3  -7  -3    1.50    0.50
   3  -7  -3    0.80    0.80
  -3   7   3   -0.20    1.10
  -3   7   3    1.00    0.60
  -3   7   3    1.40    0.60
  -3   7   3    1.40    0.70
  -3   7   3    0.60    0.50
   2  -7  -3   25.30    1.50
   2  -7  -3   22.40    1.60
   2  -7  -3   22.50    1.60
   2  -7  -3   16.60    1.80
  -2   7   3   24.30    1.80
  -2   7   3   22.40    1.60
  -2   7   3   23.00    1.60
  -2   7   3   23.90    2.20
  -2   7   3   23.40    1.70
   1  -7  -3  206.08    8.50
   1  -7  -3  195.78    8.00
   1  -7  -3  197.48    8.00
  -1   7   3  210.28    8.00
  -1   7   3  206.98    8.40
  -1   7   3  204.98    8.30
  -1   7   3  206.08    7.90
  -1   7   3  219.38    8.30
   0  -7  -3    1.50    1.40
   0  -7  -3    3.30    1.00
   0  -7  -3    3.00    0.80
   0  -7  -3    3.30    1.00
   0   7   3    4.60    1.20
   0   7   3    2.30    1.20
   0   7   3    2.40    0.90
  -1  -7  -3  147.39    6.40
  -1  -7  -3  153.98    6.60
  -1  -7  -3  138.69    6.70
  -1  -7  -3  138.79    5.70
   1   7   3  145.39    6.10
   1   7   3  147.09    6.60
   1   7   3  141.89    6.30
  -2  -7  -3    8.60    1.90
  -2  -7  -3    9.90    1.80
  -2  -7  -3    9.50    1.80
   2   7   3    6.80    1.50
  -3  -7  -3    2.50    1.90
  -3  -7  -3    0.70    1.30
  -3  -7  -3    2.00    1.30
   3   7   3    3.10    1.40
  -4  -7  -3    2.30    1.40
  -4  -7  -3    0.50    1.40
  -4  -7  -3    1.80    2.30
   4   7   3    0.00    1.40
   6  -8  -3    2.80    1.40
   6  -8  -3    1.00    1.10
  -6   8   3    0.90    1.90
   5  -8  -3    4.80    1.30
   5  -8  -3    2.20    1.20
  -5   8   3    2.10    1.70
   4  -8  -3    1.60    1.00
   4  -8  -3    2.20    0.90
  -4   8   3    2.50    1.60
  -4   8   3    2.10    0.80
  -4   8   3    0.90    0.70
   3  -8  -3   26.80    1.70
   3  -8  -3   25.40    2.20
   3  -8  -3   29.00    1.80
  -3   8   3   29.40    1.80
  -3   8   3   29.20    2.70
  -3   8   3   33.20    2.00
  -3   8   3   28.20    1.80
  -3   8   3   31.20    2.00
   2  -8  -3   -0.40    0.60
   2  -8  -3   -0.40    0.80
  -2   8   3   -0.90    0.50
  -2   8   3   -0.40    0.70
  -2   8   3   -1.20    1.00
  -2   8   3   -0.50    0.50
  -2   8   3   -0.20    0.60
   1  -8  -3   11.70    2.00
   1  -8  -3   13.60    1.50
   1  -8  -3   14.40    1.60
  -1   8   3   11.90    1.40
  -1   8   3   16.60    1.50
  -1   8   3   14.90    2.10
  -1   8   3   11.90    1.70
   0  -8  -3   79.09    4.60
   0  -8  -3   80.09    4.10
   0  -8  -3   82.39    3.70
   0  -8  -3   74.19    4.10
   0   8   3   79.39    4.20
   0   8   3   76.89    4.30
   0   8   3   81.79    4.00
  -1  -8  -3    5.00    1.30
  -1  -8  -3    6.00    1.00
  -1  -8  -3    3.60    1.30
  -1  -8  -3    4.20    1.80
   1   8   3    3.00    1.20
   1   8   3    5.80    1.40
   1   8   3    2.00    1.10
  -2  -8  -3    0.80    1.30
  -2  -8  -3   -1.20    0.90
  -2  -8  -3    0.70    1.50
   2   8   3   -1.00    0.90
  -3  -8  -3    0.30    1.20
  -3  -8  -3   -1.50    1.10
  -3  -8  -3   -0.10    1.70
   3   8   3   -0.20    1.20
   6  -9  -3    0.20    1.20
   6  -9  -3    3.10    1.30
  -6   9   3    1.90    2.20
   5  -9  -3    1.70    1.20
   5  -9  -3    0.80    1.10
  -5   9   3    1.50    0.70
  -5   9   3    1.10    1.90
   4  -9  -3   16.10    2.10
   4  -9  -3   19.60    1.90
  -4   9   3   18.40    2.90
  -4   9   3   14.40    1.70
   3  -9  -3    0.90    0.60
   3  -9  -3    0.70    0.90
  -3   9   3    1.90    0.80
  -3   9   3    0.40    0.60
  -3   9   3   -1.30    1.20
   2  -9  -3    0.30    0.70
   2  -9  -3   -0.30    0.60
  -2   9   3    0.50    0.60
  -2   9   3    0.20    1.10
  -2   9   3   -0.50    0.70
  -2   9   3    0.80    0.70
   1  -9  -3    7.20    1.20
   1  -9  -3    9.70    1.40
  -1   9   3   10.00    2.00
  -1   9   3   10.30    1.40
  -1   9   3   10.10    1.60
   0  -9  -3    8.00    2.00
   0  -9  -3    7.40    1.40
   0  -9  -3    5.40    1.10
   0   9   3    6.80    1.50
   0   9   3    5.10    1.30
   0   9   3    5.80    1.60
  -1  -9  -3    0.50    1.70
  -1  -9  -3    0.90    1.10
  -1  -9  -3    0.10    0.80
   1   9   3   -0.90    0.90
   1   9   3    1.10    1.10
   1   9   3    0.30    1.00
  -2  -9  -3    0.20    1.30
  -2  -9  -3    1.00    1.70
   2   9   3    0.20    1.10
  -3  -9  -3    2.30    1.50
  -3  -9  -3    4.30    2.40
   3   9   3    1.90    1.50
   5 -10  -3    1.10    1.00
   5 -10  -3    1.10    1.10
  -5  10   3    0.20    0.80
  -5  10   3    0.10    1.80
   4 -10  -3    2.50    1.20
  -4  10   3    1.50    1.70
  -4  10   3   -0.10    0.70
   3 -10  -3    0.00    0.70
   3 -10  -3    0.40    0.90
  -3  10   3    0.70    0.70
  -3  10   3   -0.40    0.70
  -3  10   3   -0.90    1.30
   2 -10  -3   17.00    2.10
   2 -10  -3   18.60    1.90
  -2  10   3   17.20    2.10
  -2  10   3   19.60    2.80
  -2  10   3   17.40    1.80
   1 -10  -3    2.00    1.00
   1 -10  -3    2.20    1.10
  -1  10   3    2.70    1.10
  -1  10   3    3.20    1.30
  -1  10   3    3.70    1.70
   0 -10  -3   -0.60    1.80
   0 -10  -3    3.00    1.20
   0 -10  -3    2.00    0.90
   0  10   3    2.00    1.40
   0  10   3    2.30    1.20
   0  10   3    3.00    1.20
  -1 -10  -3   26.00    3.50
  -1 -10  -3   26.70    2.70
   1  10   3   21.00    2.50
  -2 -10  -3    1.30    1.30
  -2 -10  -3   -1.20    2.00
   2  10   3    1.40    1.50
  -3 -10  -3    1.50    2.60
   5 -11  -3   -0.30    1.10
  -5  11   3    0.60    2.10
  -5  11   3    1.20    0.90
   4 -11  -3   -1.40    0.80
  -4  11   3   -0.30    0.80
  -4  11   3   -0.70    1.60
   3 -11  -3    0.80    0.80
   3 -11  -3    1.40    1.10
   3 -11  -3    1.80    0.80
  -3  11   3    2.50    0.90
  -3  11   3    2.40    1.70
  -3  11   3    2.20    1.10
  -3  11   3    3.00    0.90
   2 -11  -3   -0.50    0.80
   2 -11  -3    0.20    0.90
  -2  11   3    2.80    1.10
  -2  11   3    1.40    1.60
  -2  11   3   -0.60    0.90
   1 -11  -3   -0.20    0.80
   1 -11  -3   -0.10    0.90
  -1  11   3   -0.10    1.50
  -1  11   3   -1.10    1.00
  -1  11   3    0.40    1.00
   0 -11  -3    4.00    2.30
   0 -11  -3    4.70    1.20
   0 -11  -3    3.00    1.40
   0  11   3    2.80    1.50
   0  11   3    3.70    1.80
   0  11   3    2.00    1.30
  -1 -11  -3   -1.70    2.20
  -1 -11  -3   -0.60    1.40
   1  11   3    1.30    1.40
  -2 -11  -3    0.80    2.60
  -2 -11  -3    1.50    1.50
   2  11   3    3.00    1.60
   5 -12  -3    1.10    1.30
  -5  12   3    1.20    2.30
  -5  12   3   -0.30    0.80
   4 -12  -3    2.10    1.20
  -4  12   3   -2.30    1.70
  -4  12   3   -0.50    0.90
   3 -12  -3    1.20    1.20
   3 -12  -3   -0.40    0.80
   3 -12  -3    0.30    0.80
  -3  12   3   -1.20    0.90
  -3  12   3    1.70    1.00
  -3  12   3    1.40    1.90
  -3  12   3    0.90    0.90
   2 -12  -3    0.40    1.10
   2 -12  -3    0.90    1.00
  -2  12   3    1.10    1.20
  -2  12   3   -1.20    1.50
  -2  12   3    0.00    0.90
   1 -12  -3    4.60    1.30
   1 -12  -3    3.70    1.40
  -1  12   3    4.40    1.50
  -1  12   3    4.80    2.10
  -1  12   3    4.50    1.60
   0 -12  -3    0.10    1.20
   0 -12  -3   -1.20    1.00
   0 -12  -3   -3.90    1.80
   0  12   3    0.00    1.60
   0  12   3   -0.70    1.20
   0  12   3   -0.40    1.40
  -1 -12  -3   -1.10    1.40
  -1 -12  -3   -2.40    2.30
   1  12   3    0.70    1.30
   4 -13  -3    1.20    1.30
  -4  13   3   -1.10    2.00
  -4  13   3    0.50    1.10
   3 -13  -3    0.40    1.10
  -3  13   3    1.60    2.10
  -3  13   3   -0.30    1.20
   2 -13  -3    8.20    1.70
   2 -13  -3    6.30    1.60
  -2  13   3    5.90    1.60
  -2  13   3    8.50    2.60
  -2  13   3    6.00    1.70
   1 -13  -3    2.90    1.40
   1 -13  -3    4.50    1.50
  -1  13   3    3.10    1.50
  -1  13   3    3.50    1.50
  -1  13   3    4.70    2.40
   0 -13  -3   -0.90    2.40
   0 -13  -3    0.70    1.50
   0  13   3    0.50    1.40
   3 -14  -3    2.40    1.50
  -3  14   3    1.70    1.40
  -3  14   3   -0.50    2.10
   2 -14  -3    2.60    1.40
   2 -14  -3    1.20    1.20
  -2  14   3    1.40    1.60
  -2  14   3   -1.50    2.00
  -2  14   3    1.40    1.40
   1 -14  -3    0.30    1.20
   1 -14  -3    0.00    1.40
  -1  14   3   -0.60    1.30
  -1  14   3   -0.30    1.30
  -1  14   3   -1.40    1.90
   0  16  -4    2.80    1.70
   0  16  -4    5.20    2.30
   0 -16   4    2.60    1.50
  -1  16  -4    0.80    2.20
  -1  16  -4   -0.20    1.50
  -1  16  -4    0.20    1.30
   1 -16   4    0.30    1.40
   1 -16   4    0.90    1.40
   1 -16   4    1.30    1.60
  -2  16  -4    0.60    2.30
  -2  16  -4    0.20    1.40
  -2  16  -4   -0.50    1.20
  -2  16  -4   -0.70    1.20
   2 -16   4    0.60    1.30
   2 -16   4   -0.10    1.40
   2 -16   4    1.60    1.60
  -3  16  -4    0.50    2.30
  -3  16  -4    1.00    1.30
   3 -16   4    0.40    1.50
   1  15  -4    1.70    1.60
   1  15  -4    1.80    1.70
  -1 -15   4   -1.60    1.50
  -1 -15   4   -0.20    1.60
   0  15  -4    3.70    1.70
   0  15  -4    9.70    2.80
   0  15  -4    4.20    1.70
   0 -15   4    7.50    1.90
   0 -15   4    9.80    2.20
   0 -15   4    6.80    1.70
  -1  15  -4    0.60    1.20
  -1  15  -4   -0.70    2.00
  -1  15  -4   -0.20    1.10
  -1  15  -4    1.20    1.40
   1 -15   4    1.20    1.30
   1 -15   4    0.30    1.40
   1 -15   4    0.00    1.30
  -2  15  -4   -0.40    1.10
  -2  15  -4   -0.60    1.00
  -2  15  -4   -0.70    1.10
  -2  15  -4   -1.50    1.90
   2 -15   4   -1.10    1.10
   2 -15   4   -1.10    1.10
   2 -15   4   -0.60    1.10
  -3  15  -4    2.60    2.30
  -3  15  -4    0.90    1.00
  -3  15  -4   -0.30    1.00
   3 -15   4    1.70    1.30
   3 -15   4    1.00    1.20
  -4  15  -4    4.00    2.70
  -4  15  -4    0.50    1.10
   4 -15   4    0.70    1.40
   2  14  -4    3.00    1.70
   2  14  -4    0.30    1.50
  -2 -14   4   -0.70    1.50
  -2 -14   4    1.20    2.70
  -2 -14   4    3.10    1.90
   1  14  -4    5.40    1.70
   1  14  -4    8.20    2.50
   1  14  -4    6.90    1.90
  -1 -14   4    9.30    2.20
  -1 -14   4    5.90    1.90
  -1 -14   4   11.80    3.00
  -1 -14   4    6.00    1.60
   0  14  -4    2.00    1.30
   0  14  -4    2.70    1.50
   0  14  -4    1.00    1.80
   0 -14   4   -0.50    1.20
   0 -14   4    1.20    1.20
   0 -14   4   -1.20    1.10
  -1  14  -4   -0.10    1.00
  -1  14  -4    2.40    1.40
  -1  14  -4    0.80    1.10
  -1  14  -4    1.50    1.90
   1 -14   4   -0.30    1.00
   1 -14   4    1.60    1.20
   1 -14   4   -1.90    1.10
  -2  14  -4    0.70    1.10
  -2  14  -4    0.00    1.00
  -2  14  -4    0.20    1.10
  -2  14  -4    1.00    1.90
   2 -14   4   -0.40    1.00
   2 -14   4   -0.40    1.10
   2 -14   4    1.90    1.20
  -3  14  -4    2.30    2.00
  -3  14  -4    2.50    1.20
  -3  14  -4    1.10    1.10
   3 -14   4    1.10    1.10
   3 -14   4    2.00    1.40
  -4  14  -4    0.70    2.10
  -4  14  -4    0.70    1.00
   4 -14   4   -1.40    1.10
   2  13  -4    4.60    1.80
   2  13  -4    2.20    1.70
  -2 -13   4    2.20    1.70
  -2 -13   4    3.90    1.60
  -2 -13   4    3.70    2.50
   1  13  -4   -0.20    1.10
   1  13  -4   -1.10    1.00
   1  13  -4    1.50    1.70
  -1 -13   4    0.10    1.30
  -1 -13   4    0.20    1.00
  -1 -13   4   -1.90    1.10
  -1 -13   4   -1.00    1.90
   0  13  -4   16.70    2.70
   0  13  -4    9.30    1.70
   0  13  -4   13.00    2.10
   0  13  -4   10.00    2.00
   0 -13   4    7.50    1.70
   0 -13   4   11.30    1.80
   0 -13   4   10.30    1.90
  -1  13  -4    1.90    1.20
  -1  13  -4    2.80    1.80
  -1  13  -4    3.40    1.30
  -1  13  -4    3.70    1.30
   1 -13   4    1.20    1.20
   1 -13   4    1.70    1.10
   1 -13   4    2.70    1.20
  -2  13  -4   19.10    2.20
  -2  13  -4   15.00    2.10
  -2  13  -4   20.30    3.10
  -2  13  -4   17.80    2.10
   2 -13   4   16.80    2.10
   2 -13   4   16.10    2.10
   2 -13   4   19.70    2.40
  -3  13  -4    9.10    1.80
  -3  13  -4   12.50    2.70
  -3  13  -4   11.90    1.60
   3 -13   4   15.40    1.70
   3 -13   4   14.10    1.80
   3 -13   4   16.30    2.30
  -4  13  -4    1.50    1.00
  -4  13  -4    2.20    2.00
   4 -13   4    1.00    1.00
   4 -13   4    1.50    1.20
  -5  13  -4    0.50    0.80
  -5  13  -4    2.60    2.50
   5 -13   4    1.50    1.20
   5 -13   4   -0.60    1.00
   3  12  -4    2.40    1.60
   3  12  -4    6.20    1.80
  -3 -12   4    2.00    2.60
  -3 -12   4    0.70    2.50
  -3 -12   4    6.20    2.00
  -3 -12   4    5.00    1.70
   2  12  -4    0.20    1.30
   2  12  -4    1.90    1.30
  -2 -12   4   -1.90    1.20
  -2 -12   4   -0.10    1.00
  -2 -12   4   -0.30    1.10
  -2 -12   4   -1.40    2.00
  -2 -12   4   -0.60    2.00
   1  12  -4    7.70    1.60
   1  12  -4   12.40    2.30
   1  12  -4    6.80    1.70
  -1 -12   4   10.10    2.40
  -1 -12   4    7.30    1.70
  -1 -12   4    5.30    1.30
  -1 -12   4    5.00    1.50
   0  12  -4    1.60    1.20
   0  12  -4    0.30    1.10
   0  12  -4   -0.80    1.00
   0  12  -4    1.00    1.40
   0 -12   4   -0.30    1.10
   0 -12   4    1.00    1.20
   0 -12   4    0.30    1.00
  -1  12  -4    0.90    1.10
  -1  12  -4    0.30    1.00
  -1  12  -4   -1.30    1.30
  -1  12  -4    0.10    0.90
   1 -12   4   -0.10    0.90
   1 -12   4    0.10    0.90
   1 -12   4    0.50    1.00
  -2  12  -4    1.90    1.00
  -2  12  -4   -0.60    1.50
  -2  12  -4    2.80    1.10
   2 -12   4    1.80    1.10
   2 -12   4    0.80    1.00
   2 -12   4    1.40    0.90
   2 -12   4   -0.50    0.90
  -3  12  -4    7.20    1.50
  -3  12  -4    9.70    1.50
  -3  12  -4   11.70    2.60
   3 -12   4   14.50    1.60
   3 -12   4   10.20    1.80
   3 -12   4    9.50    1.50
  -4  12  -4    4.90    2.20
  -4  12  -4    0.80    0.90
   4 -12   4   -0.50    0.90
   4 -12   4    2.90    1.00
  -5  12  -4    1.40    2.10
  -5  12  -4    0.10    0.90
   5 -12   4    1.10    1.10
   5 -12   4    0.40    1.00
   3  11  -4    3.70    1.50
   3  11  -4    0.90    1.40
  -3 -11   4    2.50    1.50
  -3 -11   4    1.70    2.30
  -3 -11   4    3.80    1.50
  -3 -11   4    2.20    1.50
   2  11  -4    7.70    1.80
   2  11  -4    3.90    1.40
   2  11  -4    7.60    1.60
  -2 -11   4    6.80    1.30
  -2 -11   4    5.50    1.50
  -2 -11   4    6.20    2.30
  -2 -11   4    4.60    1.50
  -2 -11   4    6.10    1.50
   1  11  -4   48.10    3.60
   1  11  -4   50.59    3.30
   1  11  -4   60.79    3.80
   1  11  -4   51.29    3.40
  -1 -11   4   50.69    3.50
  -1 -11   4   56.19    4.10
  -1 -11   4   52.99    3.20
  -1 -11   4   48.60    3.60
  -1 -11   4   51.49    3.40
   0  11  -4    5.20    1.70
   0  11  -4    5.00    1.30
   0  11  -4    3.60    1.30
   0  11  -4    4.60    1.30
   0 -11   4    5.90    0.90
   0 -11   4    3.40    1.20
   0 -11   4    3.50    1.20
   0 -11   4    4.50    1.40
   0 -11   4    3.70    1.20
  -1  11  -4   37.30    3.10
  -1  11  -4   34.90    2.70
  -1  11  -4   32.60    2.50
  -1  11  -4   33.90    2.70
   1 -11   4   35.30    2.60
   1 -11   4   34.50    2.70
   1 -11   4   34.30    2.50
  -2  11  -4    5.80    1.30
  -2  11  -4    5.40    1.70
  -2  11  -4    4.00    1.10
   2 -11   4    3.70    1.30
   2 -11   4    4.10    1.20
   2 -11   4    7.80    1.20
  -3  11  -4    0.90    0.80
  -3  11  -4    0.30    1.40
  -3  11  -4    1.50    0.90
   3 -11   4    0.70    0.80
   3 -11   4    2.20    0.90
   3 -11   4    0.30    0.90
  -4  11  -4    2.70    1.90
  -4  11  -4    2.40    1.00
   4 -11   4    4.60    1.20
   4 -11   4    2.60    1.20
  -5  11  -4   -2.20    1.70
  -5  11  -4   -0.80    0.70
   5 -11   4    1.20    1.10
   5 -11   4    1.10    1.20
   4  10  -4    0.40    1.30
   4  10  -4    1.10    1.50
   4  10  -4    0.00    1.30
  -4 -10   4    0.70    1.30
  -4 -10   4    0.50    1.30
  -4 -10   4    0.30    1.20
  -4 -10   4   -1.60    2.00
   3  10  -4   16.30    2.20
   3  10  -4   23.80    2.60
   3  10  -4   25.90    2.60
  -3 -10   4   25.90    3.50
  -3 -10   4   25.90    2.60
  -3 -10   4   21.50    2.70
  -3 -10   4   23.60    2.50
   2  10  -4    0.20    1.10
   2  10  -4    0.70    1.10
   2  10  -4    1.00    1.20
  -2 -10   4    1.10    1.00
  -2 -10   4    1.00    1.60
  -2 -10   4   -1.30    1.10
  -2 -10   4    1.00    0.90
  -2 -10   4    3.10    1.30
   1  10  -4    1.60    1.10
   1  10  -4    1.80    1.10
   1  10  -4    4.80    1.50
   1  10  -4    1.70    1.10
  -1 -10   4    4.60    1.70
  -1 -10   4    2.70    1.10
  -1 -10   4    3.70    1.10
  -1 -10   4    0.80    1.00
  -1 -10   4    1.20    1.10
   0  10  -4   69.09    4.00
   0  10  -4   73.59    4.00
   0  10  -4   65.09    3.60
   0  10  -4   73.99    3.80
   0 -10   4   65.29    3.70
   0 -10   4   67.59    3.60
   0 -10   4   68.89    3.80
   0 -10   4   61.89    3.60
   0 -10   4   71.29    3.10
  -1  10  -4    3.80    1.10
  -1  10  -4    3.90    1.00
  -1  10  -4    3.40    1.40
  -1  10  -4    3.00    1.00
   1 -10   4    4.40    1.00
   1 -10   4    4.10    1.10
   1 -10   4    1.90    1.00
  -2  10  -4   -0.50    1.10
  -2  10  -4   -0.20    0.60
  -2  10  -4    0.10    0.70
   2 -10   4   -0.70    0.70
   2 -10   4    0.00    0.80
   2 -10   4    0.60    0.70
  -3  10  -4    0.70    0.80
  -3  10  -4    2.20    0.80
  -3  10  -4   -0.50    1.10
   3 -10   4    2.10    0.90
   3 -10   4    1.70    0.80
   3 -10   4    2.80    1.00
  -4  10  -4   10.50    1.50
  -4  10  -4   14.60    2.60
   4 -10   4   13.40    1.50
   4 -10   4   11.60    1.70
   4 -10   4   15.20    1.90
  -5  10  -4   -0.20    1.80
  -5  10  -4    0.70    0.90
   5 -10   4    1.30    1.10
   5 -10   4    0.40    0.90
   4   9  -4    3.80    1.50
   4   9  -4    2.60    1.60
   4   9  -4    2.90    1.50
  -4  -9   4    6.50    1.60
  -4  -9   4    5.30    2.30
  -4  -9   4    7.30    1.80
  -4  -9   4    4.90    1.70
   3   9  -4   -0.30    1.10
   3   9  -4    2.10    1.20
   3   9  -4    0.80    1.00
  -3  -9   4   -0.20    1.60
  -3  -9   4    1.50    1.20
  -3  -9   4    0.70    1.10
  -3  -9   4    0.80    1.10
   2   9  -4    0.80    1.10
   2   9  -4    2.10    1.00
   2   9  -4    1.70    1.00
  -2  -9   4    1.40    1.00
  -2  -9   4    0.20    1.00
  -2  -9   4   -0.20    0.80
  -2  -9   4    3.80    1.50
   1   9  -4    3.10    1.10
   1   9  -4    3.10    1.00
   1   9  -4    1.30    1.10
   1   9  -4    3.40    1.00
  -1  -9   4    2.90    1.40
  -1  -9   4    2.50    1.00
  -1  -9   4    3.40    1.10
  -1  -9   4    2.90    1.10
   0   9  -4    4.20    1.00
   0   9  -4    5.80    1.20
   0   9  -4    6.30    1.20
   0   9  -4    7.70    1.60
   0  -9   4    8.30    1.30
   0  -9   4    9.20    1.00
   0  -9   4    4.30    1.20
   0  -9   4    7.00    1.40
   0  -9   4    9.10    1.30
  -1   9  -4    4.70    1.30
  -1   9  -4    4.60    1.10
  -1   9  -4    4.80    1.00
  -1   9  -4    5.90    1.10
  -1   9  -4    5.50    1.00
   1  -9   4    7.70    1.20
   1  -9   4    5.80    1.00
   1  -9   4    6.10    1.10
   1  -9   4    6.30    1.10
  -2   9  -4    9.90    1.80
  -2   9  -4    8.20    1.20
  -2   9  -4    7.50    1.10
  -2   9  -4    7.30    1.20
   2  -9   4    9.00    1.20
   2  -9   4   10.00    1.30
   2  -9   4    9.10    1.30
  -3   9  -4    0.00    1.20
  -3   9  -4    0.20    0.70
  -3   9  -4    0.80    0.60
   3  -9   4    0.80    0.70
   3  -9   4    0.90    0.80
   3  -9   4    0.80    0.80
  -4   9  -4   -0.60    0.80
  -4   9  -4    0.60    0.70
  -4   9  -4    0.40    1.50
  -4   9  -4    0.50    0.60
   4  -9   4    1.30    0.90
   4  -9   4    1.20    0.70
   4  -9   4    0.30    0.80
  -5   9  -4    2.60    1.80
  -5   9  -4    2.80    0.90
   5  -9   4    0.60    1.00
   5  -9   4    3.40    1.20
  -6   9  -4    0.30    0.90
  -6   9  -4   -0.50    2.00
   6  -9   4    1.10    1.20
   5   8  -4    0.10    1.60
  -5  -8   4   -3.60    2.00
   4   8  -4    5.80    1.70
   4   8  -4    2.20    1.20
   4   8  -4    1.00    1.20
   4   8  -4    1.40    1.20
  -4  -8   4    4.70    2.10
  -4  -8   4    2.60    1.20
  -4  -8   4    0.70    1.30
  -4  -8   4    0.60    1.10
   3   8  -4   34.50    2.60
   3   8  -4   30.80    2.60
   3   8  -4   27.00    2.40
  -3  -8   4   30.40    3.10
  -3  -8   4   30.90    2.40
  -3  -8   4   30.90    2.60
  -3  -8   4   29.00    2.70
   2   8  -4  101.09    4.70
   2   8  -4  105.99    4.80
   2   8  -4  101.19    5.00
   2   8  -4  103.89    4.90
  -2  -8   4  105.69    5.20
  -2  -8   4  111.09    5.30
  -2  -8   4  100.49    4.80
  -2  -8   4  106.79    4.90
   1   8  -4    4.10    1.00
   1   8  -4    7.00    1.50
   1   8  -4    6.20    1.10
   1   8  -4    5.60    1.20
  -1  -8   4    6.40    1.40
  -1  -8   4    3.80    1.00
  -1  -8   4    5.60    1.20
  -1  -8   4    5.70    1.10
   0   8  -4   18.90    1.60
   0   8  -4   12.40    1.50
   0   8  -4   13.50    1.40
   0   8  -4   19.70    1.90
   0  -8   4   13.20    1.50
   0  -8   4   14.20    1.60
   0  -8   4   16.30    1.30
   0  -8   4   14.50    1.50
  -1   8  -4   86.29    4.00
  -1   8  -4   80.69    4.30
  -1   8  -4   87.39    3.90
  -1   8  -4   87.69    4.20
  -1   8  -4   84.49    3.90
   1  -8   4   90.59    4.00
   1  -8   4   85.29    4.00
   1  -8   4   87.39    3.90
   1  -8   4   86.69    3.90
  -2   8  -4    7.60    1.60
  -2   8  -4    6.50    1.00
  -2   8  -4    6.10    1.10
  -2   8  -4    8.20    1.10
   2  -8   4    7.60    1.20
   2  -8   4    7.90    1.00
   2  -8   4    7.40    1.10
  -3   8  -4   -1.10    0.40
  -3   8  -4   -1.00    0.60
  -3   8  -4   -0.80    0.40
  -3   8  -4   -0.40    1.10
   3  -8   4    0.00    0.70
   3  -8   4   -0.40    0.50
   3  -8   4    0.20    0.70
  -4   8  -4    5.50    1.10
  -4   8  -4    5.90    0.90
  -4   8  -4    5.80    1.80
  -4   8  -4    6.40    1.20
   4  -8   4    6.20    1.30
   4  -8   4    6.70    1.00
   4  -8   4    5.40    1.20
  -5   8  -4   -1.20    1.40
   5  -8   4   -0.30    0.80
   5  -8   4    0.30    1.00
  -6   8  -4   -0.40    0.90
  -6   8  -4   -1.10    1.90
   6  -8   4    0.90    1.10
   5   7  -4    6.20    1.90
  -5  -7   4    4.50    1.50
  -5  -7   4    2.60    2.30
   4   7  -4    9.80    1.80
   4   7  -4    7.60    1.50
   4   7  -4    8.40    1.60
   4   7  -4    9.40    1.50
  -4  -7   4    7.30    2.20
  -4  -7   4    9.70    1.60
  -4  -7   4    9.60    1.60
  -4  -7   4    6.20    1.60
   3   7  -4   25.50    2.20
   3   7  -4   27.50    2.30
   3   7  -4   26.70    2.40
  -3  -7   4   28.20    2.40
  -3  -7   4   29.50    2.20
  -3  -7   4   29.80    2.80
  -3  -7   4   27.00    2.10
   2   7  -4    0.60    0.80
   2   7  -4    2.10    1.00
   2   7  -4    2.10    0.90
   2   7  -4    0.60    0.80
  -2  -7   4   -3.90    1.00
  -2  -7   4    0.70    0.90
  -2  -7   4    3.00    1.20
  -2  -7   4    2.10    1.00
  -2  -7   4   -2.30    0.90
   1   7  -4   25.20    1.80
   1   7  -4   24.90    1.90
   1   7  -4   24.20    2.00
   1   7  -4   31.60    2.10
  -1  -7   4   25.40    2.10
  -1  -7   4   26.60    2.10
  -1  -7   4   35.00    2.30
  -1  -7   4   25.90    1.90
  -1  -7   4   29.60    2.00
   0   7  -4  318.37   11.40
   0   7  -4  297.57   11.20
   0   7  -4  301.77   11.20
   0   7  -4  301.77   11.50
   0   7  -4  306.87   11.50
   0  -7   4  295.97   11.20
   0  -7   4  287.97   11.30
   0  -7   4  297.77   11.30
   0  -7   4  302.07   10.90
  -1   7  -4   35.50    2.00
  -1   7  -4   36.40    2.20
  -1   7  -4   36.50    2.10
  -1   7  -4   32.50    2.40
   1  -7   4   36.10    2.00
   1  -7   4   35.90    2.00
   1  -7   4   35.30    2.10
  -2   7  -4   28.40    1.70
  -2   7  -4   29.20    2.30
  -2   7  -4   29.10    1.90
  -2   7  -4   28.20    1.40
  -2   7  -4   26.20    1.90
   2  -7   4   30.40    1.80
   2  -7   4   28.00    1.70
   2  -7   4   30.30    1.90
  -3   7  -4   -0.70    0.60
  -3   7  -4   -0.10    0.60
  -3   7  -4    0.60    0.50
  -3   7  -4   -0.10    0.70
  -3   7  -4    0.20    1.00
   3  -7   4    1.60    0.60
   3  -7   4    2.70    0.80
   3  -7   4    0.80    0.70
  -4   7  -4   -0.10    0.60
  -4   7  -4    0.40    1.10
  -4   7  -4    0.40    0.80
   4  -7   4    1.70    0.80
   4  -7   4    0.70    0.70
   4  -7   4    0.40    0.70
  -5   7  -4    2.30    1.50
  -5   7  -4    2.40    1.60
  -5   7  -4    0.80    0.80
   5  -7   4    1.00    0.90
   5  -7   4    0.60    0.90
   5  -7   4    0.40    1.00
  -6   7  -4    2.00    2.00
  -6   7  -4    0.10    0.90
   6  -7   4    0.20    1.10
   6  -7   4    1.60    1.30
   5   6  -4    9.20    2.00
  -5  -6   4    7.90    1.70
  -5  -6   4    9.80    2.60
   4   6  -4   -0.40    1.00
   4   6  -4    1.10    1.00
   4   6  -4    1.20    0.80
   4   6  -4   -0.40    0.80
  -4  -6   4   -0.50    0.90
  -4  -6   4    1.80    0.90
  -4  -6   4   -0.80    1.50
  -4  -6   4    1.10    1.00
   3   6  -4    1.80    0.90
   3   6  -4    1.20    1.00
   3   6  -4    0.00    0.80
  -3  -6   4    1.60    1.00
  -3  -6   4    1.90    1.30
  -3  -6   4    0.40    0.80
  -3  -6   4    1.00    0.70
   2   6  -4  138.99    5.70
   2   6  -4  130.39    5.60
   2   6  -4  138.99    5.70
  -2  -6   4  136.09    5.70
  -2  -6   4  133.49    5.70
  -2  -6   4  149.09    6.00
  -2  -6   4  137.69    6.10
  -2  -6   4  133.09    6.00
   1   6  -4  109.59    4.80
   1   6  -4  110.79    4.80
   1   6  -4  111.39    4.60
   1   6  -4  110.19    4.60
  -1  -6   4  108.19    4.80
  -1  -6   4  113.59    4.80
  -1  -6   4  109.69    4.60
  -1  -6   4  104.29    4.60
  -1  -6   4  111.19    4.70
   0   6  -4  215.28    8.40
   0   6  -4  212.28    8.20
   0   6  -4  215.58    8.10
   0   6  -4  213.78    8.50
   0   6  -4  224.28    8.30
   0  -6   4  211.38    8.20
   0  -6   4  215.58    8.20
   0  -6   4  212.18    7.90
   0  -6   4  211.98    8.30
   0  -6   4  233.78    8.70
  -1   6  -4  222.88    8.20
  -1   6  -4  223.28    9.00
  -1   6  -4  226.58    8.60
  -1   6  -4  228.88    8.80
  -1   6  -4  244.48    8.80
   1  -6   4  229.18    8.70
   1  -6   4  237.48    8.60
   1  -6   4  226.88    8.30
   1  -6   4  236.78    8.70
  -2   6  -4   50.39    2.60
  -2   6  -4   46.50    2.60
  -2   6  -4   52.29    2.90
  -2   6  -4   51.79    2.30
  -2   6  -4   53.59    2.40
  -2   6  -4   50.29    2.20
   2  -6   4   50.69    2.40
   2  -6   4   50.09    2.50
   2  -6   4   52.09    2.60
  -3   6  -4    6.40    0.90
  -3   6  -4    7.10    1.10
  -3   6  -4    7.30    1.10
  -3   6  -4    7.50    1.60
  -3   6  -4    6.80    1.10
   3  -6   4    6.70    0.90
   3  -6   4    7.30    1.20
   3  -6   4    7.60    1.10
   3  -6   4    6.20    1.00
  -4   6  -4    1.00    1.10
  -4   6  -4    0.10    0.70
   4  -6   4    0.60    0.70
   4  -6   4    0.00    0.60
   4  -6   4    0.80    0.80
  -5   6  -4    6.10    1.20
  -5   6  -4    5.40    2.00
   5  -6   4    5.10    1.30
   5  -6   4    2.70    1.20
   5  -6   4    4.70    1.10
  -6   6  -4    0.20    1.80
  -6   6  -4    0.30    0.90
   6  -6   4   -0.10    1.00
   6  -6   4    0.60    1.10
   5   5  -4   -0.90    1.20
   5   5  -4    0.50    1.10
  -5  -5   4   -3.10    1.70
  -5  -5   4    0.60    1.00
   4   5  -4    7.20    1.50
   4   5  -4    8.30    1.20
   4   5  -4    8.00    1.30
   4   5  -4    9.50    1.50
  -4  -5   4   10.40    1.30
  -4  -5   4    9.60    2.00
  -4  -5   4    7.90    1.30
  -4  -5   4    7.00    1.40
   3   5  -4  268.07   10.00
   3   5  -4  263.97   10.10
   3   5  -4  261.47   10.30
   3   5  -4  250.97   10.60
   3   5  -4  262.37   10.20
  -3  -5   4  251.77   10.30
  -3  -5   4  259.57   10.40
  -3  -5   4  267.87   10.10
  -3  -5   4  281.07   10.20
  -3  -5   4  280.57   10.60
   2   5  -4  104.89    4.40
   2   5  -4  111.09    4.50
   2   5  -4   99.49    4.30
   2   5  -4   98.89    4.40
   2   5  -4  109.79    4.60
  -2  -5   4   99.19    4.60
  -2  -5   4  100.69    4.60
  -2  -5   4  104.39    4.60
  -2  -5   4  104.09    4.50
  -2  -5   4  103.19    4.40
   1   5  -4  229.78    8.50
   1   5  -4  227.28    8.70
   1   5  -4  247.18    8.70
   1   5  -4  230.08    8.40
  -1  -5   4  223.08    8.50
  -1  -5   4  222.28    8.70
  -1  -5   4  210.68    8.50
  -1  -5   4  227.58    8.70
  -1  -5   4  218.48    8.50
   0   5  -4   -0.30    0.40
   0   5  -4   -0.60    0.40
   0   5  -4   -0.10    0.30
   0   5  -4    0.50    0.60
   0   5  -4   -0.20    0.40
   0  -5   4   -0.60    0.30
   0  -5   4    0.10    0.50
   0  -5   4    0.20    0.40
   0  -5   4   -0.30    0.40
   0  -5   4    0.30    0.40
  -1   5  -4   79.19    2.90
  -1   5  -4   77.99    3.10
  -1   5  -4   83.49    3.40
  -1   5  -4   77.19    3.20
  -1   5  -4   76.59    3.60
  -1   5  -4   72.29    3.40
   1  -5   4   75.59    3.10
   1  -5   4   75.39    3.30
   1  -5   4   79.49    3.30
  -2   5  -4    7.80    0.80
  -2   5  -4    6.40    1.20
  -2   5  -4    4.20    0.90
  -2   5  -4    7.40    0.90
  -2   5  -4    5.50    0.80
  -2   5  -4    3.40    0.90
   2  -5   4    7.70    1.00
   2  -5   4    8.30    0.90
   2  -5   4    4.40    0.90
   2  -5   4    4.40    0.70
  -3   5  -4   26.00    1.80
  -3   5  -4   24.10    1.90
  -3   5  -4   27.00    2.20
  -3   5  -4   23.90    1.80
  -3   5  -4   26.60    1.60
   3  -5   4   26.10    1.60
   3  -5   4   27.20    1.90
   3  -5   4   26.60    1.70
   3  -5   4   26.70    1.80
  -4   5  -4    1.20    0.80
  -4   5  -4    0.70    0.60
  -4   5  -4    2.10    1.20
  -4   5  -4    2.30    1.20
   4  -5   4    0.60    0.60
   4  -5   4    0.80    0.80
   4  -5   4    0.60    0.70
  -5   5  -4   -0.20    0.80
  -5   5  -4    2.40    1.60
   5  -5   4    2.70    1.10
   5  -5   4   -0.40    0.90
  -6   5  -4    0.60    1.00
  -6   5  -4    3.00    2.00
   6  -5   4    0.50    1.10
   6  -5   4    0.60    1.20
   6   4  -4   -0.50    1.30
  -6  -4   4    1.60    1.10
  -6  -4   4    3.40    2.50
   5   4  -4   17.70    2.20
   5   4  -4   18.70    2.40
  -5  -4   4   15.50    1.90
  -5  -4   4   19.10    2.60
   4   4  -4   -0.20    0.80
   4   4  -4    5.40    1.00
   4   4  -4    3.10    1.20
   4   4  -4    2.90    1.10
  -4  -4   4    2.50    1.40
  -4  -4   4    0.00    0.90
  -4  -4   4    3.20    0.90
  -4  -4   4    1.40    0.80
   3   4  -4   51.79    2.70
   3   4  -4   54.79    3.00
   3   4  -4   56.59    3.00
   3   4  -4   57.29    2.80
   3   4  -4   54.29    2.70
  -3  -4   4   57.69    3.20
  -3  -4   4   53.19    3.00
  -3  -4   4   56.89    2.80
  -3  -4   4   57.39    2.80
  -3  -4   4   49.30    2.90
   2   4  -4  181.28    6.90
   2   4  -4  186.28    7.00
   2   4  -4  184.58    7.10
   2   4  -4  176.38    7.00
  -2  -4   4  188.18    7.10
  -2  -4   4  184.68    7.00
  -2  -4   4  179.38    7.10
  -2  -4   4  181.18    7.20
  -2  -4   4  181.48    7.00
   1   4  -4  136.89    5.30
   1   4  -4  133.49    5.30
   1   4  -4  143.29    5.50
   1   4  -4  145.09    5.40
   1   4  -4  144.59    5.20
   1   4  -4  143.79    5.50
  -1  -4   4  138.89    5.50
  -1  -4   4  128.29    5.30
  -1  -4   4  137.99    5.50
  -1  -4   4  131.59    5.30
  -1  -4   4  134.49    5.30
   0   4  -4   40.80    1.90
   0   4  -4   40.40    2.20
   0   4  -4   42.90    2.00
   0   4  -4   45.00    2.10
   0   4  -4   40.70    1.90
   0   4  -4   37.90    1.90
   0  -4   4   41.10    2.00
   0  -4   4   40.20    1.90
   0  -4   4   39.30    1.90
   0  -4   4   43.90    2.10
  -1   4  -4   17.40    1.10
  -1   4  -4   14.90    1.20
  -1   4  -4   14.30    1.00
  -1   4  -4   14.70    1.30
  -1   4  -4   17.00    1.20
   1  -4   4   15.20    1.10
   1  -4   4   16.20    1.10
   1  -4   4   17.30    1.10
  -2   4  -4 1602.44   55.69
  -2   4  -4 1565.44   55.89
  -2   4  -4 1614.04   55.89
  -2   4  -4 1635.54   56.09
  -2   4  -4 1582.44   55.89
   2  -4   4 1563.44   55.69
   2  -4   4 1613.54   55.79
   2  -4   4 1666.63   55.79
   2  -4   4 1592.14   55.59
  -3   4  -4   18.10    1.50
  -3   4  -4   19.70    1.70
  -3   4  -4   20.40    1.80
   3  -4   4   20.50    1.40
   3  -4   4   18.40    1.60
   3  -4   4   20.00    1.50
  -4   4  -4   -0.70    1.00
  -4   4  -4    0.20    0.70
  -4   4  -4    0.50    0.70
  -4   4  -4   -0.80    0.80
   4  -4   4    0.30    0.50
   4  -4   4   -0.30    0.60
   4  -4   4   -0.20    0.70
  -5   4  -4    2.70    1.00
  -5   4  -4    3.90    1.90
   5  -4   4    4.10    1.20
   5  -4   4    2.70    1.20
  -6   4  -4    3.30    2.20
  -6   4  -4    1.60    1.00
   6  -4   4    1.40    1.20
   6  -4   4    0.40    1.20
   6   3  -4    3.90    2.20
   6   3  -4    4.10    1.70
  -6  -3   4    3.90    1.20
  -6  -3   4    6.60    2.30
   5   3  -4    3.60    1.30
   5   3  -4    3.00    1.30
  -5  -3   4    4.80    1.80
  -5  -3   4    3.00    1.00
   4   3  -4   44.50    2.80
   4   3  -4   41.80    2.30
   4   3  -4   39.60    2.80
   4   3  -4   43.20    2.20
  -4  -3   4   36.90    2.50
  -4  -3   4   40.80    2.30
  -4  -3   4   45.60    3.00
  -4  -3   4   41.40    2.30
   3   3  -4    0.30    0.50
   3   3  -4    0.50    0.60
   3   3  -4    1.00    0.70
   3   3  -4    1.20    0.70
  -3  -3   4   -0.40    0.70
  -3  -3   4    2.70    0.90
  -3  -3   4    1.50    0.70
  -3  -3   4    0.60    0.70
  -3  -3   4    1.60    0.70
   2   3  -4  248.38    9.20
   2   3  -4  252.37    9.50
   2   3  -4  269.47    9.30
   2   3  -4  251.07    9.20
   2   3  -4  251.77    9.40
  -2  -3   4  245.98    9.30
  -2  -3   4  243.88    9.30
  -2  -3   4  252.47    9.20
  -2  -3   4  252.37    9.40
  -2  -3   4  249.08    9.20
   1   3  -4   41.60    1.90
   1   3  -4   45.50    1.90
   1   3  -4   42.50    1.90
   1   3  -4   43.60    1.90
   1   3  -4   40.20    1.80
   1   3  -4   42.10    2.20
   1   3  -4   41.20    1.90
  -1  -3   4   39.10    2.00
  -1  -3   4   41.30    2.20
  -1  -3   4   41.20    2.10
  -1  -3   4   41.10    1.90
  -1  -3   4   41.50    2.00
  -1  -3   4   41.80    2.10
  -1  -3   4   39.50    1.90
  -1  -3   4   45.40    2.00
  -1  -3   4   47.00    1.90
   0   3  -4    3.90    0.60
   0   3  -4    5.50    0.90
   0   3  -4    3.80    0.50
   0   3  -4    5.20    0.60
   0   3  -4    4.40    0.60
   0   3  -4    4.30    0.60
   0  -3   4    3.30    0.60
   0  -3   4    3.70    0.60
   0  -3   4    6.90    0.90
   0  -3   4    3.50    0.60
   0  -3   4    4.50    0.60
   0  -3   4    5.20    0.60
  -1   3  -4    6.70    0.80
  -1   3  -4    7.20    0.80
  -1   3  -4    7.70    0.80
  -1   3  -4    6.60    0.70
  -1   3  -4    6.90    1.00
  -1   3  -4    8.50    0.90
   1  -3   4    5.70    0.70
   1  -3   4    6.90    0.80
   1  -3   4    6.70    0.80
   1  -3   4    6.90    0.80
   1  -3   4    8.60    1.10
   1  -3   4    6.90    0.50
  -2   3  -4  154.28    6.00
  -2   3  -4  151.28    6.20
  -2   3  -4  153.88    6.20
  -2   3  -4  163.58    6.20
  -2   3  -4  161.78    6.20
   2  -3   4  161.18    6.10
   2  -3   4  149.79    6.00
   2  -3   4  152.98    6.50
   2  -3   4  159.08    5.90
   2  -3   4  159.18    5.90
  -3   3  -4   12.00    1.30
  -3   3  -4   16.90    1.40
  -3   3  -4   13.30    1.80
  -3   3  -4   13.60    1.40
  -3   3  -4   13.70    1.50
   3  -3   4   13.00    1.40
   3  -3   4   13.20    1.10
   3  -3   4   13.80    1.20
   3  -3   4   14.30    1.30
  -4   3  -4    1.80    0.80
  -4   3  -4    2.20    0.90
  -4   3  -4    3.70    0.90
  -4   3  -4    3.30    1.30
   4  -3   4    2.50    0.60
   4  -3   4    0.50    0.80
   4  -3   4    2.10    0.80
  -5   3  -4    4.70    1.20
  -5   3  -4    6.10    2.00
   5  -3   4    4.90    1.30
   5  -3   4    3.40    1.20
  -6   3  -4    1.70    2.20
  -6   3  -4   -0.40    1.00
   6  -3   4    1.50    1.20
   6  -3   4    0.80    1.20
   6   2  -4    2.60    1.50
   6   2  -4    5.30    1.80
  -6  -2   4    2.40    1.00
  -6  -2   4    6.30    2.30
   5   2  -4    2.10    1.20
   5   2  -4    2.00    1.20
  -5  -2   4    2.30    1.50
  -5  -2   4    3.10    0.90
   4   2  -4    6.70    0.80
   4   2  -4    6.50    1.30
   4   2  -4    6.80    1.20
  -4  -2   4    5.40    1.10
  -4  -2   4    2.60    1.00
  -4  -2   4    7.90    0.90
  -4  -2   4    8.50    0.90
  -4  -2   4    9.50    1.60
   3   2  -4   12.10    1.10
   3   2  -4   12.10    1.40
   3   2  -4   17.50    1.50
   3   2  -4   12.80    1.10
  -3  -2   4   11.50    1.10
  -3  -2   4   13.90    1.10
  -3  -2   4   12.40    1.10
  -3  -2   4   13.70    1.10
  -3  -2   4   13.90    1.30
  -3  -2   4   15.90    1.50
   2   2  -4  155.88    5.80
   2   2  -4  155.78    5.80
   2   2  -4  151.68    6.10
   2   2  -4  159.68    5.90
   2   2  -4  164.68    5.80
   2   2  -4  149.88    6.00
   2   2  -4  151.68    5.80
  -2  -2   4  161.58    5.90
  -2  -2   4  160.68    6.00
  -2  -2   4  164.98    6.00
  -2  -2   4  151.68    5.80
  -2  -2   4  154.08    5.90
  -2  -2   4  149.19    5.80
   1   2  -4 1610.24   54.49
   1   2  -4 1544.05   54.29
   1   2  -4 1602.74   54.39
   1   2  -4 1594.54   54.39
   1   2  -4 1569.74   54.39
   1   2  -4 1592.34   54.49
   1   2  -4 1620.14   54.39
  -1  -2   4 1532.55   54.69
  -1  -2   4 1605.34   54.39
  -1  -2   4 1599.54   54.39
  -1  -2   4 1567.64   54.49
  -1  -2   4 1545.15   54.59
  -1  -2   4 1500.85   54.39
  -1  -2   4 1586.94   54.69
  -1  -2   4 1478.85   54.29
  -1  -2   4 1593.64   54.49
   0   2  -4  524.45   17.40
   0   2  -4  503.15   17.40
   0   2  -4  523.25   17.30
   0   2  -4  459.75   17.40
   0   2  -4  499.25   17.20
   0   2  -4  476.85   17.30
   0  -2   4  487.45   17.40
   0  -2   4  480.15   17.00
   0  -2   4  499.15   17.30
   0  -2   4  495.85   17.50
   0  -2   4  481.25   17.40
   0  -2   4  479.35   17.30
   0  -2   4  459.85   17.20
  -1   2  -4    1.10    0.40
  -1   2  -4    0.70    0.40
  -1   2  -4    0.00    0.30
  -1   2  -4    0.40    0.50
  -1   2  -4    0.70    0.40
  -1   2  -4    0.20    0.50
   1  -2   4   -0.10    0.30
   1  -2   4   -0.20    0.30
   1  -2   4    0.40    0.40
   1  -2   4    0.40    0.50
   1  -2   4    0.60    0.40
   1  -2   4    0.10    0.30
  -2   2  -4   80.79    3.30
  -2   2  -4   68.99    3.30
  -2   2  -4   75.49    3.50
  -2   2  -4   75.29    3.30
  -2   2  -4   74.99    3.30
  -2   2  -4   70.19    3.10
   2  -2   4   69.99    3.10
   2  -2   4   70.79    3.10
   2  -2   4   74.19    3.20
   2  -2   4   71.49    2.90
   2  -2   4   75.09    3.10
  -3   2  -4   28.60    2.00
  -3   2  -4   30.90    2.10
  -3   2  -4   29.80    2.00
  -3   2  -4   30.80    1.70
  -3   2  -4   30.20    2.40
   3  -2   4   32.60    1.90
   3  -2   4   29.70    1.90
   3  -2   4   31.10    1.90
   3  -2   4   30.10    1.50
  -4   2  -4    0.40    0.80
  -4   2  -4    0.90    0.80
  -4   2  -4    1.80    1.20
   4  -2   4   -0.20    0.70
   4  -2   4    0.60    0.80
  -5   2  -4   -1.40    1.40
  -5   2  -4   -1.10    0.80
   5  -2   4    0.20    1.00
   5  -2   4    0.20    1.00
  -6   2  -4    1.60    1.20
  -6   2  -4    3.60    2.20
   6  -2   4    1.40    1.30
   6  -2   4    0.00    1.20
   6   1  -4   -0.80    1.30
   6   1  -4   -1.70    1.10
  -6  -1   4    0.10    0.70
  -6  -1   4   -1.30    1.60
   5   1  -4    8.20    1.70
   5   1  -4    7.00    1.50
  -5  -1   4    8.00    1.10
  -5  -1   4    6.00    1.80
   4   1  -4   65.99    3.50
   4   1  -4   65.69    2.70
   4   1  -4   66.49    3.50
  -4  -1   4   67.09    2.70
  -4  -1   4   59.19    3.00
  -4  -1   4   72.29    3.70
  -4  -1   4   60.49    3.00
   3   1  -4    2.10    0.40
   3   1  -4    1.40    0.50
   3   1  -4    1.30    0.70
   3   1  -4    1.00    0.70
   3   1  -4    1.00    0.40
  -3  -1   4    1.50    0.50
  -3  -1   4    2.10    0.80
  -3  -1   4    1.40    0.40
  -3  -1   4    1.70    0.50
   2   1  -4  125.09    4.70
   2   1  -4  126.39    5.00
   2   1  -4  129.09    5.20
   2   1  -4  128.39    4.80
  -2  -1   4  129.29    4.90
  -2  -1   4  127.19    4.80
  -2  -1   4  132.99    4.80
  -2  -1   4  127.59    4.80
  -2  -1   4  131.39    4.90
   1   1  -4  583.24   19.50
   1   1  -4  568.94   19.40
   1   1  -4  569.04   19.50
   1   1  -4  541.55   19.70
   1   1  -4  546.85   19.50
   1   1  -4  552.54   19.70
  -1  -1   4  552.94   19.70
  -1  -1   4  549.74   19.50
  -1  -1   4  573.94   19.50
  -1  -1   4  550.14   19.50
  -1  -1   4  526.35   19.70
  -1  -1   4  563.94   19.50
  -1  -1   4  552.54   19.60
   0   1  -4   79.99    3.10
   0   1  -4   69.49    3.00
   0   1  -4   75.09    3.20
   0   1  -4   84.29    3.30
   0   1  -4   80.79    3.20
   0   1  -4   85.29    3.20
   0   1  -4   81.59    3.10
   0  -1   4   81.49    3.30
   0  -1   4   80.39    3.10
   0  -1   4   77.99    3.30
   0  -1   4   83.09    3.20
   0  -1   4   77.29    3.20
   0  -1   4   73.99    3.10
  -1   1  -4   74.39    3.20
  -1   1  -4   85.39    3.40
  -1   1  -4   77.59    3.40
  -1   1  -4   77.79    3.40
  -1   1  -4   77.39    3.40
   1  -1   4   82.39    3.40
   1  -1   4   82.49    3.40
   1  -1   4   83.39    3.50
   1  -1   4   81.99    3.30
  -2   1  -4  105.69    3.90
  -2   1  -4  103.69    4.30
  -2   1  -4  101.39    4.30
  -2   1  -4  102.99    4.50
  -2   1  -4   96.69    3.90
  -2   1  -4  104.59    4.30
   2  -1   4   97.29    3.90
   2  -1   4  104.69    4.20
   2  -1   4   98.79    4.10
   2  -1   4  101.29    3.80
  -3   1  -4    6.60    1.10
  -3   1  -4    5.40    1.30
  -3   1  -4    6.50    1.10
  -3   1  -4    8.20    1.30
   3  -1   4    8.50    1.10
   3  -1   4   10.40    1.30
   3  -1   4    7.30    1.00
  -4   1  -4   17.00    1.70
  -4   1  -4   15.10    1.80
  -4   1  -4   16.40    2.40
  -4   1  -4   22.60    2.00
   4  -1   4   21.80    2.00
   4  -1   4   17.20    1.80
   4  -1   4   19.40    1.80
  -5   1  -4    2.40    1.10
  -5   1  -4    1.90    1.70
   5  -1   4    3.00    1.30
   5  -1   4    2.80    1.20
   6   0  -4   -0.60    1.20
   6   0  -4   -0.80    1.10
  -6   0   4    1.00    1.70
  -6   0   4    0.90    0.70
   5   0  -4   18.30    2.10
   5   0  -4   15.90    2.00
  -5   0   4   15.90    1.40
  -5   0   4   19.50    2.40
  -5   0   4   15.80    1.30
   4   0  -4   12.50    1.60
   4   0  -4   12.50    1.70
  -4   0   4   11.50    1.10
  -4   0   4   12.00    1.20
  -4   0   4   18.30    2.00
   3   0  -4    7.20    1.00
   3   0  -4    8.60    1.10
  -3   0   4    6.60    0.60
  -3   0   4    8.40    0.70
  -3   0   4   10.80    1.20
  -3   0   4    8.50    0.80
   2   0  -4  277.67    9.70
   2   0  -4  284.97    9.70
   2   0  -4  258.57   10.10
   2   0  -4  272.67    9.60
   2   0  -4  265.67   10.00
  -2   0   4  272.37    9.70
  -2   0   4  275.67   10.30
  -2   0   4  263.97    9.80
  -2   0   4  276.07    9.70
  -2   0   4  284.87    9.60
  -2   0   4  273.57    9.70
   1   0  -4    9.10    0.70
   1   0  -4   11.20    0.90
   1   0  -4   10.60    0.70
   1   0  -4    9.30    0.70
   1   0  -4   10.90    0.70
   1   0  -4   10.00    0.90
   1   0  -4    9.60    0.80
  -1   0   4    9.90    1.00
  -1   0   4    9.60    0.70
  -1   0   4    8.80    0.70
  -1   0   4    9.30    0.70
  -1   0   4   10.20    0.80
   0   0  -4   62.49    2.50
   0   0  -4   55.59    2.50
   0   0  -4   60.29    2.50
   0   0  -4   54.19    2.30
   0   0  -4   60.09    2.60
   0   0  -4   61.69    2.40
   0   0   4   57.89    2.40
   0   0   4   57.89    2.70
   0   0   4   53.09    2.30
   0   0   4   60.49    2.50
   0   0   4   58.59    2.50
   0   0   4   58.19    2.50
  -1   0  -4   17.20    1.30
  -1   0  -4   17.20    1.20
  -1   0  -4   17.20    1.30
  -1   0  -4   16.10    1.20
   1   0   4   16.90    1.20
   1   0   4   16.40    1.20
   1   0   4   18.30    1.40
   1   0   4   16.20    1.00
  -2   0  -4    1.70    0.70
  -2   0  -4    1.90    0.70
  -2   0  -4    2.50    0.80
  -2   0  -4    2.20    0.90
   2   0   4    2.50    0.70
  -3   0  -4   18.10    1.70
  -3   0  -4   18.70    1.80
  -3   0  -4   16.70    2.10
  -3   0  -4   16.30    1.70
   3   0   4   17.30    1.50
   3   0   4   19.30    1.70
   3   0   4   19.90    1.60
  -4   0  -4    2.90    1.00
  -4   0  -4    1.50    1.00
  -4   0  -4    2.00    1.10
  -4   0  -4    0.70    1.30
   4   0   4    1.90    0.90
   4   0   4    3.40    1.00
   4   0   4    3.20    1.10
  -5   0  -4    0.20    1.00
  -5   0  -4    0.50    1.70
   5   0   4    0.90    1.00
   5   0   4    1.40    1.20
   6  -1  -4   -0.20    1.30
   6  -1  -4   -1.80    1.00
  -6   1   4    0.90    1.60
  -6   1   4    0.20    0.50
   5  -1  -4    6.40    1.40
   5  -1  -4   13.30    1.90
   5  -1  -4    8.30    1.60
  -5   1   4    9.00    1.80
   4  -1  -4   76.99    4.10
   4  -1  -4   80.59    4.00
   4  -1  -4   81.69    3.90
  -4   1   4   85.99    4.10
   3  -1  -4   22.10    1.60
   3  -1  -4   22.80    1.80
  -3   1   4   23.20    1.60
   2  -1  -4   46.20    2.30
   2  -1  -4   50.19    2.40
   2  -1  -4   49.20    1.90
  -2   1   4   47.70    2.00
  -2   1   4   46.30    1.90
  -2   1   4   48.50    1.90
  -2   1   4   49.70    2.50
   1  -1  -4  194.38    7.00
   1  -1  -4  201.88    7.00
   1  -1  -4  182.68    7.10
   1  -1  -4  194.18    7.20
   1  -1  -4  185.28    7.00
  -1   1   4  191.38    7.10
  -1   1   4  181.88    7.20
  -1   1   4  192.78    7.10
  -1   1   4  187.78    7.00
  -1   1   4  195.78    6.90
  -1   1   4  199.48    7.00
  -1   1   4  206.28    7.20
   0  -1  -4  551.74   18.50
   0  -1  -4  522.05   18.50
   0  -1  -4  507.25   18.40
   0  -1  -4  513.05   18.80
   0  -1  -4  494.15   18.10
   0  -1  -4  508.45   18.30
   0   1   4  511.65   18.40
   0   1   4  525.75   18.50
   0   1   4  524.65   18.60
   0   1   4  542.55   18.30
   0   1   4  527.85   18.60
   0   1   4  506.65   18.30
  -1  -1  -4   15.80    1.30
  -1  -1  -4   18.60    1.30
  -1  -1  -4   16.60    1.30
  -1  -1  -4   17.40    1.40
   1   1   4   18.90    1.50
   1   1   4   16.60    0.80
   1   1   4   18.10    1.30
   1   1   4   18.10    1.00
  -2  -1  -4   18.10    1.50
  -2  -1  -4   17.40    1.80
  -2  -1  -4   22.60    1.70
  -2  -1  -4   22.60    1.80
   2   1   4   17.10    1.40
   2   1   4   19.70    1.30
  -3  -1  -4   18.40    1.80
  -3  -1  -4   17.40    1.90
  -3  -1  -4   18.30    2.20
  -3  -1  -4   19.30    1.80
   3   1   4   17.90    1.70
   3   1   4   17.00    1.50
  -4  -1  -4    0.90    1.00
  -4  -1  -4    0.00    1.00
  -4  -1  -4   -1.50    1.10
  -4  -1  -4   -0.30    0.80
   4   1   4    1.10    0.90
   4   1   4    0.70    0.90
   4   1   4   -0.10    0.90
  -5  -1  -4   -0.40    1.70
  -5  -1  -4   -0.10    1.00
   5   1   4    0.10    1.10
   5   1   4    0.10    1.00
   6  -2  -4    0.70    1.20
   6  -2  -4    0.40    1.30
  -6   2   4    2.80    1.60
   5  -2  -4   16.60    2.00
   5  -2  -4   22.00    2.50
   5  -2  -4   19.70    2.20
  -5   2   4   27.40    2.60
  -5   2   4   28.50    2.40
   4  -2  -4    3.60    1.00
   4  -2  -4    2.30    0.90
   4  -2  -4    0.90    0.90
  -4   2   4    3.20    1.10
   3  -2  -4   22.40    1.60
   3  -2  -4   20.40    1.60
   3  -2  -4   23.40    1.60
   3  -2  -4   20.30    1.70
  -3   2   4   21.80    1.90
   2  -2  -4    0.70    0.50
   2  -2  -4    1.80    0.40
   2  -2  -4    2.00    0.30
   2  -2  -4    1.70    0.60
  -2   2   4    1.40    0.30
  -2   2   4    1.50    0.30
  -2   2   4    1.60    0.60
  -2   2   4    1.60    0.30
   1  -2  -4  267.77   10.00
   1  -2  -4  278.07   10.00
   1  -2  -4  293.67   10.20
   1  -2  -4  272.97   10.10
   1  -2  -4  266.87   10.10
  -1   2   4  279.77   10.00
  -1   2   4  283.87   10.00
  -1   2   4  282.17   10.10
  -1   2   4  268.77   10.20
  -1   2   4  275.77   10.00
   0  -2  -4  396.96   14.60
   0  -2  -4  383.16   14.20
   0  -2  -4  396.16   14.60
   0  -2  -4  405.46   14.50
   0  -2  -4  420.96   14.60
   0  -2  -4  386.06   14.30
   0   2   4  398.86   14.70
   0   2   4  409.06   14.20
   0   2   4  410.56   14.50
   0   2   4  422.66   14.60
   0   2   4  408.16   14.60
   0   2   4  418.86   14.30
  -1  -2  -4    5.10    0.80
  -1  -2  -4    4.10    0.90
  -1  -2  -4    3.40    0.90
  -1  -2  -4    5.10    0.80
   1   2   4    4.10    0.40
   1   2   4    3.20    0.80
   1   2   4    2.70    0.70
  -2  -2  -4    4.90    1.00
  -2  -2  -4    5.80    1.10
  -2  -2  -4    4.30    1.20
  -2  -2  -4    5.50    1.00
  -2  -2  -4    4.30    0.90
   2   2   4    3.10    0.80
   2   2   4    4.40    0.70
   2   2   4    5.20    0.90
  -3  -2  -4    4.90    1.20
  -3  -2  -4    6.40    1.40
  -3  -2  -4    4.90    1.50
  -3  -2  -4    6.40    1.30
   3   2   4    6.20    1.00
   3   2   4    4.60    1.10
  -4  -2  -4    6.20    1.40
  -4  -2  -4    7.40    1.80
  -4  -2  -4    8.00    2.10
  -4  -2  -4    6.40    1.40
   4   2   4    7.30    1.40
   4   2   4    6.50    1.30
   4   2   4    5.60    1.40
  -5  -2  -4    0.50    1.90
  -5  -2  -4    0.50    1.20
   5   2   4   -0.40    1.80
   5   2   4   -1.00    1.00
   5   2   4   -0.60    1.00
   6  -3  -4    1.20    1.20
  -6   3   4   -0.40    1.40
   5  -3  -4    1.70    1.20
   5  -3  -4    0.00    0.90
   5  -3  -4   -0.30    0.90
  -5   3   4    0.30    1.20
  -5   3   4    1.00    1.10
   4  -3  -4   25.00    2.00
   4  -3  -4   25.70    2.40
   4  -3  -4   25.40    1.90
   4  -3  -4   23.70    1.90
  -4   3   4   28.30    2.50
   3  -3  -4   81.79    4.10
   3  -3  -4   89.09    4.00
   3  -3  -4   89.69    3.80
  -3   3   4   89.09    4.10
   2  -3  -4   -0.30    0.30
   2  -3  -4   -0.20    0.30
   2  -3  -4   -0.10    0.40
   2  -3  -4   -0.20    0.40
   2  -3  -4    0.30    0.20
  -2   3   4    0.10    0.30
  -2   3   4    0.00    0.40
  -2   3   4   -0.30    0.30
  -2   3   4   -0.40    0.30
  -2   3   4    0.10    0.30
   1  -3  -4   66.19    2.90
   1  -3  -4   69.39    2.90
   1  -3  -4   68.49    3.00
   1  -3  -4   69.69    3.00
   1  -3  -4   68.79    3.00
   1  -3  -4   65.09    2.90
  -1   3   4   71.49    2.90
  -1   3   4   66.69    3.10
  -1   3   4   70.59    3.00
  -1   3   4   61.89    3.00
  -1   3   4   73.09    2.70
  -1   3   4   69.59    3.00
   0  -3  -4  511.85   17.90
   0  -3  -4  509.25   18.10
   0  -3  -4  498.65   18.10
   0  -3  -4  480.75   18.10
   0  -3  -4  501.85   18.00
   0   3   4  522.65   17.70
   0   3   4  501.35   18.20
   0   3   4  511.05   18.20
   0   3   4  528.45   18.20
   0   3   4  481.65   18.00
  -1  -3  -4   41.90    2.30
  -1  -3  -4   36.20    2.30
  -1  -3  -4   38.00    2.20
  -1  -3  -4   35.60    2.30
  -1  -3  -4   38.10    2.10
   1   3   4   37.80    2.20
   1   3   4   32.60    2.00
   1   3   4   34.50    1.60
   1   3   4   32.80    2.30
   1   3   4   35.40    1.60
  -2  -3  -4    0.50    0.70
  -2  -3  -4    0.30    0.90
  -2  -3  -4   -0.30    0.60
  -2  -3  -4   -0.70    0.60
  -2  -3  -4    0.10    0.90
   2   3   4   -0.30    0.60
   2   3   4    0.00    0.50
   2   3   4   -0.10    0.60
  -3  -3  -4   14.90    2.00
  -3  -3  -4   14.20    1.70
  -3  -3  -4   14.00    1.80
  -3  -3  -4   15.20    2.30
   3   3   4   16.50    1.80
   3   3   4   13.10    1.40
  -4  -3  -4    0.10    1.40
  -4  -3  -4   -0.90    1.50
  -4  -3  -4   -0.40    1.10
  -4  -3  -4    0.80    1.00
   4   3   4    1.30    1.00
   4   3   4    2.10    1.10
   4   3   4    0.10    0.80
  -5  -3  -4    1.50    2.10
  -5  -3  -4    1.00    1.30
   5   3   4    1.70    1.30
   5   3   4    1.40    1.20
   5   3   4    1.60    2.10
   6  -4  -4    0.80    1.20
   6  -4  -4    0.50    1.20
  -6   4   4    0.20    1.50
  -6   4   4    2.60    1.40
   5  -4  -4    2.60    1.20
   5  -4  -4    3.90    1.20
   5  -4  -4    4.40    1.30
  -5   4   4    5.90    1.60
  -5   4   4    4.60    1.60
  -5   4   4    3.90    1.40
   4  -4  -4   66.89    3.70
   4  -4  -4   59.69    3.30
   4  -4  -4   61.29    3.20
  -4   4   4   59.29    3.60
   3  -4  -4    6.70    1.00
   3  -4  -4    5.90    1.10
   3  -4  -4    6.40    1.20
  -3   4   4    6.30    0.60
  -3   4   4    6.50    1.10
  -3   4   4    6.80    0.70
   2  -4  -4    7.20    0.90
   2  -4  -4    6.10    0.70
   2  -4  -4    6.30    1.00
   2  -4  -4    5.20    1.00
  -2   4   4    7.70    0.80
  -2   4   4    8.60    0.90
  -2   4   4    7.60    1.00
  -2   4   4    7.40    0.80
  -2   4   4    7.40    0.80
   1  -4  -4    3.40    0.60
   1  -4  -4    2.10    0.60
   1  -4  -4    5.10    0.90
   1  -4  -4    2.40    0.80
   1  -4  -4    2.30    0.80
  -1   4   4    2.90    0.70
  -1   4   4    3.90    0.70
  -1   4   4    4.50    0.50
  -1   4   4    3.70    0.70
  -1   4   4    3.70    0.80
   0  -4  -4    8.50    1.20
   0  -4  -4   11.50    1.40
   0  -4  -4    8.40    1.00
   0  -4  -4    8.70    1.00
   0  -4  -4    9.00    0.90
   0   4   4   10.40    0.80
   0   4   4    9.10    1.10
   0   4   4   10.50    1.20
   0   4   4    8.20    1.10
   0   4   4    7.80    1.10
  -1  -4  -4   19.90    2.00
  -1  -4  -4   21.60    2.00
  -1  -4  -4   20.80    1.20
  -1  -4  -4   22.50    1.70
  -1  -4  -4   22.20    1.80
   1   4   4   21.40    1.70
   1   4   4   21.30    1.40
   1   4   4   20.30    1.10
   1   4   4   22.10    1.80
   1   4   4   19.80    1.10
  -2  -4  -4   17.60    1.90
  -2  -4  -4   20.00    2.30
  -2  -4  -4   22.20    1.90
  -2  -4  -4   20.30    2.30
   2   4   4   18.10    1.30
   2   4   4   16.60    1.80
   2   4   4   15.80    1.80
  -3  -4  -4    9.90    1.60
  -3  -4  -4    9.80    1.90
  -3  -4  -4    8.60    2.00
  -3  -4  -4   10.70    1.70
   3   4   4    9.20    1.60
   3   4   4    8.40    1.20
  -4  -4  -4   -0.80    1.00
  -4  -4  -4    0.30    1.70
  -4  -4  -4   -0.10    1.10
   4   4   4    0.10    0.90
   4   4   4    0.40    1.00
   4   4   4   -0.10    1.10
  -5  -4  -4    0.70    2.40
   6  -5  -4    2.80    1.30
  -6   5   4    7.20    1.70
  -6   5   4    0.90    1.60
  -6   5   4    5.40    2.00
   5  -5  -4    3.50    1.20
   5  -5  -4    2.70    1.10
  -5   5   4    2.60    1.30
  -5   5   4    4.70    1.70
   4  -5  -4    2.00    0.90
   4  -5  -4    2.80    1.00
  -4   5   4    3.70    1.40
  -4   5   4    3.30    1.10
   3  -5  -4   36.00    2.40
  -3   5   4   39.90    1.90
  -3   5   4   35.60    1.80
  -3   5   4   35.90    2.30
   2  -5  -4    0.40    0.60
   2  -5  -4   -0.70    0.40
   2  -5  -4   -0.20    0.50
  -2   5   4   -0.70    0.40
  -2   5   4    0.10    0.40
  -2   5   4    0.40    0.50
  -2   5   4    0.00    0.50
   1  -5  -4   52.59    2.60
   1  -5  -4   52.69    2.80
   1  -5  -4   53.69    2.60
   1  -5  -4   51.79    2.80
   1  -5  -4   52.59    2.70
  -1   5   4   56.39    2.10
  -1   5   4   52.99    2.70
  -1   5   4   55.39    2.80
  -1   5   4   59.69    2.80
  -1   5   4   56.39    2.60
   0  -5  -4   57.09    3.20
   0  -5  -4   59.49    3.00
   0  -5  -4   54.09    3.20
   0  -5  -4   58.59    2.70
   0  -5  -4   58.19    3.00
   0   5   4   56.99    3.10
   0   5   4   63.89    2.60
   0   5   4   62.09    3.10
   0   5   4   59.39    2.90
   0   5   4   62.19    3.00
   0   5   4   57.69    3.00
  -1  -5  -4  169.18    7.30
  -1  -5  -4  167.78    6.40
  -1  -5  -4  167.28    7.30
  -1  -5  -4  179.08    7.20
  -1  -5  -4  174.48    7.10
   1   5   4  176.58    6.70
   1   5   4  167.78    7.20
   1   5   4  166.58    7.00
  -2  -5  -4  105.39    5.20
  -2  -5  -4   94.29    4.80
  -2  -5  -4   95.99    4.70
   2   5   4   96.29    3.90
   2   5   4   90.69    4.60
   2   5   4   92.59    4.80
  -3  -5  -4   11.20    1.70
  -3  -5  -4    7.40    1.60
  -3  -5  -4   10.70    2.20
   3   5   4    8.50    1.70
   3   5   4   11.80    1.40
  -4  -5  -4    1.60    1.90
  -4  -5  -4    4.30    1.60
  -4  -5  -4    2.90    1.30
   4   5   4    2.40    1.40
   6  -6  -4   -1.70    1.00
  -6   6   4    1.20    1.60
  -6   6   4   -0.30    1.50
   5  -6  -4   17.00    2.00
   5  -6  -4   11.00    1.90
  -5   6   4   17.40    2.80
  -5   6   4   13.10    1.90
   4  -6  -4    2.00    0.90
   4  -6  -4    1.30    1.00
  -4   6   4    1.90    0.50
  -4   6   4    1.40    0.60
  -4   6   4    0.10    0.90
  -4   6   4    4.10    1.60
   3  -6  -4   15.30    1.80
  -3   6   4   13.80    1.50
  -3   6   4   15.70    2.20
  -3   6   4   14.10    1.20
  -3   6   4   14.30    1.20
   2  -6  -4    0.50    0.50
   2  -6  -4   -0.50    0.50
   2  -6  -4    0.40    0.70
  -2   6   4    0.70    0.50
  -2   6   4    1.40    0.70
  -2   6   4   -0.10    0.50
  -2   6   4    1.30    1.00
  -2   6   4    0.00    0.50
   1  -6  -4   -0.70    0.50
   1  -6  -4   -0.50    0.40
   1  -6  -4    1.00    0.90
   1  -6  -4    0.80    0.60
   1  -6  -4   -0.20    0.90
  -1   6   4    0.10    0.60
  -1   6   4    0.60    0.60
  -1   6   4    0.10    0.60
  -1   6   4   -0.20    0.90
  -1   6   4   -0.50    0.40
   0  -6  -4   -0.50    0.70
   0  -6  -4    1.30    0.80
   0  -6  -4    1.70    1.10
   0  -6  -4    0.60    1.00
   0  -6  -4    0.50    0.60
   0   6   4    0.20    0.80
   0   6   4    0.00    0.70
   0   6   4   -0.10    0.90
   0   6   4    0.80    0.70
   0   6   4   -0.40    0.90
  -1  -6  -4    7.00    1.60
  -1  -6  -4    5.60    1.30
  -1  -6  -4    6.40    1.30
  -1  -6  -4    5.60    0.90
  -1  -6  -4    4.80    1.50
   1   6   4    3.90    1.20
   1   6   4    4.90    1.10
   1   6   4    4.00    1.20
  -2  -6  -4    2.80    1.20
  -2  -6  -4    4.40    1.30
  -2  -6  -4    2.80    1.60
  -2  -6  -4   -0.50    1.40
   2   6   4    0.50    0.90
  -3  -6  -4    0.90    1.10
  -3  -6  -4   -1.10    1.00
  -3  -6  -4    2.70    1.80
   3   6   4   -0.10    1.00
  -4  -6  -4    0.00    1.30
  -4  -6  -4   -2.10    1.80
  -4  -6  -4    0.70    1.30
   4   6   4    0.00    1.20
   6  -7  -4    0.30    1.00
  -6   7   4   -0.30    1.60
  -6   7   4    2.40    1.70
   5  -7  -4   -0.10    0.90
   5  -7  -4    0.20    1.00
  -5   7   4    0.40    1.70
   4  -7  -4    0.40    0.90
  -4   7   4    2.10    1.50
  -4   7   4    0.70    0.60
  -4   7   4   -0.50    0.70
  -4   7   4   -0.30    0.50
   3  -7  -4   27.10    1.60
   3  -7  -4   22.70    2.10
  -3   7   4   27.00    1.80
  -3   7   4   25.10    1.60
  -3   7   4   27.40    2.60
  -3   7   4   26.80    1.80
  -3   7   4   27.00    2.00
   2  -7  -4   16.70    1.50
   2  -7  -4   18.80    2.00
   2  -7  -4   19.70    1.40
  -2   7   4   19.50    1.70
  -2   7   4   22.80    1.70
  -2   7   4   21.90    2.50
  -2   7   4   18.90    1.60
  -2   7   4   19.20    1.60
   1  -7  -4   -0.60    1.00
   1  -7  -4   -0.50    0.40
   1  -7  -4   -0.50    0.60
   1  -7  -4   -0.10    0.60
  -1   7   4    0.90    0.70
  -1   7   4    0.50    0.70
  -1   7   4   -0.60    0.70
  -1   7   4   -1.10    1.00
  -1   7   4    0.60    0.70
   0  -7  -4   16.80    1.80
   0  -7  -4   17.00    2.30
   0  -7  -4   19.10    1.50
   0  -7  -4   16.90    1.90
   0   7   4   20.80    2.20
   0   7   4   16.70    1.80
   0   7   4   13.40    1.80
  -1  -7  -4    2.10    1.10
  -1  -7  -4    2.50    1.50
  -1  -7  -4   -0.70    1.00
  -1  -7  -4    0.50    0.70
   1   7   4    3.00    1.10
   1   7   4    0.80    0.90
   1   7   4   -0.60    1.10
  -2  -7  -4   -0.70    0.90
  -2  -7  -4    0.00    1.40
  -2  -7  -4   -1.20    0.90
   2   7   4    0.60    1.00
  -3  -7  -4   -0.80    1.70
  -3  -7  -4   -0.10    1.30
  -3  -7  -4   -1.30    1.10
   3   7   4    0.50    1.30
  -4  -7  -4    2.80    2.50
   4   7   4    0.80    1.50
   6  -8  -4    1.60    1.20
  -6   8   4    0.50    1.90
   5  -8  -4   -0.20    1.00
  -5   8   4   -1.90    1.30
   4  -8  -4    0.80    1.00
  -4   8   4    1.30    1.50
  -4   8   4   -0.10    0.60
   3  -8  -4    3.60    0.80
   3  -8  -4    4.20    1.20
  -3   8   4    4.20    0.80
  -3   8   4    3.50    0.90
  -3   8   4    4.00    1.00
  -3   8   4    2.30    1.40
   2  -8  -4    0.50    0.80
   2  -8  -4    0.30    0.60
  -2   8   4   -0.10    0.60
  -2   8   4   -0.10    1.10
  -2   8   4    0.10    0.70
  -2   8   4    1.10    0.80
   1  -8  -4   -2.20    1.10
   1  -8  -4    0.30    0.70
   1  -8  -4   -0.10    0.70
  -1   8   4   -0.70    0.80
  -1   8   4   -0.90    0.60
  -1   8   4    0.40    0.70
  -1   8   4   -0.70    1.10
   0  -8  -4   56.99    3.30
   0  -8  -4   48.60    3.90
   0  -8  -4   53.59    3.40
   0  -8  -4   53.99    2.90
   0   8   4   57.99    3.30
   0   8   4   53.79    3.50
   0   8   4   54.39    3.30
  -1  -8  -4    0.10    0.90
  -1  -8  -4   -1.90    1.40
  -1  -8  -4   -0.60    0.80
  -1  -8  -4   -0.50    0.60
   1   8   4   -0.50    0.80
   1   8   4    0.40    1.00
   1   8   4   -0.20    0.90
  -2  -8  -4    6.70    2.10
  -2  -8  -4    8.60    1.80
  -2  -8  -4    5.00    1.40
   2   8   4    3.80    1.40
  -3  -8  -4   -2.30    1.80
  -3  -8  -4   -2.40    1.50
  -3  -8  -4    0.90    1.40
   3   8   4   -0.50    1.30
   6  -9  -4    0.60    1.10
  -6   9   4    1.80    2.10
   5  -9  -4    0.30    1.10
  -5   9   4    2.20    1.90
  -5   9   4    0.60    0.80
   4  -9  -4    2.40    1.20
  -4   9   4    2.80    1.80
  -4   9   4    2.20    0.90
   3  -9  -4    9.40    1.60
   3  -9  -4    9.30    1.20
  -3   9   4   10.30    1.40
  -3   9   4   10.60    1.30
  -3   9   4    9.10    2.10
   2  -9  -4    1.20    0.90
   2  -9  -4   -0.80    0.60
  -2   9   4   -0.10    0.60
  -2   9   4   -0.80    0.70
  -2   9   4   -0.90    1.20
  -2   9   4   -1.10    0.60
   1  -9  -4   -0.70    0.80
   1  -9  -4   -1.30    1.20
   1  -9  -4   -1.60    0.80
  -1   9   4   -0.50    0.80
  -1   9   4   -0.50    0.90
  -1   9   4   -1.80    1.10
   0  -9  -4   -0.10    0.90
   0  -9  -4    1.50    1.60
   0  -9  -4    0.00    0.80
   0   9   4    0.20    0.90
   0   9   4    0.70    0.90
   0   9   4   -0.10    1.20
  -1  -9  -4    3.40    1.30
  -1  -9  -4    4.80    2.20
   1   9   4    5.90    1.40
   1   9   4    7.50    1.70
  -2  -9  -4    0.90    1.80
  -2  -9  -4   -1.90    1.20
   2   9   4   -0.50    1.20
  -3  -9  -4   -0.30    1.40
  -3  -9  -4   -0.90    2.10
   3   9   4   -0.90    1.40
   5 -10  -4   -0.50    1.00
  -5  10   4   -0.20    0.70
  -5  10   4    0.60    1.80
   4 -10  -4   -0.10    1.00
  -4  10   4   -1.30    1.40
  -4  10   4    0.70    0.80
   3 -10  -4    2.30    0.90
   3 -10  -4    5.70    1.50
  -3  10   4    4.90    1.90
  -3  10   4    4.40    1.00
  -3  10   4    3.30    1.10
   2 -10  -4    5.40    1.20
   2 -10  -4    7.30    1.40
  -2  10   4    5.90    1.40
  -2  10   4    6.20    1.30
  -2  10   4   11.80    2.20
   1 -10  -4   -0.50    0.80
   1 -10  -4   -0.50    0.90
  -1  10   4   -0.70    0.80
  -1  10   4    0.10    0.90
  -1  10   4   -1.30    1.30
   0 -10  -4    0.50    1.80
   0 -10  -4    2.40    1.20
   0 -10  -4    1.80    1.00
   0  10   4   -0.20    1.00
   0  10   4    1.30    1.10
   0  10   4    0.90    1.40
  -1 -10  -4    4.10    2.40
  -1 -10  -4    4.80    1.60
   1  10   4    8.80    1.90
  -2 -10  -4    0.80    1.40
  -2 -10  -4    2.80    2.50
   2  10   4   -0.30    1.40
   5 -11  -4   -0.10    1.10
  -5  11   4    0.10    1.90
  -5  11   4   -0.50    0.80
   4 -11  -4   -0.40    1.00
  -4  11   4    0.60    0.90
  -4  11   4   -1.40    1.70
   3 -11  -4    1.70    1.20
   3 -11  -4    2.00    0.90
  -3  11   4    0.30    0.90
  -3  11   4   -0.30    1.50
  -3  11   4    2.70    1.00
   2 -11  -4   -0.40    0.80
   2 -11  -4    3.00    1.20
  -2  11   4    2.00    1.80
  -2  11   4   -0.30    0.90
  -2  11   4    1.20    1.00
   1 -11  -4    7.80    1.50
   1 -11  -4    7.50    1.60
  -1  11   4    8.50    2.30
  -1  11   4    7.80    1.80
  -1  11   4    7.80    1.60
   0 -11  -4    0.70    2.20
   0 -11  -4    2.90    1.20
   0 -11  -4    4.50    1.50
   0  11   4    3.30    1.80
   0  11   4    3.40    1.40
   0  11   4    2.20    1.50
  -1 -11  -4   -0.70    1.40
  -1 -11  -4   -0.30    2.40
   1  11   4    0.00    1.30
  -2 -11  -4    0.00    2.80
   4 -12  -4    0.30    1.10
  -4  12   4   -0.70    1.00
  -4  12   4   -1.00    1.90
   3 -12  -4    0.10    1.00
  -3  12   4   -2.40    1.60
  -3  12   4    0.70    1.10
   2 -12  -4    1.50    1.10
   2 -12  -4    2.00    1.20
  -2  12   4    3.10    2.00
  -2  12   4    1.30    1.20
  -2  12   4    1.50    1.30
   1 -12  -4    1.60    1.30
   1 -12  -4    1.70    1.10
  -1  12   4    2.00    1.90
  -1  12   4    0.40    1.20
  -1  12   4    1.10    1.40
   0 -12  -4   -1.70    1.20
   0 -12  -4   -2.20    2.00
   0  12   4   -2.40    1.50
   0  12   4   -0.90    1.30
  -1 -12  -4    0.90    1.50
  -1 -12  -4   -3.30    2.30
   1  12   4   -0.10    1.50
   4 -13  -4    0.30    1.30
  -4  13   4   -0.30    1.00
  -4  13   4   -0.90    2.20
   3 -13  -4    0.30    1.20
  -3  13   4   -0.80    1.10
  -3  13   4   -2.90    1.90
   2 -13  -4    1.00    1.30
   2 -13  -4   -1.20    0.90
  -2  13   4   -1.00    1.10
  -2  13   4   -0.20    1.40
  -2  13   4    2.20    2.10
   1 -13  -4    1.20    1.20
   1 -13  -4    0.20    1.30
  -1  13   4   -2.40    1.80
  -1  13   4    0.50    1.50
  -1  13   4    0.40    1.40
   0 -13  -4   -2.40    1.20
   0 -13  -4   -1.10    2.30
   0  13   4    0.60    1.50
   2 -14  -4    4.50    1.50
  -2  14   4    2.20    1.60
  -2  14   4    1.50    1.50
  -2  14   4    3.10    2.40
   0  16  -5    7.90    2.10
   0  16  -5   10.30    2.80
   0  16  -5    7.30    2.00
   0 -16   5    5.60    2.00
   0 -16   5    5.90    1.80
   0 -16   5    6.00    2.10
  -1  16  -5    0.30    1.30
  -1  16  -5    1.10    1.50
  -1  16  -5    1.90    2.40
   1 -16   5   -0.10    1.40
   1 -16   5    0.00    1.30
   1 -16   5   -0.10    1.30
  -2  16  -5   -0.20    2.20
  -2  16  -5   -1.00    1.10
  -2  16  -5    0.40    1.20
   2 -16   5    0.20    1.30
   2 -16   5   -1.50    1.20
  -3  16  -5    1.90    2.40
  -3  16  -5   -1.50    1.10
  -3  16  -5   -1.40    1.10
   3 -16   5    0.00    1.30
   3 -16   5    0.50    1.40
   1  15  -5    3.70    1.80
   1  15  -5    2.40    1.50
   1  15  -5    1.40    2.00
  -1 -15   5   -1.20    1.20
  -1 -15   5    0.30    1.50
  -1 -15   5    0.40    1.70
   0  15  -5    4.80    1.70
   0  15  -5    2.90    1.70
   0  15  -5   10.20    2.80
   0 -15   5    2.70    1.50
   0 -15   5    5.20    1.70
   0 -15   5    4.10    1.80
  -1  15  -5    1.50    1.40
  -1  15  -5    3.10    2.20
  -1  15  -5    1.10    1.20
  -1  15  -5    3.20    1.50
   1 -15   5    3.30    1.60
   1 -15   5    2.90    1.50
   1 -15   5    3.20    1.60
  -2  15  -5   -0.80    1.90
  -2  15  -5    0.30    1.10
  -2  15  -5   -0.20    1.20
   2 -15   5    0.30    1.20
   2 -15   5    0.10    1.20
  -3  15  -5    0.80    1.10
  -3  15  -5    1.90    2.10
  -3  15  -5    1.70    1.40
   3 -15   5    3.70    1.50
   3 -15   5    1.40    1.50
  -4  15  -5    1.50    2.40
  -4  15  -5    0.20    1.00
   4 -15   5   -1.20    1.20
   2  14  -5   -1.00    1.40
   2  14  -5    0.70    1.50
  -2 -14   5   -0.20    1.60
  -2 -14   5    0.60    2.50
  -2 -14   5    0.40    1.60
   1  14  -5   -0.20    1.80
   1  14  -5   -0.40    1.50
   1  14  -5   -1.40    1.20
  -1 -14   5   -0.60    1.50
  -1 -14   5   -1.40    1.10
  -1 -14   5   -1.60    1.40
   0  14  -5    1.20    1.80
   0  14  -5    1.30    1.30
   0  14  -5    1.20    1.20
   0 -14   5    0.30    1.30
   0 -14   5    0.50    1.30
   0 -14   5    0.00    1.10
  -1  14  -5    3.60    1.50
  -1  14  -5    1.80    1.20
  -1  14  -5    5.10    2.10
  -1  14  -5    0.50    1.20
   1 -14   5    4.80    1.60
   1 -14   5    2.00    1.40
   1 -14   5    1.10    1.20
  -2  14  -5    4.80    1.60
  -2  14  -5    2.00    2.00
  -2  14  -5    4.50    1.30
   2 -14   5    5.00    1.40
   2 -14   5    2.50    1.40
  -3  14  -5    6.40    2.40
  -3  14  -5    5.80    1.50
  -3  14  -5    6.00    1.50
   3 -14   5    5.60    1.70
   3 -14   5    6.40    1.50
  -4  14  -5    0.80    1.10
  -4  14  -5    0.60    2.00
   4 -14   5    2.80    1.30
   4 -14   5    1.80    1.40
   2  13  -5   -2.40    1.10
   2  13  -5   -0.30    1.30
  -2 -13   5   -3.20    2.00
  -2 -13   5   -1.40    1.30
  -2 -13   5   -2.20    1.30
   1  13  -5    2.00    1.30
   1  13  -5    1.20    1.30
   1  13  -5    3.80    1.90
  -1 -13   5   -0.10    1.30
  -1 -13   5    2.80    2.00
  -1 -13   5    3.30    1.50
  -1 -13   5    2.00    1.20
   0  13  -5   38.50    3.60
   0  13  -5   29.90    3.10
   0  13  -5   39.50    3.10
   0  13  -5   34.80    2.90
   0 -13   5   30.70    3.00
   0 -13   5   31.10    2.80
   0 -13   5   37.70    3.20
  -1  13  -5    6.40    1.40
  -1  13  -5    7.30    2.20
  -1  13  -5    8.80    1.60
  -1  13  -5    7.50    1.70
   1 -13   5    9.30    1.70
   1 -13   5    8.80    1.70
   1 -13   5    6.50    1.60
  -2  13  -5    9.90    2.40
  -2  13  -5   10.90    1.70
  -2  13  -5   11.00    1.90
   2 -13   5   10.90    1.80
   2 -13   5   10.50    1.40
   2 -13   5   13.40    2.00
  -3  13  -5   12.70    1.80
  -3  13  -5    9.70    1.80
  -3  13  -5   14.50    2.90
   3 -13   5    9.80    1.60
   3 -13   5    9.60    1.80
   3 -13   5   12.50    1.70
  -4  13  -5    0.50    0.90
  -4  13  -5   -2.00    1.80
   4 -13   5    0.00    1.00
   4 -13   5    0.60    1.00
  -5  13  -5   -1.20    2.10
  -5  13  -5    0.00    1.00
   5 -13   5   -0.20    0.90
   5 -13   5    0.10    1.00
   3  12  -5    5.50    1.70
   3  12  -5    2.20    1.50
   3  12  -5    3.90    1.60
  -3 -12   5    5.00    1.90
  -3 -12   5    3.90    1.80
  -3 -12   5    4.20    1.80
  -3 -12   5    2.20    2.40
   2  12  -5    9.00    2.00
   2  12  -5   10.00    2.10
   2  12  -5    8.10    1.90
  -2 -12   5    5.60    2.40
  -2 -12   5    6.20    1.40
  -2 -12   5    7.90    1.90
  -2 -12   5    8.30    2.00
  -2 -12   5    6.30    1.80
   1  12  -5    0.30    1.20
   1  12  -5    0.70    1.50
   1  12  -5    0.40    1.10
  -1 -12   5    1.30    1.60
  -1 -12   5   -2.90    1.60
  -1 -12   5    1.50    1.30
  -1 -12   5    0.40    1.00
  -1 -12   5    3.30    1.40
   0  12  -5   -0.50    1.40
   0  12  -5   -1.50    0.80
   0  12  -5    0.30    1.00
   0  12  -5   -0.10    1.00
   0 -12   5   -0.70    1.00
   0 -12   5   -0.90    0.90
   0 -12   5    0.70    1.10
  -1  12  -5   -0.30    1.50
  -1  12  -5    2.90    1.10
  -1  12  -5    3.00    1.30
  -1  12  -5    3.20    1.20
   1 -12   5    1.00    1.10
   1 -12   5    4.80    1.40
   1 -12   5    4.30    1.30
  -2  12  -5    0.00    0.90
  -2  12  -5   -0.50    0.80
  -2  12  -5   -0.90    1.20
   2 -12   5   -1.60    0.90
   2 -12   5   -0.80    0.70
   2 -12   5   -1.20    0.90
  -3  12  -5   -2.70    1.20
  -3  12  -5    0.10    0.90
  -3  12  -5    0.00    0.80
   3 -12   5   -0.70    0.80
   3 -12   5    1.10    1.00
   3 -12   5    0.20    0.90
  -4  12  -5   -1.20    1.60
  -4  12  -5   -0.60    0.80
   4 -12   5   -0.60    0.90
   4 -12   5    0.70    0.90
  -5  12  -5    0.90    1.00
  -5  12  -5    5.80    2.50
   5 -12   5    0.80    1.10
   5 -12   5    1.10    1.00
  -4 -11   5    1.00    2.20
   3  11  -5   11.20    2.00
   3  11  -5   11.80    2.00
   3  11  -5   12.30    2.10
  -3 -11   5   11.40    2.10
  -3 -11   5   10.40    2.70
  -3 -11   5   10.20    2.00
  -3 -11   5    8.30    2.00
   2  11  -5    4.90    1.60
   2  11  -5    4.50    1.50
   2  11  -5    5.00    1.50
  -2 -11   5    5.40    1.60
  -2 -11   5    3.80    1.20
  -2 -11   5    3.70    1.50
  -2 -11   5    4.00    1.50
  -2 -11   5    1.60    1.80
   1  11  -5    0.40    1.20
   1  11  -5    1.40    1.00
   1  11  -5   -0.30    1.20
   1  11  -5   -2.20    1.00
  -1 -11   5    0.80    0.90
  -1 -11   5   -0.10    1.10
  -1 -11   5   -2.00    1.10
  -1 -11   5   -0.50    1.10
  -1 -11   5    0.90    1.50
   0  11  -5    5.60    1.40
   0  11  -5    4.10    1.20
   0  11  -5    3.30    1.60
   0  11  -5    5.50    1.30
   0 -11   5    5.90    0.90
   0 -11   5    4.60    1.30
   0 -11   5    2.90    1.10
   0 -11   5    5.20    1.30
   0 -11   5    5.10    1.40
  -1  11  -5   17.10    2.10
  -1  11  -5   17.00    2.00
  -1  11  -5   18.30    1.90
  -1  11  -5   16.40    2.40
   1 -11   5   14.80    1.90
   1 -11   5   17.30    2.10
   1 -11   5   19.60    2.00
  -2  11  -5   -1.80    0.60
  -2  11  -5    0.10    1.10
  -2  11  -5    0.20    0.90
   2 -11   5    0.30    0.90
   2 -11   5   -0.70    0.80
  -3  11  -5   -0.30    0.70
  -3  11  -5    0.60    0.80
  -3  11  -5    0.40    1.50
   3 -11   5   -1.20    0.70
   3 -11   5   -0.90    0.70
   3 -11   5   -0.40    0.70
  -4  11  -5    1.30    1.90
  -4  11  -5    0.90    0.90
   4 -11   5    1.30    1.30
   4 -11   5    1.30    1.00
   4 -11   5    1.20    1.00
  -5  11  -5    0.10    1.90
  -5  11  -5   -0.10    0.90
   5 -11   5   -1.20    0.90
   5 -11   5    2.50    1.30
   4  10  -5    0.60    1.30
   4  10  -5   -0.50    1.20
   4  10  -5    1.50    1.30
  -4 -10   5    0.70    1.40
  -4 -10   5    0.20    2.10
  -4 -10   5    1.10    1.40
  -4 -10   5   -1.80    1.20
   3  10  -5   18.50    2.40
   3  10  -5   21.30    2.40
   3  10  -5   22.10    2.60
  -3 -10   5   22.80    2.60
  -3 -10   5   24.00    3.20
  -3 -10   5   21.40    2.70
  -3 -10   5   22.10    2.60
   2  10  -5    8.10    1.60
   2  10  -5    7.00    1.60
   2  10  -5   10.70    1.70
  -2 -10   5   12.40    1.80
  -2 -10   5   10.20    1.70
  -2 -10   5    6.70    1.70
  -2 -10   5    8.00    2.00
   1  10  -5    6.70    1.30
   1  10  -5    8.20    1.40
   1  10  -5    7.00    1.50
   1  10  -5   11.30    1.90
  -1 -10   5    5.40    1.40
  -1 -10   5    7.00    1.50
  -1 -10   5    8.60    1.50
  -1 -10   5    9.60    1.90
   0  10  -5   13.00    1.70
   0  10  -5   15.80    1.80
   0  10  -5   15.80    2.20
   0  10  -5   14.70    1.80
   0 -10   5   13.40    1.70
   0 -10   5   14.80    1.80
   0 -10   5   14.30    1.80
   0 -10   5   16.10    1.80
   0 -10   5   14.20    1.40
  -1  10  -5    0.10    0.80
  -1  10  -5    0.90    0.70
  -1  10  -5    0.00    1.00
  -1  10  -5    0.20    0.80
   1 -10   5   -1.10    0.70
   1 -10   5   -0.70    0.70
   1 -10   5    0.80    0.70
   1 -10   5    0.20    0.80
  -2  10  -5   10.30    1.60
  -2  10  -5   14.10    1.50
  -2  10  -5   13.10    2.00
   2 -10   5   15.20    1.60
   2 -10   5   13.30    1.60
  -3  10  -5   -0.40    0.60
  -3  10  -5    1.60    1.40
  -3  10  -5    1.80    0.80
   3 -10   5    1.90    1.00
   3 -10   5    0.00    0.70
   3 -10   5   -0.10    0.80
  -4  10  -5    1.20    0.80
  -4  10  -5    0.70    0.80
  -4  10  -5    0.20    1.00
  -4  10  -5    1.80    1.80
   4 -10   5    1.20    0.80
   4 -10   5    0.30    0.90
   4 -10   5    0.90    0.80
  -5  10  -5    0.80    0.90
  -5  10  -5    2.40    2.00
   5 -10   5    0.80    1.00
   5 -10   5    2.10    1.00
   4   9  -5    3.80    1.40
   4   9  -5    1.00    1.30
   4   9  -5    2.80    1.30
   4   9  -5    2.10    1.50
  -4  -9   5    1.30    1.40
  -4  -9   5    1.50    1.90
  -4  -9   5    1.80    1.40
  -4  -9   5    0.30    1.10
   3   9  -5    2.30    1.30
   3   9  -5    3.40    1.30
   3   9  -5    0.50    1.00
  -3  -9   5    3.80    1.70
  -3  -9   5    1.60    1.30
  -3  -9   5    0.50    1.10
  -3  -9   5    1.70    1.20
   2   9  -5   23.10    2.20
   2   9  -5   20.80    2.20
   2   9  -5   21.50    2.20
  -2  -9   5   20.50    2.30
  -2  -9   5   22.50    2.20
  -2  -9   5   24.20    2.60
  -2  -9   5   25.90    2.30
   1   9  -5   21.80    2.30
   1   9  -5   22.90    2.20
   1   9  -5   23.80    2.10
   1   9  -5   22.70    1.90
  -1  -9   5   21.90    2.20
  -1  -9   5   25.60    2.60
  -1  -9   5   22.40    2.10
  -1  -9   5   19.40    2.00
   0   9  -5   -1.20    0.60
   0   9  -5   -0.60    0.60
   0   9  -5    0.00    0.80
   0   9  -5   -0.90    0.90
   0  -9   5   -0.60    0.50
   0  -9   5    0.10    0.80
   0  -9   5    0.00    0.80
   0  -9   5   -0.30    0.80
  -1   9  -5   39.60    2.40
  -1   9  -5   44.10    2.60
  -1   9  -5   35.40    2.80
  -1   9  -5   37.70    2.60
   1  -9   5   40.70    2.40
   1  -9   5   40.40    2.60
   1  -9   5   45.40    2.60
  -2   9  -5    7.70    1.80
  -2   9  -5   11.60    2.00
  -2   9  -5   12.30    1.40
  -2   9  -5    9.80    1.40
   2  -9   5   13.10    1.40
   2  -9   5   12.90    1.40
   2  -9   5   10.90    1.40
  -3   9  -5    0.60    0.70
  -3   9  -5   -0.20    0.60
  -3   9  -5    1.40    1.30
   3  -9   5   -0.20    0.70
   3  -9   5    0.70    0.80
   3  -9   5    1.10    0.70
  -4   9  -5    1.90    0.90
  -4   9  -5    0.40    1.00
  -4   9  -5    1.70    0.70
  -4   9  -5    2.50    1.70
   4  -9   5    3.50    1.10
   4  -9   5    2.60    0.90
   4  -9   5    1.40    1.00
  -5   9  -5    0.70    1.60
   5  -9   5    1.20    1.00
   5  -9   5   -0.30    0.90
   5   8  -5    1.70    1.60
  -5  -8   5    3.40    1.50
  -5  -8   5    3.00    2.40
   4   8  -5    5.10    1.40
   4   8  -5    3.60    1.50
   4   8  -5    4.60    1.30
   4   8  -5    4.70    1.40
  -4  -8   5    0.80    1.30
  -4  -8   5    3.30    1.40
  -4  -8   5    5.40    1.40
  -4  -8   5    4.50    2.00
   3   8  -5   20.10    2.20
   3   8  -5   18.80    2.10
   3   8  -5   19.90    2.10
  -3  -8   5   20.40    2.40
  -3  -8   5   23.70    2.30
  -3  -8   5   25.70    2.40
  -3  -8   5   20.30    2.60
   2   8  -5   45.70    2.90
   2   8  -5   41.80    2.80
   2   8  -5   46.40    2.90
   2   8  -5   44.40    2.70
  -2  -8   5   43.60    2.90
  -2  -8   5   40.60    2.80
  -2  -8   5   46.60    3.20
  -2  -8   5   39.90    2.90
   1   8  -5    8.90    1.30
   1   8  -5   11.10    1.70
   1   8  -5    8.40    1.30
   1   8  -5   10.40    1.40
  -1  -8   5    7.30    1.30
  -1  -8   5    8.20    1.30
  -1  -8   5    8.30    1.50
  -1  -8   5   10.20    1.50
   0   8  -5   87.69    4.00
   0   8  -5   87.39    3.90
   0   8  -5   79.59    4.20
   0   8  -5   85.69    4.20
   0  -8   5   87.99    4.10
   0  -8   5   80.99    3.60
   0  -8   5   86.89    4.00
   0  -8   5   82.09    4.00
  -1   8  -5   72.19    3.80
  -1   8  -5   69.49    3.90
  -1   8  -5   80.89    3.70
  -1   8  -5   76.49    3.50
   1  -8   5   73.39    3.60
   1  -8   5   77.69    3.50
   1  -8   5   71.59    2.90
   1  -8   5   76.29    3.60
  -2   8  -5    5.50    1.50
  -2   8  -5    5.50    1.00
  -2   8  -5    4.80    1.00
  -2   8  -5    4.70    0.90
  -2   8  -5    3.20    0.90
  -2   8  -5    4.90    0.60
   2  -8   5    6.10    1.00
   2  -8   5    3.50    0.90
   2  -8   5    4.40    0.90
  -3   8  -5    6.60    1.00
  -3   8  -5    5.00    1.10
  -3   8  -5    8.60    1.90
   3  -8   5    9.50    1.20
   3  -8   5   10.90    1.40
   3  -8   5    7.50    1.20
  -4   8  -5   -0.10    0.70
  -4   8  -5   -0.20    0.90
  -4   8  -5   -1.20    1.20
  -4   8  -5   -0.70    0.60
   4  -8   5   -1.10    0.60
   4  -8   5    2.20    0.90
   4  -8   5    0.80    0.90
  -5   8  -5   -0.30    1.60
  -5   8  -5   -0.30    1.40
  -5   8  -5   -0.60    0.80
   5  -8   5   -0.70    0.90
   5  -8   5   -0.70    0.80
  -6   8  -5    0.60    1.80
   5   7  -5    9.30    2.10
  -5  -7   5   12.00    2.80
  -5  -7   5    3.50    1.50
   4   7  -5    1.20    1.00
   4   7  -5    0.40    1.20
   4   7  -5    0.90    1.00
   4   7  -5    0.20    1.10
  -4  -7   5    0.90    1.10
  -4  -7   5    0.00    1.00
  -4  -7   5    0.50    1.00
  -4  -7   5   -0.90    1.50
   3   7  -5    9.50    1.60
   3   7  -5   10.50    1.60
   3   7  -5    7.90    1.40
   3   7  -5    8.40    1.30
  -3  -7   5   12.40    2.00
  -3  -7   5   10.00    1.50
  -3  -7   5    8.40    1.50
  -3  -7   5    8.90    1.50
   2   7  -5   71.19    3.60
   2   7  -5   58.09    3.50
   2   7  -5   63.39    3.30
   2   7  -5   71.29    3.40
   2   7  -5   68.49    3.50
  -2  -7   5   59.19    3.70
  -2  -7   5   71.59    3.60
  -2  -7   5   73.69    3.60
  -2  -7   5   67.29    3.80
  -2  -7   5   69.59    3.80
   1   7  -5  162.88    6.70
   1   7  -5  157.58    6.40
   1   7  -5  155.88    6.70
   1   7  -5  155.48    6.50
  -1  -7   5  162.88    6.70
  -1  -7   5  164.18    6.60
  -1  -7   5  164.08    6.80
  -1  -7   5  155.98    6.50
  -1  -7   5  161.48    6.70
   0   7  -5   12.90    1.40
   0   7  -5   12.30    1.30
   0   7  -5   12.10    1.30
   0   7  -5   15.30    1.90
   0   7  -5   15.30    1.90
   0  -7   5   13.50    1.20
   0  -7   5   12.40    1.40
   0  -7   5   10.60    1.30
   0  -7   5   11.50    1.30
  -1   7  -5   41.20    2.20
  -1   7  -5   45.80    2.40
  -1   7  -5   41.00    1.70
  -1   7  -5   43.20    2.50
   1  -7   5   39.50    2.20
   1  -7   5   40.30    1.90
   1  -7   5   43.40    2.30
  -2   7  -5   52.49    2.60
  -2   7  -5   48.90    3.20
  -2   7  -5   53.49    2.40
  -2   7  -5   55.19    2.80
  -2   7  -5   56.29    2.30
  -2   7  -5   51.99    2.90
   2  -7   5   50.19    2.60
   2  -7   5   57.29    2.90
   2  -7   5   53.89    2.70
  -3   7  -5   13.40    1.60
  -3   7  -5   15.10    2.00
  -3   7  -5   10.10    1.50
  -3   7  -5   13.20    1.60
  -3   7  -5   17.40    1.40
   3  -7   5   11.30    1.50
   3  -7   5   15.20    1.70
   3  -7   5   13.10    1.30
  -4   7  -5    0.00    0.60
  -4   7  -5    1.10    1.30
  -4   7  -5   -0.30    0.80
   4  -7   5   -0.40    0.70
   4  -7   5    0.50    0.80
   4  -7   5   -0.40    0.60
  -5   7  -5    1.60    1.60
  -5   7  -5    1.10    0.90
   5  -7   5   -0.50    0.90
   5  -7   5    1.20    1.00
   5  -7   5    0.40    0.80
  -6   7  -5    0.20    1.00
  -6   7  -5    3.00    2.10
   6  -7   5   -0.40    1.10
   5   6  -5   12.70    2.20
   5   6  -5   11.50    2.00
  -5  -6   5   14.70    3.00
  -5  -6   5   11.00    1.80
   4   6  -5    1.10    0.90
   4   6  -5    1.30    1.10
   4   6  -5    2.50    1.00
   4   6  -5    1.60    1.20
  -4  -6   5    1.10    1.00
  -4  -6   5    1.60    1.00
  -4  -6   5   -2.10    1.00
  -4  -6   5    0.70    1.50
   3   6  -5    1.20    1.00
   3   6  -5    1.00    0.80
   3   6  -5    0.60    0.90
   3   6  -5    3.20    0.90
  -3  -6   5    3.20    1.40
  -3  -6   5    1.30    0.90
  -3  -6   5    1.80    1.00
  -3  -6   5    1.00    0.90
   2   6  -5   89.99    3.90
   2   6  -5   87.09    4.00
   2   6  -5   85.29    3.90
   2   6  -5   87.59    4.10
  -2  -6   5   83.79    4.20
  -2  -6   5   84.49    4.00
  -2  -6   5   87.09    4.10
  -2  -6   5   85.89    4.20
  -2  -6   5   82.59    3.90
   1   6  -5    0.50    0.60
   1   6  -5    0.30    0.60
   1   6  -5    0.50    0.80
   1   6  -5    0.20    0.60
  -1  -6   5   -0.10    0.60
  -1  -6   5    0.20    0.50
  -1  -6   5    0.00    0.60
  -1  -6   5    0.80    0.70
  -1  -6   5    0.90    0.80
  -1  -6   5   -0.40    0.60
   0   6  -5    9.90    1.30
   0   6  -5    9.00    1.00
   0   6  -5   11.50    1.30
   0   6  -5   12.60    1.20
   0  -6   5   10.50    1.10
   0  -6   5   10.60    1.20
   0  -6   5   10.50    1.10
  -1   6  -5  108.89    4.50
  -1   6  -5  101.09    4.70
  -1   6  -5  102.99    4.10
  -1   6  -5  105.89    4.60
  -1   6  -5  103.79    4.30
   1  -6   5  103.99    4.10
   1  -6   5  103.49    4.40
   1  -6   5  105.19    4.30
  -2   6  -5   36.20    2.20
  -2   6  -5   41.10    2.60
  -2   6  -5   39.00    2.10
  -2   6  -5   41.20    1.70
  -2   6  -5   38.90    2.20
  -2   6  -5   34.00    2.20
   2  -6   5   35.30    2.00
   2  -6   5   37.80    2.10
   2  -6   5   35.70    2.20
  -3   6  -5   27.90    2.10
  -3   6  -5   32.90    2.30
  -3   6  -5   31.00    1.90
  -3   6  -5   27.80    2.10
  -3   6  -5   36.80    2.60
   3  -6   5   30.70    1.90
   3  -6   5   32.80    2.10
   3  -6   5   31.90    2.10
   3  -6   5   32.40    1.90
  -4   6  -5    1.30    1.20
  -4   6  -5   -0.20    0.80
  -4   6  -5    1.50    1.20
   4  -6   5    1.60    0.80
   4  -6   5    2.10    0.80
   4  -6   5    0.10    0.80
  -5   6  -5    2.70    1.00
  -5   6  -5    2.90    1.70
   5  -6   5    1.50    1.00
   5  -6   5    1.60    1.00
  -6   6  -5    0.70    1.00
  -6   6  -5    0.80    2.00
   6  -6   5    0.60    1.20
   5   5  -5    4.30    1.50
   5   5  -5    2.80    1.50
  -5  -5   5    3.20    1.20
  -5  -5   5    4.70    2.20
   4   5  -5    2.00    0.90
   4   5  -5    4.40    1.20
   4   5  -5    4.50    1.00
   4   5  -5    5.90    1.40
  -4  -5   5    4.70    1.10
  -4  -5   5    5.80    1.70
  -4  -5   5    5.10    1.10
  -4  -5   5    3.40    1.20
   3   5  -5   24.50    2.10
   3   5  -5   18.20    1.70
   3   5  -5   23.70    2.10
   3   5  -5   16.40    2.20
   3   5  -5   16.00    1.70
  -3  -5   5   29.60    2.40
  -3  -5   5   17.00    1.70
  -3  -5   5   17.40    1.90
  -3  -5   5   16.90    1.90
  -3  -5   5   18.70    1.80
   2   5  -5   56.49    2.90
   2   5  -5   61.59    2.90
   2   5  -5   54.89    2.80
   2   5  -5   57.69    2.90
   2   5  -5   59.79    3.00
  -2  -5   5   56.19    3.00
  -2  -5   5   56.39    2.90
  -2  -5   5   58.49    2.90
  -2  -5   5   57.89    3.00
  -2  -5   5   62.59    3.10
   1   5  -5  117.29    4.60
   1   5  -5  115.29    4.60
   1   5  -5  110.89    4.40
   1   5  -5  110.89    4.90
   1   5  -5  116.49    4.80
  -1  -5   5  116.29    4.80
  -1  -5   5  108.39    4.60
  -1  -5   5  115.69    4.80
  -1  -5   5  114.59    4.80
  -1  -5   5  107.89    4.60
  -1  -5   5  110.49    4.60
   0   5  -5   78.49    3.50
   0   5  -5   65.09    3.50
   0   5  -5   78.69    3.30
   0   5  -5   84.79    3.50
   0   5  -5   78.19    3.60
   0  -5   5   79.39    3.30
   0  -5   5   75.89    3.30
   0  -5   5   77.49    3.50
   0  -5   5   83.19    3.60
  -1   5  -5  108.49    4.20
  -1   5  -5  105.89    4.50
  -1   5  -5   97.99    4.60
  -1   5  -5  114.69    4.50
  -1   5  -5  105.99    4.30
   1  -5   5  102.59    4.30
   1  -5   5  103.19    4.20
   1  -5   5  105.49    4.40
  -2   5  -5   39.80    2.30
  -2   5  -5   42.10    2.20
  -2   5  -5   41.70    2.40
  -2   5  -5   42.70    2.40
  -2   5  -5   38.90    2.50
   2  -5   5   39.20    2.20
   2  -5   5   39.10    2.20
   2  -5   5   38.70    1.80
   2  -5   5   41.00    2.20
  -3   5  -5   75.69    3.60
  -3   5  -5   76.49    3.80
  -3   5  -5   65.49    3.40
  -3   5  -5   70.79    3.50
  -3   5  -5   75.19    3.30
   3  -5   5   68.99    3.30
   3  -5   5   70.09    3.20
   3  -5   5   68.49    3.50
   3  -5   5   67.49    3.20
   3  -5   5   69.29    3.30
  -4   5  -5   -0.80    0.80
  -4   5  -5   -0.80    0.80
  -4   5  -5   -0.40    1.00
  -4   5  -5    0.20    0.70
   4  -5   5    0.60    0.80
   4  -5   5   -0.50    0.60
   4  -5   5    0.10    0.60
  -5   5  -5    0.60    1.50
  -5   5  -5    0.00    0.90
   5  -5   5   -0.10    0.90
   5  -5   5    0.10    0.90
  -6   5  -5    0.50    1.10
  -6   5  -5    1.30    2.10
   6  -5   5    1.90    1.20
   6  -5   5    1.70    1.30
   6   4  -5    0.20    1.60
  -6  -4   5    1.10    2.10
  -6  -4   5   -0.20    0.90
   5   4  -5   42.00    3.30
   5   4  -5   38.10    3.20
  -5  -4   5   31.00    2.70
  -5  -4   5   47.70    3.70
   4   4  -5    5.30    1.30
   4   4  -5    9.50    1.30
   4   4  -5    8.50    1.50
   4   4  -5   10.10    1.20
  -4  -4   5   10.80    1.40
  -4  -4   5    6.70    1.20
  -4  -4   5    9.90    1.70
  -4  -4   5   10.90    1.30
   3   4  -5   12.60    1.40
   3   4  -5   12.60    1.50
   3   4  -5   13.50    1.30
   3   4  -5   12.70    1.50
  -3  -4   5   13.00    1.40
  -3  -4   5   13.70    1.60
  -3  -4   5   10.90    1.30
  -3  -4   5   13.40    1.50
  -3  -4   5   11.80    1.30
   2   4  -5  268.17    9.50
   2   4  -5  252.97    9.40
   2   4  -5  248.28    9.40
   2   4  -5  249.48    9.30
  -2  -4   5  246.08    9.40
  -2  -4   5  258.37    9.70
  -2  -4   5  248.68    9.40
  -2  -4   5  251.87    9.40
  -2  -4   5  253.57    9.60
   1   4  -5  315.27   11.70
   1   4  -5  314.87   11.30
   1   4  -5  316.37   11.40
   1   4  -5  326.27   11.60
   1   4  -5  324.47   11.40
  -1  -4   5  299.07   11.40
  -1  -4   5  312.07   11.40
  -1  -4   5  305.57   11.60
  -1  -4   5  320.27   11.70
  -1  -4   5  319.27   11.60
   0   4  -5   35.70    1.80
   0   4  -5   38.40    1.90
   0   4  -5   34.50    1.70
   0   4  -5   37.70    2.00
   0   4  -5   35.90    1.80
   0   4  -5   34.30    2.10
   0  -4   5   35.80    1.80
   0  -4   5   34.70    1.90
   0  -4   5   35.40    1.90
   0  -4   5   35.90    1.90
  -1   4  -5    5.90    0.90
  -1   4  -5    5.70    1.00
  -1   4  -5    6.10    0.80
  -1   4  -5    6.10    0.80
  -1   4  -5    6.60    0.90
   1  -4   5    5.50    0.80
   1  -4   5    5.20    0.80
   1  -4   5    6.90    0.90
  -2   4  -5  263.57   10.10
  -2   4  -5  262.47    9.80
  -2   4  -5  266.77   10.10
  -2   4  -5  265.57   10.00
  -2   4  -5  255.47   10.00
   2  -4   5  253.87    9.80
   2  -4   5  282.27   10.10
   2  -4   5  269.67    9.90
   2  -4   5  271.17    9.80
   2  -4   5  270.57    9.60
  -3   4  -5   72.29    3.40
  -3   4  -5   60.79    3.20
  -3   4  -5   63.79    3.30
  -3   4  -5   69.69    3.80
  -3   4  -5   67.39    3.40
   3  -4   5   65.99    3.10
   3  -4   5   61.79    2.90
   3  -4   5   60.99    3.20
   3  -4   5   67.49    3.00
  -4   4  -5    0.10    0.70
  -4   4  -5   -0.60    0.70
  -4   4  -5    0.20    0.80
  -4   4  -5   -0.60    1.20
   4  -4   5    0.30    0.50
   4  -4   5    0.80    0.80
   4  -4   5    0.00    0.70
  -5   4  -5    0.40    1.50
  -5   4  -5    0.60    0.90
   5  -4   5   -0.10    0.80
   5  -4   5    2.10    1.00
  -6   4  -5   -1.00    0.90
  -6   4  -5    2.00    2.20
   6  -4   5    0.90    1.20
   6  -4   5    0.30    1.10
   6   3  -5    0.50    1.50
   6   3  -5   -0.80    1.20
  -6  -3   5   -0.10    0.90
  -6  -3   5    2.60    1.90
   5   3  -5    0.30    1.10
   5   3  -5    0.60    1.20
  -5  -3   5    3.70    1.70
  -5  -3   5    1.20    0.80
   4   3  -5    3.50    0.80
   4   3  -5    4.50    1.20
   4   3  -5    5.70    1.30
   4   3  -5    3.40    0.80
  -4  -3   5    3.30    0.90
  -4  -3   5    4.40    0.90
  -4  -3   5    4.70    0.90
  -4  -3   5    5.50    1.30
  -4  -3   5    3.90    1.00
   3   3  -5   80.69    3.80
   3   3  -5   75.89    3.80
   3   3  -5   81.29    3.40
   3   3  -5   79.39    3.40
  -3  -3   5   84.69    3.70
  -3  -3   5   78.49    3.40
  -3  -3   5   81.19    3.50
  -3  -3   5   79.89    3.70
  -3  -3   5   73.69    3.60
   2   3  -5   13.60    1.00
   2   3  -5   12.00    1.10
   2   3  -5   11.60    1.30
   2   3  -5   13.30    1.10
   2   3  -5   11.30    1.00
  -2  -3   5   12.00    1.00
  -2  -3   5   12.00    1.10
  -2  -3   5   12.30    1.10
  -2  -3   5   11.10    1.10
   1   3  -5  376.86   13.50
   1   3  -5  352.06   13.00
   1   3  -5  371.86   13.10
   1   3  -5  371.66   13.20
  -1  -3   5  358.46   13.00
  -1  -3   5  371.36   13.40
  -1  -3   5  382.56   13.40
  -1  -3   5  359.16   13.20
  -1  -3   5  361.76   13.40
  -1  -3   5  384.46   13.10
   0   3  -5   12.90    1.00
   0   3  -5   13.10    1.00
   0   3  -5   13.80    1.00
   0   3  -5   14.80    1.00
   0   3  -5   12.10    1.20
   0  -3   5   14.40    1.00
   0  -3   5   12.20    1.10
   0  -3   5   13.60    1.10
   0  -3   5   13.40    1.10
  -1   3  -5  197.08    7.70
  -1   3  -5  211.78    7.70
  -1   3  -5  199.28    7.80
  -1   3  -5  212.18    7.80
  -1   3  -5  201.08    7.60
   1  -3   5  201.48    7.70
   1  -3   5  205.48    7.60
   1  -3   5  197.08    7.70
   1  -3   5  202.38    7.20
  -2   3  -5   58.39    3.20
  -2   3  -5   66.29    3.20
  -2   3  -5   70.19    3.20
  -2   3  -5   65.29    3.10
  -2   3  -5   67.39    3.20
  -2   3  -5   60.69    3.00
   2  -3   5   63.79    3.00
   2  -3   5   68.89    3.30
   2  -3   5   68.99    3.10
   2  -3   5   69.89    2.80
   2  -3   5   64.29    2.80
  -3   3  -5   25.40    2.00
  -3   3  -5   30.20    2.60
  -3   3  -5   31.10    1.90
  -3   3  -5   22.80    2.10
  -3   3  -5   29.50    2.00
   3  -3   5   29.30    1.80
   3  -3   5   27.40    1.90
   3  -3   5   27.50    1.60
   3  -3   5   31.40    1.90
  -4   3  -5    7.50    1.40
  -4   3  -5    7.30    1.30
  -4   3  -5    7.90    1.80
   4  -3   5    9.50    1.40
   4  -3   5    9.10    1.30
  -5   3  -5    1.20    1.00
  -5   3  -5    1.00    1.70
   5  -3   5    4.70    1.30
   5  -3   5    4.00    1.20
  -6   3  -5   -0.30    2.10
   6   2  -5   -0.20    1.30
   6   2  -5    0.30    1.30
  -6  -2   5    1.00    0.80
  -6  -2   5    0.30    1.80
   5   2  -5    8.20    1.70
   5   2  -5    7.20    1.60
  -5  -2   5    8.10    1.20
  -5  -2   5    9.50    1.90
   4   2  -5   89.39    4.40
   4   2  -5   93.89    4.60
   4   2  -5   89.49    3.60
  -4  -2   5   89.59    3.70
  -4  -2   5   97.89    4.50
  -4  -2   5   81.39    4.00
  -4  -2   5   84.89    4.10
   3   2  -5   11.50    1.30
   3   2  -5   10.60    0.90
   3   2  -5    7.00    1.10
  -3  -2   5   10.00    1.10
  -3  -2   5    8.20    1.20
  -3  -2   5    9.80    0.90
  -3  -2   5    9.20    1.00
  -3  -2   5    8.90    0.90
   2   2  -5  348.27   12.40
   2   2  -5  340.57   12.30
   2   2  -5  361.86   12.40
   2   2  -5  348.07   12.30
   2   2  -5  354.46   12.60
  -2  -2   5  339.67   12.40
  -2  -2   5  323.07   12.30
  -2  -2   5  336.47   12.50
  -2  -2   5  355.16   12.60
  -2  -2   5  356.86   12.40
  -2  -2   5  345.27   12.90
   1   2  -5  176.38    6.00
   1   2  -5  164.08    5.90
   1   2  -5  167.98    6.00
   1   2  -5  141.29    6.00
  -1  -2   5  167.08    5.90
  -1  -2   5  156.58    6.10
  -1  -2   5  155.28    6.10
  -1  -2   5  158.08    6.00
  -1  -2   5  161.68    6.00
  -1  -2   5  155.48    6.20
   0   2  -5    0.10    0.50
   0   2  -5   -0.30    0.30
   0   2  -5   -0.10    0.40
   0   2  -5    0.00    0.30
   0   2  -5    0.10    0.40
   0   2  -5   -0.70    0.30
   0  -2   5   -0.70    0.30
   0  -2   5    0.00    0.30
   0  -2   5   -0.10    0.40
   0  -2   5   -0.30    0.40
   0  -2   5   -0.40    0.50
  -1   2  -5   23.20    1.50
  -1   2  -5   24.20    1.50
  -1   2  -5   20.70    1.40
  -1   2  -5   22.00    1.30
  -1   2  -5   21.70    1.50
  -1   2  -5   21.20    1.40
   1  -2   5   21.50    1.30
   1  -2   5   21.50    1.60
   1  -2   5   22.40    1.40
   1  -2   5   22.10    1.40
  -2   2  -5   14.40    1.20
  -2   2  -5   16.30    1.40
  -2   2  -5   12.00    1.40
  -2   2  -5   16.60    1.70
  -2   2  -5   14.90    1.40
   2  -2   5   16.20    1.60
   2  -2   5   14.00    1.00
   2  -2   5   12.70    1.20
   2  -2   5   14.50    1.10
   2  -2   5   12.50    1.20
  -3   2  -5    8.10    1.20
  -3   2  -5    9.70    1.10
  -3   2  -5   10.00    1.30
  -3   2  -5    8.50    1.40
  -3   2  -5    5.90    1.50
   3  -2   5    9.70    1.20
   3  -2   5    8.70    0.80
   3  -2   5    8.70    1.10
   3  -2   5    9.60    1.30
   3  -2   5   10.90    1.00
  -4   2  -5    0.60    0.80
  -4   2  -5    0.90    0.90
  -4   2  -5    0.40    1.10
   4  -2   5   -0.10    0.80
   4  -2   5    0.40    0.80
  -5   2  -5    1.00    1.70
  -5   2  -5    0.00    0.90
   5  -2   5   -0.50    0.90
   5  -2   5    0.60    1.00
   6   1  -5   -0.70    1.20
   6   1  -5    0.60    1.40
  -6  -1   5   -0.10    0.70
  -6  -1   5   -0.40    1.60
   5   1  -5    5.90    1.50
   5   1  -5    6.80    1.50
  -5  -1   5    7.70    1.70
  -5  -1   5    6.30    1.00
   4   1  -5    3.00    1.00
   4   1  -5    2.50    1.00
  -4  -1   5    1.90    0.60
  -4  -1   5    1.60    0.50
  -4  -1   5    2.30    0.70
  -4  -1   5    3.60    1.10
   3   1  -5   67.49    3.20
   3   1  -5   66.79    2.70
   3   1  -5   66.29    3.40
   3   1  -5   69.99    2.80
  -3  -1   5   68.69    3.20
  -3  -1   5   68.89    2.90
  -3  -1   5   68.19    2.80
  -3  -1   5   69.99    3.00
   2   1  -5   67.89    3.10
   2   1  -5   67.79    2.80
   2   1  -5   73.99    2.90
   2   1  -5   73.89    2.90
   2   1  -5   78.29    2.80
   2   1  -5   66.29    3.20
  -2  -1   5   74.49    2.80
  -2  -1   5   69.99    3.00
  -2  -1   5   71.69    3.00
  -2  -1   5   71.29    3.40
  -2  -1   5   71.19    2.90
  -2  -1   5   70.19    2.90
  -2  -1   5   75.19    2.90
   1   1  -5   77.39    3.30
   1   1  -5   82.09    3.20
   1   1  -5   78.29    3.30
   1   1  -5   82.29    3.20
   1   1  -5   89.29    3.20
  -1  -1   5   81.99    3.20
  -1  -1   5   77.69    3.30
  -1  -1   5   76.79    3.20
  -1  -1   5   74.79    3.40
  -1  -1   5   77.99    3.10
  -1  -1   5   77.49    3.20
   0   1  -5  196.28    7.20
   0   1  -5  178.28    6.90
   0   1  -5  188.78    7.20
   0   1  -5  205.38    7.20
   0   1  -5  189.08    7.10
   0  -1   5  202.48    7.30
   0  -1   5  184.08    7.10
   0  -1   5  189.58    7.20
   0  -1   5  190.98    7.30
   0  -1   5  194.38    7.30
  -1   1  -5   55.19    2.60
  -1   1  -5   49.70    2.50
  -1   1  -5   60.89    2.70
  -1   1  -5   51.39    2.60
   1  -1   5   61.49    2.80
   1  -1   5   52.99    2.60
   1  -1   5   54.59    2.50
  -2   1  -5   23.80    1.80
  -2   1  -5   24.30    1.90
  -2   1  -5   25.80    1.30
  -2   1  -5   23.40    1.70
  -2   1  -5   27.70    1.80
   2  -1   5   23.00    1.40
   2  -1   5   24.40    1.20
  -3   1  -5   28.30    2.20
  -3   1  -5   26.40    2.00
  -3   1  -5   26.10    2.10
  -3   1  -5   20.20    2.30
   3  -1   5   27.20    1.90
   3  -1   5   29.70    2.00
   3  -1   5   25.50    1.80
  -4   1  -5   14.90    1.90
  -4   1  -5   19.90    2.70
  -4   1  -5   15.00    1.70
  -4   1  -5   13.50    1.80
   4  -1   5   15.00    1.70
   4  -1   5   17.80    1.80
   4  -1   5   20.40    2.00
  -5   1  -5    0.70    1.60
  -5   1  -5   -0.30    1.00
   5  -1   5    1.80    1.30
   5  -1   5    1.70    1.10
   6   0  -5    0.40    1.40
   6   0  -5   -0.20    1.30
  -6   0   5    0.20    0.60
  -6   0   5   -0.70    1.60
   5   0  -5    1.40    1.10
   5   0  -5    1.50    1.00
  -5   0   5    1.30    0.60
  -5   0   5    0.90    0.60
  -5   0   5    0.90    1.10
   4   0  -5   49.90    3.10
   4   0  -5   50.19    3.00
  -4   0   5   49.99    2.30
  -4   0   5   49.99    2.90
  -4   0   5   51.39    2.40
   3   0  -5   52.79    2.90
   3   0  -5   50.69    2.70
  -3   0   5   52.09    3.10
  -3   0   5   55.89    2.40
  -3   0   5   53.79    2.30
  -3   0   5   55.89    2.20
  -3   0   5   56.39    2.60
   2   0  -5   17.10    0.90
   2   0  -5   15.90    0.90
   2   0  -5   15.00    1.30
   2   0  -5   17.00    1.00
   2   0  -5   14.00    1.20
  -2   0   5   17.00    1.00
  -2   0   5   14.40    1.40
  -2   0   5   16.70    1.00
  -2   0   5   16.70    0.90
  -2   0   5   17.10    0.90
  -2   0   5   16.80    1.00
   1   0  -5  149.09    5.50
   1   0  -5  144.99    5.60
   1   0  -5  137.29    5.60
   1   0  -5  150.48    5.50
   1   0  -5  157.98    5.50
  -1   0   5  149.29    5.50
  -1   0   5  149.69    5.50
  -1   0   5  139.89    5.80
  -1   0   5  146.89    5.60
   0   0  -5  231.18    8.60
   0   0  -5  234.28    8.80
   0   0  -5  260.07    8.90
   0   0  -5  234.08    8.80
   0   0   5  238.38    9.00
   0   0   5  232.48    8.60
   0   0   5  238.78    8.80
   0   0   5  234.68    8.80
  -1   0  -5    0.60    0.60
  -1   0  -5    0.10    0.40
  -1   0  -5    0.40    0.40
  -1   0  -5    1.00    0.60
   1   0   5    0.80    0.50
   1   0   5    0.80    0.60
   1   0   5   -0.30    0.40
  -2   0  -5   18.70    1.60
  -2   0  -5   19.00    1.80
  -2   0  -5   18.10    1.60
  -2   0  -5   18.50    1.70
   2   0   5   18.20    1.50
   2   0   5   17.00    1.30
   2   0   5   18.20    1.10
  -3   0  -5   21.30    2.40
  -3   0  -5   18.70    1.90
  -3   0  -5   22.10    2.10
   3   0   5   22.70    1.70
  -4   0  -5   -0.40    0.80
  -4   0  -5   -0.50    1.00
  -4   0  -5    0.30    1.40
  -4   0  -5   -0.50    0.80
   4   0   5    0.20    0.90
   4   0   5    0.50    0.80
   4   0   5   -0.30    0.90
  -5   0  -5   -0.10    1.00
  -5   0  -5   -1.30    1.60
   5   0   5    1.70    1.20
   5   0   5    1.10    1.10
   6  -1  -5    1.00    1.30
   6  -1  -5    2.20    1.50
  -6   1   5    1.30    1.50
   5  -1  -5    7.20    1.50
   5  -1  -5    5.00    1.30
  -5   1   5    5.60    1.50
   4  -1  -5   39.50    2.80
   4  -1  -5   40.10    2.60
  -4   1   5   44.80    2.70
  -4   1   5   43.60    3.10
   3  -1  -5    6.30    1.00
   3  -1  -5    6.30    1.00
  -3   1   5    9.60    1.10
  -3   1   5    7.00    0.70
  -3   1   5    9.50    1.50
  -3   1   5    7.20    0.70
   2  -1  -5   26.90    1.20
   2  -1  -5   24.70    1.30
   2  -1  -5   25.30    1.70
  -2   1   5   24.90    1.30
  -2   1   5   24.10    1.30
  -2   1   5   26.00    1.20
  -2   1   5   27.10    1.70
   1  -1  -5   45.50    2.20
   1  -1  -5   46.50    2.10
   1  -1  -5   47.40    2.20
   1  -1  -5   50.69    2.10
  -1   1   5   49.80    2.10
  -1   1   5   45.90    1.90
  -1   1   5   49.30    2.20
  -1   1   5   47.20    2.20
  -1   1   5   44.20    2.20
  -1   1   5   46.90    2.40
   0  -1  -5  122.99    5.00
   0  -1  -5  124.79    4.80
   0  -1  -5  133.89    5.00
   0  -1  -5  116.29    4.90
   0  -1  -5  116.29    4.60
   0   1   5  120.59    5.00
   0   1   5  126.69    5.00
   0   1   5  135.69    4.90
   0   1   5  123.09    5.10
   0   1   5  119.29    4.80
  -1  -1  -5   92.49    4.00
  -1  -1  -5   98.09    4.10
  -1  -1  -5   85.49    4.00
  -1  -1  -5   88.69    4.00
   1   1   5   88.59    4.00
   1   1   5   91.09    3.40
   1   1   5   90.39    3.70
   1   1   5   88.59    4.20
  -2  -1  -5   11.10    1.40
  -2  -1  -5   10.50    1.50
  -2  -1  -5   11.90    1.50
  -2  -1  -5   13.80    1.50
   2   1   5   10.80    1.30
   2   1   5   10.50    1.10
  -3  -1  -5   -0.80    0.70
  -3  -1  -5   -0.20    1.00
  -3  -1  -5    0.10    0.90
  -3  -1  -5   -0.10    0.80
   3   1   5    1.30    0.80
   3   1   5   -0.20    0.60
  -4  -1  -5    3.90    1.20
  -4  -1  -5    2.60    1.70
  -4  -1  -5    3.40    1.20
  -4  -1  -5    5.00    1.50
   4   1   5    3.90    1.10
   4   1   5    2.10    1.10
   4   1   5    2.80    1.10
  -5  -1  -5   -1.80    1.70
  -5  -1  -5   -0.30    1.10
   5   1   5   -1.00    0.90
   5   1   5    0.20    1.20
   6  -2  -5   -1.90    1.30
   6  -2  -5    0.80    1.20
  -6   2   5    0.70    1.40
  -6   2   5    3.50    1.60
   5  -2  -5    2.70    1.10
   5  -2  -5    2.40    1.30
  -5   2   5    0.60    1.20
  -5   2   5    2.00    1.20
   4  -2  -5   16.00    1.70
   4  -2  -5   19.40    2.20
  -4   2   5   18.90    1.90
  -4   2   5   21.40    2.40
   3  -2  -5  128.29    5.40
   3  -2  -5  124.89    5.20
  -3   2   5  118.89    4.60
  -3   2   5  126.39    5.50
  -3   2   5  124.69    4.60
   2  -2  -5    1.40    0.60
   2  -2  -5    0.90    0.40
   2  -2  -5   -0.50    0.50
   2  -2  -5    0.70    0.30
  -2   2   5    0.40    0.40
  -2   2   5    0.70    0.40
  -2   2   5    0.60    0.60
  -2   2   5    1.00    0.30
  -2   2   5    1.20    0.50
  -2   2   5    1.20    0.40
   1  -2  -5   12.40    1.10
   1  -2  -5   11.70    1.00
   1  -2  -5   12.90    1.30
   1  -2  -5   12.40    1.00
   1  -2  -5   13.50    1.00
  -1   2   5   11.80    1.10
  -1   2   5   12.50    0.90
  -1   2   5   10.70    1.00
  -1   2   5   11.70    1.20
   0  -2  -5  671.73   23.80
   0  -2  -5  636.54   23.80
   0  -2  -5  641.04   23.30
   0  -2  -5  680.23   23.70
   0   2   5  706.03   23.90
   0   2   5  654.13   23.80
   0   2   5  693.53   24.00
  -1  -2  -5    1.60    0.70
  -1  -2  -5    0.80    0.80
  -1  -2  -5    2.50    0.80
  -1  -2  -5    2.90    0.90
   1   2   5    1.90    0.70
   1   2   5    1.50    0.40
   1   2   5    1.50    0.90
  -2  -2  -5    0.40    0.90
  -2  -2  -5    0.90    0.80
  -2  -2  -5   -0.80    0.60
  -2  -2  -5   -0.20    0.90
  -2  -2  -5    0.50    0.70
   2   2   5    1.00    0.70
   2   2   5    0.70    0.60
   2   2   5   -0.40    0.60
  -3  -2  -5   -0.50    1.10
  -3  -2  -5   -0.20    0.80
  -3  -2  -5    0.60    0.90
  -3  -2  -5    0.60    1.00
   3   2   5   -0.90    0.60
   3   2   5    0.80    0.80
  -4  -2  -5    6.10    1.50
  -4  -2  -5    2.50    1.60
  -4  -2  -5    5.70    1.60
  -4  -2  -5    4.50    1.40
   4   2   5    5.10    1.20
   4   2   5    5.70    1.40
   4   2   5    4.30    1.20
  -5  -2  -5   -1.40    1.00
  -5  -2  -5    1.60    2.10
   5   2   5    0.10    1.10
   5   2   5    1.30    1.40
   5   2   5    1.00    1.90
   6  -3  -5   -0.40    1.10
   6  -3  -5   -0.30    1.30
  -6   3   5    0.70    1.40
  -6   3   5    2.10    1.40
   5  -3  -5    2.40    1.30
   5  -3  -5    0.90    1.00
  -5   3   5   -0.30    1.10
  -5   3   5    1.00    1.10
   4  -3  -5   22.60    2.00
   4  -3  -5   25.10    2.30
  -4   3   5   25.50    2.40
   3  -3  -5   27.30    2.20
   3  -3  -5   30.90    2.10
  -3   3   5   29.20    1.50
  -3   3   5   30.20    2.20
  -3   3   5   27.30    1.40
   2  -3  -5  116.39    4.50
   2  -3  -5  113.79    4.40
   2  -3  -5  113.79    4.90
   2  -3  -5  114.69    4.90
   2  -3  -5  123.69    4.50
  -2   3   5  122.59    4.90
  -2   3   5   94.69    4.70
  -2   3   5  116.09    4.60
  -2   3   5  117.49    4.60
  -2   3   5  121.59    4.40
  -2   3   5  125.39    4.60
  -2   3   5  119.29    4.50
   1  -3  -5  217.88    8.50
   1  -3  -5  230.48    8.40
   1  -3  -5  226.68    8.40
   1  -3  -5  219.38    8.50
   1  -3  -5  234.18    8.50
  -1   3   5  229.18    8.70
  -1   3   5  224.08    8.40
  -1   3   5  230.68    8.60
  -1   3   5  222.58    8.50
   0  -3  -5   26.70    1.50
   0  -3  -5   25.50    1.90
   0  -3  -5   28.90    1.90
   0  -3  -5   26.10    1.70
   0   3   5   28.30    1.30
   0   3   5   28.00    2.00
   0   3   5   28.50    1.80
   0   3   5   28.80    1.80
  -1  -3  -5   37.90    2.50
  -1  -3  -5   39.50    2.30
  -1  -3  -5   41.30    2.40
  -1  -3  -5   35.50    2.50
   1   3   5   42.30    2.40
   1   3   5   37.80    1.70
   1   3   5   38.70    1.80
   1   3   5   39.30    2.30
   1   3   5   42.70    2.70
  -2  -3  -5   22.50    2.10
  -2  -3  -5   25.50    2.10
  -2  -3  -5   25.50    2.30
  -2  -3  -5   22.90    2.30
   2   3   5   24.60    2.00
   2   3   5   24.10    1.50
   2   3   5   23.30    2.00
  -3  -3  -5   17.50    2.00
  -3  -3  -5   19.10    2.10
  -3  -3  -5   17.40    2.40
  -3  -3  -5   19.80    2.40
   3   3   5   18.20    1.60
   3   3   5   18.10    2.00
  -4  -3  -5    3.20    1.80
  -4  -3  -5    2.20    1.80
  -4  -3  -5   -0.40    1.10
  -4  -3  -5    2.60    1.20
   4   3   5    1.70    1.10
   4   3   5    0.90    1.10
   4   3   5    1.00    1.10
  -5  -3  -5    2.10    2.30
   5   3   5    1.20    1.30
   6  -4  -5    3.60    1.40
  -6   4   5    4.50    1.80
  -6   4   5    5.30    1.70
  -6   4   5    3.20    1.90
   5  -4  -5    1.40    1.30
  -5   4   5   -0.30    1.00
  -5   4   5    2.10    1.50
  -5   4   5    1.80    1.30
   4  -4  -5    2.00    1.00
   4  -4  -5    0.50    0.90
  -4   4   5    0.30    1.00
   3  -4  -5  142.59    6.20
   3  -4  -5  146.19    6.20
   3  -4  -5  146.19    5.40
  -3   4   5  153.78    6.20
  -3   4   5  153.88    5.60
  -3   4   5  138.19    5.50
   2  -4  -5   81.99    3.80
   2  -4  -5   78.19    3.30
   2  -4  -5   77.49    3.70
   2  -4  -5   81.89    3.50
  -2   4   5   91.89    3.60
  -2   4   5   80.59    3.80
  -2   4   5   75.09    3.40
  -2   4   5   84.79    3.40
   1  -4  -5   21.50    1.70
   1  -4  -5   22.50    1.50
   1  -4  -5   24.40    1.60
   1  -4  -5   24.10    1.60
   1  -4  -5   23.30    1.70
  -1   4   5   24.20    1.90
  -1   4   5   25.60    1.20
  -1   4   5   26.30    1.70
  -1   4   5   26.90    1.70
  -1   4   5   21.60    1.50
   0  -4  -5   10.30    1.20
   0  -4  -5   10.00    1.40
   0  -4  -5    9.10    1.30
   0  -4  -5   12.00    1.10
   0  -4  -5   10.00    1.20
   0   4   5   10.90    1.30
   0   4   5    9.30    1.30
   0   4   5    9.50    1.20
   0   4   5   10.40    1.20
   0   4   5    9.20    0.80
  -1  -4  -5    4.50    1.10
  -1  -4  -5    6.30    1.40
  -1  -4  -5    4.10    1.10
  -1  -4  -5    5.50    1.30
   1   4   5    5.20    1.00
   1   4   5    4.70    0.70
   1   4   5    4.00    1.10
   1   4   5    5.20    0.70
   1   4   5    3.90    1.10
   1   4   5    4.20    1.10
  -2  -4  -5   19.60    2.10
  -2  -4  -5   16.20    2.10
  -2  -4  -5   15.40    2.30
  -2  -4  -5   19.40    1.90
   2   4   5   19.70    2.00
   2   4   5   14.40    1.80
   2   4   5   16.20    1.30
  -3  -4  -5    1.90    1.60
  -3  -4  -5    0.70    1.10
  -3  -4  -5    1.40    1.60
  -3  -4  -5    1.40    1.20
   3   4   5    2.10    0.80
   3   4   5    1.80    1.20
  -4  -4  -5    1.00    1.30
  -4  -4  -5   -1.70    1.00
  -4  -4  -5    2.30    1.90
   4   4   5    2.10    1.40
  -6   5   5    2.60    1.70
  -6   5   5    5.00    1.60
  -6   5   5    4.20    1.80
   5  -5  -5    6.40    1.50
  -5   5   5   10.20    2.20
  -5   5   5    9.20    1.80
   4  -5  -5   34.40    2.50
   4  -5  -5   34.10    2.80
  -4   5   5   31.10    2.50
  -4   5   5   29.50    1.60
   3  -5  -5   46.10    2.80
   3  -5  -5   47.30    3.00
   3  -5  -5   48.70    2.10
  -3   5   5   51.19    2.90
  -3   5   5   45.00    2.30
  -3   5   5   51.59    2.40
  -3   5   5   46.10    2.30
   2  -5  -5    2.80    0.90
   2  -5  -5    2.30    0.60
   2  -5  -5    2.00    0.80
   2  -5  -5    1.70    0.60
  -2   5   5    1.60    0.80
  -2   5   5    2.20    0.60
  -2   5   5    2.40    0.60
  -2   5   5    2.40    0.70
   1  -5  -5   42.80    2.60
   1  -5  -5   45.70    2.40
   1  -5  -5   43.90    2.60
   1  -5  -5   45.70    2.50
   1  -5  -5   45.70    2.40
  -1   5   5   46.40    1.90
  -1   5   5   42.00    2.50
  -1   5   5   43.40    2.60
  -1   5   5   49.40    2.60
  -1   5   5   46.60    2.40
   0  -5  -5  128.89    5.90
   0  -5  -5  134.29    6.00
   0  -5  -5  134.29    5.50
   0  -5  -5  139.49    6.00
   0  -5  -5  133.79    5.70
   0   5   5  149.99    5.30
   0   5   5  136.79    6.00
   0   5   5  132.39    5.70
   0   5   5  141.39    6.00
   0   5   5  141.39    5.90
  -1  -5  -5    4.50    1.40
  -1  -5  -5    2.20    1.10
  -1  -5  -5    3.80    1.10
  -1  -5  -5    5.10    1.50
   1   5   5    3.00    0.50
   1   5   5    2.20    1.00
   1   5   5    2.40    1.10
   1   5   5    3.80    1.00
  -2  -5  -5   67.19    4.00
  -2  -5  -5   64.79    3.60
  -2  -5  -5   59.29    4.00
  -2  -5  -5   51.39    3.50
   2   5   5   55.09    2.60
   2   5   5   56.39    3.40
  -3  -5  -5    3.00    1.80
  -3  -5  -5    3.30    1.40
  -3  -5  -5    3.80    1.30
  -3  -5  -5    5.10    2.00
   3   5   5    2.40    1.20
  -4  -5  -5    0.40    1.90
  -4  -5  -5   -0.30    1.20
  -4  -5  -5   -2.60    1.00
   4   5   5   -0.30    1.30
  -6   6   5   -0.30    1.40
  -6   6   5    0.40    1.60
   5  -6  -5    0.60    1.00
  -5   6   5    3.50    1.70
  -5   6   5   -0.80    1.10
   4  -6  -5   15.70    2.00
  -4   6   5   18.70    2.60
  -4   6   5   18.60    2.00
  -4   6   5   13.00    1.20
  -4   6   5   16.40    1.20
   3  -6  -5   15.70    1.80
   3  -6  -5   19.00    1.30
  -3   6   5   19.20    1.50
  -3   6   5   20.10    1.50
  -3   6   5   18.90    1.90
  -3   6   5   19.50    1.30
   2  -6  -5   57.29    2.90
   2  -6  -5   61.09    3.30
   2  -6  -5   61.79    2.90
  -2   6   5   63.69    3.00
  -2   6   5   66.29    3.20
  -2   6   5   60.99    3.20
  -2   6   5   59.39    3.10
   1  -6  -5    0.90    0.70
   1  -6  -5   -0.40    0.70
   1  -6  -5    0.50    0.60
   1  -6  -5   -1.10    0.80
   1  -6  -5    0.50    1.00
  -1   6   5   -0.20    0.80
  -1   6   5    0.10    0.60
  -1   6   5   -1.10    0.60
  -1   6   5   -2.00    1.00
  -1   6   5   -0.90    0.60
   0  -6  -5   37.50    3.00
   0  -6  -5   44.70    2.30
   0  -6  -5   34.80    2.50
   0  -6  -5   38.40    2.60
   0  -6  -5   44.60    2.90
   0   6   5   42.10    2.70
   0   6   5   39.20    2.60
   0   6   5   40.20    2.70
   0   6   5   39.90    2.70
  -1  -6  -5   92.19    4.80
  -1  -6  -5   78.49    3.60
  -1  -6  -5   91.29    4.60
  -1  -6  -5   87.69    4.40
  -1  -6  -5   77.89    4.70
   1   6   5   86.29    4.30
   1   6   5   84.49    4.50
   1   6   5   92.89    4.10
  -2  -6  -5    1.80    1.20
  -2  -6  -5    2.80    1.70
  -2  -6  -5    1.80    1.60
  -2  -6  -5    5.30    1.50
   2   6   5    4.10    1.30
  -3  -6  -5   -0.80    1.10
  -3  -6  -5   -1.00    1.10
  -3  -6  -5   -3.10    1.50
   3   6   5   -1.70    1.10
  -4  -6  -5   -1.00    2.20
  -4  -6  -5   -1.80    1.30
  -4  -6  -5   -1.40    1.30
   4   6   5    0.10    1.30
  -6   7   5    2.00    1.90
  -6   7   5    0.20    1.40
   5  -7  -5    2.00    1.20
  -5   7   5    4.70    2.10
   4  -7  -5    4.60    1.40
  -4   7   5    4.30    1.20
  -4   7   5    5.40    0.90
  -4   7   5    6.40    0.90
  -4   7   5    8.70    2.00
   3  -7  -5   41.00    2.90
   3  -7  -5   46.00    2.40
  -3   7   5   52.99    2.50
  -3   7   5   50.19    2.70
  -3   7   5   45.80    2.60
  -3   7   5   50.09    2.90
  -3   7   5   51.89    3.50
   2  -7  -5    4.00    0.90
   2  -7  -5    4.70    1.20
  -2   7   5    5.60    1.10
  -2   7   5    6.30    1.20
  -2   7   5    5.30    1.00
  -2   7   5    6.40    1.60
   1  -7  -5   -0.20    1.10
   1  -7  -5   -0.10    0.70
   1  -7  -5   -0.50    0.70
   1  -7  -5   -0.20    0.50
  -1   7   5   -1.30    0.60
  -1   7   5    0.50    1.20
  -1   7   5   -0.70    0.70
  -1   7   5   -0.30    0.70
   0  -7  -5    0.70    0.90
   0  -7  -5    0.00    1.30
   0  -7  -5   -0.70    0.80
   0  -7  -5    1.70    1.20
   0  -7  -5    0.90    0.70
   0   7   5    0.60    0.80
   0   7   5   -1.00    0.80
   0   7   5   -0.40    1.00
   0   7   5    0.70    0.90
  -1  -7  -5    4.80    1.30
  -1  -7  -5    1.50    1.50
  -1  -7  -5    5.70    1.70
  -1  -7  -5    4.40    1.10
  -1  -7  -5    3.00    1.20
   1   7   5    4.20    1.30
   1   7   5    2.40    1.10
   1   7   5    3.50    1.20
  -2  -7  -5    2.10    1.70
  -2  -7  -5    0.80    1.10
  -2  -7  -5   -1.20    1.00
   2   7   5   -0.50    1.10
  -3  -7  -5   -1.10    1.10
  -3  -7  -5    0.10    2.00
  -3  -7  -5    0.10    1.20
   3   7   5   -1.50    1.10
   6  -8  -5    0.60    1.10
  -6   8   5   -1.20    1.60
   5  -8  -5    2.00    1.20
  -5   8   5    0.90    0.70
  -5   8   5    1.70    1.60
   4  -8  -5    0.70    1.00
  -4   8   5   -0.10    0.70
  -4   8   5    1.30    1.50
   3  -8  -5    6.60    1.00
   3  -8  -5    5.70    1.30
  -3   8   5    6.70    1.20
  -3   8   5    7.20    1.20
  -3   8   5    7.00    1.90
  -3   8   5    7.60    1.10
   2  -8  -5   -0.70    0.70
   2  -8  -5   -0.10    0.60
  -2   8   5    0.00    0.70
  -2   8   5   -0.40    0.70
  -2   8   5   -1.20    1.10
  -2   8   5   -0.20    0.60
   1  -8  -5   24.10    2.00
   1  -8  -5   28.00    2.80
   1  -8  -5   23.40    2.00
  -1   8   5   22.50    2.20
  -1   8   5   24.40    2.10
  -1   8   5   24.40    2.10
  -1   8   5   23.00    2.40
   0  -8  -5   -1.50    1.30
   0  -8  -5    0.40    0.90
   0  -8  -5   -0.30    0.70
   0   8   5   -1.40    0.80
   0   8   5    1.10    1.00
   0   8   5   -0.70    1.00
  -1  -8  -5    0.10    1.60
  -1  -8  -5    2.10    1.20
   1   8   5    2.20    1.20
   1   8   5    1.10    1.00
   1   8   5    0.70    1.00
  -2  -8  -5   13.90    2.20
  -2  -8  -5   14.60    2.80
   2   8   5   14.80    2.10
  -3  -8  -5    0.60    2.10
  -3  -8  -5   -1.80    1.30
   3   8   5    0.50    1.30
   5  -9  -5    3.70    1.40
  -5   9   5    2.20    0.90
  -5   9   5    4.40    2.10
   4  -9  -5    0.00    1.10
  -4   9   5    0.90    0.80
  -4   9   5    1.20    1.70
   3  -9  -5    0.30    0.70
   3  -9  -5    2.50    1.10
  -3   9   5    0.00    1.30
  -3   9   5    0.00    0.60
  -3   9   5    0.80    0.80
   2  -9  -5    6.70    1.40
   2  -9  -5    8.20    1.30
  -2   9   5    6.80    1.90
  -2   9   5    7.00    1.40
  -2   9   5    6.00    1.20
  -2   9   5    6.00    1.20
   1  -9  -5    3.00    1.60
   1  -9  -5    0.80    0.90
   1  -9  -5    0.70    0.90
  -1   9   5    3.00    1.10
  -1   9   5    2.80    1.00
  -1   9   5    3.10    1.50
  -1   9   5    1.50    1.10
   0  -9  -5    0.70    1.10
   0  -9  -5   -0.40    1.50
   0  -9  -5    1.00    0.80
   0   9   5    0.70    1.30
   0   9   5    2.30    1.20
   0   9   5   -0.10    1.00
  -1  -9  -5    3.80    2.20
  -1  -9  -5    2.40    1.30
   1   9   5    1.40    1.20
  -2  -9  -5   -2.00    1.10
  -2  -9  -5    0.70    2.00
   2   9   5   -0.70    1.30
   5 -10  -5    1.50    1.20
  -5  10   5   -0.40    1.80
  -5  10   5    0.60    0.80
   4 -10  -5   -0.20    1.00
  -4  10   5    2.10    1.90
  -4  10   5    1.20    0.90
   3 -10  -5    0.10    0.90
   3 -10  -5   -0.20    0.70
  -3  10   5   -0.50    1.50
  -3  10   5    0.00    0.70
  -3  10   5    1.20    0.90
   2 -10  -5    2.40    1.10
   2 -10  -5    1.60    1.00
  -2  10   5    1.90    1.60
  -2  10   5    1.70    1.10
  -2  10   5    0.20    0.90
   1 -10  -5    0.20    0.90
   1 -10  -5    1.60    1.10
  -1  10   5    2.30    1.30
  -1  10   5    3.70    1.80
  -1  10   5    0.40    1.10
   0 -10  -5    2.20    1.10
   0 -10  -5    7.30    2.30
   0 -10  -5    2.40    1.30
   0  10   5    4.00    1.50
   0  10   5    6.60    1.90
   0  10   5    5.00    1.40
  -1 -10  -5   -3.10    2.10
  -1 -10  -5   -0.30    1.20
   1  10   5    0.10    1.20
  -2 -10  -5    0.80    1.60
  -2 -10  -5   -4.10    2.10
   2  10   5   -0.70    1.40
   5 -11  -5    0.20    1.20
  -5  11   5    0.80    1.00
  -5  11   5    2.50    2.10
   4 -11  -5    0.20    1.10
  -4  11   5    0.60    0.90
  -4  11   5    1.30    1.90
   3 -11  -5    0.20    1.10
   3 -11  -5    1.40    1.00
  -3  11   5    0.10    1.00
  -3  11   5    0.50    1.80
   2 -11  -5   -0.20    0.90
   2 -11  -5    3.40    1.10
  -2  11   5   -0.90    1.50
  -2  11   5    1.60    1.20
  -2  11   5    0.80    1.00
   1 -11  -5    5.90    1.50
   1 -11  -5    6.20    1.40
  -1  11   5    4.90    1.50
  -1  11   5    5.50    1.70
  -1  11   5   12.30    2.60
   0 -11  -5    5.10    2.50
   0 -11  -5    2.50    1.50
   0  11   5    3.20    1.90
   0  11   5    3.40    1.70
   0  11   5    2.50    1.60
  -1 -11  -5    1.00    2.50
  -1 -11  -5    0.40    1.20
   1  11   5   -2.10    1.30
   4 -12  -5    1.00    1.20
  -4  12   5   -1.80    1.90
  -4  12   5    1.50    1.10
   3 -12  -5   -1.00    1.00
  -3  12   5    0.80    1.20
  -3  12   5   -0.10    2.20
   2 -12  -5    2.40    1.30
   2 -12  -5    3.00    1.40
  -2  12   5    7.50    1.60
  -2  12   5    1.10    1.40
  -2  12   5    6.20    2.40
   1 -12  -5    0.60    1.10
   1 -12  -5    1.60    1.30
  -1  12   5    1.30    1.50
  -1  12   5    2.20    1.40
  -1  12   5    0.80    1.90
   0 -12  -5    0.10    2.30
   0 -12  -5    0.20    1.50
   0  12   5    1.20    1.60
   3 -13  -5    0.10    1.20
  -3  13   5   -0.50    1.20
  -3  13   5   -2.40    2.10
   2 -13  -5    0.70    1.20
   2 -13  -5    2.10    1.30
  -2  13   5   -1.20    1.20
  -2  13   5   -1.60    2.10
  -2  13   5    1.30    1.30
   1 -13  -5    0.20    1.40
  -1  13   5    0.60    1.50
  -1  13   5    0.00    1.40
  -1  13   5   -1.40    1.70
   0  16  -6    1.70    1.70
   0  16  -6    4.30    1.70
   0  16  -6    4.40    2.50
   0 -16   6    2.40    1.60
   0 -16   6    2.30    1.80
   0 -16   6    2.40    1.80
  -1  16  -6   -1.60    1.90
  -1  16  -6    0.40    1.30
  -1  16  -6   -0.50    1.30
   1 -16   6    1.10    1.50
   1 -16   6    0.80    1.40
   1 -16   6   -0.10    1.50
  -2  16  -6    0.60    2.10
  -2  16  -6   -1.90    1.10
  -2  16  -6    0.50    1.20
   2 -16   6    1.30    1.50
   2 -16   6   -1.80    1.10
  -3  16  -6    0.10    1.10
  -3  16  -6    1.40    2.40
   3 -16   6   -0.60    1.30
   1  15  -6    1.50    1.80
   1  15  -6    4.30    1.70
   1  15  -6    2.50    2.00
  -1 -15   6    5.10    2.00
  -1 -15   6    0.60    1.40
  -1 -15   6    1.30    1.60
   0  15  -6    0.10    1.30
   0  15  -6   -0.60    1.30
   0  15  -6    0.70    2.00
   0 -15   6   -0.50    1.50
   0 -15   6   -0.10    1.30
   0 -15   6   -0.20    1.50
  -1  15  -6    4.10    2.30
  -1  15  -6    3.30    1.40
  -1  15  -6    1.50    1.30
  -1  15  -6    1.90    1.40
   1 -15   6    1.50    1.60
   1 -15   6    3.60    1.50
   1 -15   6    3.70    1.60
  -2  15  -6   -0.20    1.90
  -2  15  -6    0.50    1.10
  -2  15  -6    0.40    1.10
   2 -15   6    0.40    1.30
   2 -15   6   -0.80    1.20
  -3  15  -6    5.20    2.50
  -3  15  -6    4.00    1.40
  -3  15  -6    2.40    1.30
   3 -15   6    3.90    1.50
   3 -15   6    5.60    1.80
   2  14  -6    5.40    1.90
   2  14  -6    3.40    1.70
  -2 -14   6    4.30    2.60
  -2 -14   6    2.10    1.80
  -2 -14   6    3.70    2.00
   1  14  -6    0.70    1.40
   1  14  -6    1.30    1.60
   1  14  -6    0.90    1.90
  -1 -14   6    0.00    1.50
  -1 -14   6   -0.10    1.50
  -1 -14   6    0.80    1.20
   0  14  -6    3.70    1.50
   0  14  -6    5.10    1.60
   0  14  -6    7.30    2.30
   0 -14   6    3.20    1.60
   0 -14   6    3.30    1.40
   0 -14   6    2.90    1.50
  -1  14  -6    0.30    1.20
  -1  14  -6    2.60    1.30
  -1  14  -6    1.60    1.20
  -1  14  -6    1.40    1.90
   1 -14   6    0.60    1.30
   1 -14   6    0.40    1.20
   1 -14   6    2.30    1.30
  -2  14  -6    1.70    1.10
  -2  14  -6    2.00    1.30
  -2  14  -6    1.50    1.80
   2 -14   6    0.10    1.20
   2 -14   6    0.50    1.20
  -3  14  -6    0.30    1.90
  -3  14  -6    2.20    1.20
  -3  14  -6    1.60    1.20
   3 -14   6    3.10    1.20
   3 -14   6    2.00    1.30
   3 -14   6    0.60    1.20
  -4  14  -6    1.40    1.20
  -4  14  -6    2.10    2.20
   4 -14   6    1.00    1.30
   4 -14   6    1.50    1.10
   3  13  -6    0.00    1.60
  -3 -13   6   -1.70    2.10
   2  13  -6    2.40    1.60
   2  13  -6    2.60    1.90
   2  13  -6    1.90    1.50
  -2 -13   6    2.10    1.70
  -2 -13   6   -0.40    1.20
  -2 -13   6    0.50    2.20
  -2 -13   6   -0.90    1.40
   1  13  -6    3.50    1.90
   1  13  -6    2.00    1.30
   1  13  -6    2.60    1.40
  -1 -13   6    4.90    1.70
  -1 -13   6    1.30    1.20
  -1 -13   6    3.10    1.50
   0  13  -6   18.20    2.40
   0  13  -6   23.70    3.20
   0  13  -6   18.20    2.30
   0  13  -6   16.70    2.40
   0 -13   6   19.10    2.50
   0 -13   6   24.90    2.60
   0 -13   6   20.30    2.60
  -1  13  -6    2.70    1.30
  -1  13  -6    3.80    1.30
  -1  13  -6    3.10    1.20
  -1  13  -6    3.90    2.00
   1 -13   6    4.70    1.40
   1 -13   6    3.50    1.30
   1 -13   6    3.80    1.30
  -2  13  -6    6.80    2.10
  -2  13  -6    8.00    1.70
  -2  13  -6    7.00    1.50
   2 -13   6    5.70    1.60
   2 -13   6    9.80    1.80
   2 -13   6    6.30    1.30
  -3  13  -6    1.40    1.80
  -3  13  -6   -0.90    0.80
  -3  13  -6    1.00    1.10
   3 -13   6    1.70    1.20
   3 -13   6    1.40    1.10
   3 -13   6    0.90    1.00
  -4  13  -6    0.30    2.00
  -4  13  -6   -1.10    0.80
   4 -13   6   -0.10    1.10
   4 -13   6    0.20    0.90
   3  12  -6    2.30    1.50
   3  12  -6   -2.10    1.30
   3  12  -6    1.70    1.50
  -3 -12   6    0.10    2.30
  -3 -12   6    1.50    1.60
  -3 -12   6    1.30    1.40
  -3 -12   6    0.50    1.40
   2  12  -6   26.60    2.80
   2  12  -6   24.70    3.10
   2  12  -6   21.50    2.70
  -2 -12   6   24.10    2.80
  -2 -12   6   27.20    3.50
  -2 -12   6   20.00    2.70
  -2 -12   6   22.30    2.40
  -2 -12   6   24.80    2.80
   1  12  -6    0.10    1.00
   1  12  -6   -0.80    1.40
   1  12  -6    0.40    1.10
  -1 -12   6    1.80    1.20
  -1 -12   6    0.10    1.00
  -1 -12   6    0.80    0.90
  -1 -12   6    0.60    1.10
  -1 -12   6    1.00    1.10
  -1 -12   6    4.00    1.80
   0  12  -6   -0.60    1.00
   0  12  -6   -0.40    1.30
   0  12  -6    1.50    1.10
   0  12  -6    0.30    1.00
   0 -12   6   -1.10    1.00
   0 -12   6   -1.30    1.00
   0 -12   6   -1.40    0.90
  -1  12  -6   13.40    1.80
  -1  12  -6   12.20    2.00
  -1  12  -6   13.20    2.40
   1 -12   6   14.00    1.90
   1 -12   6   12.20    1.80
  -2  12  -6   -0.40    0.90
  -2  12  -6    1.60    1.00
  -2  12  -6    2.90    1.70
   2 -12   6    2.70    1.10
   2 -12   6    2.60    1.10
  -3  12  -6    1.00    1.00
  -3  12  -6   -0.30    1.50
  -3  12  -6    0.40    0.90
   3 -12   6    0.50    0.90
   3 -12   6   -1.00    0.80
   3 -12   6    0.00    1.00
  -4  12  -6    0.60    0.80
  -4  12  -6    0.40    1.90
   4 -12   6   -0.60    1.00
   4 -12   6   -0.10    0.90
  -5  12  -6    4.90    2.30
  -5  12  -6    1.70    1.20
   5 -12   6    2.00    1.30
   5 -12   6    3.00    1.30
   4  11  -6    2.60    1.60
   4  11  -6    3.20    1.60
  -4 -11   6   -0.30    2.20
   3  11  -6    4.90    1.70
   3  11  -6    5.60    1.70
   3  11  -6    6.70    1.80
  -3 -11   6    9.60    1.90
  -3 -11   6    8.60    1.90
  -3 -11   6    5.00    1.80
  -3 -11   6   10.00    2.50
   2  11  -6    1.70    1.30
   2  11  -6    2.90    1.30
   2  11  -6    2.10    1.10
  -2 -11   6    2.90    1.40
  -2 -11   6    2.60    1.40
  -2 -11   6    0.90    1.70
  -2 -11   6    1.70    1.30
   1  11  -6   -2.50    0.90
   1  11  -6    0.40    1.10
   1  11  -6   -1.20    1.20
   1  11  -6   -0.10    1.20
  -1 -11   6   -3.40    0.90
  -1 -11   6   -1.00    1.00
  -1 -11   6    0.70    1.00
  -1 -11   6    1.10    0.90
  -1 -11   6   -0.60    1.40
  -1 -11   6   -0.50    0.90
   0  11  -6    2.50    1.50
   0  11  -6    3.10    1.20
   0  11  -6    0.30    0.90
   0  11  -6    2.10    1.00
   0 -11   6    2.10    1.10
   0 -11   6    0.90    1.00
   0 -11   6    0.00    0.80
   0 -11   6    0.30    1.00
   0 -11   6    0.80    0.70
  -1  11  -6    5.30    1.30
  -1  11  -6    6.10    1.20
  -1  11  -6    6.10    1.80
   1 -11   6    6.80    1.40
   1 -11   6    5.80    1.40
  -2  11  -6    2.60    1.00
  -2  11  -6    2.00    1.40
  -2  11  -6    0.40    0.90
   2 -11   6    0.90    1.00
   2 -11   6   -0.10    0.80
  -3  11  -6   -0.20    0.70
  -3  11  -6   -0.90    1.30
  -3  11  -6    1.50    0.90
   3 -11   6   -0.50    0.80
   3 -11   6   -0.20    0.80
   3 -11   6   -0.60    0.80
  -4  11  -6   -0.40    0.90
  -4  11  -6   -0.80    0.80
  -4  11  -6    0.80    1.80
   4 -11   6    0.20    0.80
   4 -11   6    0.10    0.90
   4 -11   6    1.00    1.10
  -5  11  -6   -0.40    1.90
  -5  11  -6    0.90    0.90
   5 -11   6   -0.70    1.00
   5 -11   6    0.10    1.00
   4  10  -6   -1.40    1.30
   4  10  -6    0.50    1.20
   4  10  -6    1.80    1.60
   4  10  -6   -1.20    1.10
  -4 -10   6    0.10    1.30
  -4 -10   6   -0.90    1.20
  -4 -10   6   -1.20    2.00
  -4 -10   6   -1.90    1.10
   3  10  -6    4.50    1.50
   3  10  -6    0.60    1.20
   3  10  -6    1.20    1.30
  -3 -10   6    4.70    2.00
  -3 -10   6    3.30    1.50
  -3 -10   6    3.80    1.50
  -3 -10   6    1.40    1.50
   2  10  -6   35.20    2.80
   2  10  -6   38.30    2.80
   2  10  -6   35.20    3.00
  -2 -10   6   39.10    2.80
  -2 -10   6   41.30    3.50
  -2 -10   6   39.40    3.00
  -2 -10   6   35.50    3.10
   1  10  -6   36.80    2.70
   1  10  -6   43.50    3.10
   1  10  -6   37.00    2.90
   1  10  -6   38.50    2.70
  -1 -10   6   45.40    3.00
  -1 -10   6   39.30    2.80
  -1 -10   6   36.70    2.70
  -1 -10   6   41.70    3.10
  -1 -10   6   37.90    3.00
   0  10  -6    1.30    1.30
   0  10  -6    3.70    1.10
   0  10  -6    1.70    1.00
   0  10  -6    2.50    1.00
   0 -10   6    3.10    0.90
   0 -10   6    2.50    1.10
   0 -10   6    3.70    1.10
   0 -10   6    2.70    1.20
  -1  10  -6    0.30    0.80
  -1  10  -6    0.30    1.10
  -1  10  -6    1.10    0.70
   1 -10   6    1.80    0.90
   1 -10   6    1.20    0.80
   1 -10   6    0.90    0.90
  -2  10  -6   13.80    2.30
  -2  10  -6   11.70    1.70
  -2  10  -6   14.10    1.60
   2 -10   6   14.60    1.70
  -3  10  -6    4.70    1.00
  -3  10  -6    3.60    1.10
  -3  10  -6    7.30    1.90
   3 -10   6    4.90    1.10
   3 -10   6    3.30    1.10
   3 -10   6    7.80    1.50
  -4  10  -6   -1.00    0.60
  -4  10  -6   -2.70    1.30
  -4  10  -6   -0.60    0.80
  -4  10  -6   -0.90    0.90
   4 -10   6    0.90    0.80
   4 -10   6    0.30    0.90
   4 -10   6   -1.40    0.80
  -5  10  -6   -0.80    0.80
  -5  10  -6    1.10    1.90
   5 -10   6    0.20    0.90
   5 -10   6    1.30    1.10
   4   9  -6    6.60    1.60
   4   9  -6    5.80    1.60
   4   9  -6    7.20    1.70
   4   9  -6    8.90    1.90
  -4  -9   6    4.90    1.60
  -4  -9   6    5.00    1.60
  -4  -9   6    1.20    2.20
  -4  -9   6    6.40    1.70
   3   9  -6   12.20    1.80
   3   9  -6   11.20    1.80
   3   9  -6   13.10    1.90
  -3  -9   6    9.90    1.70
  -3  -9   6   13.00    2.30
  -3  -9   6    8.70    1.80
  -3  -9   6   10.40    1.80
   2   9  -6   15.80    1.90
   2   9  -6   17.40    1.80
   2   9  -6   17.00    2.20
   2   9  -6   16.60    1.90
  -2  -9   6   17.30    2.10
  -2  -9   6   15.80    1.90
  -2  -9   6   19.20    2.40
  -2  -9   6   15.60    2.00
   1   9  -6    5.50    1.20
   1   9  -6    4.40    1.10
   1   9  -6    6.40    1.60
   1   9  -6    4.30    1.20
  -1  -9   6    4.10    1.10
  -1  -9   6    5.50    1.20
  -1  -9   6    3.80    1.20
  -1  -9   6    2.60    1.20
  -1  -9   6    6.60    1.60
   0   9  -6    4.60    1.40
   0   9  -6    3.50    1.10
   0   9  -6    7.40    1.20
   0   9  -6    7.40    1.20
   0  -9   6    6.00    1.20
   0  -9   6    8.10    1.10
   0  -9   6    5.30    1.10
   0  -9   6    6.00    1.20
  -1   9  -6   59.99    3.30
  -1   9  -6   58.59    3.10
  -1   9  -6   62.79    3.50
  -1   9  -6   51.19    3.50
   1  -9   6   58.39    3.20
   1  -9   6   58.69    3.10
   1  -9   6   55.69    2.50
   1  -9   6   58.89    3.20
  -2   9  -6    0.00    0.60
  -2   9  -6    0.10    0.70
  -2   9  -6    0.50    1.10
   2  -9   6    0.70    0.80
   2  -9   6   -0.90    0.60
  -3   9  -6    5.60    1.70
  -3   9  -6    4.30    1.10
  -3   9  -6    6.00    1.10
   3  -9   6    4.70    1.10
   3  -9   6    6.10    1.20
   3  -9   6    6.10    1.10
  -4   9  -6    0.00    0.70
  -4   9  -6   -1.50    0.80
  -4   9  -6   -0.30    0.80
  -4   9  -6    0.00    1.40
   4  -9   6   -0.70    0.80
   4  -9   6   -0.10    0.80
   4  -9   6   -0.10    0.70
  -5   9  -6   -0.20    1.90
   5  -9   6   -0.30    0.80
   5  -9   6    0.10    0.80
   5   8  -6   -1.50    1.40
  -5  -8   6    1.70    1.30
  -5  -8   6   -0.40    2.10
   4   8  -6   25.50    2.70
   4   8  -6   24.30    2.70
   4   8  -6   20.90    2.30
   4   8  -6   29.40    2.50
  -4  -8   6   19.20    2.50
  -4  -8   6   22.60    2.40
  -4  -8   6   32.40    3.50
  -4  -8   6   20.90    2.30
   3   8  -6    0.60    0.90
   3   8  -6    1.30    1.00
   3   8  -6   -0.70    1.00
  -3  -8   6    0.90    1.00
  -3  -8   6    1.50    1.10
  -3  -8   6    0.10    1.00
  -3  -8   6    1.50    1.40
   2   8  -6    2.00    1.00
   2   8  -6    1.50    1.10
   2   8  -6    3.50    1.00
   2   8  -6    3.60    1.30
   2   8  -6    3.00    1.10
  -2  -8   6    3.70    1.30
  -2  -8   6    1.80    1.10
  -2  -8   6    2.80    1.10
  -2  -8   6    3.70    1.20
   1   8  -6  102.29    4.70
   1   8  -6  108.99    4.80
   1   8  -6  101.19    5.00
   1   8  -6  108.59    5.00
  -1  -8   6   99.29    4.90
  -1  -8   6  108.69    4.80
  -1  -8   6  102.69    4.80
  -1  -8   6  107.39    4.80
  -1  -8   6  106.49    4.90
   0   8  -6   47.00    2.90
   0   8  -6   45.80    3.00
   0   8  -6   42.80    2.50
   0  -8   6   46.00    2.70
   0  -8   6   47.20    2.70
   0  -8   6   47.70    2.40
   0  -8   6   44.10    2.60
  -1   8  -6   56.39    2.90
  -1   8  -6   64.69    3.20
  -1   8  -6   52.59    3.20
  -1   8  -6   53.39    3.40
   1  -8   6   58.39    3.00
   1  -8   6   57.49    3.10
   1  -8   6   57.29    2.60
  -2   8  -6   71.49    3.60
  -2   8  -6   71.59    2.90
  -2   8  -6   72.89    4.10
  -2   8  -6   75.09    3.80
  -2   8  -6   70.79    3.10
  -2   8  -6   74.49    3.50
   2  -8   6   65.99    3.40
   2  -8   6   67.79    3.60
   2  -8   6   76.39    3.50
  -3   8  -6    6.80    1.30
  -3   8  -6    9.60    1.20
  -3   8  -6    5.80    1.20
  -3   8  -6    8.00    1.70
   3  -8   6    7.60    1.30
   3  -8   6    7.70    1.20
   3  -8   6   10.00    1.40
  -4   8  -6    1.60    1.50
  -4   8  -6    1.20    0.70
  -4   8  -6    0.10    0.80
  -4   8  -6    0.30    1.00
   4  -8   6    0.70    0.80
   4  -8   6    1.40    0.90
   4  -8   6   -0.20    0.80
  -5   8  -6    0.40    0.90
  -5   8  -6    1.90    1.60
   5  -8   6   -0.20    1.00
   5   7  -6    8.20    2.00
   5   7  -6    6.10    1.80
  -5  -7   6    5.80    1.60
  -5  -7   6   10.30    2.70
   4   7  -6    2.50    1.00
   4   7  -6    1.80    1.30
   4   7  -6    0.00    0.90
   4   7  -6    0.50    1.10
  -4  -7   6   -0.10    1.00
  -4  -7   6    0.50    1.00
  -4  -7   6   -1.90    1.40
  -4  -7   6    1.90    1.10
   3   7  -6    7.80    1.30
   3   7  -6    8.60    1.50
   3   7  -6   11.50    1.50
   3   7  -6   10.80    1.50
  -3  -7   6    9.30    1.50
  -3  -7   6    9.40    1.50
  -3  -7   6   12.00    1.90
  -3  -7   6    7.80    1.50
   2   7  -6  331.47   13.10
   2   7  -6  351.96   12.90
   2   7  -6  342.87   12.80
   2   7  -6  333.57   12.90
  -2  -7   6  352.66   13.00
  -2  -7   6  347.37   14.30
  -2  -7   6  342.87   13.10
  -2  -7   6  343.47   13.20
  -2  -7   6  350.76   13.00
   1   7  -6   71.49    3.20
   1   7  -6   78.69    3.60
   1   7  -6   70.89    3.50
   1   7  -6   78.29    3.80
   1   7  -6   71.89    3.90
  -1  -7   6   71.29    3.60
  -1  -7   6   73.69    3.70
  -1  -7   6   78.99    3.70
  -1  -7   6   79.69    3.90
  -1  -7   6   75.99    3.70
  -1  -7   6   75.79    3.80
   0   7  -6   54.29    3.00
   0   7  -6   52.99    2.70
   0   7  -6   50.99    3.10
   0  -7   6   56.69    2.70
   0  -7   6   55.39    2.80
   0  -7   6   57.69    2.90
  -1   7  -6    2.60    0.50
  -1   7  -6    1.60    0.70
  -1   7  -6    1.50    0.90
  -1   7  -6    2.40    0.70
  -1   7  -6    0.70    0.60
   1  -7   6    2.30    0.70
   1  -7   6    1.40    0.60
   1  -7   6    1.30    0.70
  -2   7  -6    1.20    0.70
  -2   7  -6    0.70    1.10
  -2   7  -6    1.30    0.70
  -2   7  -6    2.40    0.70
   2  -7   6    2.00    0.70
   2  -7   6    3.40    0.90
   2  -7   6    1.90    0.70
   2  -7   6    1.40    0.70
  -3   7  -6    4.70    1.20
  -3   7  -6    8.70    1.10
  -3   7  -6    7.30    1.30
  -3   7  -6    8.60    1.80
   3  -7   6    8.10    1.30
   3  -7   6    6.10    1.10
   3  -7   6    7.60    1.10
  -4   7  -6    6.10    1.70
  -4   7  -6    6.90    1.40
   4  -7   6    3.60    1.10
   4  -7   6    6.80    1.10
   4  -7   6    5.90    1.10
  -5   7  -6   -1.40    1.40
  -5   7  -6    0.60    0.90
   5  -7   6   -1.30    0.80
   5   6  -6    2.70    1.50
   5   6  -6    2.20    1.60
  -5  -6   6    1.50    1.20
  -5  -6   6    3.20    2.10
   4   6  -6   29.80    2.20
   4   6  -6   31.30    2.70
   4   6  -6   30.40    2.80
   4   6  -6   31.30    2.30
  -4  -6   6   21.10    2.40
  -4  -6   6   28.30    2.30
  -4  -6   6   39.00    3.20
  -4  -6   6   29.30    2.40
   3   6  -6    3.50    1.20
   3   6  -6    4.40    1.00
   3   6  -6    4.90    1.10
   3   6  -6    5.30    1.20
  -3  -6   6    3.70    1.10
  -3  -6   6    3.60    1.10
  -3  -6   6    3.70    1.00
  -3  -6   6    5.30    1.40
   2   6  -6   64.39    3.20
   2   6  -6   69.59    3.60
   2   6  -6   67.89    3.30
   2   6  -6   65.89    3.20
   2   6  -6   61.39    3.30
  -2  -6   6   69.09    3.40
  -2  -6   6   70.39    3.60
  -2  -6   6   66.69    3.30
  -2  -6   6   67.69    3.40
  -2  -6   6   68.09    3.50
   1   6  -6   94.29    4.40
   1   6  -6  104.79    4.10
   1   6  -6  106.89    4.40
   1   6  -6  107.39    4.60
   1   6  -6   98.19    4.70
  -1  -6   6  100.29    4.60
  -1  -6   6  106.79    4.50
  -1  -6   6  105.39    4.60
  -1  -6   6  103.49    4.40
  -1  -6   6  105.89    4.70
  -1  -6   6  100.09    4.40
   0   6  -6  113.09    4.80
   0   6  -6  110.69    4.60
   0   6  -6  106.79    4.90
   0  -6   6  114.09    4.60
   0  -6   6  111.89    4.80
   0  -6   6  107.29    4.60
  -1   6  -6    2.50    0.70
  -1   6  -6    2.70    0.80
  -1   6  -6    4.50    1.10
  -1   6  -6    3.70    0.70
  -1   6  -6    2.90    0.80
   1  -6   6    3.40    0.70
   1  -6   6    1.60    0.60
   1  -6   6    2.60    0.80
  -2   6  -6   10.10    1.60
  -2   6  -6   10.30    1.40
  -2   6  -6    8.70    1.20
  -2   6  -6    9.30    1.30
  -2   6  -6   10.10    1.20
   2  -6   6   10.40    1.20
   2  -6   6    6.60    1.10
   2  -6   6   11.40    1.30
   2  -6   6   10.30    1.20
  -3   6  -6  188.48    7.60
  -3   6  -6  184.28    7.00
  -3   6  -6  190.78    7.40
  -3   6  -6  159.58    7.20
   3  -6   6  181.88    6.70
   3  -6   6  175.48    7.10
   3  -6   6  168.98    7.00
   3  -6   6  160.18    7.10
  -4   6  -6    3.60    1.20
  -4   6  -6    4.00    1.60
  -4   6  -6    4.50    1.10
  -4   6  -6    3.60    1.30
   4  -6   6    2.40    1.00
   4  -6   6    2.10    0.80
   4  -6   6    1.90    0.80
  -5   6  -6    1.00    1.00
  -5   6  -6    2.00    1.60
   5  -6   6   -0.70    0.80
   5  -6   6   -0.90    0.90
   5   5  -6   10.70    2.00
   5   5  -6    7.50    1.80
  -5  -5   6   12.10    2.50
  -5  -5   6    9.00    1.60
   4   5  -6   25.70    2.60
   4   5  -6   19.90    1.80
   4   5  -6   23.40    2.40
   4   5  -6   22.30    1.80
  -4  -5   6   22.00    2.50
  -4  -5   6   20.50    1.90
  -4  -5   6   17.20    1.90
  -4  -5   6   20.60    1.80
   3   5  -6   78.99    3.80
   3   5  -6   72.49    3.60
   3   5  -6   73.19    3.50
   3   5  -6   72.39    3.90
  -3  -5   6   73.09    3.80
  -3  -5   6   75.99    3.60
  -3  -5   6   78.09    3.70
  -3  -5   6   76.99    3.90
  -3  -5   6   78.89    3.90
   2   5  -6   12.30    1.30
   2   5  -6   13.10    1.30
   2   5  -6   12.30    1.70
   2   5  -6   11.50    1.20
   2   5  -6   12.70    1.30
  -2  -5   6   14.00    1.50
  -2  -5   6   11.30    1.40
  -2  -5   6   12.50    1.40
  -2  -5   6   13.00    1.40
  -2  -5   6   13.40    1.40
   1   5  -6  259.67    9.60
   1   5  -6  237.48    9.30
   1   5  -6  258.37    9.80
   1   5  -6  255.17    9.40
   1   5  -6  245.28    9.10
  -1  -5   6  253.97    9.60
  -1  -5   6  261.17    9.70
  -1  -5   6  241.58    9.30
  -1  -5   6  263.67    9.70
  -1  -5   6  246.28    9.40
   0   5  -6    9.70    1.00
   0   5  -6    9.00    1.10
   0   5  -6    8.30    1.00
   0   5  -6    8.60    1.30
   0   5  -6    8.60    1.00
   0  -5   6    6.30    0.90
   0  -5   6    9.10    1.10
   0  -5   6    7.70    0.90
   0  -5   6    9.20    1.10
  -1   5  -6   27.10    1.70
  -1   5  -6   25.60    1.80
  -1   5  -6   26.10    2.00
  -1   5  -6   30.70    1.80
   1  -5   6   27.00    1.70
   1  -5   6   25.70    1.70
   1  -5   6   28.30    1.80
  -2   5  -6   11.70    1.40
  -2   5  -6   10.80    1.20
  -2   5  -6   12.60    1.60
  -2   5  -6   11.30    1.40
  -2   5  -6   12.50    1.30
   2  -5   6   12.10    1.40
   2  -5   6   11.30    0.80
   2  -5   6   10.60    1.20
   2  -5   6   10.90    1.20
   2  -5   6   11.10    1.20
  -3   5  -6   50.19    3.00
  -3   5  -6   49.60    3.00
  -3   5  -6   49.40    3.10
  -3   5  -6   39.90    2.80
   3  -5   6   44.30    2.50
   3  -5   6   51.69    2.40
   3  -5   6   39.90    2.60
  -4   5  -6    3.10    1.50
  -4   5  -6    3.70    1.20
  -4   5  -6    2.40    1.20
  -4   5  -6    2.90    1.00
   4  -5   6    1.80    0.80
   4  -5   6    1.70    1.00
   4  -5   6    3.10    0.80
  -5   5  -6    0.30    0.90
  -5   5  -6   -0.50    1.40
   5  -5   6   -0.30    0.90
   5  -5   6    0.10    0.90
   6   4  -6    1.90    1.70
   6   4  -6    2.80    1.70
  -6  -4   6    0.20    1.00
  -6  -4   6    0.10    2.50
   5   4  -6   11.80    2.00
   5   4  -6   12.20    2.00
  -5  -4   6   17.70    2.50
  -5  -4   6   10.40    1.50
   4   4  -6   12.90    1.90
   4   4  -6   12.50    1.70
   4   4  -6   15.00    1.40
  -4  -4   6   11.30    1.40
  -4  -4   6   12.80    1.40
  -4  -4   6   15.80    2.00
  -4  -4   6   10.90    1.40
   3   4  -6    1.80    0.70
   3   4  -6    1.20    0.80
   3   4  -6    1.00    0.90
  -3  -4   6    0.60    0.80
  -3  -4   6    1.80    0.80
  -3  -4   6    1.00    0.70
  -3  -4   6    2.70    1.00
  -3  -4   6    1.30    0.70
   2   4  -6   11.80    1.10
   2   4  -6   12.60    1.20
   2   4  -6   12.60    1.20
  -2  -4   6    8.70    1.20
  -2  -4   6   13.90    1.20
  -2  -4   6   11.30    1.30
  -2  -4   6   14.30    1.20
  -2  -4   6   11.60    1.50
   1   4  -6   57.69    2.50
   1   4  -6   59.89    2.60
   1   4  -6   62.39    2.70
   1   4  -6   62.79    2.90
   1   4  -6   62.79    3.10
  -1  -4   6   61.69    3.00
  -1  -4   6   65.49    3.00
  -1  -4   6   58.49    2.80
  -1  -4   6   57.99    2.90
   0   4  -6  525.25   19.50
   0   4  -6  527.05   19.80
   0   4  -6  568.84   19.70
   0   4  -6  595.64   19.70
   0  -4   6  513.95   19.50
   0  -4   6  535.85   19.60
   0  -4   6  543.05   19.60
   0  -4   6  573.24   19.80
  -1   4  -6   14.70    1.30
  -1   4  -6   15.00    1.50
  -1   4  -6   14.60    1.30
  -1   4  -6   15.90    1.20
  -1   4  -6   16.30    1.40
   1  -4   6   13.60    1.20
   1  -4   6   14.40    1.40
   1  -4   6   16.10    1.30
  -2   4  -6    2.50    0.90
  -2   4  -6    3.90    0.80
  -2   4  -6    3.30    1.00
  -2   4  -6    3.00    0.70
   2  -4   6    3.40    0.60
   2  -4   6    1.50    0.70
   2  -4   6    2.10    0.70
   2  -4   6    3.40    0.90
   2  -4   6    3.00    0.70
  -3   4  -6   22.20    2.20
  -3   4  -6   24.40    2.40
  -3   4  -6   25.10    2.00
  -3   4  -6   21.70    2.00
  -3   4  -6   21.60    2.00
   3  -4   6   23.20    1.60
   3  -4   6   27.90    1.70
   3  -4   6   22.00    1.80
  -4   4  -6    2.80    1.40
  -4   4  -6    3.20    1.10
  -4   4  -6    3.50    1.20
   4  -4   6    3.30    0.90
   4  -4   6    4.10    1.10
  -5   4  -6    2.50    1.70
  -5   4  -6    0.00    1.00
   5  -4   6    0.30    0.90
   5  -4   6    0.10    0.90
   6   3  -6    0.60    1.50
   6   3  -6    2.50    1.60
  -6  -3   6    3.10    1.90
  -6  -3   6    2.30    1.10
   5   3  -6    1.20    1.40
   5   3  -6    0.80    1.20
  -5  -3   6    3.00    1.50
  -5  -3   6    2.30    0.90
   4   3  -6   13.80    1.80
   4   3  -6   15.00    1.30
   4   3  -6   15.20    1.90
  -4  -3   6   15.20    1.40
  -4  -3   6   11.20    1.70
  -4  -3   6   15.20    1.50
  -4  -3   6   15.00    1.90
   3   3  -6  116.69    4.80
   3   3  -6  119.79    5.40
   3   3  -6  118.99    5.20
  -3  -3   6  126.29    5.20
  -3  -3   6  122.59    5.10
  -3  -3   6  123.39    5.10
  -3  -3   6  126.99    4.90
   2   3  -6    3.90    0.70
   2   3  -6    3.80    0.80
   2   3  -6    4.00    0.70
   2   3  -6    4.30    0.60
   2   3  -6    5.80    0.80
  -2  -3   6    3.70    0.60
  -2  -3   6    3.50    0.70
  -2  -3   6    3.70    0.70
  -2  -3   6    3.90    1.00
  -2  -3   6    3.90    0.70
   1   3  -6   23.20    1.40
   1   3  -6   23.80    1.70
   1   3  -6   22.80    1.20
   1   3  -6   22.00    1.10
  -1  -3   6   24.80    1.50
  -1  -3   6   21.60    1.40
  -1  -3   6   21.90    1.60
  -1  -3   6   23.50    1.20
  -1  -3   6   24.50    1.50
   0   3  -6  224.48    9.10
   0   3  -6  236.98    8.80
   0   3  -6  244.18    9.00
   0   3  -6  255.67    9.00
   0  -3   6  254.47    9.10
   0  -3   6  238.98    9.00
   0  -3   6  237.58    9.00
   0  -3   6  223.18    8.80
  -1   3  -6   -0.50    0.60
  -1   3  -6    0.70    0.60
  -1   3  -6    0.00    0.50
  -1   3  -6   -0.10    0.40
   1  -3   6    0.00    0.50
   1  -3   6    0.60    0.60
   1  -3   6    0.30    0.50
  -2   3  -6   25.90    1.80
  -2   3  -6   25.00    1.80
  -2   3  -6   28.20    2.00
  -2   3  -6   27.80    1.90
  -2   3  -6   25.40    1.90
   2  -3   6   22.80    1.40
   2  -3   6   23.40    2.00
   2  -3   6   26.30    1.50
  -3   3  -6   31.00    2.40
  -3   3  -6   31.30    2.00
  -3   3  -6   25.70    2.50
  -3   3  -6   30.50    2.20
   3  -3   6   27.80    1.60
   3  -3   6   33.20    2.00
   3  -3   6   30.80    2.10
  -4   3  -6    1.20    1.10
  -4   3  -6    0.70    0.90
  -4   3  -6    3.10    1.50
   4  -3   6    1.10    0.90
   4  -3   6    2.70    1.00
  -5   3  -6    3.50    1.90
  -5   3  -6    3.60    1.30
   5  -3   6    6.30    1.50
   5  -3   6    2.50    1.20
   6   2  -6    0.40    1.40
   6   2  -6    1.00    1.50
  -6  -2   6    1.10    0.90
  -6  -2   6    2.80    1.90
   5   2  -6    2.10    1.30
   5   2  -6    2.20    1.30
  -5  -2   6    2.00    0.80
  -5  -2   6    2.70    1.40
   4   2  -6   55.79    3.30
   4   2  -6   47.90    3.00
   4   2  -6   45.10    2.30
  -4  -2   6   49.40    2.70
  -4  -2   6   54.79    3.00
  -4  -2   6   46.70    2.30
  -4  -2   6   46.70    2.60
   3   2  -6   11.00    1.00
   3   2  -6   10.60    1.30
   3   2  -6   12.90    1.60
  -3  -2   6   10.10    1.20
  -3  -2   6   10.90    1.20
  -3  -2   6    9.30    1.60
  -3  -2   6   10.60    1.10
  -3  -2   6   11.90    1.00
   2   2  -6    0.40    0.50
   2   2  -6    0.90    0.50
   2   2  -6    0.80    0.40
  -2  -2   6    0.80    0.70
  -2  -2   6    1.00    0.40
  -2  -2   6    1.20    0.40
  -2  -2   6    1.20    0.50
  -2  -2   6    1.10    0.50
   1   2  -6   74.89    3.00
   1   2  -6   75.99    3.10
  -1  -2   6   77.49    3.30
  -1  -2   6   76.99    3.00
  -1  -2   6   77.79    3.30
  -1  -2   6   73.09    3.40
  -1  -2   6   73.49    3.10
   0   2  -6   57.59    2.70
   0   2  -6   49.70    2.30
   0   2  -6   55.49    2.80
   0   2  -6   63.39    2.80
   0   2  -6   58.09    2.70
   0   2  -6   61.59    2.60
   0  -2   6   59.99    2.80
   0  -2   6   60.69    2.90
   0  -2   6   57.09    2.60
   0  -2   6   59.89    2.80
  -1   2  -6   66.79    3.10
  -1   2  -6   77.89    3.30
  -1   2  -6   69.79    3.10
  -1   2  -6   67.89    3.20
  -1   2  -6   69.89    3.30
  -1   2  -6   64.19    3.20
   1  -2   6   70.09    3.20
   1  -2   6   69.79    3.40
   1  -2   6   71.69    3.10
  -2   2  -6    2.90    0.90
  -2   2  -6    2.40    0.80
  -2   2  -6    2.10    0.80
  -2   2  -6    2.60    0.80
  -2   2  -6    2.20    0.90
   2  -2   6    2.50    1.00
   2  -2   6    0.60    0.40
  -3   2  -6    1.10    1.00
  -3   2  -6   -0.60    0.90
  -3   2  -6    0.30    0.80
   3  -2   6    1.10    0.40
   3  -2   6    1.80    0.80
   3  -2   6    2.40    0.90
  -4   2  -6    4.00    1.60
  -4   2  -6    3.30    1.10
  -4   2  -6    3.30    1.30
   4  -2   6    4.50    1.10
   4  -2   6    5.90    1.20
  -5   2  -6    0.90    1.80
  -5   2  -6   -1.60    0.90
   5  -2   6   -0.60    1.00
   5  -2   6    0.60    1.00
   6   1  -6    0.50    1.50
   6   1  -6   -0.20    1.40
  -6  -1   6    1.00    0.70
  -6  -1   6    1.00    1.70
   5   1  -6   -1.30    0.90
   5   1  -6   -0.50    1.00
  -5  -1   6    0.80    0.60
  -5  -1   6    0.70    1.10
   4   1  -6   14.40    1.80
   4   1  -6   11.00    1.60
  -4  -1   6   12.40    1.60
  -4  -1   6   12.90    1.20
  -4  -1   6   14.00    1.00
  -4  -1   6   14.20    1.30
   3   1  -6  147.99    6.10
   3   1  -6  145.69    5.50
   3   1  -6  148.29    5.60
   3   1  -6  146.69    6.30
  -3  -1   6  155.78    5.90
  -3  -1   6  150.98    5.60
  -3  -1   6  150.98    5.80
  -3  -1   6  154.78    6.60
  -3  -1   6  143.09    5.80
   2   1  -6    3.10    0.50
   2   1  -6    2.70    0.50
   2   1  -6    2.30    0.50
   2   1  -6    2.10    0.60
   2   1  -6    3.60    0.50
   2   1  -6    2.40    0.60
  -2  -1   6    1.50    0.80
  -2  -1   6    2.20    0.50
  -2  -1   6    2.40    0.50
  -2  -1   6    3.10    0.60
  -2  -1   6    3.20    0.40
  -2  -1   6    2.00    0.50
  -2  -1   6    3.20    0.60
   1   1  -6   -0.30    0.40
   1   1  -6    0.50    0.40
   1   1  -6    0.40    0.50
   1   1  -6    0.00    0.30
  -1  -1   6    0.40    0.40
  -1  -1   6   -0.10    0.50
  -1  -1   6    0.60    0.40
  -1  -1   6    0.60    0.40
   0   1  -6  320.97   11.30
   0   1  -6  294.97   11.00
   0   1  -6  315.57   11.40
   0   1  -6  303.77   11.30
   0   1  -6  308.67   11.20
   0  -1   6  302.07   11.50
   0  -1   6  303.97   11.30
   0  -1   6  316.57   11.40
   0  -1   6  304.77   11.20
  -1   1  -6  133.39    5.20
  -1   1  -6  116.19    5.10
  -1   1  -6  124.69    5.20
  -1   1  -6  120.29    5.10
   1  -1   6  123.69    5.30
   1  -1   6  126.49    5.20
  -2   1  -6    0.60    0.80
  -2   1  -6    2.00    0.80
  -2   1  -6    2.40    0.80
  -2   1  -6    2.70    0.90
   2  -1   6    1.70    0.60
   2  -1   6    1.70    0.70
   2  -1   6    2.20    0.90
  -3   1  -6    2.60    1.00
  -3   1  -6    3.10    1.10
  -3   1  -6    2.00    1.20
   3  -1   6    2.80    0.90
   3  -1   6    5.10    1.10
  -4   1  -6    3.70    1.30
  -4   1  -6    2.80    1.10
  -4   1  -6    1.50    1.50
  -4   1  -6    2.40    1.10
   4  -1   6    3.90    1.20
   4  -1   6    3.20    1.10
   4  -1   6    1.70    0.90
  -5   1  -6    0.20    1.20
  -5   1  -6   -0.50    1.80
   5  -1   6    0.20    1.00
   5  -1   6    0.30    1.00
   6   0  -6    0.40    1.30
   6   0  -6    0.70    1.40
  -6   0   6    0.60    0.60
  -6   0   6   -0.20    1.40
  -6   0   6    2.00    1.70
   5   0  -6   -0.40    1.00
   5   0  -6   -0.70    0.90
  -5   0   6    0.90    0.50
  -5   0   6    0.90    1.30
  -5   0   6   -0.10    1.00
  -5   0   6    1.00    0.60
   4   0  -6   43.50    2.80
   4   0  -6   44.00    3.00
  -4   0   6   50.19    3.40
  -4   0   6   45.90    2.70
  -4   0   6   47.70    2.20
  -4   0   6   43.30    2.10
   3   0  -6   12.90    0.80
   3   0  -6   13.60    1.50
   3   0  -6   12.30    1.50
   3   0  -6   11.30    1.00
  -3   0   6   11.50    1.60
  -3   0   6   12.00    1.00
  -3   0   6   12.80    0.80
  -3   0   6   11.90    1.20
  -3   0   6   11.90    1.10
   2   0  -6    3.20    0.70
   2   0  -6    4.50    0.50
   2   0  -6    4.00    0.50
   2   0  -6    3.60    0.60
   2   0  -6    3.80    0.70
   2   0  -6    4.40    0.60
  -2   0   6    2.50    0.50
  -2   0   6    4.50    0.50
  -2   0   6    4.40    0.50
  -2   0   6    3.70    0.60
  -2   0   6    3.70    0.90
  -2   0   6    3.30    0.50
   1   0  -6    5.60    0.70
   1   0  -6    5.90    0.80
   1   0  -6    6.20    0.70
   1   0  -6    6.10    0.80
  -1   0   6    5.10    0.90
  -1   0   6    4.20    0.70
  -1   0   6    6.30    0.70
   0   0  -6   29.70    1.50
   0   0  -6   30.60    1.80
   0   0  -6   29.10    1.60
   0   0  -6   31.10    1.80
   0   0   6   29.30    1.80
   0   0   6   29.20    1.50
   0   0   6   31.30    2.00
   0   0   6   30.40    1.80
  -1   0  -6  101.99    4.50
  -1   0  -6   98.59    4.50
  -1   0  -6  104.29    4.50
  -1   0  -6  107.79    4.50
   1   0   6  103.79    4.50
   1   0   6  104.19    4.70
   1   0   6  103.89    4.50
  -2   0  -6    6.20    1.10
  -2   0  -6    5.70    1.10
  -2   0  -6    6.40    1.30
  -2   0  -6    5.40    1.30
   2   0   6    6.30    1.10
   2   0   6    5.60    0.90
   2   0   6    7.90    0.90
   2   0   6    4.40    1.20
  -3   0  -6    5.30    1.50
  -3   0  -6    4.40    1.20
  -3   0  -6    5.00    1.20
   3   0   6    3.60    0.90
  -4   0  -6   -0.60    1.40
  -4   0  -6    0.10    0.90
  -4   0  -6   -0.10    1.10
  -4   0  -6    0.10    0.90
   4   0   6    0.70    1.00
   4   0   6    0.50    0.90
   4   0   6    0.70    0.90
  -5   0  -6    1.10    1.30
  -5   0  -6    1.80    2.00
   5   0   6    2.10    1.40
   5   0   6    0.80    1.10
   6  -1  -6    8.30    1.80
   6  -1  -6    6.60    2.00
  -6   1   6    3.00    1.70
  -6   1   6    7.30    2.00
   5  -1  -6    1.70    1.20
   5  -1  -6    3.50    1.20
  -5   1   6    1.70    1.20
  -5   1   6    2.40    1.50
   4  -1  -6    2.10    0.90
   4  -1  -6    2.40    1.10
  -4   1   6    1.20    1.10
  -4   1   6    1.80    0.50
  -4   1   6    2.40    0.90
  -4   1   6    1.60    0.50
   3  -1  -6   35.00    1.50
   3  -1  -6   35.70    2.20
   3  -1  -6   33.10    2.30
  -3   1   6   33.00    1.90
  -3   1   6   31.80    1.70
  -3   1   6   39.40    2.60
  -3   1   6   30.80    1.70
   2  -1  -6  340.77   12.30
   2  -1  -6  349.07   12.20
   2  -1  -6  361.36   12.20
   2  -1  -6  333.57   12.70
  -2   1   6  319.07   12.30
  -2   1   6  347.37   12.80
  -2   1   6  338.57   12.40
  -2   1   6  342.87   12.20
  -2   1   6  351.96   12.20
   1  -1  -6    0.40    0.40
   1  -1  -6   -0.40    0.30
   1  -1  -6    0.60    0.50
  -1   1   6    0.90    0.60
  -1   1   6    0.00    0.40
  -1   1   6    0.10    0.30
  -1   1   6    0.40    0.40
   0  -1  -6   79.59    3.40
   0  -1  -6   73.49    3.10
   0  -1  -6   76.09    3.50
   0  -1  -6   77.89    3.60
   0   1   6   77.59    3.30
   0   1   6   77.59    3.60
   0   1   6   82.49    3.60
   0   1   6   80.59    3.80
  -1  -1  -6  320.17   11.20
  -1  -1  -6  298.97   11.00
  -1  -1  -6  279.57   11.00
  -1  -1  -6  275.97   10.90
   1   1   6  278.67   10.30
   1   1   6  281.17   11.10
   1   1   6  289.97   11.00
  -2  -1  -6   -0.60    0.60
  -2  -1  -6   -0.50    0.80
  -2  -1  -6   -1.10    0.90
  -2  -1  -6    0.10    0.70
   2   1   6    0.10    0.60
   2   1   6    0.50    0.60
   2   1   6    0.80    0.50
  -3  -1  -6    1.20    1.10
  -3  -1  -6    0.90    1.20
  -3  -1  -6   -0.70    0.80
  -3  -1  -6    0.40    0.90
   3   1   6    0.40    0.70
   3   1   6    2.60    1.00
  -4  -1  -6    5.70    2.00
  -4  -1  -6    3.80    1.40
  -4  -1  -6    2.50    1.20
  -4  -1  -6    3.60    1.60
   4   1   6    5.70    1.50
   4   1   6    4.40    1.20
   4   1   6    5.30    1.40
  -5  -1  -6    1.00    1.30
  -5  -1  -6    0.30    2.00
   5   1   6   -1.20    2.00
   5   1   6   -0.70    1.20
   5   1   6   -0.90    0.90
   6  -2  -6   -0.10    1.20
   6  -2  -6   -1.70    1.30
  -6   2   6    1.10    1.30
  -6   2   6    2.90    1.60
   5  -2  -6    1.60    1.20
   5  -2  -6    1.10    1.00
  -5   2   6    0.60    1.20
  -5   2   6    1.20    1.10
   4  -2  -6    8.50    1.40
   4  -2  -6   12.10    1.70
  -4   2   6   12.80    1.90
  -4   2   6   11.80    1.50
   3  -2  -6  155.38    5.50
   3  -2  -6  148.69    6.40
  -3   2   6  157.68    6.50
  -3   2   6  144.59    5.70
   2  -2  -6   37.70    1.90
   2  -2  -6   29.00    2.10
   2  -2  -6   35.70    1.90
   2  -2  -6   35.20    1.90
  -2   2   6   32.00    1.90
  -2   2   6   37.10    1.70
  -2   2   6   35.00    1.90
  -2   2   6   38.40    1.80
  -2   2   6   38.30    1.90
  -2   2   6   33.80    2.20
   1  -2  -6   29.90    1.70
   1  -2  -6   30.70    1.80
   1  -2  -6   30.60    1.60
   1  -2  -6   29.20    1.70
  -1   2   6   27.80    1.50
  -1   2   6   28.00    1.80
  -1   2   6   29.80    2.00
  -1   2   6   30.60    1.80
   0  -2  -6   14.70    1.00
   0  -2  -6   14.80    1.30
   0  -2  -6   15.60    1.50
   0  -2  -6   16.10    1.40
   0   2   6   14.00    1.30
   0   2   6   13.10    1.50
   0   2   6   15.80    1.40
  -1  -2  -6   -0.20    0.80
  -1  -2  -6    0.50    0.70
  -1  -2  -6    0.90    0.90
   1   2   6   -0.50    0.40
   1   2   6    0.20    0.80
   1   2   6    0.60    0.70
  -2  -2  -6   -0.40    0.80
  -2  -2  -6    1.10    1.10
  -2  -2  -6   -1.20    0.90
  -2  -2  -6    1.50    0.90
   2   2   6    0.50    0.80
   2   2   6    0.00    0.60
   2   2   6    1.30    0.80
  -3  -2  -6    4.30    1.60
  -3  -2  -6    4.80    1.40
  -3  -2  -6    7.30    1.40
  -3  -2  -6    6.10    1.60
   3   2   6    6.00    1.30
   3   2   6    5.00    1.10
  -4  -2  -6    4.60    1.50
  -4  -2  -6    1.70    1.80
  -4  -2  -6    2.90    1.30
  -4  -2  -6    3.30    1.50
   4   2   6    1.90    1.10
   4   2   6    0.90    1.10
   4   2   6    2.60    1.30
  -5  -2  -6    1.40    2.10
   5   2   6    0.30    1.30
   6  -3  -6   -1.20    1.60
   6  -3  -6   -0.30    1.10
  -6   3   6    1.60    1.50
  -6   3   6    0.60    1.40
  -6   3   6    1.90    1.60
   5  -3  -6   11.00    1.70
   5  -3  -6   10.30    1.90
  -5   3   6   15.80    2.30
  -5   3   6   12.50    1.90
   4  -3  -6    2.90    1.10
  -4   3   6    5.00    1.30
   3  -3  -6    7.50    0.70
   3  -3  -6    5.10    1.10
   3  -3  -6    7.90    1.40
  -3   3   6    7.50    0.60
  -3   3   6    7.50    1.40
  -3   3   6    6.40    0.80
  -3   3   6    7.30    0.90
   2  -3  -6   17.10    1.60
   2  -3  -6   18.40    1.50
   2  -3  -6   16.70    1.40
   2  -3  -6   20.50    1.40
  -2   3   6   18.10    1.30
  -2   3   6   17.60    1.70
  -2   3   6   18.90    1.30
  -2   3   6   12.40    1.30
   1  -3  -6    1.30    0.60
   1  -3  -6    2.70    0.80
   1  -3  -6    2.00    0.70
   1  -3  -6    2.50    0.60
   1  -3  -6    2.60    0.80
  -1   3   6    2.80    0.90
  -1   3   6    2.80    0.70
  -1   3   6    2.00    0.60
   0  -3  -6   27.30    2.00
   0  -3  -6   25.20    1.90
   0  -3  -6   23.10    1.70
   0   3   6   27.10    1.90
   0   3   6   24.70    1.80
   0   3   6   27.50    2.10
  -1  -3  -6   17.60    1.90
  -1  -3  -6   18.90    1.80
  -1  -3  -6   20.70    2.00
  -1  -3  -6   17.50    1.70
   1   3   6   18.80    1.70
   1   3   6   18.00    1.80
   1   3   6   18.00    1.10
   1   3   6   19.60    2.10
  -2  -3  -6   79.79    4.30
  -2  -3  -6   86.79    4.60
  -2  -3  -6   89.29    4.50
  -2  -3  -6   86.09    4.20
   2   3   6   81.79    4.10
   2   3   6   82.49    4.30
   2   3   6   78.89    3.60
  -3  -3  -6   29.60    2.70
  -3  -3  -6   32.40    3.20
  -3  -3  -6   25.10    2.60
  -3  -3  -6   24.50    3.00
   3   3   6   27.10    2.50
   3   3   6   27.80    1.90
  -4  -3  -6    5.20    1.60
  -4  -3  -6    3.80    2.00
  -4  -3  -6    2.40    2.00
  -4  -3  -6    3.50    1.50
   4   3   6    1.20    1.40
   4   3   6    1.40    1.00
   4   3   6    2.80    1.30
  -6   4   6    1.70    1.80
  -6   4   6    6.40    1.90
  -6   4   6    4.00    2.10
   5  -4  -6   -2.30    1.20
  -5   4   6    0.30    1.00
  -5   4   6   -1.20    1.10
   4  -4  -6   39.40    2.90
   4  -4  -6   36.20    2.50
  -4   4   6   37.40    2.80
  -4   4   6   28.70    1.60
   3  -4  -6   14.60    1.70
   3  -4  -6   14.20    1.70
   3  -4  -6   17.10    1.00
  -3   4   6   15.10    1.70
  -3   4   6   14.40    1.20
  -3   4   6   14.40    1.20
  -3   4   6   14.10    1.20
   2  -4  -6   37.50    2.30
   2  -4  -6   39.50    2.00
   2  -4  -6   39.40    2.40
   2  -4  -6   37.20    2.20
   2  -4  -6   41.00    2.10
  -2   4   6   38.80    2.00
  -2   4   6   38.00    2.20
  -2   4   6   39.10    2.20
  -2   4   6   42.70    2.60
   1  -4  -6    0.50    0.80
   1  -4  -6   -0.90    0.70
   1  -4  -6    0.60    0.50
   1  -4  -6    0.50    0.50
   1  -4  -6    0.80    0.70
   1  -4  -6   -0.20    0.50
  -1   4   6    0.30    0.60
  -1   4   6   -0.10    0.80
  -1   4   6    0.20    0.60
  -1   4   6    0.40    0.50
   0  -4  -6    1.40    0.90
   0  -4  -6    0.10    0.80
   0  -4  -6    0.60    0.70
   0  -4  -6   -1.50    0.60
   0   4   6   -0.20    0.60
   0   4   6   -1.50    0.70
   0   4   6    0.30    0.90
  -1  -4  -6   25.10    2.40
  -1  -4  -6   24.00    2.30
  -1  -4  -6   30.30    2.20
  -1  -4  -6   27.50    2.50
   1   4   6   28.90    2.60
   1   4   6   25.90    2.30
   1   4   6   27.30    2.10
   1   4   6   26.90    1.50
  -2  -4  -6    1.10    1.40
  -2  -4  -6    1.70    1.40
  -2  -4  -6    0.60    1.00
  -2  -4  -6    2.00    1.00
   2   4   6    0.60    0.60
   2   4   6    2.30    1.10
  -3  -4  -6    2.90    1.80
  -3  -4  -6    3.20    1.30
  -3  -4  -6    3.20    1.30
  -3  -4  -6    1.30    1.60
   3   4   6    4.10    1.30
   3   4   6    4.20    1.40
  -4  -4  -6    2.50    2.20
  -4  -4  -6   -0.60    1.20
  -4  -4  -6    0.90    2.00
  -4  -4  -6   -0.20    1.20
   4   4   6   -1.50    1.10
  -6   5   6   -2.00    1.30
  -6   5   6    3.30    1.90
   5  -5  -6    3.50    1.60
  -5   5   6    7.40    2.00
  -5   5   6    1.70    1.30
   4  -5  -6   13.70    1.80
   4  -5  -6   14.70    2.00
  -4   5   6   10.50    1.10
  -4   5   6   12.50    1.90
  -4   5   6   12.50    1.10
   3  -5  -6   -0.50    0.40
   3  -5  -6    0.00    0.80
   3  -5  -6   -1.20    0.90
  -3   5   6   -0.90    0.50
  -3   5   6   -0.20    0.80
  -3   5   6   -0.50    0.50
   2  -5  -6   43.20    2.30
   2  -5  -6   44.50    2.70
   2  -5  -6   44.90    2.40
   2  -5  -6   45.20    2.60
  -2   5   6   45.80    2.50
  -2   5   6   41.90    2.80
  -2   5   6   41.40    2.40
  -2   5   6   45.20    2.30
   1  -5  -6   16.10    1.80
   1  -5  -6   12.70    1.40
   1  -5  -6   12.70    1.40
   1  -5  -6   14.90    1.60
   1  -5  -6   13.50    1.70
  -1   5   6   17.20    1.60
  -1   5   6   13.80    1.70
  -1   5   6   14.10    0.90
  -1   5   6   14.80    1.60
  -1   5   6   13.50    1.50
   0  -5  -6    0.20    0.70
   0  -5  -6    1.20    0.80
   0  -5  -6    0.50    1.00
   0  -5  -6    1.90    1.20
   0  -5  -6    0.50    0.70
   0   5   6    0.30    0.80
   0   5   6    1.70    0.90
   0   5   6    1.20    0.40
   0   5   6    0.70    1.00
  -1  -5  -6   25.40    2.20
  -1  -5  -6   24.30    2.60
  -1  -5  -6   23.50    2.30
  -1  -5  -6   20.30    2.40
   1   5   6   19.30    1.90
   1   5   6   22.80    2.20
   1   5   6   21.60    1.20
   1   5   6   18.50    1.90
  -2  -5  -6    2.80    1.10
  -2  -5  -6    3.80    1.80
  -2  -5  -6    2.70    1.30
  -2  -5  -6    4.10    1.70
   2   5   6    4.50    1.40
  -3  -5  -6    0.20    1.20
  -3  -5  -6   -1.10    1.70
  -3  -5  -6   -0.90    1.00
  -3  -5  -6   -0.10    1.70
   3   5   6   -1.50    1.00
  -4  -5  -6   -1.50    1.20
  -4  -5  -6    1.00    2.20
  -4  -5  -6   -0.80    1.30
   4   5   6   -1.50    1.30
  -6   6   6    1.90    2.00
   5  -6  -6    3.50    1.30
  -5   6   6    6.80    2.00
  -5   6   6    3.20    1.50
   4  -6  -6   -0.70    0.90
  -4   6   6   -1.10    0.50
  -4   6   6   -0.20    1.20
  -4   6   6   -0.70    0.90
  -4   6   6    0.20    0.50
   3  -6  -6    0.40    0.80
   3  -6  -6    2.50    0.60
  -3   6   6    0.00    0.60
  -3   6   6    2.50    0.60
  -3   6   6    1.10    0.70
  -3   6   6    2.10    1.00
   2  -6  -6    7.20    1.00
   2  -6  -6   10.50    1.40
   2  -6  -6    5.30    1.20
  -2   6   6    5.60    1.10
  -2   6   6    6.20    1.00
  -2   6   6    7.20    1.20
  -2   6   6    5.20    1.20
   1  -6  -6    2.30    1.10
   1  -6  -6    0.90    1.00
   1  -6  -6   -0.50    0.40
   1  -6  -6    0.10    0.80
   1  -6  -6    0.20    0.80
  -1   6   6   -0.10    0.70
  -1   6   6    1.10    1.00
  -1   6   6   -0.10    0.80
   0  -6  -6    1.10    1.20
   0  -6  -6   -0.70    0.80
   0  -6  -6   -0.50    0.80
   0  -6  -6   -0.20    0.70
   0  -6  -6    0.50    1.20
   0   6   6    0.10    0.90
   0   6   6    0.00    0.90
   0   6   6   -0.90    1.00
   0   6   6    1.20    1.00
  -1  -6  -6   23.00    2.70
  -1  -6  -6   22.20    2.40
  -1  -6  -6   21.10    2.70
  -1  -6  -6   19.90    2.20
   1   6   6   18.40    2.10
   1   6   6   22.00    1.90
   1   6   6   19.40    2.20
  -2  -6  -6   -0.90    0.90
  -2  -6  -6    1.30    1.70
  -2  -6  -6   -1.80    0.90
  -2  -6  -6   -0.80    1.50
   2   6   6    0.40    1.00
  -3  -6  -6    2.50    1.40
  -3  -6  -6    3.60    2.30
  -3  -6  -6    2.50    1.50
   3   6   6    0.90    1.40
  -6   7   6    3.00    2.00
   5  -7  -6    1.20    1.30
  -5   7   6    2.10    1.80
   4  -7  -6    4.00    1.30
  -4   7   6    5.70    1.40
  -4   7   6    5.80    1.90
  -4   7   6    6.60    1.00
   3  -7  -6    4.20    1.20
   3  -7  -6    5.30    0.90
  -3   7   6    6.30    1.80
  -3   7   6    4.40    0.90
  -3   7   6    4.10    1.00
  -3   7   6    7.00    1.30
   2  -7  -6   12.00    1.30
   2  -7  -6   10.20    1.50
  -2   7   6   11.40    1.50
  -2   7   6   15.40    2.30
  -2   7   6   11.90    1.60
  -2   7   6   14.10    1.50
   1  -7  -6    2.80    1.00
   1  -7  -6    0.20    0.80
   1  -7  -6   -0.30    1.00
   1  -7  -6    1.00    1.20
  -1   7   6    1.70    1.00
  -1   7   6    0.60    1.20
  -1   7   6   -1.10    0.70
  -1   7   6    1.10    0.90
   0  -7  -6    4.90    1.10
   0  -7  -6    3.80    1.20
   0  -7  -6    2.00    1.50
   0  -7  -6    3.40    1.40
   0   7   6    3.30    1.00
   0   7   6    3.30    1.20
   0   7   6    4.80    1.40
   0   7   6    2.20    1.10
  -1  -7  -6    0.30    1.50
  -1  -7  -6    0.60    1.40
  -1  -7  -6   -0.60    0.90
   1   7   6    1.00    1.00
   1   7   6   -0.90    0.90
   1   7   6    0.60    1.10
  -2  -7  -6    0.20    1.10
  -2  -7  -6    1.70    1.90
   2   7   6    2.80    1.30
  -3  -7  -6   -0.40    1.30
  -3  -7  -6   -1.10    1.90
   3   7   6   -1.80    1.20
  -6   8   6   -3.60    1.70
   5  -8  -6    3.10    1.30
  -5   8   6    8.60    2.40
  -5   8   6    5.20    1.00
   4  -8  -6   -0.60    0.80
  -4   8   6   -0.40    0.70
  -4   8   6    2.40    1.60
   3  -8  -6    2.20    0.70
   3  -8  -6    1.90    1.10
  -3   8   6    1.20    0.70
  -3   8   6    2.50    1.00
  -3   8   6    1.90    1.50
  -3   8   6    1.50    0.90
   2  -8  -6   21.50    2.20
   2  -8  -6   21.70    1.90
  -2   8   6   23.20    2.10
  -2   8   6   22.80    2.10
  -2   8   6   22.80    2.90
  -2   8   6   23.70    2.00
   1  -8  -6    4.90    1.70
   1  -8  -6    6.10    1.40
   1  -8  -6    7.90    1.40
  -1   8   6   11.50    2.10
  -1   8   6    7.10    1.40
  -1   8   6    6.90    1.40
  -1   8   6    5.60    1.30
   0  -8  -6   -0.20    1.50
   0  -8  -6    1.20    1.10
   0  -8  -6    2.90    1.00
   0   8   6    1.60    1.10
   0   8   6    1.50    1.20
   0   8   6    2.10    1.20
  -1  -8  -6    1.10    1.80
  -1  -8  -6    0.90    1.20
   1   8   6    2.10    1.20
  -2  -8  -6    4.40    1.70
  -2  -8  -6    5.00    2.20
   2   8   6    5.80    1.70
   5  -9  -6    0.40    1.10
  -5   9   6    3.90    2.10
  -5   9   6    0.50    0.70
   4  -9  -6    1.00    1.20
  -4   9   6    3.40    1.90
  -4   9   6    1.30    0.80
   3  -9  -6   -0.80    0.60
   3  -9  -6   -1.10    0.80
  -3   9   6   -1.60    1.30
  -3   9   6   -0.10    0.70
  -3   9   6   -0.90    0.60
   2  -9  -6    0.30    0.90
   2  -9  -6    1.40    0.90
  -2   9   6    1.80    0.90
  -2   9   6    1.50    1.00
  -2   9   6    0.70    0.90
  -2   9   6    0.80    1.40
   1  -9  -6    0.70    1.00
   1  -9  -6    2.90    1.50
   1  -9  -6    0.70    1.00
  -1   9   6    1.60    1.50
  -1   9   6    0.50    1.00
  -1   9   6    1.40    1.00
  -1   9   6    0.10    1.00
   0  -9  -6    1.50    1.00
   0  -9  -6    0.60    1.10
   0  -9  -6    2.60    1.70
   0   9   6    2.30    1.30
   0   9   6    2.10    1.60
   0   9   6    1.30    1.20
  -1  -9  -6   -0.50    2.10
  -1  -9  -6    1.00    1.30
   1   9   6    3.60    1.60
  -2  -9  -6   -0.60    1.40
  -2  -9  -6   -0.10    2.40
   2   9   6   -0.60    1.20
   5 -10  -6    0.00    1.00
  -5  10   6    0.00    0.90
  -5  10   6   -0.10    1.80
   4 -10  -6    1.00    1.20
  -4  10   6    2.50    1.90
  -4  10   6    4.70    1.20
   3 -10  -6    0.20    1.00
   3 -10  -6    1.20    0.80
  -3  10   6   -0.60    1.00
  -3  10   6   -0.90    1.50
  -3  10   6    0.00    0.90
   2 -10  -6    1.20    1.00
   2 -10  -6    1.60    1.10
  -2  10   6    0.60    1.00
  -2  10   6    1.80    1.70
  -2  10   6    1.60    1.10
   1 -10  -6    2.80    1.30
   1 -10  -6    2.20    1.10
  -1  10   6    1.30    1.10
  -1  10   6    3.40    1.80
  -1  10   6    2.30    1.30
   0 -10  -6    5.40    2.30
   0 -10  -6    3.40    1.50
   0  10   6    4.00    1.80
   0  10   6    2.00    1.50
   0  10   6    2.40    1.40
  -1 -10  -6    0.30    2.40
  -1 -10  -6   -0.40    1.30
   1  10   6    1.90    1.40
   4 -11  -6    0.30    1.10
  -4  11   6    1.70    2.00
  -4  11   6   -0.60    1.00
   3 -11  -6    2.70    1.40
  -3  11   6    1.50    2.10
  -3  11   6    2.30    1.30
   2 -11  -6    0.50    1.00
   2 -11  -6    2.60    1.30
  -2  11   6    1.90    1.90
  -2  11   6    1.50    1.20
  -2  11   6    2.60    1.40
   1 -11  -6    0.60    1.10
   1 -11  -6    2.40    1.30
  -1  11   6    0.70    1.80
  -1  11   6    0.00    1.20
  -1  11   6    1.50    1.40
   0 -11  -6   -2.00    2.00
   0 -11  -6    0.20    1.30
   0  11   6    2.70    1.60
  -1 -11  -6    3.60    2.70
  -1 -11  -6   -2.40    1.30
   1  11   6   -1.30    1.50
   4 -12  -6    1.70    1.30
  -4  12   6    3.20    2.30
  -4  12   6    2.10    1.30
   3 -12  -6    0.10    1.30
  -3  12   6   -0.20    1.10
  -3  12   6   -2.80    1.70
   2 -12  -6    1.60    1.20
   2 -12  -6    1.10    1.30
  -2  12   6    0.80    1.30
  -2  12   6    0.50    1.30
  -2  12   6    0.60    2.10
   1 -12  -6    4.50    1.70
   1 -12  -6    3.40    1.50
  -1  12   6    5.40    2.30
  -1  12   6    5.50    1.80
  -1  12   6    4.50    1.80
   0 -12  -6   -0.50    1.40
   0 -12  -6   -2.40    2.20
   0  12   6   -0.40    1.60
   0  16  -7   -0.40    2.00
   0  16  -7   -1.00    1.50
   0  16  -7   -0.80    1.50
   0 -16   7   -1.30    1.70
   0 -16   7    0.40    1.50
   0 -16   7   -1.00    1.50
  -1  16  -7   -0.90    1.30
  -1  16  -7    3.50    2.30
   1 -16   7   -0.30    1.40
   1 -16   7    0.30    1.40
  -2  16  -7    0.00    1.30
  -2  16  -7   -1.10    2.00
  -2  16  -7   -0.20    1.20
   2 -16   7   -0.70    1.30
   2 -16   7    0.10    1.30
   1  15  -7    0.20    1.50
   1  15  -7   -0.80    1.90
   1  15  -7   -1.30    1.40
  -1 -15   7   -0.90    1.60
  -1 -15   7   -0.60    1.30
  -1 -15   7   -2.50    1.50
   0  15  -7   -2.90    1.20
   0  15  -7   -2.60    1.20
   0  15  -7   -0.60    1.90
   0 -15   7   -1.70    1.40
   0 -15   7   -1.20    1.30
   0 -15   7    1.00    1.40
  -1  15  -7    8.30    2.60
  -1  15  -7    4.90    1.60
  -1  15  -7    3.00    1.40
   1 -15   7    6.70    1.80
   1 -15   7    5.40    1.70
  -2  15  -7   -0.80    1.20
  -2  15  -7    0.70    1.20
  -2  15  -7   -1.20    1.70
   2 -15   7   -1.90    1.10
   2 -15   7    0.90    1.30
  -3  15  -7    2.40    1.40
  -3  15  -7    1.00    2.20
  -3  15  -7    0.20    1.10
   3 -15   7    1.90    1.40
   3 -15   7    2.50    1.40
   2  14  -7    4.40    1.90
   2  14  -7    4.40    1.70
   2  14  -7    2.90    1.60
  -2 -14   7    9.90    2.80
  -2 -14   7    3.60    1.60
  -2 -14   7    1.50    1.70
  -2 -14   7    5.80    2.00
   1  14  -7    4.00    1.70
   1  14  -7    6.00    1.80
   1  14  -7    5.80    2.30
  -1 -14   7    4.10    1.70
  -1 -14   7    1.80    1.60
  -1 -14   7    2.40    1.40
   0  14  -7   -0.80    1.20
   0  14  -7    0.40    1.80
   0  14  -7   -1.20    1.10
   0 -14   7   -2.50    1.00
   0 -14   7   -0.60    1.20
   0 -14   7    0.20    1.30
  -1  14  -7    2.10    1.20
  -1  14  -7    1.20    1.80
  -1  14  -7    0.00    1.10
   1 -14   7    0.40    1.20
   1 -14   7    2.20    1.40
  -2  14  -7    0.50    1.10
  -2  14  -7   -1.10    1.10
  -2  14  -7    0.30    1.80
   2 -14   7    0.90    1.30
   2 -14   7   -0.20    0.90
   2 -14   7   -2.00    0.90
  -3  14  -7    1.10    1.80
  -3  14  -7    1.80    1.20
  -3  14  -7   -1.60    0.90
   3 -14   7   -0.50    1.00
   3 -14   7    0.30    1.10
   3 -14   7    0.20    1.10
  -4  14  -7    5.10    2.60
  -4  14  -7    1.70    1.20
   4 -14   7   -0.10    1.20
   4 -14   7    1.60    1.10
   3  13  -7   -2.00    1.30
   3  13  -7   -1.20    1.30
   3  13  -7   -1.00    1.40
  -3 -13   7   -0.90    1.40
  -3 -13   7    0.20    1.40
  -3 -13   7   -3.10    2.10
   2  13  -7    6.80    2.20
   2  13  -7    9.20    1.70
   2  13  -7    6.60    1.80
   2  13  -7   10.70    2.00
  -2 -13   7    4.20    1.40
  -2 -13   7    7.50    1.90
  -2 -13   7    4.50    2.40
  -2 -13   7    6.70    1.90
   1  13  -7    3.50    1.40
   1  13  -7    4.30    2.00
   1  13  -7    4.60    1.50
  -1 -13   7    3.70    1.50
  -1 -13   7    5.50    1.70
  -1 -13   7    3.60    1.40
   0  13  -7   -1.80    1.00
   0  13  -7   -0.90    1.00
   0  13  -7   -0.90    1.60
   0  13  -7   -1.30    0.90
   0 -13   7    1.10    1.20
   0 -13   7    0.80    1.20
   0 -13   7   -2.00    1.20
  -1  13  -7    1.60    1.20
  -1  13  -7    0.90    1.60
  -1  13  -7    3.30    1.30
   1 -13   7    1.70    1.20
   1 -13   7    0.80    1.20
  -2  13  -7    3.30    1.90
  -2  13  -7    3.00    1.30
  -2  13  -7    3.40    1.30
   2 -13   7    4.00    1.30
   2 -13   7    2.30    1.20
  -3  13  -7    0.10    1.60
  -3  13  -7    0.00    1.10
  -3  13  -7   -0.30    1.00
   3 -13   7    0.10    1.00
   3 -13   7   -1.10    1.00
   3 -13   7   -1.30    1.00
  -4  13  -7    0.30    1.00
  -4  13  -7   -0.10    1.80
   4 -13   7    0.90    1.20
   4 -13   7   -0.70    1.00
   3  12  -7   -0.20    1.30
   3  12  -7   -2.30    1.20
   3  12  -7   -1.20    1.20
  -3 -12   7   -1.90    1.20
  -3 -12   7   -1.10    1.90
  -3 -12   7    1.70    1.50
  -3 -12   7   -1.00    1.40
   2  12  -7   15.90    2.40
   2  12  -7   17.40    2.10
   2  12  -7   19.80    2.80
   2  12  -7   21.50    2.60
  -2 -12   7   18.90    2.50
  -2 -12   7   17.80    2.40
  -2 -12   7   15.70    2.30
  -2 -12   7   18.60    2.90
  -2 -12   7   14.90    2.30
   1  12  -7    6.40    1.50
   1  12  -7    5.00    2.00
   1  12  -7    7.80    1.60
  -1 -12   7    9.00    1.50
  -1 -12   7    5.90    1.50
  -1 -12   7    5.40    1.50
  -1 -12   7    7.30    1.60
  -1 -12   7    7.70    1.60
   0  12  -7   -1.00    0.90
   0  12  -7   -1.50    0.90
   0  12  -7   -0.80    1.40
   0  12  -7   -0.90    0.90
   0 -12   7   -0.30    1.10
   0 -12   7    1.30    1.20
   0 -12   7    0.30    0.90
  -1  12  -7    5.30    1.30
  -1  12  -7    3.80    1.40
  -1  12  -7    3.40    1.70
   1 -12   7    3.20    1.30
   1 -12   7    3.50    1.30
  -2  12  -7    0.20    0.90
  -2  12  -7    0.10    0.90
  -2  12  -7    0.00    1.40
   2 -12   7   -0.40    1.00
   2 -12   7    0.20    0.90
  -3  12  -7    0.80    1.60
  -3  12  -7    1.10    1.00
  -3  12  -7   -0.30    0.80
   3 -12   7   -0.30    0.90
   3 -12   7   -0.20    0.90
   3 -12   7    0.00    0.90
  -4  12  -7    0.50    1.00
  -4  12  -7   -1.10    1.60
   4 -12   7    0.10    1.00
   4 -12   7   -0.10    1.00
  -5  12  -7    0.40    1.10
  -5  12  -7    1.10    2.10
   5 -12   7   -0.10    1.10
   5 -12   7    0.50    1.10
   4  11  -7    4.20    1.90
   4  11  -7    6.10    1.80
   4  11  -7    8.70    1.90
  -4 -11   7    5.00    1.80
  -4 -11   7    4.50    2.50
  -4 -11   7    5.50    1.90
  -4 -11   7    7.80    2.00
   3  11  -7    2.90    1.50
   3  11  -7   -0.90    1.10
   3  11  -7    0.60    1.20
  -3 -11   7    1.70    2.10
  -3 -11   7    1.00    1.40
  -3 -11   7   -0.40    1.20
  -3 -11   7    2.30    1.40
   2  11  -7   -0.30    1.30
   2  11  -7    1.40    1.10
   2  11  -7   -0.40    1.00
   2  11  -7    0.20    1.10
  -2 -11   7    1.30    1.20
  -2 -11   7   -0.70    1.70
  -2 -11   7   -1.50    1.00
  -2 -11   7   -1.80    1.10
  -2 -11   7   -0.70    1.20
   1  11  -7    3.50    1.20
   1  11  -7    4.40    1.30
   1  11  -7    6.50    1.90
  -1 -11   7    2.90    1.30
  -1 -11   7    2.00    1.30
  -1 -11   7    6.30    1.40
  -1 -11   7    4.70    1.40
   0  11  -7   15.20    1.90
   0  11  -7   14.50    2.00
   0  11  -7   13.50    2.40
   0  11  -7   14.70    1.90
   0 -11   7   12.70    1.80
   0 -11   7   14.30    1.50
   0 -11   7   14.60    1.90
   0 -11   7   14.80    1.90
   0 -11   7   13.10    1.80
  -1  11  -7    0.70    0.90
  -1  11  -7    1.80    1.00
  -1  11  -7    0.60    1.20
   1 -11   7   -0.30    1.00
   1 -11   7    0.10    0.90
  -2  11  -7   10.50    2.20
  -2  11  -7    9.50    1.50
  -2  11  -7    9.00    1.60
   2 -11   7   11.40    1.60
   2 -11   7    8.90    1.50
  -3  11  -7    2.80    1.70
  -3  11  -7    3.30    1.20
  -3  11  -7    4.30    1.10
   3 -11   7    3.30    1.10
   3 -11   7    4.70    1.30
   3 -11   7    4.10    1.20
  -4  11  -7    0.10    1.20
  -4  11  -7   -0.40    0.90
  -4  11  -7    1.50    0.90
  -4  11  -7   -1.00    1.60
   4 -11   7    0.10    0.90
   4 -11   7    0.40    0.90
   4 -11   7    0.30    0.90
  -5  11  -7   -0.70    1.70
  -5  11  -7   -0.10    0.90
   5 -11   7    1.40    1.10
   5 -11   7    0.50    1.10
   4  10  -7    0.30    1.30
   4  10  -7    1.90    1.30
   4  10  -7    5.00    1.70
   4  10  -7    3.30    1.60
  -4 -10   7    1.00    1.90
  -4 -10   7    1.40    1.40
  -4 -10   7    2.50    1.50
  -4 -10   7    1.50    1.40
   3  10  -7    4.60    1.40
   3  10  -7    3.50    1.40
   3  10  -7    6.70    1.60
  -3 -10   7    5.40    1.60
  -3 -10   7    4.60    1.50
  -3 -10   7    6.80    1.80
  -3 -10   7    5.60    2.00
   2  10  -7   21.90    2.40
   2  10  -7   23.80    2.40
   2  10  -7   22.00    2.10
   2  10  -7   20.70    2.70
  -2 -10   7   21.50    2.40
  -2 -10   7   18.30    2.30
  -2 -10   7   23.50    2.80
  -2 -10   7   26.00    2.70
  -2 -10   7   22.90    2.40
   1  10  -7   39.10    2.70
   1  10  -7   44.70    3.30
   1  10  -7   42.70    2.80
   1  10  -7   36.60    2.90
  -1 -10   7   35.80    2.70
  -1 -10   7   39.00    2.80
  -1 -10   7   40.10    2.90
  -1 -10   7   35.90    2.90
   0  10  -7    5.10    1.20
   0  10  -7    4.60    1.60
   0  10  -7    5.00    1.30
   0 -10   7    5.40    1.30
   0 -10   7    5.20    1.30
   0 -10   7    7.30    1.10
  -1  10  -7    9.00    1.50
  -1  10  -7    8.50    1.90
  -1  10  -7    7.70    1.30
   1 -10   7    5.00    1.20
   1 -10   7    5.90    1.20
   1 -10   7    7.40    0.90
   1 -10   7    7.60    1.40
  -2  10  -7   21.40    2.80
  -2  10  -7   20.70    2.00
  -2  10  -7   16.70    2.00
   2 -10   7   20.40    2.00
   2 -10   7   17.30    2.00
  -3  10  -7    1.10    0.90
  -3  10  -7    0.00    0.80
  -3  10  -7    0.20    1.30
   3 -10   7    0.80    0.80
   3 -10   7   -0.10    0.80
   3 -10   7   -0.40    0.70
  -4  10  -7    1.70    1.10
  -4  10  -7    1.90    0.80
  -4  10  -7    2.00    1.80
  -4  10  -7   -0.80    0.90
   4 -10   7   -0.10    0.90
   4 -10   7   -0.50    0.90
   4 -10   7    0.70    0.80
   5 -10   7   -1.10    0.80
   5 -10   7    1.20    1.00
   4   9  -7    6.50    1.70
   4   9  -7    8.20    1.90
   4   9  -7    8.00    1.70
   4   9  -7    5.60    1.50
  -4  -9   7    3.50    1.50
  -4  -9   7    7.10    1.70
  -4  -9   7    4.00    2.10
  -4  -9   7    7.50    1.70
   3   9  -7    5.80    1.40
   3   9  -7    0.50    1.10
   3   9  -7    3.60    1.20
  -3  -9   7    3.00    1.30
  -3  -9   7    2.80    1.30
  -3  -9   7    3.20    1.60
  -3  -9   7    2.80    1.40
   2   9  -7    5.00    1.20
   2   9  -7    5.70    1.20
   2   9  -7    4.80    1.20
   2   9  -7    5.30    1.60
  -2  -9   7    5.30    1.30
  -2  -9   7    5.00    1.40
  -2  -9   7    4.50    1.40
  -2  -9   7    2.50    1.10
  -2  -9   7    4.10    1.50
   1   9  -7   34.50    2.10
   1   9  -7   36.00    2.50
   1   9  -7   38.20    2.80
   1   9  -7   37.90    2.60
   1   9  -7   39.10    3.10
  -1  -9   7   41.60    2.80
  -1  -9   7   36.30    2.60
  -1  -9   7   45.00    2.80
  -1  -9   7   38.50    2.90
  -1  -9   7   40.00    2.70
   0   9  -7   52.39    3.40
   0   9  -7   52.49    3.30
   0   9  -7   54.09    2.90
   0  -9   7   56.49    2.80
   0  -9   7   52.89    3.20
   0  -9   7   49.10    3.00
  -1   9  -7    0.50    0.80
  -1   9  -7    0.20    0.80
  -1   9  -7   -1.70    0.80
   1  -9   7   -0.30    0.60
   1  -9   7    0.50    0.80
   1  -9   7    0.40    0.80
  -2   9  -7    3.70    1.10
  -2   9  -7    5.40    1.10
  -2   9  -7    5.60    1.60
   2  -9   7    3.00    1.00
   2  -9   7    6.20    1.20
  -3   9  -7    3.30    1.00
  -3   9  -7    4.50    1.20
  -3   9  -7    2.90    1.20
  -3   9  -7    2.30    1.50
   3  -9   7    2.00    0.90
   3  -9   7    3.60    1.00
   3  -9   7    3.40    1.00
  -4   9  -7    3.00    1.60
  -4   9  -7    1.80    1.10
  -4   9  -7    3.10    1.00
  -4   9  -7    2.20    1.20
   4  -9   7    2.20    0.90
   4  -9   7    1.60    1.00
   4  -9   7    2.20    1.00
  -5   9  -7   -1.00    0.90
  -5   9  -7   -0.80    1.60
   5  -9   7    1.00    1.10
   5   8  -7    1.40    1.60
   5   8  -7    4.60    1.90
  -5  -8   7    3.10    1.40
  -5  -8   7    5.40    2.40
   4   8  -7   20.00    2.20
   4   8  -7   20.20    2.20
   4   8  -7   25.80    2.70
   4   8  -7   25.00    2.80
  -4  -8   7   26.20    3.10
  -4  -8   7   19.90    2.50
  -4  -8   7   23.00    2.40
  -4  -8   7   21.00    2.40
   3   8  -7    3.40    1.20
   3   8  -7    3.80    1.20
   3   8  -7    1.10    1.00
  -3  -8   7    0.30    1.10
  -3  -8   7    0.90    1.10
  -3  -8   7    0.80    1.00
  -3  -8   7    2.50    1.40
   2   8  -7    4.00    1.10
   2   8  -7    3.70    1.10
   2   8  -7    6.20    1.60
   2   8  -7    3.50    0.90
  -2  -8   7    4.90    1.20
  -2  -8   7    5.00    1.20
  -2  -8   7    4.80    1.40
  -2  -8   7    3.50    1.10
  -2  -8   7    5.20    1.40
   1   8  -7   64.69    3.90
   1   8  -7   70.59    3.70
   1   8  -7   62.59    3.30
   1   8  -7   67.49    3.10
  -1  -8   7   68.79    3.60
  -1  -8   7   67.49    3.60
  -1  -8   7   70.59    3.70
  -1  -8   7   61.49    3.40
   0   8  -7    7.40    1.30
   0   8  -7    7.20    1.60
   0   8  -7   10.50    1.40
   0  -8   7    6.40    1.10
   0  -8   7    5.60    1.20
   0  -8   7    8.30    1.10
  -1   8  -7    7.00    1.20
  -1   8  -7    8.70    1.30
  -1   8  -7    7.20    1.20
  -1   8  -7    7.50    1.70
   1  -8   7    9.10    1.10
   1  -8   7    6.10    1.10
   1  -8   7    7.20    1.20
  -2   8  -7   25.70    1.90
  -2   8  -7   27.70    2.50
  -2   8  -7   25.40    2.10
   2  -8   7   20.80    1.80
   2  -8   7   22.30    2.00
   2  -8   7   23.80    1.90
   2  -8   7   27.70    1.80
  -3   8  -7   13.90    2.20
  -3   8  -7    9.80    1.30
  -3   8  -7   10.30    1.60
  -3   8  -7    8.60    1.40
   3  -8   7    9.30    1.30
   3  -8   7   10.70    1.50
   3  -8   7   11.40    1.60
  -4   8  -7    4.00    1.40
  -4   8  -7    4.00    1.10
  -4   8  -7    3.40    1.50
   4  -8   7    2.80    1.00
   4  -8   7    5.00    1.30
   4  -8   7    4.30    1.10
  -5   8  -7   -1.50    1.60
  -5   8  -7    0.00    1.00
   5  -8   7    0.50    0.90
   5   7  -7    4.90    1.70
   5   7  -7    2.40    1.60
  -5  -7   7    2.40    2.00
  -5  -7   7    4.60    1.50
   4   7  -7    0.70    1.20
   4   7  -7    0.90    0.90
   4   7  -7    1.80    1.30
   4   7  -7    1.30    0.90
  -4  -7   7    2.00    1.10
  -4  -7   7    1.30    1.10
  -4  -7   7    1.40    1.10
  -4  -7   7    2.20    1.60
   3   7  -7   11.30    1.50
   3   7  -7    9.10    1.50
   3   7  -7    6.70    1.20
  -3  -7   7    9.20    1.70
  -3  -7   7    8.50    1.40
  -3  -7   7    8.00    1.50
  -3  -7   7    8.60    1.40
   2   7  -7   13.40    2.10
   2   7  -7   13.00    1.60
   2   7  -7   12.20    1.50
   2   7  -7   10.60    1.60
  -2  -7   7   12.00    1.70
  -2  -7   7   13.00    1.70
  -2  -7   7   13.30    1.60
  -2  -7   7   13.00    1.70
  -2  -7   7   14.70    2.00
   1   7  -7   28.50    2.10
   1   7  -7   28.10    1.60
   1   7  -7   30.60    2.50
   1   7  -7   26.00    1.90
  -1  -7   7   30.10    2.20
  -1  -7   7   27.00    2.20
  -1  -7   7   29.90    2.20
  -1  -7   7   26.60    2.00
   0   7  -7   97.49    4.50
   0   7  -7   90.99    4.20
   0   7  -7   88.69    4.60
   0  -7   7   96.99    4.40
   0  -7   7   90.59    4.20
   0  -7   7   97.79    4.20
  -1   7  -7    3.90    1.20
  -1   7  -7    3.50    0.90
  -1   7  -7    2.50    0.90
  -1   7  -7    1.60    0.80
   1  -7   7    2.60    0.80
   1  -7   7    0.30    0.70
   1  -7   7    2.80    0.90
  -2   7  -7    0.80    0.80
  -2   7  -7    1.40    1.10
  -2   7  -7    2.00    0.80
  -2   7  -7    0.20    0.70
   2  -7   7    1.30    0.70
   2  -7   7    1.40    0.70
   2  -7   7    0.80    0.80
   2  -7   7    1.50    0.80
  -3   7  -7    3.10    1.00
  -3   7  -7    4.90    1.30
  -3   7  -7    4.40    1.00
  -3   7  -7    5.50    1.50
   3  -7   7    3.90    1.00
   3  -7   7    4.90    1.10
   3  -7   7    3.30    0.90
  -4   7  -7   26.10    2.50
  -4   7  -7   17.20    2.60
  -4   7  -7   18.80    2.40
  -4   7  -7   15.20    2.00
   4  -7   7   19.90    2.00
   4  -7   7   12.30    1.70
   4  -7   7   15.20    1.70
  -5   7  -7    0.70    1.70
  -5   7  -7   -0.50    0.90
   5  -7   7   -0.20    0.90
   5   6  -7    0.60    1.40
   5   6  -7    1.00    1.40
  -5  -6   7    0.70    1.10
  -5  -6   7    1.70    1.80
   4   6  -7   80.79    4.40
   4   6  -7   76.39    3.80
   4   6  -7   82.19    4.50
  -4  -6   7   70.49    3.80
  -4  -6   7   70.19    3.90
  -4  -6   7   67.79    4.10
  -4  -6   7   83.19    4.50
   3   6  -7   25.50    2.00
   3   6  -7   29.10    2.20
   3   6  -7   27.70    2.00
   3   6  -7   20.20    2.20
  -3  -6   7   23.70    1.90
  -3  -6   7   29.00    2.10
  -3  -6   7   26.00    2.20
  -3  -6   7   25.70    2.30
   2   6  -7   20.90    2.30
   2   6  -7   19.10    1.70
   2   6  -7   17.30    1.50
   2   6  -7   16.70    1.60
  -2  -6   7   16.80    2.00
  -2  -6   7   18.40    1.80
  -2  -6   7   17.90    1.90
  -2  -6   7   18.60    1.80
  -2  -6   7   18.50    1.80
   1   6  -7  186.88    7.40
   1   6  -7  179.98    7.60
   1   6  -7  186.68    7.10
   1   6  -7  175.88    6.80
  -1  -6   7  177.68    7.30
  -1  -6   7  185.58    7.40
  -1  -6   7  188.28    7.50
  -1  -6   7  178.18    7.20
   0   6  -7   61.09    3.20
   0   6  -7   57.79    3.30
   0   6  -7   61.09    2.90
   0  -6   7   55.99    2.90
   0  -6   7   62.29    3.00
   0  -6   7   60.29    3.10
  -1   6  -7    5.90    1.40
  -1   6  -7    4.50    0.90
  -1   6  -7    4.10    1.00
  -1   6  -7    4.20    0.80
   1  -6   7    4.70    0.90
   1  -6   7    4.90    1.00
   1  -6   7    4.90    0.90
  -2   6  -7    5.70    1.20
  -2   6  -7    5.30    1.10
  -2   6  -7    5.90    1.30
  -2   6  -7    6.00    1.00
  -2   6  -7    5.30    1.00
   2  -6   7    4.70    1.00
   2  -6   7    5.00    0.90
   2  -6   7    5.20    1.10
  -3   6  -7   62.19    3.50
  -3   6  -7   60.89    3.40
  -3   6  -7   55.69    3.00
   3  -6   7   54.49    3.00
   3  -6   7   52.39    2.90
   3  -6   7   56.69    2.60
  -4   6  -7    8.20    1.60
  -4   6  -7    5.60    1.30
  -4   6  -7    6.90    1.50
  -4   6  -7    8.30    2.00
   4  -6   7    5.40    1.10
   4  -6   7    5.80    1.10
   4  -6   7    3.80    1.10
  -5   6  -7   -1.50    1.50
  -5   6  -7    0.10    1.00
   5  -6   7   -0.80    0.80
   5   5  -7   -0.70    1.30
   5   5  -7    1.70    1.40
  -5  -5   7    2.10    1.10
  -5  -5   7    2.70    1.70
   4   5  -7    1.50    0.90
   4   5  -7    1.00    1.10
   4   5  -7    1.90    1.20
  -4  -5   7    2.70    1.40
  -4  -5   7    3.20    1.00
  -4  -5   7    3.00    1.00
   3   5  -7    3.20    1.00
   3   5  -7    0.90    0.70
   3   5  -7    0.90    0.90
  -3  -5   7    3.00    1.00
  -3  -5   7    3.90    1.30
  -3  -5   7    3.70    1.00
  -3  -5   7    2.40    0.90
   2   5  -7   75.99    3.50
   2   5  -7   77.49    3.50
   2   5  -7   85.19    3.80
  -2  -5   7   80.39    3.60
  -2  -5   7   80.79    3.90
  -2  -5   7   77.49    3.50
  -2  -5   7   78.29    4.10
  -2  -5   7   81.49    3.80
   1   5  -7   14.90    1.10
   1   5  -7   15.80    1.40
   1   5  -7   14.20    1.40
   1   5  -7   17.40    2.00
   1   5  -7   14.00    1.00
  -1  -5   7   17.00    1.50
  -1  -5   7   14.60    1.50
  -1  -5   7   15.60    1.40
  -1  -5   7   13.70    1.40
   0   5  -7   16.70    1.20
   0   5  -7   16.20    1.30
   0   5  -7   17.30    1.80
   0   5  -7   16.80    1.50
   0  -5   7   19.60    1.60
   0  -5   7   17.90    1.60
   0  -5   7   15.60    1.40
   0  -5   7   18.10    1.50
  -1   5  -7   22.10    1.60
  -1   5  -7   20.50    1.70
  -1   5  -7   22.70    1.90
  -1   5  -7   22.10    1.60
   1  -5   7   21.50    1.60
   1  -5   7   21.20    1.70
   1  -5   7   19.80    1.80
  -2   5  -7   16.80    1.90
  -2   5  -7   12.40    1.50
  -2   5  -7   15.30    1.70
  -2   5  -7   17.00    1.50
  -2   5  -7   13.70    1.40
   2  -5   7   12.70    1.40
   2  -5   7   15.10    0.90
   2  -5   7   13.00    1.60
  -3   5  -7    2.10    1.20
  -3   5  -7    2.00    0.90
  -3   5  -7    1.90    1.20
  -3   5  -7    2.50    1.30
   3  -5   7    2.40    0.60
   3  -5   7    1.00    0.70
   3  -5   7    1.60    0.80
  -4   5  -7    9.90    2.10
  -4   5  -7    8.90    1.70
  -4   5  -7    8.10    1.50
   4  -5   7    8.90    1.30
   4  -5   7    7.50    1.50
  -5   5  -7   -1.90    1.50
  -5   5  -7    0.20    1.00
   5  -5   7   -0.20    1.00
   6   4  -7    3.30    1.70
   6   4  -7    0.20    1.50
  -6  -4   7    3.30    1.20
   5   4  -7    2.20    1.40
   5   4  -7    1.40    1.40
  -5  -4   7    0.40    0.90
  -5  -4   7    3.00    1.60
   4   4  -7   15.30    1.50
   4   4  -7   11.30    1.70
   4   4  -7   14.20    2.00
  -4  -4   7   15.50    1.50
  -4  -4   7   13.00    1.50
  -4  -4   7   15.80    1.90
   3   4  -7  121.69    5.00
   3   4  -7  118.69    5.20
   3   4  -7  119.99    5.50
  -3  -4   7  121.19    5.90
  -3  -4   7  116.69    5.20
  -3  -4   7  121.29    5.10
  -3  -4   7  126.29    5.00
  -3  -4   7  124.09    5.40
   2   4  -7    7.30    0.90
   2   4  -7    7.90    1.00
   2   4  -7    8.70    1.00
   2   4  -7    9.70    1.10
  -2  -4   7    8.10    1.10
  -2  -4   7    8.40    1.40
  -2  -4   7    9.00    1.10
  -2  -4   7    7.50    1.10
  -2  -4   7    9.20    1.00
   1   4  -7  140.49    5.30
   1   4  -7  146.09    5.60
   1   4  -7  147.09    5.80
   1   4  -7  142.19    6.10
   1   4  -7  147.99    5.40
  -1  -4   7  137.19    5.70
  -1  -4   7  146.29    5.90
  -1  -4   7  141.19    5.80
  -1  -4   7  142.89    5.90
   0   4  -7  215.28    8.70
   0   4  -7  229.28    8.60
   0   4  -7  222.68    8.30
   0  -4   7  215.68    8.50
   0  -4   7  230.48    8.60
   0  -4   7  225.68    8.60
   0  -4   7  209.58    8.40
  -1   4  -7    8.40    1.10
  -1   4  -7   11.00    1.60
  -1   4  -7    7.50    1.00
  -1   4  -7    8.80    1.20
  -1   4  -7    8.70    1.10
   1  -4   7    7.40    1.10
   1  -4   7    9.20    1.30
   1  -4   7    7.70    1.00
  -2   4  -7    0.40    0.90
  -2   4  -7   -0.60    0.80
  -2   4  -7   -0.10    0.60
  -2   4  -7   -1.50    0.60
  -2   4  -7    0.50    0.60
  -2   4  -7   -0.10    0.50
   2  -4   7   -0.10    0.30
   2  -4   7   -0.30    0.60
   2  -4   7    0.00    0.80
   2  -4   7    0.90    0.40
  -3   4  -7    7.80    1.50
  -3   4  -7    8.60    1.70
  -3   4  -7    6.60    1.30
  -3   4  -7    6.70    1.40
   3  -4   7    5.00    1.00
   3  -4   7    7.10    1.00
   3  -4   7    6.90    1.00
  -4   4  -7   -2.00    1.20
  -4   4  -7    0.30    1.20
  -4   4  -7    0.60    0.90
   4  -4   7    1.60    0.80
   4  -4   7    1.90    1.00
  -5   4  -7   -0.80    1.70
  -5   4  -7    1.10    1.10
   5  -4   7    0.10    1.00
   5  -4   7   -1.70    0.80
   6   3  -7   -2.40    1.20
   6   3  -7    3.00    1.70
  -6  -3   7   -0.10    0.90
   5   3  -7   -2.00    1.00
   5   3  -7   -0.40    1.10
  -5  -3   7   -0.80    0.60
  -5  -3   7    0.50    1.10
   4   3  -7   15.70    1.30
   4   3  -7   16.50    1.90
   4   3  -7   15.20    2.10
  -4  -3   7   17.70    1.60
  -4  -3   7   17.70    1.40
  -4  -3   7   18.80    2.50
  -4  -3   7   20.10    1.90
   3   3  -7    3.20    0.90
   3   3  -7    6.90    1.10
   3   3  -7    6.30    0.90
  -3  -3   7    6.50    0.90
  -3  -3   7    4.30    0.90
  -3  -3   7    6.20    1.00
  -3  -3   7    3.60    1.30
  -3  -3   7    3.70    0.90
   2   3  -7   74.19    3.20
   2   3  -7   75.39    3.30
   2   3  -7   76.89    3.00
   2   3  -7   78.49    3.30
  -2  -3   7   76.59    3.30
  -2  -3   7   71.49    3.00
  -2  -3   7   72.19    3.40
  -2  -3   7   77.99    3.50
  -2  -3   7   81.49    3.90
   1   3  -7  231.18    8.30
   1   3  -7  228.88    8.50
  -1  -3   7  239.38    8.30
  -1  -3   7  233.58    8.80
  -1  -3   7  223.38    8.60
  -1  -3   7  223.08    8.80
  -1  -3   7  223.68    8.70
   0   3  -7    0.50    0.50
   0   3  -7   -0.20    0.60
   0   3  -7    0.40    0.70
   0   3  -7    0.50    0.50
   0  -3   7    0.30    0.50
   0  -3   7    0.60    0.30
   0  -3   7    0.00    0.50
   0  -3   7    0.40    0.60
   0  -3   7    0.50    0.50
  -1   3  -7   77.49    3.60
  -1   3  -7   82.19    3.80
  -1   3  -7   80.49    3.80
  -1   3  -7   75.49    3.50
  -1   3  -7   85.49    3.80
  -1   3  -7   82.69    3.90
   1  -3   7   84.09    3.90
   1  -3   7   85.89    3.80
   1  -3   7   78.39    3.60
  -2   3  -7    7.20    1.30
  -2   3  -7    6.80    1.10
  -2   3  -7    6.90    1.30
  -2   3  -7    7.60    1.40
  -2   3  -7    7.90    1.10
   2  -3   7    8.00    1.40
   2  -3   7    9.90    1.00
   2  -3   7    6.20    1.00
  -3   3  -7    3.40    1.00
  -3   3  -7    3.30    1.20
  -3   3  -7    3.20    1.30
  -3   3  -7    1.70    0.90
   3  -3   7    2.30    0.80
   3  -3   7    1.70    0.60
   3  -3   7    2.50    0.90
  -4   3  -7    0.40    1.10
  -4   3  -7    0.60    1.40
  -4   3  -7    0.30    0.90
   4  -3   7    2.70    1.00
   4  -3   7   -0.10    0.90
  -5   3  -7    0.60    1.90
  -5   3  -7    3.00    1.40
   5  -3   7    1.60    1.20
   5  -3   7    1.00    1.00
   6   2  -7    8.50    2.20
   6   2  -7    9.30    2.20
  -6  -2   7    9.30    2.20
  -6  -2   7    4.90    1.10
   5   2  -7    0.50    1.30
   5   2  -7   -0.70    1.00
  -5  -2   7    0.40    0.70
  -5  -2   7    0.90    1.20
  -5  -2   7    0.80    1.40
   4   2  -7    1.00    0.90
   4   2  -7   -0.30    1.00
   4   2  -7    0.20    0.50
  -4  -2   7    0.60    0.60
  -4  -2   7    0.40    0.60
  -4  -2   7    1.50    0.60
  -4  -2   7   -0.10    1.10
  -4  -2   7    0.90    0.80
   3   2  -7   75.39    4.00
   3   2  -7   83.39    3.30
   3   2  -7   79.09    3.70
  -3  -2   7   80.69    3.60
  -3  -2   7   76.69    3.30
  -3  -2   7   76.99    3.40
  -3  -2   7   80.79    3.60
  -3  -2   7   79.19    4.30
   2   2  -7   90.69    3.70
   2   2  -7   86.49    3.70
   2   2  -7   90.39    3.60
   2   2  -7   81.39    4.00
  -2  -2   7   92.09    3.70
  -2  -2   7   91.79    4.20
  -2  -2   7   82.79    3.80
  -2  -2   7   90.59    3.90
   1   2  -7  111.99    4.60
   1   2  -7  109.59    4.50
  -1  -2   7  109.39    4.60
  -1  -2   7  110.09    4.80
  -1  -2   7  117.59    4.70
  -1  -2   7  115.99    4.60
   0   2  -7    9.70    1.10
   0   2  -7    9.20    0.80
   0   2  -7    8.00    1.10
   0   2  -7   10.10    1.10
   0  -2   7    8.80    1.20
   0  -2   7   11.10    1.20
   0  -2   7    9.70    1.10
   0  -2   7    8.60    1.00
  -1   2  -7   56.59    2.80
  -1   2  -7   51.79    2.80
  -1   2  -7   61.49    3.00
  -1   2  -7   58.49    3.00
  -1   2  -7   54.49    2.90
   1  -2   7   54.89    2.80
   1  -2   7   59.49    3.00
   1  -2   7   56.79    3.10
  -2   2  -7    0.00    0.80
  -2   2  -7   -0.90    0.70
  -2   2  -7    0.50    0.60
  -2   2  -7    0.20    0.70
   2  -2   7   -0.90    0.80
   2  -2   7    0.20    0.60
  -3   2  -7   -0.40    1.00
  -3   2  -7   -0.70    0.80
  -3   2  -7   -0.60    0.70
   3  -2   7   -1.20    0.60
   3  -2   7   -0.30    0.30
   3  -2   7   -0.10    0.60
  -4   2  -7    5.10    1.50
  -4   2  -7    4.80    1.40
  -4   2  -7    7.80    2.10
   4  -2   7    4.50    1.20
   4  -2   7    4.70    1.20
  -5   2  -7    0.40    1.90
  -5   2  -7    1.90    1.20
   5  -2   7    1.40    1.20
   5  -2   7   -1.90    1.00
   6   1  -7    0.60    1.40
   6   1  -7   -1.20    1.50
  -6  -1   7    2.80    0.80
  -6  -1   7    2.60    1.80
   5   1  -7    2.70    1.30
   5   1  -7   -0.30    1.00
  -5  -1   7    0.00    0.60
  -5  -1   7   -0.30    1.30
  -5  -1   7    0.60    1.00
   4   1  -7   12.20    1.70
   4   1  -7   12.80    1.70
  -4  -1   7   12.80    2.00
  -4  -1   7   10.50    1.10
  -4  -1   7   12.40    1.20
  -4  -1   7   12.70    1.50
  -4  -1   7   12.90    1.50
   3   1  -7  119.19    4.60
   3   1  -7  109.69    4.40
   3   1  -7  112.59    4.90
  -3  -1   7  117.99    4.50
  -3  -1   7  106.19    4.60
  -3  -1   7  112.89    4.50
  -3  -1   7  114.59    4.70
  -3  -1   7  117.19    5.50
  -3  -1   7  117.19    4.50
   2   1  -7    5.90    0.70
   2   1  -7    3.90    0.80
   2   1  -7    5.60    0.70
   2   1  -7    6.10    0.90
   2   1  -7    5.60    0.80
  -2  -1   7    7.30    0.80
  -2  -1   7    4.70    0.90
  -2  -1   7    5.50    1.10
  -2  -1   7    3.90    0.80
   1   1  -7  126.19    5.10
   1   1  -7  124.39    5.00
   1   1  -7  127.69    5.20
  -1  -1   7  133.99    5.20
  -1  -1   7  122.09    5.00
  -1  -1   7  130.89    5.20
  -1  -1   7  124.99    5.40
   0   1  -7   40.10    2.20
   0   1  -7   40.50    2.10
   0   1  -7   40.40    1.90
   0   1  -7   37.70    2.20
   0  -1   7   41.10    2.10
   0  -1   7   41.20    2.50
   0  -1   7   38.90    2.20
   0  -1   7   43.60    2.30
  -1   1  -7   54.49    2.90
  -1   1  -7   54.09    3.00
  -1   1  -7   53.09    2.80
  -1   1  -7   55.09    3.00
   1  -1   7   52.49    2.90
   1  -1   7   57.59    3.20
  -2   1  -7   37.30    2.60
  -2   1  -7   39.10    2.50
  -2   1  -7   34.10    2.60
  -2   1  -7   36.70    2.50
   2  -1   7   38.20    2.90
   2  -1   7   39.30    2.40
  -3   1  -7   -0.80    1.10
  -3   1  -7   -1.60    0.80
  -3   1  -7   -1.10    0.70
   3  -1   7    0.90    0.80
   3  -1   7    0.20    0.70
  -4   1  -7   -0.80    1.10
  -4   1  -7   -0.70    0.90
  -4   1  -7    2.70    1.70
  -4   1  -7    0.10    1.00
   4  -1   7    1.00    1.00
   4  -1   7    1.20    1.00
   4  -1   7    1.30    0.90
  -5   1  -7    2.00    1.30
  -5   1  -7   -0.60    2.00
   5  -1   7    0.80    1.10
   5  -1   7   -0.30    1.00
   6   0  -7    3.10    1.70
   6   0  -7    6.90    1.90
  -6   0   7    6.70    2.00
   5   0  -7   -0.20    1.20
   5   0  -7    1.10    1.10
  -5   0   7    0.70    1.00
  -5   0   7    3.10    1.60
  -5   0   7    1.10    0.60
  -5   0   7    1.30    0.60
   4   0  -7    6.20    1.30
   4   0  -7    6.30    1.30
  -4   0   7    6.60    0.80
  -4   0   7    8.30    0.90
  -4   0   7    7.60    1.20
  -4   0   7    8.10    1.70
   3   0  -7   49.90    2.80
   3   0  -7   55.79    2.50
   3   0  -7   54.59    3.20
   3   0  -7   54.99    2.30
   3   0  -7   57.39    2.30
   3   0  -7   52.19    2.30
  -3   0   7   52.19    2.50
  -3   0   7   55.09    2.30
  -3   0   7   50.69    2.50
  -3   0   7   56.69    2.60
  -3   0   7   51.89    2.30
  -3   0   7   53.09    3.30
   2   0  -7  200.48    8.20
   2   0  -7  221.38    7.80
   2   0  -7  209.98    7.90
   2   0  -7  212.28    7.80
  -2   0   7  205.08    8.00
  -2   0   7  216.58    7.80
  -2   0   7  210.98    8.40
  -2   0   7  215.98    8.00
   1   0  -7    7.30    0.90
   1   0  -7    9.70    1.00
   1   0  -7    9.80    1.10
  -1   0   7    7.80    1.20
  -1   0   7    7.40    1.00
   0   0  -7    3.90    0.90
   0   0  -7    6.70    0.80
   0   0  -7    4.70    0.70
   0   0  -7    4.80    0.80
   0   0   7    4.60    0.80
   0   0   7    4.50    1.00
   0   0   7    4.90    0.70
   0   0   7    3.60    0.80
  -1   0  -7  137.59    5.80
  -1   0  -7  135.39    5.60
  -1   0  -7  131.09    5.70
   1   0   7  137.09    6.00
   1   0   7  128.79    5.70
  -2   0  -7    2.00    1.10
  -2   0  -7   -1.10    1.00
  -2   0  -7    0.60    0.80
  -2   0  -7    1.10    1.10
   2   0   7    1.60    0.70
   2   0   7   -0.30    0.90
   2   0   7   -0.10    0.70
  -3   0  -7    1.70    1.30
  -3   0  -7    0.40    0.90
  -3   0  -7    2.40    1.20
   3   0   7    1.20    0.80
  -4   0  -7    0.70    1.20
  -4   0  -7   -1.10    1.00
  -4   0  -7   -0.50    1.50
  -4   0  -7    0.50    1.00
   4   0   7   -0.90    0.80
   4   0   7    0.60    1.00
   4   0   7   -1.00    0.90
  -5   0  -7    0.40    2.10
  -5   0  -7    0.00    1.20
   5   0   7    2.00    1.30
   5   0   7    1.00    1.40
   6  -1  -7    5.80    2.00
   6  -1  -7    5.30    1.70
  -6   1   7    8.60    2.30
   5  -1  -7   -0.10    1.30
   5  -1  -7    0.90    1.10
  -5   1   7    0.60    1.00
  -5   1   7    1.20    1.40
   4  -1  -7    0.50    0.90
   4  -1  -7    1.20    0.90
  -4   1   7    0.90    1.10
  -4   1   7   -0.20    0.70
  -4   1   7    1.50    0.60
  -4   1   7    1.50    0.50
   3  -1  -7   30.90    1.70
   3  -1  -7   28.60    2.30
   3  -1  -7   35.00    1.50
  -3   1   7   29.40    1.70
  -3   1   7   36.20    2.60
  -3   1   7   31.90    1.70
  -3   1   7   30.40    1.80
  -3   1   7   30.40    1.50
   2  -1  -7   33.80    1.90
   2  -1  -7   34.60    1.70
   2  -1  -7   33.30    2.20
  -2   1   7   33.10    1.90
  -2   1   7   29.60    1.80
  -2   1   7   34.10    2.30
  -2   1   7   37.10    1.60
   1  -1  -7   61.89    2.50
   1  -1  -7   61.09    2.80
   1  -1  -7   62.39    2.90
   1  -1  -7   65.09    3.00
  -1   1   7   57.19    2.50
  -1   1   7   60.49    2.90
  -1   1   7   60.39    2.90
  -1   1   7   62.29    3.20
   0  -1  -7   84.99    4.00
   0  -1  -7   87.49    3.80
   0  -1  -7   88.99    4.00
   0  -1  -7   86.29    3.50
   0   1   7   90.29    4.00
   0   1   7   88.99    4.00
   0   1   7   87.89    4.30
  -1  -1  -7   47.80    2.80
  -1  -1  -7   49.10    2.90
  -1  -1  -7   47.60    2.80
   1   1   7   45.00    3.10
   1   1   7   50.09    2.80
  -2  -1  -7    2.50    1.30
  -2  -1  -7    3.30    1.10
  -2  -1  -7    1.90    1.20
   2   1   7    2.70    1.20
   2   1   7    3.60    0.80
   2   1   7    4.20    1.10
  -3  -1  -7   13.00    2.00
  -3  -1  -7   13.00    1.80
  -3  -1  -7   13.00    1.90
  -3  -1  -7   12.70    2.30
   3   1   7    8.00    1.50
   3   1   7   12.30    1.50
  -4  -1  -7    1.80    1.80
  -4  -1  -7    2.70    1.40
  -4  -1  -7    3.40    1.60
  -4  -1  -7    3.50    1.40
   4   1   7    3.70    1.40
   4   1   7    3.10    1.20
   4   1   7    3.50    1.40
   6  -2  -7   -0.50    1.60
   6  -2  -7    0.10    1.20
  -6   2   7   -0.60    1.40
   5  -2  -7    6.00    1.50
   5  -2  -7    6.10    1.70
  -5   2   7    5.70    1.40
  -5   2   7    8.40    1.90
   4  -2  -7    1.30    1.00
  -4   2   7   -1.20    0.90
  -4   2   7    0.80    0.80
  -4   2   7    0.10    0.50
  -4   2   7   -0.20    0.40
   3  -2  -7    4.90    0.60
   3  -2  -7    6.10    0.80
   3  -2  -7    4.00    1.10
  -3   2   7    5.80    0.60
  -3   2   7    4.90    0.80
  -3   2   7    4.60    1.30
   2  -2  -7  155.78    5.70
   2  -2  -7  147.49    6.20
   2  -2  -7  149.59    5.90
  -2   2   7  150.38    6.40
  -2   2   7  155.08    5.70
  -2   2   7  151.68    6.00
  -2   2   7  139.49    5.90
   1  -2  -7  107.59    4.50
   1  -2  -7  110.99    4.70
   1  -2  -7  110.79    4.60
   1  -2  -7  108.99    4.40
  -1   2   7  107.69    4.40
  -1   2   7  108.19    4.70
  -1   2   7  106.29    4.90
  -1   2   7  120.29    4.80
   0  -2  -7   50.69    2.70
   0  -2  -7   53.29    2.70
   0  -2  -7   47.60    2.20
   0  -2  -7   51.59    2.90
   0   2   7   53.39    2.90
   0   2   7   53.39    2.80
   0   2   7   49.20    3.00
  -1  -2  -7    9.30    1.60
  -1  -2  -7    8.50    1.40
  -1  -2  -7    9.60    1.50
   1   2   7   10.80    1.50
   1   2   7    7.90    1.50
  -2  -2  -7    9.70    1.70
  -2  -2  -7   11.10    1.80
  -2  -2  -7    9.60    1.60
   2   2   7   11.40    1.30
   2   2   7   10.20    1.60
  -3  -2  -7    6.60    1.40
  -3  -2  -7    6.10    1.60
  -3  -2  -7    5.50    1.80
  -3  -2  -7    6.60    2.00
   3   2   7    7.70    1.30
   3   2   7    6.90    1.50
  -4  -2  -7    1.10    1.30
  -4  -2  -7    3.20    2.10
  -4  -2  -7    0.70    1.30
  -4  -2  -7    1.80    1.70
   4   2   7    1.90    1.10
   4   2   7    1.50    1.30
   4   2   7    1.80    1.20
   6  -3  -7    2.90    1.90
  -6   3   7    1.50    1.70
  -6   3   7    1.60    1.60
   5  -3  -7   11.40    2.10
  -5   3   7   13.00    1.80
  -5   3   7   10.70    2.10
   4  -3  -7   42.60    3.00
  -4   3   7   38.20    2.00
  -4   3   7   41.50    2.00
  -4   3   7   47.00    3.20
   3  -3  -7   89.99    4.40
   3  -3  -7   85.89    3.50
   3  -3  -7   85.99    3.70
   3  -3  -7   92.69    3.70
  -3   3   7   90.29    3.80
  -3   3   7   94.69    4.50
  -3   3   7   85.69    3.80
   2  -3  -7  116.79    4.80
   2  -3  -7  109.69    5.00
   2  -3  -7  120.09    4.60
  -2   3   7  117.99    5.20
  -2   3   7  106.99    4.80
  -2   3   7  117.09    4.90
   1  -3  -7    1.90    0.70
   1  -3  -7    3.00    0.70
   1  -3  -7    0.80    0.90
   1  -3  -7    3.10    0.90
  -1   3   7    1.80    0.70
  -1   3   7    1.50    0.70
  -1   3   7    0.70    1.00
   0  -3  -7    4.30    1.10
   0  -3  -7    1.00    0.80
   0  -3  -7    3.50    1.10
   0   3   7    1.70    0.90
   0   3   7    2.90    1.10
   0   3   7    2.50    0.90
  -1  -3  -7   55.79    3.30
  -1  -3  -7   53.79    3.30
  -1  -3  -7   47.40    3.10
   1   3   7   47.40    2.90
   1   3   7   54.99    3.50
   1   3   7   51.09    3.20
  -2  -3  -7    0.90    1.00
  -2  -3  -7   -0.20    1.10
  -2  -3  -7    2.10    1.40
  -2  -3  -7    0.80    1.00
   2   3   7    1.30    0.70
   2   3   7    1.50    1.00
  -3  -3  -7   18.10    2.20
  -3  -3  -7   17.00    2.60
  -3  -3  -7   14.90    2.10
  -3  -3  -7   17.90    2.60
   3   3   7   15.00    2.10
   3   3   7   17.90    1.70
  -4  -3  -7   -0.60    1.80
  -4  -3  -7   -0.20    1.30
  -4  -3  -7    0.30    1.30
  -4  -3  -7    3.90    2.20
   4   3   7    2.10    1.40
   6  -4  -7   -0.90    1.50
  -6   4   7    0.90    1.50
  -6   4   7    0.70    1.60
   5  -4  -7    0.40    1.40
  -5   4   7    0.80    1.00
  -5   4   7   -0.10    1.20
   4  -4  -7    3.10    1.40
  -4   4   7    3.60    0.70
  -4   4   7    3.40    0.70
  -4   4   7    5.10    1.50
   3  -4  -7   23.40    2.30
   3  -4  -7   21.90    1.90
   3  -4  -7   21.60    1.40
   3  -4  -7   21.30    1.60
  -3   4   7   24.00    2.30
  -3   4   7   22.20    1.60
  -3   4   7   21.70    1.40
  -3   4   7   20.70    1.50
   2  -4  -7   40.70    2.50
   2  -4  -7   40.20    2.10
   2  -4  -7   39.40    2.10
   2  -4  -7   38.90    2.40
   2  -4  -7   42.60    2.50
  -2   4   7   36.50    2.30
  -2   4   7   36.90    2.30
  -2   4   7   41.70    2.80
  -2   4   7   41.70    2.20
   1  -4  -7   47.10    2.50
   1  -4  -7   49.80    2.60
   1  -4  -7   51.29    2.80
   1  -4  -7   43.10    2.60
   1  -4  -7   51.19    2.90
  -1   4   7   51.99    2.80
  -1   4   7   51.59    3.20
  -1   4   7   50.99    2.70
  -1   4   7   47.40    2.80
   0  -4  -7    6.00    1.10
   0  -4  -7    6.90    1.40
   0  -4  -7    8.20    1.50
   0  -4  -7    5.90    1.10
   0   4   7    5.70    1.20
   0   4   7    4.90    1.30
   0   4   7    6.10    1.20
  -1  -4  -7   15.10    1.80
  -1  -4  -7   19.60    2.40
  -1  -4  -7   18.30    2.20
  -1  -4  -7   15.20    1.90
   1   4   7   14.60    1.20
   1   4   7   16.60    2.10
   1   4   7   13.60    1.70
   1   4   7   13.30    1.80
  -2  -4  -7   25.50    3.00
  -2  -4  -7   24.50    2.80
  -2  -4  -7   21.90    2.30
  -2  -4  -7   20.40    2.40
   2   4   7   18.40    2.10
   2   4   7   21.40    1.50
  -3  -4  -7    1.40    1.80
  -3  -4  -7    3.20    1.40
  -3  -4  -7    1.30    1.40
  -3  -4  -7    2.90    2.00
   3   4   7    1.90    1.20
  -4  -4  -7    1.00    1.30
  -4  -4  -7    0.40    1.30
  -4  -4  -7    2.10    2.40
  -4  -4  -7   -0.90    2.00
   4   4   7   -1.30    1.20
  -6   5   7   -1.50    1.30
  -6   5   7   -1.30    1.50
   5  -5  -7    2.60    1.50
  -5   5   7    2.70    1.50
   4  -5  -7   15.30    2.10
   4  -5  -7   13.70    1.80
  -4   5   7   14.40    1.30
  -4   5   7   17.40    2.10
  -4   5   7   15.10    1.30
   3  -5  -7    6.40    0.80
   3  -5  -7    7.40    1.50
   3  -5  -7    7.10    1.40
  -3   5   7    7.70    1.10
  -3   5   7    7.20    0.90
  -3   5   7    5.00    0.90
  -3   5   7    5.90    1.30
   2  -5  -7   69.19    3.50
   2  -5  -7   68.19    3.50
   2  -5  -7   66.99    3.50
   2  -5  -7   67.09    3.20
  -2   5   7   71.19    3.50
  -2   5   7   67.19    3.40
  -2   5   7   64.99    3.70
  -2   5   7   69.69    3.30
   1  -5  -7   13.20    1.50
   1  -5  -7   20.20    2.10
   1  -5  -7   16.00    1.60
   1  -5  -7   22.40    2.20
   1  -5  -7   20.90    1.80
  -1   5   7   17.10    1.80
  -1   5   7   20.30    2.20
  -1   5   7   19.90    1.90
   0  -5  -7    3.80    1.10
   0  -5  -7    4.30    1.10
   0  -5  -7    4.00    1.30
   0  -5  -7    5.10    1.50
   0   5   7    5.10    1.30
   0   5   7    4.00    1.20
   0   5   7    3.80    1.20
  -1  -5  -7    1.90    1.00
  -1  -5  -7    2.80    1.50
  -1  -5  -7    4.40    1.30
  -1  -5  -7    3.00    1.50
   1   5   7    4.80    1.20
   1   5   7    5.50    1.40
   1   5   7    3.50    1.20
   1   5   7    2.80    1.20
  -2  -5  -7    2.40    1.30
  -2  -5  -7    4.50    1.40
  -2  -5  -7    4.50    1.90
  -2  -5  -7    5.70    1.90
   2   5   7    3.40    1.30
  -3  -5  -7   -1.70    1.10
  -3  -5  -7    1.30    1.80
  -3  -5  -7   -2.20    1.70
  -3  -5  -7   -0.80    1.10
   3   5   7   -0.50    1.20
  -6   6   7    0.10    1.60
  -5   6   7   -1.20    1.10
  -5   6   7    2.10    1.60
   4  -6  -7    2.60    1.20
  -4   6   7    2.50    0.80
  -4   6   7    1.20    1.20
   3  -6  -7    3.80    1.10
   3  -6  -7    3.80    0.80
  -3   6   7    5.30    1.30
  -3   6   7    3.50    0.80
  -3   6   7    3.40    0.90
   2  -6  -7   17.30    2.00
   2  -6  -7   17.90    1.90
   2  -6  -7   13.30    1.40
  -2   6   7   18.20    1.60
  -2   6   7   15.60    1.70
  -2   6   7   18.60    2.00
   1  -6  -7    6.70    1.50
   1  -6  -7    3.90    1.20
   1  -6  -7    6.40    1.50
   1  -6  -7    5.60    1.20
  -1   6   7    6.20    1.40
  -1   6   7    3.90    1.10
  -1   6   7    5.30    1.20
   0  -6  -7   13.20    2.10
   0  -6  -7   12.40    2.00
   0  -6  -7    9.10    1.50
   0   6   7    8.40    1.50
   0   6   7   10.40    1.70
   0   6   7   13.20    1.90
   0   6   7   11.50    1.80
  -1  -6  -7    1.80    1.30
  -1  -6  -7    2.50    1.50
  -1  -6  -7    2.80    1.60
   1   6   7    1.10    1.10
   1   6   7    1.60    0.90
   1   6   7    0.80    1.00
  -2  -6  -7   -2.00    1.60
  -2  -6  -7   -0.30    1.80
  -2  -6  -7    0.70    1.10
   2   6   7    1.20    1.20
  -3  -6  -7   12.60    2.80
  -3  -6  -7    4.60    1.70
  -3  -6  -7    2.70    2.20
   3   6   7    4.90    1.70
  -6   7   7   -0.40    2.00
   5  -7  -7    2.00    1.20
  -5   7   7    0.00    0.60
  -5   7   7    4.20    2.00
   4  -7  -7    6.80    1.60
  -4   7   7   10.90    2.20
  -4   7   7    6.80    1.50
  -4   7   7    7.10    1.10
   3  -7  -7    0.80    0.70
   3  -7  -7    2.10    1.10
  -3   7   7    3.20    1.20
  -3   7   7    2.50    0.80
  -3   7   7    2.90    0.90
   2  -7  -7    0.30    0.70
   2  -7  -7    0.10    0.90
  -2   7   7    0.70    0.80
  -2   7   7    1.20    1.00
  -2   7   7    1.40    0.80
   1  -7  -7   -0.70    1.20
   1  -7  -7    0.20    1.10
   1  -7  -7    1.10    0.90
   1  -7  -7    0.70    1.00
  -1   7   7    2.30    1.10
  -1   7   7    0.90    0.90
  -1   7   7    3.40    1.40
  -1   7   7   -0.10    0.80
   0  -7  -7   -0.30    1.00
   0  -7  -7    1.40    1.40
   0  -7  -7    3.20    0.90
   0  -7  -7    1.70    1.50
   0   7   7    1.20    1.20
   0   7   7    2.60    1.30
   0   7   7    2.60    1.10
   0   7   7    1.90    1.10
  -1  -7  -7   -1.70    1.40
  -1  -7  -7   -0.90    1.00
  -1  -7  -7    0.80    1.50
   1   7   7    0.20    1.00
  -2  -7  -7    3.30    2.10
  -2  -7  -7    1.00    2.00
  -2  -7  -7   -1.70    1.10
   2   7   7    1.80    1.30
  -3  -7  -7   -0.50    2.10
  -3  -7  -7    0.00    1.40
   3   7   7    1.40    1.50
   5  -8  -7    1.80    1.10
  -5   8   7    1.20    1.70
  -5   8   7    0.90    0.80
   4  -8  -7    0.60    1.10
  -4   8   7   -0.40    0.70
  -4   8   7    0.60    1.50
   3  -8  -7    3.60    1.30
   3  -8  -7    3.70    0.90
  -3   8   7    6.80    1.40
  -3   8   7    4.50    1.90
  -3   8   7    3.20    1.00
  -3   8   7    7.30    1.20
   2  -8  -7   -0.80    0.70
   2  -8  -7   -1.40    0.80
  -2   8   7   -2.00    0.70
  -2   8   7   -0.60    1.20
  -2   8   7    0.80    1.00
  -2   8   7    0.40    0.90
   1  -8  -7    9.60    1.60
   1  -8  -7   10.50    2.10
   1  -8  -7   10.20    1.60
  -1   8   7   11.80    1.80
  -1   8   7   10.40    1.70
  -1   8   7   11.70    2.20
  -1   8   7    9.00    1.50
   0  -8  -7    0.50    0.80
   0  -8  -7   -0.20    1.50
   0  -8  -7    1.00    1.60
   0  -8  -7    1.30    1.10
   0   8   7    0.70    1.10
   0   8   7    1.70    1.30
   0   8   7    0.90    1.10
  -1  -8  -7    8.70    2.50
  -1  -8  -7    2.30    1.50
   1   8   7    6.10    1.60
  -2  -8  -7    0.70    1.60
  -2  -8  -7    0.90    2.20
   2   8   7   -1.20    1.30
   5  -9  -7   -0.70    1.10
  -5   9   7    0.20    1.70
  -5   9   7   -1.50    0.60
   4  -9  -7    1.80    1.30
  -4   9   7    6.70    2.10
  -4   9   7    2.60    1.00
   3  -9  -7    0.70    1.10
   3  -9  -7   -1.40    0.70
  -3   9   7    1.00    0.90
  -3   9   7   -0.40    1.50
  -3   9   7   -0.60    0.80
   2  -9  -7    0.40    0.90
   2  -9  -7    1.60    1.20
  -2   9   7    0.30    1.10
  -2   9   7    3.10    1.20
  -2   9   7    1.80    1.10
  -2   9   7    2.10    1.60
   1  -9  -7    3.90    1.70
   1  -9  -7    3.00    1.10
   1  -9  -7    2.80    1.20
  -1   9   7    3.30    1.20
  -1   9   7    1.90    1.60
  -1   9   7    2.10    1.20
  -1   9   7    3.00    1.30
   0  -9  -7    5.40    2.20
   0  -9  -7    6.70    1.70
   0   9   7    3.10    1.50
   0   9   7    9.10    2.00
   0   9   7    7.30    1.70
  -1  -9  -7    1.20    2.30
  -1  -9  -7   -0.80    1.30
   1   9   7    1.30    1.40
  -2  -9  -7   -1.30    2.30
   5 -10  -7    0.30    1.20
  -5  10   7    0.50    0.80
  -5  10   7    1.60    2.10
   4 -10  -7    1.40    1.20
  -4  10   7    2.70    2.00
  -4  10   7    1.50    1.00
   3 -10  -7   -0.20    1.10
  -3  10   7    1.30    1.10
  -3  10   7   -0.70    1.70
   2 -10  -7    1.30    1.20
   2 -10  -7    0.90    1.00
  -2  10   7   -0.30    1.00
  -2  10   7    0.30    1.60
  -2  10   7    0.20    1.10
   1 -10  -7    5.10    1.40
   1 -10  -7    4.80    1.50
  -1  10   7    3.50    1.60
  -1  10   7    6.00    2.10
  -1  10   7    6.10    1.60
   0 -10  -7   -0.60    2.20
   0 -10  -7    2.10    1.40
   0  10   7    0.90    1.40
  -1 -10  -7   -0.10    2.30
  -1 -10  -7   -1.30    1.50
   1  10   7   -0.70    1.50
   4 -11  -7    2.90    1.40
  -4  11   7    2.30    2.00
  -4  11   7    0.90    1.10
   3 -11  -7    0.20    1.30
  -3  11   7    0.30    2.00
  -3  11   7    1.00    1.20
   2 -11  -7   -0.50    1.10
   2 -11  -7   -0.70    1.10
  -2  11   7   -0.30    1.20
  -2  11   7    0.30    1.90
  -2  11   7    0.10    1.30
   1 -11  -7    1.70    1.30
   1 -11  -7    1.50    1.30
  -1  11   7    2.10    1.60
  -1  11   7    2.80    2.10
  -1  11   7    2.90    1.50
   0 -11  -7    2.80    1.60
   0 -11  -7   -2.50    2.10
   0  11   7    3.00    1.60
   3 -12  -7   -2.10    1.10
  -3  12   7    0.30    1.30
  -3  12   7   -1.40    2.00
   2 -12  -7    0.00    1.10
   2 -12  -7   -1.40    1.00
  -2  12   7   -4.10    1.80
  -2  12   7   -2.00    1.00
  -2  12   7   -1.00    1.30
   1 -12  -7   -1.00    1.20
  -1  12   7   -0.50    1.20
  -1  12   7    1.40    2.20
  -1  12   7    0.90    1.50
   0  16  -8   -1.10    1.30
   0  16  -8    2.40    2.30
   0 -16   8   -2.50    1.20
   0 -16   8   -2.20    1.40
  -1  16  -8    1.70    1.50
  -1  16  -8    1.00    2.20
   1 -16   8   -0.60    1.40
   1 -16   8    0.80    1.50
  -2  16  -8   -0.60    1.20
  -2  16  -8    3.10    2.30
  -2  16  -8    0.80    1.40
   2 -16   8    0.90    1.40
   2 -16   8    1.90    1.50
   1  15  -8    0.40    1.50
   1  15  -8    1.10    1.60
   1  15  -8   -1.30    2.10
  -1 -15   8   -0.90    1.60
  -1 -15   8   -1.80    1.30
  -1 -15   8    1.30    1.70
   0  15  -8    1.50    2.10
   0  15  -8    1.20    1.50
   0 -15   8    2.80    1.60
   0 -15   8    1.60    1.60
  -1  15  -8    5.60    1.80
  -1  15  -8   11.40    2.90
  -1  15  -8    8.60    1.90
   1 -15   8    7.60    1.90
   1 -15   8    8.60    2.00
  -2  15  -8    3.60    2.20
  -2  15  -8   -1.70    1.10
  -2  15  -8    2.20    1.40
   2 -15   8   -0.40    1.20
   2 -15   8   -0.30    1.20
  -3  15  -8   -0.80    1.10
  -3  15  -8    2.20    1.30
  -3  15  -8    0.20    2.10
   3 -15   8   -0.20    1.10
   3 -15   8    2.30    1.50
   3 -15   8    0.70    1.40
   2  14  -8    0.00    1.50
   2  14  -8    0.00    1.50
   2  14  -8    0.70    1.80
  -2 -14   8    1.50    1.40
  -2 -14   8    0.90    1.60
  -2 -14   8    0.40    1.70
   1  14  -8   14.20    3.10
   1  14  -8    9.70    2.10
   1  14  -8   10.10    2.00
  -1 -14   8    9.00    2.00
  -1 -14   8   10.70    2.00
  -1 -14   8    8.30    2.10
   0  14  -8    1.80    2.00
   0  14  -8    0.60    1.20
   0 -14   8   -1.60    1.10
   0 -14   8    1.00    1.40
  -1  14  -8   -0.50    1.20
  -1  14  -8   -0.70    1.10
  -1  14  -8   -0.40    1.60
   1 -14   8   -1.30    1.10
   1 -14   8   -0.40    1.20
  -2  14  -8    1.70    1.30
  -2  14  -8    2.80    1.30
  -2  14  -8    1.00    1.80
   2 -14   8    2.50    1.30
   2 -14   8    0.00    1.20
  -3  14  -8    1.20    1.90
  -3  14  -8   -0.40    1.10
  -3  14  -8    0.10    1.10
   3 -14   8    0.20    1.20
   3 -14   8   -1.60    1.10
   3 -14   8    0.10    1.10
  -4  14  -8    0.40    2.10
  -4  14  -8    1.30    1.30
   4 -14   8    0.00    1.10
   4 -14   8    0.70    1.10
   3  13  -8   -0.90    1.30
   3  13  -8    1.20    1.40
   3  13  -8    1.30    1.60
  -3 -13   8    2.00    1.70
  -3 -13   8   -2.10    2.00
  -3 -13   8    2.00    1.70
   2  13  -8    4.60    1.60
   2  13  -8    2.80    2.00
   2  13  -8    5.90    1.70
   2  13  -8    2.70    1.60
  -2 -13   8    4.80    1.70
  -2 -13   8    2.10    1.60
  -2 -13   8    3.10    2.10
  -2 -13   8    0.50    1.30
   1  13  -8    2.00    1.40
   1  13  -8    3.50    1.50
   1  13  -8    4.00    2.10
  -1 -13   8    2.60    1.50
  -1 -13   8    4.30    1.50
  -1 -13   8    5.10    1.80
   0  13  -8   -0.30    1.10
   0  13  -8    0.10    1.60
   0 -13   8    0.30    1.20
   0 -13   8   -1.70    0.90
  -1  13  -8   -0.50    1.50
  -1  13  -8   -1.40    0.90
  -1  13  -8    1.00    1.10
   1 -13   8    0.40    1.20
   1 -13   8    1.20    1.20
  -2  13  -8    1.30    1.70
  -2  13  -8    3.70    1.30
  -2  13  -8    2.20    1.20
   2 -13   8    2.80    1.20
   2 -13   8    1.80    1.30
  -3  13  -8    0.00    1.60
  -3  13  -8   -0.70    1.00
  -3  13  -8    0.60    1.10
   3 -13   8    0.30    1.00
   3 -13   8   -1.10    1.00
   3 -13   8   -0.20    1.10
  -4  13  -8    0.50    1.10
  -4  13  -8    2.20    2.00
   4 -13   8   -0.10    1.00
   4 -13   8    0.30    1.00
   3  12  -8    1.10    1.40
   3  12  -8   -1.30    1.20
   3  12  -8    1.00    1.30
  -3 -12   8    3.20    1.60
  -3 -12   8   -0.20    1.40
  -3 -12   8    2.50    2.20
  -3 -12   8    3.20    1.50
  -3 -12   8    0.00    1.40
   2  12  -8    3.40    1.30
   2  12  -8    7.30    2.10
   2  12  -8    4.90    1.80
   2  12  -8    3.10    1.50
  -2 -12   8    3.80    1.70
  -2 -12   8    7.20    2.20
  -2 -12   8    3.50    1.70
  -2 -12   8    6.00    1.80
  -2 -12   8    5.10    1.70
   1  12  -8   20.80    2.40
   1  12  -8   20.10    3.10
   1  12  -8   18.30    1.80
   1  12  -8   15.10    2.10
  -1 -12   8   14.70    2.20
  -1 -12   8   19.50    2.10
  -1 -12   8   17.10    2.20
  -1 -12   8   16.50    2.20
   0  12  -8   14.90    2.70
   0  12  -8   10.70    1.90
   0  12  -8   11.60    1.80
   0 -12   8   11.10    1.80
   0 -12   8   11.90    1.90
  -1  12  -8    0.30    1.00
  -1  12  -8    1.30    1.10
  -1  12  -8    0.90    1.40
   1 -12   8    1.40    1.20
   1 -12   8    1.50    1.10
  -2  12  -8    1.40    1.40
  -2  12  -8    0.90    1.10
  -2  12  -8    1.00    1.00
   2 -12   8    1.30    1.00
   2 -12   8    1.70    1.10
  -3  12  -8    1.20    1.10
  -3  12  -8    1.70    1.60
  -3  12  -8    0.40    0.90
   3 -12   8    2.20    1.10
   3 -12   8    1.20    1.10
   3 -12   8    0.90    1.00
  -4  12  -8    0.30    1.00
  -4  12  -8    1.80    1.90
   4 -12   8    0.10    1.00
   4 -12   8   -0.20    0.90
   4 -12   8    0.90    1.20
   4  11  -8    4.60    1.70
   4  11  -8    3.60    1.60
   4  11  -8    3.80    1.70
   4  11  -8    9.10    2.10
  -4 -11   8    9.50    2.30
  -4 -11   8    4.00    1.60
  -4 -11   8    4.50    2.40
  -4 -11   8    4.50    1.80
  -4 -11   8    8.10    1.90
   3  11  -8    6.00    1.60
   3  11  -8    5.60    1.70
   3  11  -8    4.70    1.60
  -3 -11   8    4.40    2.10
  -3 -11   8    4.00    1.60
  -3 -11   8    6.70    1.70
  -3 -11   8    3.70    1.60
  -3 -11   8    8.30    2.00
   2  11  -8    9.60    1.70
   2  11  -8   11.50    2.30
   2  11  -8   11.90    1.60
   2  11  -8   12.90    1.90
  -2 -11   8   10.30    1.80
  -2 -11   8   11.40    2.30
  -2 -11   8   11.00    2.10
  -2 -11   8   11.70    2.00
  -2 -11   8   11.80    1.90
   1  11  -8   11.00    1.90
   1  11  -8    9.30    1.30
   1  11  -8   10.10    2.30
  -1 -11   8    9.50    1.60
  -1 -11   8    9.50    1.70
  -1 -11   8   10.10    1.80
  -1 -11   8    9.50    1.80
   0  11  -8    2.00    1.00
   0  11  -8    4.20    1.60
   0  11  -8    0.80    1.10
   0 -11   8    1.60    1.10
   0 -11   8    2.20    1.00
   0 -11   8    1.20    1.10
  -1  11  -8   -0.60    1.10
  -1  11  -8    0.00    0.90
  -1  11  -8    0.60    0.90
   1 -11   8   -0.70    0.70
   1 -11   8   -0.30    0.90
  -2  11  -8    4.20    1.30
  -2  11  -8    3.00    1.10
  -2  11  -8    2.70    1.50
   2 -11   8    4.50    1.30
   2 -11   8    1.20    1.00
  -3  11  -8    1.90    1.60
  -3  11  -8    0.50    0.90
  -3  11  -8   -0.10    1.00
   3 -11   8    0.50    0.90
   3 -11   8   -0.10    0.90
   3 -11   8    0.30    0.80
  -4  11  -8   -0.20    1.00
  -4  11  -8    0.80    0.90
  -4  11  -8    0.10    1.10
  -4  11  -8   -0.20    1.50
   4 -11   8    0.70    0.90
   4 -11   8   -1.10    0.80
   4 -11   8    0.20    0.90
   5 -11   8    0.00    0.90
   5 -11   8    0.00    1.10
   4  10  -8   -0.10    1.30
   4  10  -8    1.00    1.40
   4  10  -8   -0.10    1.10
   4  10  -8   -0.10    1.30
  -4 -10   8    2.10    1.40
  -4 -10   8    0.90    1.40
  -4 -10   8    1.00    2.00
  -4 -10   8    2.50    1.90
  -4 -10   8    0.10    1.20
   3  10  -8   27.30    2.70
   3  10  -8   30.50    2.70
   3  10  -8   25.40    2.60
  -3 -10   8   39.10    3.60
  -3 -10   8   22.60    2.60
  -3 -10   8   22.70    2.70
  -3 -10   8   27.30    2.70
  -3 -10   8   24.30    3.10
   2  10  -8    0.10    0.90
   2  10  -8    0.40    1.10
   2  10  -8   -0.60    1.00
   2  10  -8    0.40    1.40
  -2 -10   8   -1.40    0.90
  -2 -10   8   -0.50    1.20
  -2 -10   8   -1.30    1.00
  -2 -10   8    3.10    1.50
  -2 -10   8    0.10    1.10
   1  10  -8    3.00    1.60
   1  10  -8    2.90    1.20
   1  10  -8    3.30    1.10
   1  10  -8    2.50    0.90
  -1 -10   8    1.80    1.10
  -1 -10   8    2.20    1.20
  -1 -10   8    3.20    1.20
   0  10  -8   28.60    2.50
   0  10  -8   29.60    2.30
   0  10  -8   31.00    1.60
   0  10  -8   35.60    3.00
   0 -10   8   32.10    2.40
   0 -10   8   36.40    2.30
   0 -10   8   30.50    2.50
  -1  10  -8   18.90    2.10
  -1  10  -8   17.90    2.50
  -1  10  -8   25.10    2.10
   1 -10   8   19.90    2.00
   1 -10   8   21.70    1.70
   1 -10   8   17.20    1.90
  -2  10  -8   19.90    2.30
  -2  10  -8   20.00    2.00
  -2  10  -8   20.30    2.60
   2 -10   8   25.20    2.20
   2 -10   8   24.30    2.00
  -3  10  -8    6.40    1.50
  -3  10  -8    7.30    1.40
  -3  10  -8    6.60    1.40
  -3  10  -8    9.30    2.10
   3 -10   8    8.00    1.50
   3 -10   8    7.10    1.40
   3 -10   8    5.90    1.40
  -4  10  -8    2.60    1.00
  -4  10  -8    0.60    1.00
  -4  10  -8    2.40    1.40
  -4  10  -8    1.50    1.60
   4 -10   8    1.60    1.00
   4 -10   8    0.50    0.90
   4 -10   8    2.80    1.20
  -5  10  -8    0.40    1.90
  -5  10  -8   -1.40    1.00
   5 -10   8    0.70    1.10
   4   9  -8    5.60    1.60
   4   9  -8    8.40    1.80
   4   9  -8   10.80    2.10
   4   9  -8    8.40    1.90
  -4  -9   8    9.40    2.40
  -4  -9   8    7.30    1.60
  -4  -9   8    7.60    2.40
  -4  -9   8    3.50    1.50
  -4  -9   8    7.60    1.70
   3   9  -8    4.30    1.40
   3   9  -8    3.10    1.20
   3   9  -8    2.20    1.10
  -3  -9   8    3.00    1.70
  -3  -9   8    3.00    1.30
  -3  -9   8    3.40    1.30
  -3  -9   8    5.60    1.80
  -3  -9   8    2.60    1.30
   2   9  -8    8.00    1.40
   2   9  -8    6.90    1.80
   2   9  -8    8.30    1.30
   2   9  -8    8.60    1.40
  -2  -9   8    7.50    1.80
  -2  -9   8    6.50    1.50
  -2  -9   8    6.90    1.40
  -2  -9   8    6.70    1.40
  -2  -9   8    9.80    1.80
   1   9  -8  156.68    6.90
   1   9  -8  145.79    6.00
   1   9  -8  161.08    7.20
   1   9  -8  162.38    6.60
  -1  -9   8  150.28    6.90
  -1  -9   8  145.39    6.60
  -1  -9   8  156.78    6.60
   0   9  -8   28.00    2.40
   0   9  -8   28.30    2.20
   0   9  -8   29.60    2.70
   0  -9   8   31.40    2.30
   0  -9   8   28.20    2.20
   0  -9   8   30.10    2.40
  -1   9  -8   24.40    2.50
  -1   9  -8   23.00    2.20
  -1   9  -8   24.70    2.00
   1  -9   8   26.90    2.10
   1  -9   8   24.50    1.90
   1  -9   8   24.20    2.10
  -2   9  -8    4.30    1.50
  -2   9  -8    3.90    1.10
  -2   9  -8    3.70    1.10
   2  -9   8    3.80    1.00
   2  -9   8    4.60    0.90
   2  -9   8    3.60    1.10
  -3   9  -8    0.10    1.00
  -3   9  -8    1.90    1.00
  -3   9  -8    1.40    1.40
  -3   9  -8    1.60    1.00
   3  -9   8    0.00    0.90
   3  -9   8    3.00    1.00
  -4   9  -8    3.00    1.10
  -4   9  -8    5.00    1.80
  -4   9  -8    2.20    1.10
  -4   9  -8    3.90    1.40
   4  -9   8    2.60    1.00
   4  -9   8    1.30    1.10
   4  -9   8    3.90    1.10
  -5   9  -8    5.00    2.10
  -5   9  -8    0.00    1.10
   5  -9   8    0.70    1.10
   5   8  -8    1.40    1.50
   5   8  -8   -1.10    1.40
  -5  -8   8    0.80    1.20
   4   8  -8    5.00    1.50
   4   8  -8    5.80    1.70
   4   8  -8    5.70    1.60
  -4  -8   8    2.80    1.30
  -4  -8   8    4.70    1.50
  -4  -8   8    6.10    1.90
   3   8  -8   37.00    2.70
   3   8  -8   35.00    2.60
  -3  -8   8   34.80    3.00
  -3  -8   8   34.90    2.70
  -3  -8   8   39.50    3.50
  -3  -8   8   35.10    2.90
  -3  -8   8   38.50    2.70
   2   8  -8    5.10    1.60
   2   8  -8    5.50    1.10
   2   8  -8    4.70    1.00
  -2  -8   8    4.10    1.40
  -2  -8   8    3.50    1.10
  -2  -8   8    4.30    1.10
  -2  -8   8    3.00    1.30
   1   8  -8   62.49    3.90
   1   8  -8   70.19    3.60
   1   8  -8   60.29    2.80
   1   8  -8   64.59    3.30
  -1  -8   8   67.29    3.60
  -1  -8   8   63.29    3.40
  -1  -8   8   61.59    3.50
   0   8  -8   39.90    3.00
   0   8  -8   38.10    2.50
   0   8  -8   42.90    2.80
   0  -8   8   37.20    2.50
   0  -8   8   39.20    2.60
   0  -8   8   44.50    2.80
  -1   8  -8    9.00    1.40
  -1   8  -8    9.70    1.40
  -1   8  -8   11.10    1.80
   1  -8   8   11.50    1.50
   1  -8   8   11.20    1.40
   1  -8   8   10.80    1.40
  -2   8  -8    1.40    0.90
  -2   8  -8    1.40    0.80
  -2   8  -8    1.00    1.20
   2  -8   8    1.80    0.80
   2  -8   8    0.70    0.70
   2  -8   8    1.70    0.80
  -3   8  -8   -0.40    1.20
  -3   8  -8    2.70    0.90
  -3   8  -8    0.40    1.00
  -3   8  -8    0.30    0.90
   3  -8   8    0.60    0.80
   3  -8   8    0.80    0.80
  -4   8  -8   16.90    2.60
  -4   8  -8   21.50    2.80
  -4   8  -8   16.70    2.20
   4  -8   8   12.50    1.80
   4  -8   8   15.20    1.80
  -5   8  -8   -2.40    1.50
  -5   8  -8    0.00    1.10
   5  -8   8    0.50    1.00
   5   7  -8   -0.60    1.40
   5   7  -8   -0.30    1.40
  -5  -7   8   -0.10    1.00
   4   7  -8   14.70    1.80
   4   7  -8   19.50    2.50
   4   7  -8   20.60    2.40
  -4  -7   8   16.50    2.10
  -4  -7   8   19.30    2.50
  -4  -7   8   19.70    2.10
  -4  -7   8   15.80    2.60
   3   7  -8   31.80    2.30
   3   7  -8   34.10    2.50
  -3  -7   8   32.30    2.60
  -3  -7   8   31.70    2.40
  -3  -7   8   41.90    3.40
  -3  -7   8   30.80    2.60
   2   7  -8   52.29    2.80
   2   7  -8   55.79    3.60
   2   7  -8   57.69    3.00
  -2  -7   8   56.09    3.40
  -2  -7   8   52.19    3.10
  -2  -7   8   62.59    3.70
  -2  -7   8   61.19    3.30
   1   7  -8   11.80    1.10
   1   7  -8   14.50    1.60
   1   7  -8   14.50    1.60
   1   7  -8   15.60    2.10
  -1  -7   8   12.80    1.70
  -1  -7   8   13.30    1.60
  -1  -7   8   15.40    1.70
  -1  -7   8   11.70    1.50
   0   7  -8   77.39    3.70
   0   7  -8   79.29    4.20
   0   7  -8   78.19    4.00
   0  -7   8   78.59    3.70
   0  -7   8   80.39    3.80
   0  -7   8   74.59    3.90
  -1   7  -8   20.20    2.00
  -1   7  -8   21.00    1.80
  -1   7  -8   21.90    1.90
  -1   7  -8   23.40    2.30
   1  -7   8   18.90    1.80
   1  -7   8   23.90    2.00
   1  -7   8   21.40    1.80
  -2   7  -8    4.50    1.20
  -2   7  -8    4.70    1.50
  -2   7  -8    3.90    1.00
  -2   7  -8    4.90    1.10
   2  -7   8    5.40    1.20
   2  -7   8    2.80    0.90
   2  -7   8    2.60    0.90
  -3   7  -8    1.10    0.90
  -3   7  -8    2.30    1.20
  -3   7  -8    2.10    0.90
  -3   7  -8    2.20    1.30
   3  -7   8    1.40    0.80
   3  -7   8    0.50    0.70
  -4   7  -8   10.60    1.70
  -4   7  -8   14.90    2.20
  -4   7  -8   11.70    1.90
  -4   7  -8   13.10    2.40
   4  -7   8    7.70    1.30
   4  -7   8   10.80    1.70
  -5   7  -8    2.00    1.30
  -5   7  -8    3.40    2.10
   5  -7   8    0.70    1.00
   5   6  -8   -1.80    1.20
   5   6  -8   -1.00    1.30
  -5  -6   8    0.00    1.00
  -5  -6   8    0.60    1.70
   4   6  -8   24.10    2.20
   4   6  -8   30.20    2.90
   4   6  -8   31.00    2.60
  -4  -6   8   22.20    2.20
  -4  -6   8   23.30    3.10
  -4  -6   8   23.30    2.30
  -4  -6   8   27.40    2.70
   3   6  -8   11.10    1.60
   3   6  -8   16.20    1.60
   3   6  -8   14.20    1.70
  -3  -6   8   15.90    1.80
  -3  -6   8   13.20    1.70
  -3  -6   8   14.10    1.60
  -3  -6   8   13.70    2.10
   2   6  -8    1.00    0.70
   2   6  -8    1.80    0.90
   2   6  -8    0.90    0.70
  -2  -6   8    1.50    0.90
  -2  -6   8    2.00    1.20
  -2  -6   8    2.60    0.90
  -2  -6   8    0.00    0.80
  -2  -6   8    1.30    0.90
   1   6  -8   11.30    1.40
   1   6  -8   12.20    1.40
   1   6  -8   10.30    0.90
   1   6  -8   12.40    1.90
  -1  -6   8   10.80    1.40
  -1  -6   8   13.80    1.50
  -1  -6   8   12.40    1.50
  -1  -6   8   13.30    1.60
   0   6  -8   38.80    2.50
   0   6  -8   36.60    2.70
   0   6  -8   37.60    2.20
   0  -6   8   42.20    2.60
   0  -6   8   39.80    2.40
   0  -6   8   40.60    2.30
  -1   6  -8  157.08    6.50
  -1   6  -8  156.48    6.80
  -1   6  -8  158.18    6.60
  -1   6  -8  158.28    6.30
   1  -6   8  161.18    6.50
   1  -6   8  155.08    6.50
   1  -6   8  142.79    6.30
  -2   6  -8    2.90    1.00
  -2   6  -8    3.60    1.30
  -2   6  -8    3.80    1.10
  -2   6  -8    1.60    0.80
   2  -6   8    2.70    0.80
   2  -6   8    3.50    1.10
   2  -6   8    3.10    1.00
  -3   6  -8    2.90    1.00
  -3   6  -8    3.90    1.30
  -3   6  -8    3.90    1.10
  -3   6  -8    2.90    1.30
  -3   6  -8    5.70    1.60
   3  -6   8    3.60    1.10
   3  -6   8    1.90    0.80
   3  -6   8    2.80    0.60
  -4   6  -8    7.10    2.10
  -4   6  -8    6.20    1.50
  -4   6  -8    4.70    1.50
   4  -6   8    7.20    1.50
  -5   6  -8    0.00    1.10
  -5   6  -8    2.60    2.00
   5  -6   8    0.80    1.00
   5   5  -8    7.70    1.90
   5   5  -8    6.00    1.90
  -5  -5   8    3.90    1.30
  -5  -5   8   10.10    2.30
   4   5  -8    0.00    1.20
   4   5  -8   -1.70    1.00
   4   5  -8    0.00    0.70
  -4  -5   8    0.60    0.80
  -4  -5   8    0.00    1.50
  -4  -5   8    0.80    0.80
  -4  -5   8    0.70    1.10
   3   5  -8   18.00    1.60
   3   5  -8   19.40    1.80
   3   5  -8   12.20    1.60
  -3  -5   8   17.30    1.70
  -3  -5   8   19.40    2.40
  -3  -5   8   19.40    1.80
  -3  -5   8   17.40    1.70
   2   5  -8  124.49    5.00
   2   5  -8  123.99    4.90
   2   5  -8  122.19    5.20
   2   5  -8  103.89    4.80
  -2  -5   8  114.09    5.20
  -2  -5   8  120.09    5.40
  -2  -5   8  122.89    5.10
  -2  -5   8  121.09    4.90
  -2  -5   8  128.19    5.70
   1   5  -8    3.60    0.60
   1   5  -8    3.00    0.80
   1   5  -8    3.20    1.20
   1   5  -8    2.40    0.70
   1   5  -8    3.10    0.60
  -1  -5   8    4.10    0.90
  -1  -5   8    2.20    0.80
  -1  -5   8    3.90    0.90
  -1  -5   8    3.20    1.00
   0   5  -8   66.29    3.30
   0   5  -8   67.69    3.60
   0   5  -8   59.09    3.00
   0  -5   8   63.89    3.10
   0  -5   8   67.39    3.40
   0  -5   8   66.79    3.30
  -1   5  -8   34.90    2.20
  -1   5  -8   36.90    2.40
  -1   5  -8   35.50    2.60
  -1   5  -8   36.00    2.40
  -1   5  -8   40.10    2.40
   1  -5   8   37.60    2.30
   1  -5   8   40.10    2.60
   1  -5   8   36.10    2.40
  -2   5  -8    2.20    0.90
  -2   5  -8    3.10    1.00
  -2   5  -8    2.40    0.90
  -2   5  -8    1.00    1.10
   2  -5   8    2.30    0.50
   2  -5   8    2.00    0.90
   2  -5   8    2.00    1.00
   2  -5   8    1.80    0.80
  -3   5  -8    2.70    1.40
  -3   5  -8    5.30    1.40
  -3   5  -8    2.90    1.20
  -3   5  -8    2.60    1.00
   3  -5   8    3.20    0.70
   3  -5   8    1.50    0.90
   3  -5   8    2.00    0.80
  -4   5  -8    2.40    1.20
  -4   5  -8    3.40    1.80
  -4   5  -8    4.60    1.60
   4  -5   8    2.10    1.10
   4  -5   8    3.90    1.00
  -5   5  -8    0.90    1.20
  -5   5  -8    0.60    1.80
   5  -5   8    0.90    1.10
   6   4  -8    1.90    1.70
   6   4  -8    3.70    1.80
  -6  -4   8    2.50    2.10
   5   4  -8    2.60    1.60
   5   4  -8    2.40    1.50
  -5  -4   8    2.90    1.70
  -5  -4   8    1.80    0.90
   4   4  -8    9.60    1.60
   4   4  -8    9.50    1.20
   4   4  -8    9.10    1.90
  -4  -4   8    8.60    1.20
  -4  -4   8    6.80    1.20
  -4  -4   8    9.00    1.50
  -4  -4   8    6.80    1.90
   3   4  -8   76.19    3.70
   3   4  -8   74.39    3.40
  -3  -4   8   70.49    3.70
  -3  -4   8   73.69    3.80
  -3  -4   8   81.39    4.50
  -3  -4   8   77.59    3.50
  -3  -4   8   73.89    3.50
   2   4  -8    0.30    0.60
   2   4  -8    1.40    0.50
   2   4  -8    0.90    0.60
   2   4  -8    0.20    0.60
  -2  -4   8    1.40    0.90
  -2  -4   8    1.30    0.70
  -2  -4   8    1.40    0.60
  -2  -4   8   -1.30    0.60
  -2  -4   8    0.60    0.70
   1   4  -8    0.00    0.50
   1   4  -8    0.00    0.40
   1   4  -8   -0.30    0.30
   1   4  -8    0.20    0.50
  -1  -4   8   -0.20    0.50
  -1  -4   8   -0.30    0.50
  -1  -4   8   -0.20    0.60
  -1  -4   8   -0.20    0.60
  -1  -4   8   -0.30    0.30
   0   4  -8   67.49    3.60
   0   4  -8   70.99    3.40
   0   4  -8   73.19    3.50
   0   4  -8   68.89    3.20
   0  -4   8   66.79    3.30
   0  -4   8   74.79    3.50
   0  -4   8   69.69    3.50
   0  -4   8   74.29    3.50
  -1   4  -8   14.10    1.60
  -1   4  -8   11.80    1.30
  -1   4  -8   12.80    1.60
  -1   4  -8   20.00    2.10
   1  -4   8   16.90    1.80
   1  -4   8   14.90    1.50
   1  -4   8   13.80    1.50
  -2   4  -8    9.50    1.30
  -2   4  -8   10.00    1.60
  -2   4  -8    9.00    1.40
  -2   4  -8   10.50    1.40
  -2   4  -8   12.80    1.80
  -2   4  -8   10.80    1.60
   2  -4   8   10.80    1.40
   2  -4   8   10.90    1.40
   2  -4   8   11.20    1.70
   2  -4   8   11.80    1.00
  -3   4  -8   -0.30    0.90
  -3   4  -8   -0.20    0.90
  -3   4  -8   -0.90    1.00
  -3   4  -8    0.00    0.80
   3  -4   8   -0.90    0.40
   3  -4   8    0.10    0.70
   3  -4   8    0.10    0.50
  -4   4  -8    1.20    1.30
  -4   4  -8   -0.10    1.00
  -4   4  -8   -2.10    1.40
   4  -4   8    0.90    1.00
   4  -4   8   -0.30    0.70
  -5   4  -8    0.00    1.20
  -5   4  -8    1.30    1.90
   5  -4   8    0.30    1.00
   6   3  -8    3.40    1.90
   6   3  -8    3.40    1.80
  -6  -3   8   10.80    2.50
  -6  -3   8    3.60    1.10
   5   3  -8    0.80    1.20
   5   3  -8    3.50    1.60
  -5  -3   8    4.90    1.90
  -5  -3   8    2.00    0.90
   4   3  -8   -1.10    0.40
   4   3  -8    0.20    1.00
   4   3  -8   -0.80    0.80
  -4  -3   8   -0.80    0.80
  -4  -3   8   -0.60    0.50
  -4  -3   8    0.90    0.70
  -4  -3   8   -1.60    1.20
   3   3  -8   10.70    1.10
   3   3  -8    6.80    1.30
   3   3  -8   10.90    1.50
  -3  -3   8   11.70    1.20
  -3  -3   8   11.10    1.30
  -3  -3   8   11.20    1.30
  -3  -3   8   12.20    1.20
  -3  -3   8   10.80    1.80
   2   3  -8  193.38    8.10
   2   3  -8  208.28    7.70
   2   3  -8  200.98    7.60
  -2  -3   8  201.88    8.30
  -2  -3   8  193.98    7.90
  -2  -3   8  206.78    7.70
  -2  -3   8  207.48    8.00
   1   3  -8    1.70    0.60
  -1  -3   8    1.60    0.70
  -1  -3   8    2.30    0.80
  -1  -3   8    0.90    0.60
  -1  -3   8    1.30    0.70
   0   3  -8    8.00    1.20
   0   3  -8    7.50    1.10
   0   3  -8    5.90    0.90
   0   3  -8    7.50    0.80
   0  -3   8    6.00    1.00
   0  -3   8    6.80    1.20
   0  -3   8    7.30    1.10
   0  -3   8    7.00    0.60
   0  -3   8    5.90    1.00
  -1   3  -8   90.09    4.00
  -1   3  -8   79.89    4.00
  -1   3  -8   76.29    3.60
  -1   3  -8   87.89    4.00
  -1   3  -8   79.59    3.90
  -1   3  -8   76.59    3.60
   1  -3   8   80.49    3.90
   1  -3   8   82.29    4.10
   1  -3   8   75.09    3.70
  -2   3  -8   22.80    1.90
  -2   3  -8   17.60    2.00
  -2   3  -8   20.00    2.00
  -2   3  -8   20.20    2.00
  -2   3  -8   21.10    1.90
   2  -3   8   22.60    2.40
   2  -3   8   21.10    1.90
  -3   3  -8    1.30    0.90
  -3   3  -8    0.90    1.00
  -3   3  -8    1.50    1.10
   3  -3   8    0.80    0.50
   3  -3   8   -0.70    0.70
   3  -3   8    0.90    0.70
  -4   3  -8   -1.50    1.50
  -4   3  -8   -0.30    1.20
  -4   3  -8    1.10    1.10
   4  -3   8    1.60    1.00
   4  -3   8    2.90    1.00
  -5   3  -8   -0.90    1.00
  -5   3  -8    0.50    1.90
   5  -3   8   -0.90    1.10
   6   2  -8    9.40    2.30
   6   2  -8    9.80    2.20
  -6  -2   8    6.50    1.20
   5   2  -8    1.60    1.30
   5   2  -8   -1.00    1.00
  -5  -2   8    0.10    0.70
  -5  -2   8    2.40    1.60
   4   2  -8    1.20    0.50
   4   2  -8    1.70    1.00
   4   2  -8    1.20    0.90
  -4  -2   8    2.70    0.80
  -4  -2   8    1.90    0.90
  -4  -2   8    1.90    0.70
  -4  -2   8    2.00    0.60
  -4  -2   8    1.50    1.40
   3   2  -8   60.19    3.50
   3   2  -8   61.39    2.80
   3   2  -8   60.49    3.20
  -3  -2   8   62.99    2.80
  -3  -2   8   66.69    3.20
  -3  -2   8   68.39    3.90
  -3  -2   8   64.49    2.90
  -3  -2   8   62.59    3.10
   2   2  -8    6.10    0.90
   2   2  -8    7.00    1.10
   2   2  -8    5.30    0.80
   2   2  -8    4.90    1.10
   2   2  -8    4.40    0.90
  -2  -2   8    4.50    0.90
  -2  -2   8    5.60    0.90
  -2  -2   8    5.90    1.20
  -2  -2   8    6.00    0.90
   1   2  -8    0.40    0.40
   1   2  -8   -0.30    0.60
   1   2  -8   -0.10    0.20
  -1  -2   8   -0.40    0.50
  -1  -2   8   -0.30    0.50
  -1  -2   8   -0.30    0.50
  -1  -2   8    0.00    0.70
   0   2  -8    5.90    0.80
   0   2  -8    5.10    1.00
   0   2  -8    4.00    0.80
   0   2  -8    4.70    0.90
   0  -2   8    5.40    1.00
   0  -2   8    7.20    1.10
   0  -2   8    5.80    1.20
   0  -2   8    6.50    0.90
  -1   2  -8   10.90    1.40
  -1   2  -8    9.00    1.30
  -1   2  -8   10.40    1.50
   1  -2   8    9.50    1.50
   1  -2   8    9.60    1.30
  -2   2  -8    9.30    1.60
  -2   2  -8    9.10    1.50
  -2   2  -8    9.30    1.50
   2  -2   8    7.70    1.60
   2  -2   8    7.50    1.20
  -3   2  -8   -0.30    0.80
  -3   2  -8   -0.40    1.10
  -3   2  -8    1.10    1.10
   3  -2   8    0.60    0.80
   3  -2   8    0.00    0.70
  -4   2  -8   -2.20    0.90
  -4   2  -8    0.40    1.50
  -4   2  -8    1.70    1.40
   4  -2   8    1.00    1.00
   4  -2   8   -0.80    0.80
  -5   2  -8    0.30    1.20
  -5   2  -8    0.30    2.10
   5  -2   8    1.80    1.20
   5  -2   8   -1.00    1.10
   6   1  -8   -0.70    1.60
   6   1  -8    0.00    1.40
  -6  -1   8    0.40    0.70
  -6  -1   8    0.70    1.70
   5   1  -8   14.30    2.30
   5   1  -8   14.80    2.10
  -5  -1   8   12.90    2.40
  -5  -1   8   12.30    1.30
   4   1  -8    4.10    1.10
   4   1  -8    3.00    1.20
  -4  -1   8    4.60    1.00
  -4  -1   8    4.20    1.60
  -4  -1   8    4.20    0.80
  -4  -1   8    4.90    0.90
   3   1  -8    2.00    0.80
   3   1  -8    1.10    0.50
   3   1  -8    0.50    0.80
   3   1  -8    1.80    1.00
  -3  -1   8    1.50    0.70
  -3  -1   8    2.40    0.70
  -3  -1   8    1.70    0.70
  -3  -1   8    0.90    1.00
  -3  -1   8    2.40    0.60
   2   1  -8   10.80    1.30
   2   1  -8   15.70    1.50
   2   1  -8   15.00    1.10
   2   1  -8   14.90    1.20
  -2  -1   8   15.50    1.20
  -2  -1   8   14.00    1.40
  -2  -1   8   14.50    1.80
  -2  -1   8   10.90    1.30
   1   1  -8  149.79    6.10
   1   1  -8  151.78    6.00
   1   1  -8  148.09    6.20
  -1  -1   8  160.48    6.30
  -1  -1   8  153.38    6.20
  -1  -1   8  148.99    6.40
  -1  -1   8  159.78    6.10
   0   1  -8    0.30    0.70
   0   1  -8    0.50    0.50
   0   1  -8   -0.60    0.50
   0  -1   8    0.00    0.80
   0  -1   8    0.10    0.50
   0  -1   8    0.70    0.60
  -1   1  -8   17.50    1.70
  -1   1  -8   18.90    1.70
  -1   1  -8   19.30    1.80
   1  -1   8   18.30    2.10
   1  -1   8   14.50    1.60
  -2   1  -8  106.69    5.30
  -2   1  -8  113.39    5.40
  -2   1  -8  116.19    5.40
   2  -1   8  106.79    5.10
   2  -1   8  117.89    5.60
  -3   1  -8    0.20    1.10
  -3   1  -8    1.90    1.30
  -3   1  -8   -0.50    0.90
   3  -1   8   -0.20    0.80
  -4   1  -8    0.00    1.10
  -4   1  -8   -0.20    1.20
  -4   1  -8   -1.30    1.00
  -4   1  -8    0.50    1.70
   4  -1   8   -1.80    1.00
   4  -1   8    0.20    1.00
   4  -1   8    0.30    1.00
  -5   1  -8    0.40    2.10
  -5   1  -8    1.60    1.40
   5  -1   8    2.00    1.30
   5  -1   8    1.40    1.20
   6   0  -8    4.70    1.90
   6   0  -8    8.00    2.00
  -6   0   8    7.80    2.30
   5   0  -8    1.00    1.40
   5   0  -8   -0.30    1.00
  -5   0   8    1.10    1.10
  -5   0   8   -0.20    0.50
  -5   0   8    1.60    1.50
   4   0  -8    5.10    1.30
   4   0  -8    7.40    1.40
  -4   0   8    5.20    0.90
  -4   0   8    4.90    0.80
  -4   0   8    5.60    1.00
  -4   0   8    4.70    1.60
   3   0  -8    7.40    1.40
   3   0  -8   11.90    1.20
  -3   0   8   10.00    1.70
  -3   0   8    9.80    0.90
  -3   0   8    9.10    1.10
  -3   0   8    9.80    1.10
   2   0  -8  186.28    7.10
   2   0  -8  185.18    7.40
   2   0  -8  189.28    7.00
  -2   0   8  188.58    7.20
  -2   0   8  175.18    7.60
  -2   0   8  182.88    7.20
   1   0  -8    0.20    0.30
   1   0  -8    1.80    0.80
   1   0  -8    1.40    0.60
  -1   0   8   -0.20    0.80
  -1   0   8    2.80    0.80
   0   0  -8   31.60    2.20
   0   0  -8   35.40    2.10
   0   0  -8   34.80    1.90
   0   0  -8   31.90    1.80
   0   0   8   28.70    1.70
   0   0   8   34.00    2.20
   0   0   8   31.80    2.50
  -1   0  -8   43.10    2.60
  -1   0  -8   41.80    2.80
  -1   0  -8   45.00    2.70
   1   0   8   41.50    2.60
   1   0   8   40.30    3.10
  -2   0  -8   -1.10    0.80
  -2   0  -8    0.70    1.20
  -2   0  -8   -0.30    1.00
   2   0   8   -0.80    0.70
   2   0   8    0.30    1.10
  -3   0  -8    0.60    1.10
  -3   0  -8    2.60    1.50
  -3   0  -8    2.40    1.30
   3   0   8    1.50    0.90
  -4   0  -8    2.70    1.90
  -4   0  -8    1.00    1.30
  -4   0  -8    2.60    1.50
  -4   0  -8    1.40    1.30
   4   0   8    0.70    1.10
   4   0   8    2.00    1.10
   4   0   8    1.40    1.20
   6  -1  -8   -1.70    1.40
   6  -1  -8   -0.10    1.30
  -6   1   8    0.60    1.60
   5  -1  -8   -1.20    1.30
   5  -1  -8    1.40    1.10
  -5   1   8    3.90    1.70
  -5   1   8    1.40    0.70
  -5   1   8    1.20    0.60
   4  -1  -8   25.60    2.60
  -4   1   8   21.10    1.60
  -4   1   8   23.90    2.60
  -4   1   8   20.70    1.50
  -4   1   8   17.20    1.40
   3  -1  -8   12.10    1.50
   3  -1  -8   13.30    1.20
  -3   1   8   13.30    1.30
  -3   1   8   15.90    1.10
  -3   1   8   15.70    2.00
  -3   1   8   12.10    1.30
   2  -1  -8    2.20    0.80
   2  -1  -8    2.00    0.60
   2  -1  -8    0.60    0.80
  -2   1   8    1.70    1.00
  -2   1   8    0.80    0.70
   1  -1  -8   49.70    2.30
   1  -1  -8   48.70    2.60
   1  -1  -8   50.19    2.80
  -1   1   8   49.80    3.10
  -1   1   8   51.39    2.20
  -1   1   8   52.09    2.70
  -1   1   8   51.39    2.70
   0  -1  -8    3.00    0.90
   0  -1  -8    2.90    1.00
   0  -1  -8    4.00    0.90
   0  -1  -8    3.80    0.70
   0   1   8    3.30    0.80
   0   1   8    2.70    1.10
   0   1   8    3.20    0.90
  -1  -1  -8   20.80    2.10
  -1  -1  -8   18.80    2.00
  -1  -1  -8   19.10    2.10
   1   1   8   21.10    2.00
   1   1   8   16.30    2.10
  -2  -1  -8   15.60    2.20
  -2  -1  -8   11.10    1.70
  -2  -1  -8   13.10    1.90
   2   1   8   10.20    1.80
   2   1   8   12.30    2.00
   2   1   8   10.00    1.30
  -3  -1  -8   14.00    2.30
  -3  -1  -8   11.60    1.70
  -3  -1  -8    9.20    1.80
  -3  -1  -8   11.90    2.20
   3   1   8   13.20    1.60
   3   1   8   12.70    1.90
  -4  -1  -8    4.80    1.70
  -4  -1  -8    3.10    1.50
  -4  -1  -8    6.50    2.30
  -4  -1  -8    8.00    2.30
   4   1   8    4.80    1.60
   4   1   8    5.10    1.40
   4   1   8    3.90    1.30
   6  -2  -8   -1.30    1.60
  -6   2   8    0.30    1.70
   5  -2  -8   19.80    2.60
  -5   2   8   19.30    2.70
   4  -2  -8    0.80    1.10
  -4   2   8    1.50    0.80
  -4   2   8    0.30    0.50
  -4   2   8    1.00    0.60
  -4   2   8    0.30    1.10
   3  -2  -8   72.49    3.00
   3  -2  -8   69.09    3.70
  -3   2   8   58.09    3.10
  -3   2   8   67.59    3.90
   2  -2  -8    7.00    0.90
   2  -2  -8    8.70    1.20
   2  -2  -8    7.30    1.20
  -2   2   8    9.20    1.50
  -2   2   8    9.50    0.90
  -2   2   8    7.30    1.10
  -2   2   8    7.80    1.10
   1  -2  -8   37.20    2.10
   1  -2  -8   34.50    2.40
   1  -2  -8   36.70    2.20
  -1   2   8   41.40    2.40
  -1   2   8   40.90    2.80
  -1   2   8   38.90    2.40
  -1   2   8   35.40    1.90
   0  -2  -8    0.50    0.90
   0  -2  -8   -0.20    0.70
   0  -2  -8   -0.50    0.60
   0  -2  -8   -0.50    0.40
   0   2   8   -0.20    0.70
   0   2   8   -0.80    0.50
   0   2   8   -1.10    0.90
  -1  -2  -8    4.10    1.30
  -1  -2  -8    5.60    1.40
  -1  -2  -8    4.60    1.20
   1   2   8    3.80    1.30
   1   2   8    3.40    1.10
  -2  -2  -8   12.40    2.00
  -2  -2  -8   11.30    2.00
  -2  -2  -8    9.20    1.70
   2   2   8   10.20    1.30
  -3  -2  -8    1.10    1.20
  -3  -2  -8   -0.30    1.10
  -3  -2  -8    1.60    1.50
  -3  -2  -8    1.00    1.60
   3   2   8    0.90    0.90
   3   2   8    3.20    1.30
  -4  -2  -8    2.80    2.10
  -4  -2  -8    2.20    1.50
  -4  -2  -8    0.90    1.90
  -4  -2  -8    2.40    1.50
   4   2   8    4.20    1.50
   4   2   8    2.10    1.40
   6  -3  -8   -0.20    1.60
  -6   3   8    0.60    1.50
   5  -3  -8    0.60    1.40
  -5   3   8    0.10    1.40
   4  -3  -8    6.60    1.60
  -4   3   8    5.60    0.90
  -4   3   8    5.60    1.60
  -4   3   8    5.90    0.90
   3  -3  -8   37.30    2.70
   3  -3  -8   40.50    2.20
  -3   3   8   39.30    2.20
  -3   3   8   37.20    2.20
  -3   3   8   43.50    3.10
  -3   3   8   37.20    2.00
   2  -3  -8    6.20    0.90
   2  -3  -8    5.40    1.20
   2  -3  -8    6.40    1.20
  -2   3   8    5.40    1.00
  -2   3   8    6.40    1.00
  -2   3   8    5.90    1.40
   1  -3  -8   38.90    2.60
   1  -3  -8   34.90    2.20
   1  -3  -8   39.20    2.30
  -1   3   8   37.80    2.80
  -1   3   8   37.50    2.40
  -1   3   8   35.60    2.40
   0  -3  -8   36.90    2.50
   0  -3  -8   37.00    2.50
   0  -3  -8   34.50    2.60
   0   3   8   33.30    2.80
   0   3   8   33.90    2.50
  -1  -3  -8    8.70    1.70
  -1  -3  -8    3.40    1.20
  -1  -3  -8    8.10    1.70
   1   3   8    6.20    1.40
   1   3   8    6.80    1.60
  -2  -3  -8    1.00    1.50
  -2  -3  -8    4.50    1.60
  -2  -3  -8    1.10    1.10
  -2  -3  -8    1.00    1.00
   2   3   8    1.80    0.80
   2   3   8    1.60    1.10
  -3  -3  -8    4.10    1.50
  -3  -3  -8    4.50    2.00
  -3  -3  -8    3.80    1.40
  -3  -3  -8    2.10    1.90
   3   3   8    3.70    1.50
  -4  -3  -8   -0.90    1.90
  -4  -3  -8   -1.30    1.20
  -4  -3  -8   -1.00    1.90
  -4  -3  -8   -0.40    1.30
   4   3   8    1.80    1.40
   6  -4  -8   -2.90    1.50
  -6   4   8   -0.10    1.50
  -6   4   8   -0.30    1.70
   5  -4  -8    3.00    1.60
  -5   4   8    0.90    1.50
   4  -4  -8    9.90    1.90
  -4   4   8    9.20    1.10
  -4   4   8   10.40    1.90
  -4   4   8    9.10    1.10
   3  -4  -8   -0.30    0.50
   3  -4  -8   -0.30    0.70
   3  -4  -8    0.00    1.00
  -3   4   8    0.00    0.60
  -3   4   8    0.40    0.50
  -3   4   8   -0.30    1.00
  -3   4   8   -0.40    0.50
   2  -4  -8    0.10    0.60
   2  -4  -8   -0.10    0.80
   2  -4  -8    1.50    0.90
  -2   4   8    0.40    1.00
  -2   4   8    0.60    0.70
  -2   4   8    0.50    0.70
  -2   4   8    0.50    0.70
   1  -4  -8   15.70    1.60
   1  -4  -8   16.10    1.70
   1  -4  -8   13.40    1.30
   1  -4  -8   15.70    1.90
  -1   4   8   13.90    1.90
  -1   4   8   14.30    1.60
  -1   4   8   14.80    1.70
   0  -4  -8    1.60    1.00
   0  -4  -8    3.70    1.20
   0  -4  -8    1.70    1.20
   0  -4  -8    1.10    0.90
   0   4   8    2.80    1.20
   0   4   8    0.30    0.90
   0   4   8    1.40    1.00
  -1  -4  -8   -1.30    1.10
  -1  -4  -8   -0.60    0.90
  -1  -4  -8    0.40    0.90
  -1  -4  -8    1.70    1.40
   1   4   8    0.00    0.80
   1   4   8    0.00    0.80
   1   4   8    0.40    1.10
  -2  -4  -8   16.50    2.60
  -2  -4  -8   13.70    2.00
  -2  -4  -8   12.80    2.30
  -2  -4  -8   14.80    2.10
   2   4   8   11.90    1.80
  -3  -4  -8   -3.00    1.00
  -3  -4  -8    0.50    1.30
  -3  -4  -8    2.10    2.00
  -3  -4  -8   -0.30    1.80
   3   4   8   -0.10    1.30
  -6   5   8    0.20    1.70
  -6   5   8    2.20    1.80
   5  -5  -8    1.50    1.50
  -5   5   8    4.40    1.70
  -5   5   8    2.80    0.70
   4  -5  -8   -0.90    1.20
  -4   5   8   -1.70    1.10
  -4   5   8    0.10    0.60
   3  -5  -8    7.50    1.40
   3  -5  -8   10.20    1.30
   3  -5  -8    9.60    1.60
   3  -5  -8    9.20    1.10
  -3   5   8   11.20    1.70
  -3   5   8   10.90    1.20
  -3   5   8   10.80    1.30
   2  -5  -8    7.30    1.40
   2  -5  -8    4.60    1.00
   2  -5  -8    3.70    1.00
   2  -5  -8    5.90    1.30
  -2   5   8    7.00    1.50
  -2   5   8    7.60    1.10
  -2   5   8    4.90    1.10
   1  -5  -8   11.10    1.50
   1  -5  -8   12.20    1.80
   1  -5  -8   15.10    1.80
  -1   5   8   11.00    1.60
  -1   5   8   10.50    1.70
  -1   5   8   12.90    1.70
   0  -5  -8    0.00    1.10
   0  -5  -8    1.00    1.00
   0  -5  -8    1.00    1.10
   0   5   8    0.70    0.80
   0   5   8   -0.10    0.80
   0   5   8    0.80    1.10
  -1  -5  -8    3.80    1.70
  -1  -5  -8   -0.30    1.30
  -1  -5  -8   -0.20    1.00
   1   5   8    3.20    1.50
   1   5   8    3.10    1.20
   1   5   8    3.10    1.10
   1   5   8    0.20    1.00
  -2  -5  -8   -0.60    1.00
  -2  -5  -8   -0.70    1.60
  -2  -5  -8    0.90    1.80
   2   5   8    0.90    1.10
  -3  -5  -8    2.20    2.00
  -3  -5  -8   -2.60    1.20
  -3  -5  -8   -1.80    1.90
   3   5   8   -0.80    1.30
  -6   6   8   -0.70    1.70
  -5   6   8    0.60    0.60
  -5   6   8    0.30    1.60
  -5   6   8   -1.00    1.30
   4  -6  -8    8.30    1.50
  -4   6   8    7.20    1.10
  -4   6   8    7.10    1.70
   3  -6  -8    0.60    0.90
   3  -6  -8   -0.30    0.60
  -3   6   8    1.10    0.70
  -3   6   8    0.40    0.70
  -3   6   8   -0.50    1.00
   2  -6  -8    3.00    1.20
   2  -6  -8    4.10    1.20
   2  -6  -8    3.60    1.00
  -2   6   8    4.60    1.00
  -2   6   8    4.00    1.10
  -2   6   8    3.00    1.30
   1  -6  -8   18.20    2.20
   1  -6  -8   16.30    2.10
   1  -6  -8   13.90    1.80
  -1   6   8   11.60    1.70
  -1   6   8   16.20    2.10
  -1   6   8   18.50    2.00
   0  -6  -8   13.20    1.90
   0  -6  -8   13.50    2.20
   0  -6  -8   16.60    2.40
   0   6   8   14.70    2.10
   0   6   8   13.50    2.10
   0   6   8   15.30    1.90
   0   6   8   21.80    2.20
  -1  -6  -8    0.70    1.40
  -1  -6  -8   -1.10    1.00
  -1  -6  -8   -2.20    1.30
   1   6   8    0.40    1.00
  -2  -6  -8   -0.70    1.80
  -2  -6  -8    0.10    1.30
  -2  -6  -8   -0.50    1.70
   2   6   8    0.20    1.20
  -3  -6  -8    2.30    2.50
  -3  -6  -8    6.80    2.60
  -3  -6  -8    2.10    1.60
   3   6   8    3.90    1.70
  -5   7   8    0.00    0.60
  -5   7   8    2.70    1.70
   4  -7  -8    3.20    1.30
  -4   7   8    4.30    1.50
  -4   7   8    8.30    2.20
  -4   7   8    1.60    0.80
   3  -7  -8    3.70    1.40
   3  -7  -8    3.30    0.80
  -3   7   8    1.60    1.30
  -3   7   8    3.30    1.00
  -3   7   8    3.20    0.90
   2  -7  -8   -0.70    0.90
   2  -7  -8   -2.00    0.90
   2  -7  -8   -1.10    0.70
  -2   7   8   -1.10    0.70
  -2   7   8   -0.50    1.00
  -2   7   8   -0.60    0.80
   1  -7  -8    5.10    1.60
   1  -7  -8    5.20    1.20
   1  -7  -8    6.50    1.70
   1  -7  -8    4.90    1.30
  -1   7   8    8.80    1.90
  -1   7   8    6.20    1.40
  -1   7   8    4.70    1.30
  -1   7   8    6.70    1.50
   0  -7  -8    3.90    1.30
   0  -7  -8    3.90    1.70
   0  -7  -8    0.00    1.50
   0   7   8    2.30    1.20
   0   7   8    2.50    1.40
   0   7   8    0.90    1.20
   0   7   8    2.10    1.20
  -1  -7  -8    4.20    2.00
  -1  -7  -8    1.90    1.80
  -1  -7  -8    1.40    1.30
   1   7   8    0.50    1.20
  -2  -7  -8    1.90    2.20
  -2  -7  -8    1.70    1.60
  -2  -7  -8   -2.10    1.80
   2   7   8    0.00    1.40
  -5   8   8    0.60    1.70
  -5   8   8    0.40    0.70
   4  -8  -8    0.70    1.20
  -4   8   8    2.00    0.90
  -4   8   8    1.60    1.60
   3  -8  -8    7.70    1.60
   3  -8  -8    4.70    1.00
  -3   8   8    5.00    1.20
  -3   8   8    3.70    1.20
  -3   8   8    4.80    1.50
  -3   8   8    7.60    2.10
   2  -8  -8   -1.30    0.80
   2  -8  -8   -0.40    0.80
  -2   8   8   -0.60    1.20
  -2   8   8   -1.70    0.80
  -2   8   8   -0.10    1.00
  -2   8   8    0.30    0.90
   1  -8  -8   -0.60    1.00
   1  -8  -8   -0.50    0.90
   1  -8  -8   -1.80    1.20
   1  -8  -8    0.00    1.30
  -1   8   8    0.30    1.40
  -1   8   8   -0.80    0.90
  -1   8   8   -1.00    1.00
  -1   8   8   -0.30    0.90
   0  -8  -8    2.40    1.30
   0  -8  -8   -0.20    1.50
   0  -8  -8    3.30    1.80
   0   8   8    3.50    1.50
   0   8   8    1.60    1.30
   0   8   8    0.10    1.30
  -1  -8  -8    4.60    1.60
  -1  -8  -8    3.80    2.30
   1   8   8    2.50    1.40
  -2  -8  -8   -0.70    1.50
  -2  -8  -8    0.40    2.30
   2   8   8    0.70    1.50
   5  -9  -8    0.50    1.20
  -5   9   8    1.60    2.00
  -5   9   8    1.70    0.90
   4  -9  -8   -1.00    1.10
  -4   9   8   -0.30    0.90
  -4   9   8    4.10    2.10
   3  -9  -8    1.90    1.20
  -3   9   8    2.30    1.80
  -3   9   8   -0.10    0.90
   2  -9  -8    1.00    1.10
   2  -9  -8    3.20    1.20
  -2   9   8    0.40    1.10
  -2   9   8    3.00    1.80
  -2   9   8    3.20    1.30
   1  -9  -8    1.00    1.60
   1  -9  -8    0.90    1.00
   1  -9  -8    0.40    1.00
  -1   9   8    1.70    1.60
  -1   9   8   -0.70    1.10
  -1   9   8   -0.50    1.10
  -1   9   8   -1.40    1.10
   0  -9  -8    3.90    1.50
   0  -9  -8    3.70    2.20
   0   9   8    3.70    1.70
   0   9   8   -1.70    1.90
   0   9   8    4.80    1.60
  -1  -9  -8    3.40    2.60
  -1  -9  -8    1.30    1.60
   1   9   8    3.50    1.70
   4 -10  -8   -1.00    1.20
  -4  10   8    2.90    2.10
  -4  10   8    1.20    1.00
   3 -10  -8    5.00    1.60
  -3  10   8    4.40    1.50
  -3  10   8    8.20    2.50
   2 -10  -8   -0.80    1.10
   2 -10  -8   -1.70    1.00
  -2  10   8   -0.20    1.10
  -2  10   8   -2.50    1.60
  -2  10   8   -1.10    1.10
   1 -10  -8    2.20    1.40
   1 -10  -8    0.60    1.10
  -1  10   8    4.30    2.10
  -1  10   8    0.80    1.40
  -1  10   8    2.10    1.40
   0 -10  -8    4.60    1.70
   0 -10  -8    7.80    2.80
   0  10   8    4.90    1.70
   3 -11  -8   -2.10    1.10
  -3  11   8    1.00    2.20
  -3  11   8    2.00    1.30
   2 -11  -8    0.80    1.30
   2 -11  -8   -0.70    1.10
  -2  11   8    1.00    1.30
  -2  11   8   -1.10    2.00
  -2  11   8   -0.40    1.40
   1 -11  -8    0.50    1.40
  -1  11   8    0.70    1.40
  -1  11   8    0.20    2.00
  -1  11   8   -0.50    1.30
   0  16  -9    4.80    2.60
   0  16  -9   -0.60    1.40
   0 -16   9    0.00    1.40
   0 -16   9   -0.80    1.50
  -1  16  -9    5.00    2.60
  -1  16  -9   -1.00    1.30
   1 -16   9    0.10    1.50
   1 -16   9   -1.00    1.30
  -2  16  -9   -0.20    1.20
  -2  16  -9   -1.10    2.00
  -2  16  -9   -0.50    1.20
   2 -16   9   -0.90    1.30
   2 -16   9    0.70    1.50
   1  15  -9   -0.20    1.40
   1  15  -9   -0.10    2.10
  -1 -15   9   -1.70    1.40
  -1 -15   9    1.50    1.50
   0  15  -9    0.30    1.40
   0  15  -9    3.20    2.10
   0 -15   9    1.40    1.40
   0 -15   9    1.50    1.50
  -1  15  -9   -2.90    1.10
  -1  15  -9    1.90    2.10
   1 -15   9   -0.50    1.20
   1 -15   9   -1.50    1.30
  -2  15  -9   -1.00    1.70
  -2  15  -9    0.90    1.30
  -2  15  -9    0.20    1.20
   2 -15   9    1.10    1.50
   2 -15   9    0.40    1.40
  -3  15  -9   -1.60    1.00
  -3  15  -9    1.70    2.00
  -3  15  -9   -0.60    1.30
   3 -15   9   -1.20    1.20
   3 -15   9   -0.20    1.30
   3 -15   9    0.80    1.20
   2  14  -9   -1.60    1.80
   2  14  -9    0.30    1.50
  -2 -14   9    1.30    1.50
  -2 -14   9   -2.70    1.00
  -2 -14   9   -0.70    1.50
   1  14  -9   13.30    3.00
   1  14  -9    8.90    2.10
  -1 -14   9   10.00    2.00
  -1 -14   9   11.20    2.20
   0  14  -9    2.20    2.00
   0  14  -9    1.80    1.30
   0 -14   9    1.60    1.30
   0 -14   9    0.10    1.30
  -1  14  -9    2.00    1.30
  -1  14  -9   -2.00    1.60
  -1  14  -9    0.10    1.20
   1 -14   9    0.10    1.30
   1 -14   9    0.70    1.20
  -2  14  -9    0.90    1.90
  -2  14  -9   -0.40    1.10
  -2  14  -9    2.50    1.30
   2 -14   9    3.50    1.40
   2 -14   9   -0.70    1.20
  -3  14  -9    0.70    1.10
  -3  14  -9    0.10    1.20
  -3  14  -9    2.10    1.90
   3 -14   9   -0.80    1.10
   3 -14   9   -0.20    1.10
   3 -14   9   -0.60    1.00
  -3 -13   9    0.10    2.20
  -3 -13   9    9.90    3.70
   2  13  -9   -1.70    1.60
   2  13  -9   -1.90    1.40
  -2 -13   9    0.20    1.50
  -2 -13   9   -0.50    1.60
   1  13  -9   -1.30    1.60
   1  13  -9    0.40    1.20
  -1 -13   9   -0.60    1.20
   0  13  -9    2.70    1.40
   0  13  -9    1.90    1.70
   0 -13   9    2.60    1.40
   0 -13   9    2.30    1.30
  -1  13  -9    3.20    1.40
  -1  13  -9    1.40    1.80
  -1  13  -9    1.30    1.30
   1 -13   9    3.70    1.50
   1 -13   9    2.70    1.30
  -2  13  -9   -0.20    1.00
  -2  13  -9    0.40    1.10
  -2  13  -9   -0.20    1.50
   2 -13   9   -1.20    1.10
   2 -13   9   -1.10    1.00
  -3  13  -9    4.40    2.10
  -3  13  -9    0.00    1.10
  -3  13  -9    2.50    1.40
   3 -13   9    1.10    1.20
   3 -13   9   -0.70    0.90
   3 -13   9    0.90    1.00
  -4  13  -9    1.70    1.90
  -4  13  -9   -0.40    1.00
   4 -13   9   -0.20    1.10
   4 -13   9    0.50    1.10
   3  12  -9    2.20    1.60
   3  12  -9    1.70    1.40
  -3 -12   9    2.70    1.50
  -3 -12   9    7.60    2.20
  -3 -12   9   -0.60    1.30
  -3 -12   9    0.70    1.40
  -3 -12   9    3.50    2.10
   2  12  -9    1.50    1.80
   2  12  -9    5.40    1.60
   2  12  -9    2.00    1.50
  -2 -12   9    3.00    1.60
  -2 -12   9    3.60    1.50
  -2 -12   9    1.50    1.40
   1  12  -9   11.30    2.60
   1  12  -9    6.80    1.50
  -1 -12   9    7.00    1.60
  -1 -12   9    6.60    1.70
  -1 -12   9    7.70    1.70
   0  12  -9    8.20    1.70
   0  12  -9   13.80    2.00
   0  12  -9   10.70    2.30
   0 -12   9   13.20    2.00
  -1  12  -9   -0.40    1.30
  -1  12  -9    2.50    1.30
  -1  12  -9    0.50    1.10
   1 -12   9    1.70    1.20
   1 -12   9    0.60    0.90
  -2  12  -9    1.30    1.10
  -2  12  -9    3.10    1.30
  -2  12  -9    3.00    1.80
   2 -12   9    0.70    1.00
   2 -12   9    1.50    1.20
  -3  12  -9    3.40    1.40
  -3  12  -9    6.30    2.20
  -3  12  -9    3.60    1.30
   3 -12   9    3.70    1.30
   3 -12   9    2.90    1.20
   3 -12   9    5.30    1.40
  -4  12  -9   -0.80    1.10
  -4  12  -9   -0.30    1.10
  -4  12  -9    0.20    1.70
  -4  12  -9   -0.10    1.80
   4 -12   9   -0.40    1.00
   4 -12   9    1.90    1.10
   4 -12   9   -0.80    0.90
   4  11  -9    0.40    1.50
   4  11  -9   -2.10    1.40
  -4 -11   9    2.10    1.80
   3  11  -9    6.50    1.80
   3  11  -9    4.10    1.40
  -3 -11   9    0.30    1.30
  -3 -11   9    3.70    2.20
  -3 -11   9    5.40    1.60
  -3 -11   9   10.20    2.20
   2  11  -9    2.30    1.70
   2  11  -9    1.20    0.90
   2  11  -9    2.40    1.20
  -2 -11   9   -0.30    1.20
  -2 -11   9    4.60    1.80
  -2 -11   9    1.40    1.50
  -2 -11   9   -0.50    1.20
   1  11  -9    2.50    1.20
   1  11  -9    2.80    1.80
   1  11  -9    3.00    1.30
  -1 -11   9    2.80    1.30
  -1 -11   9    3.50    1.40
  -1 -11   9    5.70    1.40
   0  11  -9    6.60    1.50
   0  11  -9    6.60    1.60
   0  11  -9    8.50    2.20
   0 -11   9    2.60    1.30
   0 -11   9    3.80    1.30
   0 -11   9    8.00    1.40
  -1  11  -9   12.90    2.30
  -1  11  -9   14.30    1.90
  -1  11  -9   11.90    1.90
   1 -11   9   13.90    1.90
   1 -11   9    9.60    1.70
  -2  11  -9    2.50    1.60
  -2  11  -9    1.10    1.10
  -2  11  -9    1.20    1.00
   2 -11   9    1.90    1.10
   2 -11   9   -0.30    1.00
  -3  11  -9   -0.30    1.30
  -3  11  -9   -0.90    0.80
  -3  11  -9    0.10    1.20
  -3  11  -9    0.50    0.90
   3 -11   9    0.70    0.90
   3 -11   9   -0.90    0.90
  -4  11  -9    0.20    1.00
  -4  11  -9   -0.40    1.00
  -4  11  -9    4.40    2.00
  -4  11  -9    0.50    1.30
   4 -11   9   -0.90    0.80
   4 -11   9   -0.40    0.90
   4 -11   9    0.70    1.10
   4  10  -9    4.30    1.50
   4  10  -9    6.10    1.70
   4  10  -9    3.50    1.70
  -4 -10   9    5.00    1.60
  -4 -10   9    7.20    2.40
  -4 -10   9    2.20    1.50
   3  10  -9   25.10    2.50
   3  10  -9   25.30    2.60
  -3 -10   9   22.40    2.50
  -3 -10   9   19.70    2.50
  -3 -10   9   22.10    2.90
  -3 -10   9   25.50    3.20
   2  10  -9   -1.30    0.90
   2  10  -9   -1.20    1.40
   2  10  -9   -0.50    0.70
  -2 -10   9   -1.60    1.20
  -2 -10   9   -0.40    1.00
  -2 -10   9   -1.10    1.20
  -2 -10   9   -0.70    1.10
   1  10  -9    6.30    1.40
   1  10  -9    4.70    0.90
   1  10  -9    5.50    2.10
  -1 -10   9    3.40    1.30
  -1 -10   9    2.90    1.20
  -1 -10   9    3.70    1.20
   0  10  -9   37.30    2.90
   0  10  -9   39.70    2.70
   0  10  -9   38.20    3.30
   0 -10   9   35.20    2.70
   0 -10   9   40.30    2.70
   0 -10   9   40.70    3.00
  -1  10  -9    4.90    1.30
  -1  10  -9    4.80    1.60
  -1  10  -9    1.40    1.00
   1 -10   9    2.80    1.10
   1 -10   9    3.40    1.00
  -2  10  -9    3.40    1.50
  -2  10  -9    2.20    1.10
  -2  10  -9    4.50    1.20
   2 -10   9    2.40    1.10
   2 -10   9    1.70    1.10
   2 -10   9    2.30    0.90
  -3  10  -9    5.50    1.60
  -3  10  -9    6.20    1.90
  -3  10  -9    4.30    1.40
  -3  10  -9    8.10    1.40
   3 -10   9    4.80    1.30
   3 -10   9    5.60    1.30
  -4  10  -9    2.50    1.40
  -4  10  -9    1.30    1.20
  -4  10  -9   -0.90    1.50
  -4  10  -9    0.60    0.90
   4 -10   9    1.80    1.00
   4 -10   9    0.50    1.00
   4 -10   9    1.70    1.10
  -5  10  -9    2.40    2.20
   5 -10   9   -0.10    0.90
   4   9  -9    2.90    1.50
   4   9  -9    3.40    1.40
   4   9  -9    2.60    1.50
  -4  -9   9    3.20    2.00
  -4  -9   9    2.70    1.40
  -4  -9   9    3.20    1.40
   3   9  -9    2.50    1.20
   3   9  -9    1.10    1.00
  -3  -9   9    1.40    1.10
  -3  -9   9    0.50    1.40
  -3  -9   9    0.00    1.10
  -3  -9   9    1.50    1.50
   2   9  -9    3.10    1.60
   2   9  -9    3.20    1.00
   2   9  -9    2.80    0.90
  -2  -9   9    3.40    1.40
  -2  -9   9    1.00    1.20
  -2  -9   9    2.30    1.10
  -2  -9   9    3.20    1.30
   1   9  -9    7.90    2.10
   1   9  -9    5.70    1.30
   1   9  -9    3.70    1.20
   1   9  -9    6.60    0.90
  -1  -9   9    8.60    1.50
  -1  -9   9    6.40    1.40
  -1  -9   9    5.70    1.40
   0   9  -9    1.90    1.00
   0   9  -9    0.70    1.20
   0   9  -9    3.40    1.00
   0  -9   9    1.90    1.10
   0  -9   9    0.20    1.00
   0  -9   9    2.30    1.00
  -1   9  -9   17.20    1.90
  -1   9  -9   17.80    2.40
  -1   9  -9   17.30    2.10
   1  -9   9   16.90    1.80
   1  -9   9   18.10    2.00
   1  -9   9   21.70    2.00
  -2   9  -9    2.60    1.00
  -2   9  -9    3.30    1.40
  -2   9  -9    2.50    1.00
   2  -9   9    3.10    1.00
   2  -9   9    4.60    1.20
   2  -9   9    2.20    0.90
  -3   9  -9    0.40    1.40
  -3   9  -9   -0.80    1.10
  -3   9  -9    0.20    0.70
  -3   9  -9    0.20    1.00
   3  -9   9   -0.40    0.80
   3  -9   9   -1.20    0.80
  -4   9  -9    1.40    1.00
  -4   9  -9    1.20    1.30
  -4   9  -9    3.60    1.70
   4  -9   9    2.20    1.10
   4  -9   9    1.00    0.90
   4  -9   9    1.70    1.10
  -5   9  -9    4.50    1.60
  -5   9  -9    4.70    2.30
   5  -9   9    1.80    1.20
   5   8  -9   -1.50    1.30
   5   8  -9   -2.00    1.30
  -5  -8   9    0.90    1.10
  -5  -8   9    3.50    1.80
   4   8  -9   -1.40    1.00
   4   8  -9    1.10    1.40
   4   8  -9   -1.00    1.00
  -4  -8   9   -0.80    1.00
  -4  -8   9   -0.30    1.60
  -4  -8   9   -2.40    0.80
   3   8  -9   65.99    3.70
   3   8  -9   70.09    3.80
  -3  -8   9   87.19    5.00
  -3  -8   9   65.89    3.80
  -3  -8   9   61.19    4.00
  -3  -8   9   66.99    4.00
   2   8  -9   24.00    2.80
   2   8  -9   22.70    1.70
   2   8  -9   20.80    2.00
  -2  -8   9   23.10    2.30
  -2  -8   9   21.00    2.10
  -2  -8   9   20.40    2.10
  -2  -8   9   24.40    2.60
   1   8  -9    8.00    1.90
   1   8  -9    8.50    1.50
   1   8  -9   10.90    1.00
   1   8  -9    9.30    1.40
  -1  -8   9    8.60    1.50
  -1  -8   9    9.70    1.60
  -1  -8   9    8.00    1.60
   0   8  -9   77.09    3.90
   0   8  -9   79.59    4.60
   0   8  -9   80.59    4.20
   0  -8   9   85.79    4.20
   0  -8   9   84.99    4.10
   0  -8   9   74.09    3.90
  -1   8  -9   31.00    2.20
  -1   8  -9   26.70    2.60
  -1   8  -9   29.70    2.40
   1  -8   9   26.50    2.10
   1  -8   9   29.50    2.30
   1  -8   9   27.30    2.20
  -2   8  -9    4.10    1.20
  -2   8  -9    3.00    1.20
  -2   8  -9    3.40    1.50
  -2   8  -9    4.10    1.10
   2  -8   9    2.60    1.00
   2  -8   9    2.00    0.90
   2  -8   9    4.30    1.10
  -3   8  -9    0.10    1.00
  -3   8  -9   -0.20    1.20
  -3   8  -9    0.30    0.80
  -3   8  -9    1.40    1.00
   3  -8   9   -1.90    0.60
   3  -8   9   -0.40    0.80
  -4   8  -9    9.30    1.90
  -4   8  -9    8.20    1.80
  -4   8  -9    9.70    2.30
  -4   8  -9   10.30    2.20
   4  -8   9    6.00    1.40
   4  -8   9    6.00    1.30
  -5   8  -9    2.70    1.50
  -5   8  -9    0.00    2.00
   5  -8   9    3.20    1.40
   5   7  -9   -1.90    1.20
   5   7  -9   -1.00    1.30
  -5  -7   9    0.20    1.00
  -5  -7   9   -0.70    1.60
   4   7  -9    4.60    1.60
   4   7  -9    5.60    1.50
   4   7  -9    3.50    1.20
  -4  -7   9    3.60    1.80
  -4  -7   9    3.10    1.20
  -4  -7   9    2.10    1.20
   3   7  -9   10.60    1.50
   3   7  -9   11.10    1.50
   3   7  -9   11.90    1.70
  -3  -7   9   14.60    2.30
  -3  -7   9    9.70    1.70
  -3  -7   9   11.40    1.70
  -3  -7   9   10.30    1.50
   2   7  -9   -1.10    1.20
   2   7  -9    1.10    0.80
   2   7  -9   -0.70    0.60
  -2  -7   9    0.40    1.10
  -2  -7   9   -0.50    0.80
  -2  -7   9    0.30    0.80
  -2  -7   9   -1.40    0.80
   1   7  -9   31.80    2.80
   1   7  -9   34.50    1.70
   1   7  -9   31.90    2.20
   1   7  -9   32.50    2.40
  -1  -7   9   34.10    2.60
  -1  -7   9   33.30    2.50
  -1  -7   9   38.20    2.60
  -1  -7   9   31.60    2.30
   0   7  -9   13.80    1.70
   0   7  -9   12.20    1.50
   0   7  -9   14.80    2.30
   0  -7   9   13.60    1.70
   0  -7   9   13.60    1.60
   0  -7   9   10.00    1.30
  -1   7  -9    7.90    1.30
  -1   7  -9    6.30    1.70
  -1   7  -9    8.20    1.40
   1  -7   9   10.90    1.60
   1  -7   9    7.90    1.30
   1  -7   9    8.40    1.30
  -2   7  -9    8.70    1.30
  -2   7  -9    5.70    1.40
  -2   7  -9    7.10    1.70
  -2   7  -9    9.10    1.50
   2  -7   9    6.40    1.30
   2  -7   9    8.50    1.30
  -3   7  -9    3.10    1.50
  -3   7  -9    5.10    1.20
  -3   7  -9    2.20    1.30
  -3   7  -9    4.70    1.50
   3  -7   9    2.30    1.10
   3  -7   9    1.90    0.90
  -4   7  -9   -3.00    1.40
  -4   7  -9   -0.70    1.10
  -4   7  -9    0.10    1.00
   4  -7   9    0.90    1.10
  -5   7  -9   -0.80    1.80
  -5   7  -9    0.40    1.30
   5  -7   9    0.80    1.20
   5   6  -9    2.30    1.60
   5   6  -9    3.10    1.60
  -5  -6   9    1.20    1.20
  -5  -6   9    3.50    1.90
   4   6  -9    1.10    0.90
   4   6  -9    2.80    1.30
   4   6  -9    4.40    1.50
  -4  -6   9    1.80    1.00
  -4  -6   9    0.70    1.70
  -4  -6   9    3.00    1.10
   3   6  -9   30.10    2.60
   3   6  -9   23.70    2.00
   3   6  -9   28.90    2.20
  -3  -6   9   30.40    2.20
  -3  -6   9   29.10    2.20
  -3  -6   9   32.80    3.10
  -3  -6   9   29.70    2.40
   2   6  -9   72.19    3.30
   2   6  -9   67.09    3.60
   2   6  -9   73.29    3.50
  -2  -6   9   68.29    3.80
  -2  -6   9   73.89    4.10
  -2  -6   9   72.69    3.60
   1   6  -9    1.00    0.40
   1   6  -9   -0.70    0.60
   1   6  -9   -0.50    0.60
   1   6  -9    0.00    0.70
   1   6  -9   -0.20    1.20
  -1  -6   9    1.00    0.80
  -1  -6   9   -0.60    0.70
  -1  -6   9   -0.40    0.80
  -1  -6   9    0.80    0.90
   0   6  -9   32.00    2.30
   0   6  -9   29.80    2.10
   0   6  -9   34.20    2.70
   0  -6   9   30.60    2.10
   0  -6   9   35.60    2.30
   0  -6   9   35.60    2.50
  -1   6  -9   29.80    2.10
  -1   6  -9   30.40    2.40
  -1   6  -9   31.10    2.40
  -1   6  -9   34.40    2.70
   1  -6   9   30.20    2.50
   1  -6   9   32.90    2.30
   1  -6   9   31.80    2.20
  -2   6  -9    2.50    0.90
  -2   6  -9    1.20    1.30
  -2   6  -9    3.00    1.20
   2  -6   9    4.10    1.20
   2  -6   9    2.70    0.90
   2  -6   9    4.00    1.20
  -3   6  -9    1.70    1.20
  -3   6  -9    0.70    1.20
  -3   6  -9    0.10    0.90
  -3   6  -9    0.40    1.00
   3  -6   9    1.20    0.80
  -4   6  -9   -1.50    1.60
  -4   6  -9    1.40    1.40
  -4   6  -9    1.80    1.20
   4  -6   9    0.90    1.00
  -5   6  -9   -1.10    1.80
  -5   6  -9   -0.50    1.10
   5  -6   9    0.60    1.10
   5   5  -9    2.10    1.70
   5   5  -9    3.90    1.60
  -5  -5   9    7.30    2.20
  -5  -5   9    2.60    1.10
   4   5  -9   -2.40    0.90
   4   5  -9   -1.30    1.00
   4   5  -9   -1.40    0.60
  -4  -5   9    0.40    0.80
  -4  -5   9   -2.10    1.30
  -4  -5   9   -0.90    0.80
   3   5  -9   13.70    1.50
   3   5  -9   18.00    1.60
   3   5  -9   14.40    1.90
  -3  -5   9   16.60    1.50
  -3  -5   9   15.90    1.60
  -3  -5   9   12.30    1.60
  -3  -5   9   14.50    2.10
   2   5  -9   14.90    1.50
   2   5  -9   17.00    1.40
   2   5  -9   14.30    1.60
   2   5  -9   18.20    1.20
  -2  -5   9   16.30    1.60
  -2  -5   9   14.00    1.70
  -2  -5   9   15.00    2.00
  -2  -5   9   16.30    1.80
   1   5  -9   82.29    3.90
   1   5  -9   80.49    3.70
   1   5  -9   78.99    4.30
   1   5  -9   74.89    3.20
  -1  -5   9   86.99    4.10
  -1  -5   9   82.39    3.80
  -1  -5   9   79.79    4.00
  -1  -5   9   87.19    4.20
   0   5  -9   65.79    3.70
   0   5  -9   63.39    3.40
   0   5  -9   62.89    3.20
   0  -5   9   68.19    3.60
   0  -5   9   65.19    3.40
   0  -5   9   60.59    3.20
  -1   5  -9    7.20    1.10
  -1   5  -9    7.00    1.30
  -1   5  -9    5.80    1.20
  -1   5  -9    7.80    1.60
   1  -5   9    7.00    1.20
   1  -5   9    7.30    1.20
   1  -5   9    6.30    1.40
  -2   5  -9   10.90    1.50
  -2   5  -9    8.90    1.60
  -2   5  -9   10.60    1.70
  -2   5  -9   10.00    1.90
  -2   5  -9   10.80    1.70
   2  -5   9   11.20    1.70
   2  -5   9    9.90    1.40
   2  -5   9    8.50    1.40
  -3   5  -9   -0.30    1.10
  -3   5  -9    0.10    1.00
  -3   5  -9    0.50    1.10
  -3   5  -9   -0.10    0.90
   3  -5   9    0.00    0.50
   3  -5   9   -1.20    0.60
  -4   5  -9    1.60    1.20
  -4   5  -9   -0.90    1.20
  -4   5  -9   -0.20    1.60
   4  -5   9    2.20    1.10
  -5   5  -9   -0.90    1.90
  -5   5  -9    1.00    1.30
   5  -5   9    0.50    1.10
   5   4  -9   14.90    2.40
   5   4  -9   17.70    2.40
  -5  -4   9   15.30    1.80
  -5  -4   9   17.00    2.70
   4   4  -9    2.20    1.20
   4   4  -9    1.40    0.70
   4   4  -9    2.50    1.30
  -4  -4   9    2.40    0.90
  -4  -4   9    1.60    0.90
  -4  -4   9    1.70    1.60
   3   4  -9    4.40    1.00
   3   4  -9    4.00    1.30
   3   4  -9    3.60    0.80
  -3  -4   9    4.10    0.80
  -3  -4   9    4.20    0.90
  -3  -4   9    3.00    0.90
  -3  -4   9    4.30    1.50
   2   4  -9   89.79    4.20
   2   4  -9   97.99    4.10
   2   4  -9   92.89    4.10
  -2  -4   9   93.29    4.70
  -2  -4   9   90.79    4.30
  -2  -4   9   95.69    4.20
  -2  -4   9   94.29    4.40
   1   4  -9   36.10    2.20
   1   4  -9   33.90    2.00
  -1  -4   9   37.50    2.10
  -1  -4   9   32.90    2.50
  -1  -4   9   31.70    2.20
  -1  -4   9   31.50    2.20
   0   4  -9   14.30    1.50
   0   4  -9   12.80    1.60
   0   4  -9   15.20    2.00
   0  -4   9   16.20    1.50
   0  -4   9   14.50    1.70
   0  -4   9   12.80    1.50
  -1   4  -9    2.30    0.80
  -1   4  -9    1.90    0.80
  -1   4  -9    2.30    1.10
  -1   4  -9    2.10    0.90
  -1   4  -9    2.30    1.00
   1  -4   9    1.60    0.80
   1  -4   9    1.20    0.80
   1  -4   9    2.60    1.20
  -2   4  -9   18.90    2.10
  -2   4  -9   18.70    2.10
  -2   4  -9   17.50    2.10
  -2   4  -9   14.90    1.90
   2  -4   9   14.60    1.70
   2  -4   9   18.00    1.20
   2  -4   9   16.60    2.10
  -3   4  -9    1.50    1.10
  -3   4  -9   -0.60    1.20
  -3   4  -9    1.00    1.10
  -3   4  -9    1.30    1.00
   3  -4   9    1.90    0.90
   3  -4   9    0.40    0.60
   3  -4   9    0.10    0.60
  -4   4  -9   -1.10    1.20
  -4   4  -9    1.10    1.20
  -4   4  -9   -2.80    1.50
   4  -4   9    0.90    1.00
  -5   4  -9   -1.10    1.20
  -5   4  -9   -1.00    1.90
   5  -4   9    0.10    1.20
   6   3  -9   12.00    2.60
   6   3  -9   15.30    2.60
  -6  -3   9   13.20    3.10
  -6  -3   9    9.90    1.50
   5   3  -9    2.20    1.70
   5   3  -9    1.40    1.40
  -5  -3   9    2.20    1.00
  -5  -3   9    5.20    2.00
   4   3  -9    0.20    0.90
   4   3  -9    0.20    0.50
   4   3  -9   -0.30    1.10
  -4  -3   9   -0.20    0.60
  -4  -3   9   -0.60    0.50
  -4  -3   9    0.10    1.30
   3   3  -9   18.50    2.10
   3   3  -9   19.30    1.80
   3   3  -9   17.70    1.40
  -3  -3   9   17.00    2.20
  -3  -3   9   19.80    1.70
  -3  -3   9   18.70    1.70
  -3  -3   9   17.60    1.60
   2   3  -9   84.49    3.60
   2   3  -9   80.99    3.60
   2   3  -9   84.69    3.70
   2   3  -9   77.09    4.10
  -2  -3   9   82.09    3.90
  -2  -3   9   81.19    3.70
  -2  -3   9   79.29    3.90
  -2  -3   9   83.49    4.30
   1   3  -9    0.80    0.60
   1   3  -9    0.60    0.80
   1   3  -9    0.00    0.70
  -1  -3   9   -1.10    0.60
  -1  -3   9   -0.30    0.90
  -1  -3   9   -0.90    0.70
  -1  -3   9   -0.20    0.70
   0   3  -9   12.90    1.40
   0   3  -9   14.40    1.10
   0   3  -9   13.40    1.60
   0   3  -9   12.20    1.30
   0  -3   9   13.50    0.90
   0  -3   9   13.70    1.70
   0  -3   9   15.20    1.50
   0  -3   9   14.40    1.50
  -1   3  -9    9.60    1.40
  -1   3  -9   11.00    1.60
  -1   3  -9   10.80    1.40
  -1   3  -9   10.20    1.30
   1  -3   9   10.90    1.40
   1  -3   9   11.70    1.40
   1  -3   9   11.20    1.70
  -2   3  -9   17.10    2.00
  -2   3  -9   20.30    2.20
  -2   3  -9   17.90    2.10
   2  -3   9   17.90    2.20
   2  -3   9   15.10    1.80
  -3   3  -9   13.50    2.20
  -3   3  -9   11.20    1.90
  -3   3  -9   10.50    1.70
   3  -3   9    8.10    1.40
   3  -3   9   11.70    1.40
  -4   3  -9    1.20    1.40
  -4   3  -9   -0.70    1.00
  -4   3  -9   -2.50    1.40
   4  -3   9    1.20    1.10
   4  -3   9    0.50    0.80
  -5   3  -9   -0.40    1.20
  -5   3  -9    1.50    2.10
   5  -3   9   -0.30    1.10
   6   2  -9   -0.40    1.60
   6   2  -9   -0.20    1.50
  -6  -2   9    0.90    0.80
  -6  -2   9    0.80    1.90
   5   2  -9   10.20    1.90
   5   2  -9    8.70    2.10
  -5  -2   9    6.80    1.20
  -5  -2   9    9.10    2.30
   4   2  -9    1.30    0.60
   4   2  -9    0.20    0.70
   4   2  -9    2.30    1.20
   4   2  -9    2.20    1.00
  -4  -2   9    1.30    1.40
  -4  -2   9    1.90    0.80
   3   2  -9    8.10    1.30
   3   2  -9    5.60    1.20
   3   2  -9    7.50    1.20
   3   2  -9    8.10    1.00
  -3  -2   9    6.20    1.50
  -3  -2   9    7.90    1.10
  -3  -2   9    7.90    1.00
  -3  -2   9    6.50    1.10
   2   2  -9   17.90    1.90
   2   2  -9   18.50    1.70
   2   2  -9   16.20    1.40
   2   2  -9   18.80    1.40
  -2  -2   9   16.10    1.90
  -2  -2   9   15.80    1.60
  -2  -2   9   19.30    1.50
  -2  -2   9   14.70    1.50
   1   2  -9  116.09    4.80
   1   2  -9  104.49    4.90
   1   2  -9  117.99    5.10
  -1  -2   9  116.79    5.10
  -1  -2   9  124.99    5.00
  -1  -2   9  119.69    5.20
  -1  -2   9  120.89    5.40
   0   2  -9    2.40    0.70
   0   2  -9    3.70    0.90
   0   2  -9    1.00    0.80
   0   2  -9    3.40    0.80
   0  -2   9    1.70    1.10
   0  -2   9    2.70    0.90
   0  -2   9    1.10    0.80
   0  -2   9    2.10    0.80
  -1   2  -9   -0.30    0.70
  -1   2  -9    0.50    0.80
  -1   2  -9   -1.30    0.70
   1  -2   9   -0.10    0.70
   1  -2   9   -0.10    1.00
  -2   2  -9   37.30    2.70
  -2   2  -9   32.80    2.60
  -2   2  -9   37.30    2.80
   2  -2   9   36.80    3.00
   2  -2   9   31.30    2.50
  -3   2  -9   -0.10    1.20
  -3   2  -9    1.60    1.40
  -3   2  -9    1.40    1.10
   3  -2   9   -0.40    0.80
   3  -2   9   -0.10    0.80
  -4   2  -9    0.50    1.90
  -4   2  -9    0.20    1.40
  -4   2  -9    0.80    1.20
   4  -2   9   -0.10    1.00
   4  -2   9    1.00    1.00
   6   1  -9    2.70    1.60
   6   1  -9    2.40    1.90
  -6  -1   9    2.80    0.90
  -6  -1   9    6.50    2.20
   5   1  -9   24.60    2.90
   5   1  -9   23.90    2.60
  -5  -1   9   24.60    3.10
  -5  -1   9   24.60    1.90
   4   1  -9    1.80    1.00
   4   1  -9    2.20    1.20
  -4  -1   9    1.40    0.70
  -4  -1   9    1.20    0.80
  -4  -1   9    3.30    1.60
   3   1  -9    3.00    1.00
   3   1  -9    6.70    1.00
   3   1  -9    5.60    0.80
  -3  -1   9    3.70    0.90
  -3  -1   9    7.40    1.00
  -3  -1   9    6.00    1.50
  -3  -1   9    5.50    1.00
   2   1  -9   72.39    3.20
   2   1  -9   72.09    3.60
   2   1  -9   73.09    3.20
   2   1  -9   66.79    3.40
  -2  -1   9   67.89    3.90
  -2  -1   9   75.89    3.30
  -2  -1   9   69.39    3.40
  -2  -1   9   72.79    3.50
   1   1  -9   60.89    3.20
   1   1  -9   60.99    2.90
   1   1  -9   59.59    3.00
  -1  -1   9   62.79    3.00
  -1  -1   9   59.39    3.50
  -1  -1   9   56.89    3.10
  -1  -1   9   62.79    3.20
   0   1  -9   34.10    2.40
   0   1  -9   37.40    2.40
   0   1  -9   35.80    1.90
   0   1  -9   35.10    2.10
   0  -1   9   38.20    2.50
   0  -1   9   32.60    2.30
   0  -1   9   33.30    2.70
  -1   1  -9   13.60    1.70
  -1   1  -9   13.80    1.60
  -1   1  -9   12.60    1.70
   1  -1   9   14.80    1.70
   1  -1   9   11.80    1.90
  -2   1  -9    9.90    1.80
  -2   1  -9    6.10    1.60
  -2   1  -9   10.00    1.60
   2  -1   9    8.70    2.10
   2  -1   9    9.90    1.90
  -3   1  -9    0.70    1.20
  -3   1  -9    2.70    1.70
  -3   1  -9    0.10    1.30
   3  -1   9    1.30    1.10
  -4   1  -9   -0.70    1.20
  -4   1  -9    3.50    2.00
  -4   1  -9    1.80    1.60
  -4   1  -9    0.20    1.20
   4  -1   9    1.40    1.10
   4  -1   9   -0.70    1.10
   4  -1   9    1.40    1.10
   6   0  -9    0.70    1.60
   6   0  -9   -0.80    1.60
  -6   0   9    0.60    2.00
  -6   0   9    1.20    0.70
   5   0  -9   -1.20    1.10
   5   0  -9    0.30    1.40
  -5   0   9    0.40    0.60
  -5   0   9   -0.40    1.30
   4   0  -9   10.40    1.90
   4   0  -9    9.90    1.60
  -4   0   9    8.40    1.10
  -4   0   9   12.00    2.00
  -4   0   9    9.70    1.30
   3   0  -9    0.80    0.70
   3   0  -9    1.10    1.00
  -3   0   9    1.10    1.10
  -3   0   9    0.90    0.70
  -3   0   9    0.40    0.70
   2   0  -9    1.10    0.80
   2   0  -9    2.20    0.90
   2   0  -9    2.50    0.70
  -2   0   9    1.50    0.70
  -2   0   9   -0.10    1.00
  -2   0   9    1.00    0.70
   1   0  -9  123.29    5.40
   1   0  -9  122.79    5.20
  -1   0   9  121.09    5.40
  -1   0   9  121.99    5.70
  -1   0   9  131.89    5.50
   0   0  -9   58.29    2.90
   0   0  -9   59.09    2.80
   0   0  -9   61.69    3.40
   0   0  -9   60.59    3.20
   0   0   9   58.49    3.60
   0   0   9   62.69    3.40
  -1   0  -9   12.20    1.60
  -1   0  -9   10.30    1.50
  -1   0  -9    8.20    1.60
   1   0   9   10.30    1.50
   1   0   9    8.90    1.80
  -2   0  -9    0.60    1.20
  -2   0  -9    0.30    1.10
  -2   0  -9   -0.80    0.90
   2   0   9   -1.00    1.20
  -3   0  -9    1.00    1.10
  -3   0  -9    3.00    1.80
  -3   0  -9    1.00    1.40
   3   0   9    2.80    1.10
  -4   0  -9    0.60    1.60
  -4   0  -9    3.80    1.60
  -4   0  -9    4.00    2.20
  -4   0  -9    2.70    1.50
   4   0   9    1.70    1.10
   4   0   9    2.60    1.30
   4   0   9    1.30    1.30
   6  -1  -9   -0.70    1.40
   6  -1  -9   -1.90    1.50
  -6   1   9    0.20    1.80
   5  -1  -9    3.40    1.60
  -5   1   9    4.70    0.90
  -5   1   9    9.00    2.10
   4  -1  -9   30.10    2.90
  -4   1   9   27.50    1.90
  -4   1   9   29.10    1.90
  -4   1   9   31.50    3.10
   3  -1  -9   52.99    2.70
   3  -1  -9   54.59    3.30
  -3   1   9   52.79    2.70
  -3   1   9   53.99    3.50
  -3   1   9   47.70    2.70
   2  -1  -9  115.49    4.90
   2  -1  -9  109.69    5.10
   2  -1  -9  117.19    4.70
  -2   1   9  108.09    4.90
  -2   1   9  112.39    5.40
   1  -1  -9   57.19    3.10
   1  -1  -9   61.99    3.30
   1  -1  -9   60.49    2.70
  -1   1   9   64.09    3.30
  -1   1   9   60.39    3.60
  -1   1   9   63.09    3.30
  -1   1   9   60.09    2.60
   0  -1  -9    1.90    0.80
   0  -1  -9    2.00    1.10
   0  -1  -9    1.70    0.60
   0  -1  -9    1.50    0.80
   0   1   9    1.20    1.20
   0   1   9    1.40    0.80
  -1  -1  -9    5.20    1.30
  -1  -1  -9    4.00    1.30
  -1  -1  -9    5.20    1.20
   1   1   9    3.70    1.10
   1   1   9    3.00    1.30
  -2  -1  -9   14.80    2.00
  -2  -1  -9   16.00    2.30
  -2  -1  -9   16.70    2.40
   2   1   9   15.20    1.60
   2   1   9   16.80    2.40
  -3  -1  -9    0.40    1.20
  -3  -1  -9    0.60    1.20
  -3  -1  -9    1.00    1.50
  -3  -1  -9    2.30    1.70
   3   1   9    1.90    1.00
   3   1   9    2.30    1.30
  -4  -1  -9    0.80    1.50
  -4  -1  -9    3.10    1.50
  -4  -1  -9    4.50    2.20
  -4  -1  -9    5.30    2.10
   4   1   9    3.40    1.60
   4   1   9    4.50    1.30
   4   1   9    4.90    1.50
   6  -2  -9    0.40    1.70
  -6   2   9    0.10    1.70
   5  -2  -9    4.70    1.80
  -5   2   9    2.20    0.70
  -5   2   9    3.10    1.70
   4  -2  -9   -0.90    1.10
  -4   2   9   -0.10    0.50
  -4   2   9   -0.30    0.60
  -4   2   9   -1.50    1.10
   3  -2  -9   34.70    2.00
   3  -2  -9   29.70    2.50
  -3   2   9   29.70    2.90
  -3   2   9   29.80    2.00
   2  -2  -9   14.90    1.80
   2  -2  -9   17.00    1.80
   2  -2  -9   19.70    1.40
  -2   2   9   17.30    1.70
  -2   2   9   17.20    1.60
  -2   2   9   14.60    2.00
   1  -2  -9   40.00    2.30
   1  -2  -9   43.80    2.80
   1  -2  -9   41.10    2.40
  -1   2   9   43.10    2.60
  -1   2   9   41.40    2.70
  -1   2   9   42.50    3.20
   0  -2  -9   29.80    2.20
   0  -2  -9   28.20    2.50
   0  -2  -9   29.00    1.70
   0  -2  -9   32.10    2.30
   0   2   9   26.80    2.30
   0   2   9   27.90    2.70
  -1  -2  -9   -0.10    1.00
  -1  -2  -9    0.20    0.80
  -1  -2  -9   -0.60    1.00
   1   2   9   -0.70    1.20
   1   2   9   -0.70    0.80
  -2  -2  -9    8.00    1.90
  -2  -2  -9    3.90    1.30
  -2  -2  -9    5.70    1.70
   2   2   9    4.40    1.10
  -3  -2  -9    9.10    2.30
  -3  -2  -9    6.20    1.70
  -3  -2  -9    5.40    1.50
  -3  -2  -9    8.00    2.20
   3   2   9    7.90    1.30
   3   2   9    6.50    1.60
  -4  -2  -9    0.10    2.00
  -4  -2  -9    2.00    1.50
  -4  -2  -9    1.30    2.20
  -4  -2  -9    3.00    1.60
   4   2   9    0.40    1.20
   4   2   9   -0.90    1.40
   6  -3  -9   -0.10    1.70
  -6   3   9   -0.70    1.60
   5  -3  -9    1.30    1.40
  -5   3   9   -0.60    1.40
  -5   3   9    0.60    0.60
   4  -3  -9    7.40    1.70
  -4   3   9    7.40    1.10
  -4   3   9   10.10    1.90
   3  -3  -9   20.40    1.70
   3  -3  -9   20.50    2.20
  -3   3   9   21.80    2.50
  -3   3   9   20.60    1.70
   2  -3  -9    3.80    1.10
   2  -3  -9    5.30    1.20
  -2   3   9    4.30    1.40
  -2   3   9    5.00    1.10
   1  -3  -9   42.00    2.50
   1  -3  -9   41.10    2.30
   1  -3  -9   41.90    2.80
  -1   3   9   44.00    3.20
  -1   3   9   38.50    2.60
   0  -3  -9    5.60    1.30
   0  -3  -9    5.90    1.50
   0  -3  -9    5.50    1.20
   0   3   9    6.10    1.60
   0   3   9    5.30    1.20
  -1  -3  -9   -0.60    1.20
  -1  -3  -9   -0.50    0.80
  -1  -3  -9   -0.80    1.10
   1   3   9   -1.20    1.10
   1   3   9    0.60    0.90
  -2  -3  -9   -0.10    1.10
  -2  -3  -9    0.70    1.40
  -2  -3  -9    0.40    1.50
  -2  -3  -9    2.40    1.30
   2   3   9    0.40    0.80
   2   3   9    0.00    1.00
  -3  -3  -9    0.60    1.90
  -3  -3  -9   -0.30    1.80
  -3  -3  -9    3.70    1.60
  -3  -3  -9   -1.10    1.30
   3   3   9    1.40    1.40
   6  -4  -9    0.70    1.80
  -6   4   9   -0.30    1.70
   5  -4  -9   -0.40    1.30
  -5   4   9   -0.80    1.40
  -5   4   9   -0.10    0.50
   4  -4  -9    1.90    1.30
  -4   4   9    0.80    0.60
  -4   4   9    1.20    1.30
   3  -4  -9    0.10    0.90
   3  -4  -9    0.70    0.80
   3  -4  -9    0.40    0.50
  -3   4   9    0.30    0.60
  -3   4   9   -0.80    1.00
  -3   4   9    0.00    0.60
   2  -4  -9    6.10    1.10
   2  -4  -9    6.40    1.30
   2  -4  -9    6.70    1.20
  -2   4   9    8.10    1.30
  -2   4   9    7.00    1.50
  -2   4   9    7.40    1.20
   1  -4  -9   27.40    1.90
   1  -4  -9   30.60    2.20
   1  -4  -9   30.90    2.50
  -1   4   9   28.70    2.40
  -1   4   9   27.80    2.30
  -1   4   9   31.30    2.80
   0  -4  -9    1.70    1.00
   0  -4  -9    1.60    1.10
   0  -4  -9    1.00    1.30
   0   4   9    0.00    0.90
   0   4   9    0.60    1.20
   0   4   9    1.70    0.90
  -1  -4  -9    9.90    2.00
  -1  -4  -9    7.70    1.60
  -1  -4  -9    8.10    1.90
   1   4   9    6.20    1.50
   1   4   9    9.40    1.90
   1   4   9    6.70    1.50
  -2  -4  -9   -0.20    1.60
  -2  -4  -9    1.20    1.20
  -2  -4  -9   -0.40    1.50
   2   4   9   -0.80    1.00
  -3  -4  -9    2.70    2.10
  -3  -4  -9   -1.70    2.00
  -3  -4  -9   -0.60    1.30
   3   4   9   -1.60    1.30
  -6   5   9    2.50    2.00
  -6   5   9    0.40    2.90
   5  -5  -9   -0.60    1.40
  -5   5   9    0.40    0.60
  -5   5   9   -2.10    1.30
   4  -5  -9    1.20    1.30
  -4   5   9    0.00    0.70
  -4   5   9    0.20    1.20
   3  -5  -9   21.50    2.30
   3  -5  -9   18.60    1.90
   3  -5  -9   17.70    1.60
  -3   5   9   21.70    2.50
  -3   5   9   17.10    1.80
  -3   5   9   18.90    1.60
   2  -5  -9    1.30    0.90
   2  -5  -9    0.40    1.00
   2  -5  -9    2.00    0.90
  -2   5   9    1.20    1.20
  -2   5   9    2.20    0.90
  -2   5   9    1.40    0.90
   1  -5  -9   -1.70    0.80
   1  -5  -9    0.70    1.10
   1  -5  -9    0.10    1.00
  -1   5   9    0.20    1.00
  -1   5   9   -0.20    0.90
  -1   5   9   -0.60    1.00
   0  -5  -9    5.60    1.60
   0  -5  -9    5.80    1.60
   0  -5  -9    5.50    1.40
   0   5   9    7.70    1.50
   0   5   9    5.40    1.40
   0   5   9    6.80    1.70
  -1  -5  -9    0.80    1.10
  -1  -5  -9   -0.70    1.30
  -1  -5  -9   -0.40    1.40
   1   5   9    1.20    1.40
   1   5   9    1.20    1.10
  -2  -5  -9   -0.90    1.70
  -2  -5  -9   -0.50    1.80
  -2  -5  -9   -0.50    1.30
   2   5   9   -1.80    1.10
  -3  -5  -9    0.70    1.50
  -3  -5  -9    0.90    2.20
  -3  -5  -9   -1.00    2.10
   3   5   9   -0.10    1.40
  -5   6   9   -1.10    1.30
  -5   6   9    0.00    0.60
  -4   6   9    4.40    1.00
  -4   6   9    1.50    1.40
   3  -6  -9    1.30    1.00
   3  -6  -9    0.40    0.70
  -3   6   9   -0.30    0.70
  -3   6   9   -0.90    1.10
  -3   6   9    0.90    0.70
   2  -6  -9    0.80    0.90
   2  -6  -9    1.90    1.30
  -2   6   9    2.00    1.30
  -2   6   9    2.60    1.10
  -2   6   9    2.90    1.10
   1  -6  -9   -0.80    0.80
   1  -6  -9    0.40    1.30
   1  -6  -9    0.40    1.10
  -1   6   9   -0.80    1.10
  -1   6   9   -1.20    0.80
  -1   6   9   -0.30    0.90
   0  -6  -9    3.80    1.30
   0  -6  -9    0.60    1.40
   0  -6  -9    0.70    1.50
   0   6   9    0.50    1.00
   0   6   9   -1.10    1.20
   0   6   9    2.10    1.20
  -1  -6  -9    1.50    1.40
  -1  -6  -9    2.00    1.80
  -1  -6  -9    4.60    1.90
   1   6   9    0.90    1.20
  -2  -6  -9    2.20    1.60
  -2  -6  -9    3.70    2.20
  -2  -6  -9    3.60    2.30
   2   6   9    4.10    1.70
  -5   7   9    0.10    0.70
  -5   7   9    2.30    2.00
  -4   7   9   -0.20    1.30
  -4   7   9   -0.20    0.70
   3  -7  -9    5.10    1.00
  -3   7   9    3.10    1.00
  -3   7   9    2.00    1.30
  -3   7   9    4.20    1.20
   2  -7  -9    1.90    1.00
   2  -7  -9    0.60    1.20
  -2   7   9    2.10    1.10
  -2   7   9    2.80    1.10
  -2   7   9    1.70    1.30
   1  -7  -9   -2.00    1.30
   1  -7  -9   -0.20    1.20
   1  -7  -9   -1.00    1.00
  -1   7   9   -0.40    1.10
  -1   7   9    0.10    1.00
  -1   7   9    0.10    1.40
  -1   7   9    0.00    1.00
   0  -7  -9    2.20    1.60
   0  -7  -9   -0.80    1.50
   0  -7  -9    0.10    1.10
   0   7   9    0.50    1.30
   0   7   9    0.10    1.10
   0   7   9    1.00    1.30
   0   7   9    2.30    1.50
  -1  -7  -9   10.60    2.40
  -1  -7  -9    7.40    2.30
  -1  -7  -9    3.80    1.50
   1   7   9    4.00    1.50
  -2  -7  -9    1.10    2.10
  -2  -7  -9   -0.20    2.00
  -2  -7  -9    1.70    1.50
   2   7   9    3.00    1.50
  -5   8   9    0.50    0.80
  -5   8   9   -0.30    1.70
  -4   8   9    1.10    1.80
  -4   8   9   -0.20    0.80
   3  -8  -9    5.40    1.60
  -3   8   9    5.60    1.50
  -3   8   9    4.60    2.20
  -3   8   9   11.20    2.60
   2  -8  -9    0.20    1.00
   2  -8  -9    1.20    1.10
  -2   8   9    0.90    1.10
  -2   8   9    3.80    1.70
  -2   8   9    1.30    1.10
  -2   8   9   -0.20    1.20
   1  -8  -9    0.70    1.00
   1  -8  -9    2.00    1.60
   1  -8  -9    0.50    1.60
  -1   8   9   -0.50    1.10
  -1   8   9    1.60    1.40
  -1   8   9   -0.40    1.20
  -1   8   9    3.90    1.80
   0  -8  -9    5.00    2.00
   0  -8  -9    3.50    2.10
   0  -8  -9    3.80    1.50
   0   8   9    6.80    1.90
   0   8   9    4.40    1.50
   0   8   9    4.80    1.60
  -1  -8  -9    1.50    1.90
  -1  -8  -9    0.00    2.10
  -1  -8  -9    0.60    1.50
   1   8   9    1.50    1.40
   4  -9  -9   -0.70    1.20
  -4   9   9    0.50    1.80
  -4   9   9   -0.80    0.90
   3  -9  -9    2.90    1.40
  -3   9   9    0.20    1.00
  -3   9   9    3.60    2.00
   2  -9  -9    1.10    1.20
   2  -9  -9   -0.40    0.90
  -2   9   9    0.40    1.80
  -2   9   9    1.30    1.30
  -2   9   9    1.80    1.30
   1  -9  -9   -0.90    1.20
  -1   9   9    0.00    1.30
  -1   9   9   -0.80    1.20
  -1   9   9   -0.40    1.30
  -1   9   9   -0.80    1.60
   0  -9  -9    3.20    1.50
   0  -9  -9    4.80    2.30
   0   9   9    2.10    1.50
   4 -10  -9    1.30    1.40
  -4  10   9    0.50    1.20
  -4  10   9    3.80    2.40
   3 -10  -9    3.20    1.50
  -3  10   9    2.60    1.40
  -3  10   9    6.30    2.40
   2 -10  -9   -0.20    1.10
   2 -10  -9    1.90    1.40
  -2  10   9   -0.80    1.30
  -2  10   9   -0.40    1.90
  -2  10   9    0.30    1.30
   1 -10  -9   -0.70    1.20
  -1  10   9   -0.10    1.40
  -1  10   9    0.00    1.80
  -1  10   9   -1.50    1.20
   0  16 -10    7.20    3.00
   0 -16  10    4.30    1.80
  -1  16 -10    2.40    2.40
  -1  16 -10   -2.80    1.20
   1 -16  10   -2.40    1.00
   1 -16  10    0.40    1.50
   2 -16  10    0.40    1.40
   1  15 -10    0.70    2.30
   1  15 -10    0.00    1.40
  -1 -15  10   -0.30    1.40
  -1 -15  10    2.20    1.70
   0  15 -10    6.10    2.50
   0  15 -10    1.40    1.60
   0 -15  10    0.50    1.50
   0 -15  10    0.10    1.50
  -1  15 -10    1.60    1.50
  -1  15 -10    4.50    2.40
   1 -15  10   -0.50    1.40
   1 -15  10   -0.50    1.30
  -2  15 -10    0.80    1.90
  -2  15 -10    1.20    1.40
  -2  15 -10   -1.90    1.10
   2 -15  10   -1.10    1.30
   2 -15  10   -0.50    1.20
  -3  15 -10   -0.10    1.40
  -3  15 -10    1.20    2.20
   3 -15  10    0.20    1.20
   3 -15  10   -1.70    1.00
   2  14 -10    2.50    1.60
   2  14 -10   -3.10    1.80
  -2 -14  10    2.10    1.60
   1  14 -10    1.60    1.70
   1  14 -10   -0.80    2.10
  -1 -14  10    1.40    1.40
  -1 -14  10    0.80    1.50
   0  14 -10    3.40    2.20
   0  14 -10    3.10    1.60
   0 -14  10    2.00    1.40
   0 -14  10    3.70    1.60
  -1  14 -10    1.30    1.40
  -1  14 -10    0.80    1.90
  -1  14 -10    1.70    1.50
   1 -14  10    0.50    1.40
   1 -14  10   -0.80    1.10
  -2  14 -10   -0.70    1.50
  -2  14 -10   -1.30    1.10
  -2  14 -10    0.00    1.30
   2 -14  10    0.10    1.30
   2 -14  10    1.40    1.30
  -3  14 -10    1.10    1.20
  -3  14 -10    0.60    1.20
  -3  14 -10   -0.20    1.80
   3 -14  10   -0.60    1.00
   3 -14  10    0.00    1.10
   3 -14  10    1.00    1.30
   2  13 -10    2.10    2.10
   2  13 -10    3.50    1.60
  -2 -13  10    1.20    1.50
   1  13 -10    3.90    2.20
   1  13 -10    2.30    1.40
  -1 -13  10    1.00    1.40
   0  13 -10    4.70    2.20
   0  13 -10    4.00    1.50
   0 -13  10    2.30    1.40
  -1  13 -10    0.20    1.20
  -1  13 -10   -0.80    1.40
  -1  13 -10    0.50    1.20
   1 -13  10    0.50    1.30
   1 -13  10    1.00    1.10
  -2  13 -10    0.90    1.20
  -2  13 -10    0.60    1.20
  -2  13 -10   -0.30    1.60
   2 -13  10   -2.30    1.00
   2 -13  10    1.10    1.10
  -3  13 -10    0.90    1.80
  -3  13 -10    0.60    1.20
  -3  13 -10   -0.10    1.10
   3 -13  10    0.00    1.20
   3 -13  10   -0.50    1.00
   3 -13  10   -0.30    1.00
  -4  13 -10    1.60    2.00
  -4  13 -10   -1.30    1.20
   4 -13  10   -0.20    1.10
   4 -13  10   -0.50    1.00
   3  12 -10    0.10    1.30
  -3 -12  10    2.60    1.50
  -3 -12  10   -1.50    1.30
  -3 -12  10    1.20    1.70
   2  12 -10   14.50    2.70
   2  12 -10   16.40    2.20
  -2 -12  10   15.10    2.30
  -2 -12  10   24.90    2.80
  -2 -12  10   12.50    2.20
   1  12 -10    3.50    2.10
   1  12 -10    2.20    1.30
  -1 -12  10    2.10    1.50
  -1 -12  10    1.10    1.30
  -1 -12  10    2.90    1.40
   0  12 -10    2.70    1.30
   0  12 -10    5.60    2.20
   0 -12  10    2.90    1.40
  -1  12 -10    5.10    1.50
  -1  12 -10    6.50    1.50
  -1  12 -10    5.30    2.00
   1 -12  10    3.90    1.30
   1 -12  10    6.50    1.50
  -2  12 -10    4.80    2.00
  -2  12 -10    4.10    1.30
  -2  12 -10    1.50    1.20
   2 -12  10    0.20    1.00
   2 -12  10    3.20    1.30
  -3  12 -10    1.80    1.30
  -3  12 -10    1.40    1.20
  -3  12 -10    2.70    1.70
  -3  12 -10    3.10    1.90
   3 -12  10    3.20    1.30
   3 -12  10    3.50    1.30
  -4  12 -10    0.60    1.10
  -4  12 -10   -0.20    1.10
  -4  12 -10   -0.90    1.60
  -4  12 -10    4.80    2.20
   4 -12  10    0.70    1.00
   4 -12  10    0.40    1.10
   4 -12  10    1.30    1.10
   3  11 -10    2.60    1.40
   3  11 -10    4.40    1.40
  -3 -11  10    5.20    1.60
  -3 -11  10    5.70    2.10
  -3 -11  10    5.60    1.60
   2  11 -10    1.10    1.60
   2  11 -10    1.10    1.20
  -2 -11  10    3.10    1.60
  -2 -11  10    0.50    1.30
  -2 -11  10    2.90    1.50
   1  11 -10    0.50    1.10
   1  11 -10   -1.30    1.40
  -1 -11  10   -1.50    1.10
  -1 -11  10   -0.20    1.10
  -1 -11  10   -0.20    1.10
   0  11 -10   32.20    2.90
   0  11 -10   35.90    3.50
   0  11 -10   34.70    2.80
   0 -11  10   39.10    2.80
   0 -11  10   31.30    3.60
   0 -11  10   31.50    2.70
  -1  11 -10    8.20    2.00
  -1  11 -10   10.40    1.90
  -1  11 -10    8.60    1.60
   1 -11  10   10.10    1.80
  -2  11 -10   -1.00    0.90
  -2  11 -10    4.80    2.00
  -2  11 -10    2.00    1.10
   2 -11  10    0.50    1.10
   2 -11  10    2.30    1.10
  -3  11 -10    1.70    1.70
  -3  11 -10   -2.40    1.10
  -3  11 -10    1.30    1.10
  -3  11 -10   -0.60    1.10
   3 -11  10    1.50    1.10
   3 -11  10    1.30    1.00
  -4  11 -10    1.80    1.80
  -4  11 -10    0.60    1.10
  -4  11 -10   -0.20    1.10
  -4  11 -10    2.40    1.50
   4 -11  10    0.80    1.10
   4 -11  10   -0.30    0.90
   4 -11  10   -1.40    0.90
   4  10 -10    0.60    1.40
   4  10 -10   -0.80    1.10
   4  10 -10    1.30    1.40
  -4 -10  10   -2.30    1.30
  -4 -10  10    1.50    2.20
  -4 -10  10    0.50    1.30
   3  10 -10    4.20    1.40
   3  10 -10    3.20    1.50
  -3 -10  10    3.50    1.40
  -3 -10  10    4.50    1.70
  -3 -10  10   10.10    2.40
   2  10 -10   13.30    1.50
   2  10 -10   15.50    2.00
   2  10 -10   14.60    2.60
  -2 -10  10   14.50    2.00
  -2 -10  10   14.70    2.30
  -2 -10  10   13.60    2.10
   1  10 -10    3.20    1.20
   1  10 -10    2.60    1.80
  -1 -10  10    2.90    1.30
  -1 -10  10    3.20    1.30
  -1 -10  10    2.90    1.20
   0  10 -10   45.60    3.70
   0  10 -10   44.70    2.90
   0  10 -10   40.40    3.10
   0 -10  10   39.90    2.90
   0 -10  10   41.10    3.00
   0 -10  10   37.80    3.00
  -1  10 -10   13.40    2.00
  -1  10 -10   12.00    1.70
  -1  10 -10    9.80    2.10
   1 -10  10   12.90    1.70
   1 -10  10   14.40    1.90
  -2  10 -10    5.10    1.40
  -2  10 -10    7.40    2.00
  -2  10 -10    6.20    1.40
   2 -10  10    7.50    1.30
   2 -10  10    3.30    1.10
   2 -10  10    8.40    1.50
  -3  10 -10    2.70    1.60
  -3  10 -10    2.10    1.30
  -3  10 -10    1.10    1.40
  -3  10 -10    1.80    1.10
   3 -10  10    2.80    1.10
   3 -10  10    1.30    1.00
  -4  10 -10    2.10    1.20
  -4  10 -10    1.90    1.80
  -4  10 -10    0.20    1.30
   4 -10  10   -2.10    0.80
   4 -10  10   -0.30    1.00
   4 -10  10    0.00    1.00
   4   9 -10    0.80    1.20
   4   9 -10    1.00    1.60
   4   9 -10    0.40    1.20
  -4  -9  10   -0.40    1.20
  -4  -9  10   -0.50    2.10
  -4  -9  10   -0.50    1.20
   3   9 -10   11.20    1.60
   3   9 -10   13.30    1.80
  -3  -9  10   11.60    1.90
  -3  -9  10   18.00    2.70
  -3  -9  10    9.60    1.80
  -3  -9  10    8.80    3.00
   2   9 -10   41.00    2.80
   2   9 -10   41.30    3.50
   2   9 -10   36.30    2.30
  -2  -9  10   40.10    2.80
  -2  -9  10   39.50    3.40
  -2  -9  10   41.30    3.10
   1   9 -10   11.80    1.10
   1   9 -10   13.00    1.70
   1   9 -10   14.50    2.50
  -1  -9  10    9.40    1.60
  -1  -9  10   14.10    1.80
  -1  -9  10   14.00    1.90
   0   9 -10   -0.40    0.90
   0   9 -10    2.50    1.60
   0   9 -10    1.70    1.00
   0  -9  10   -0.20    0.90
   0  -9  10    0.70    1.10
   0  -9  10    0.30    0.90
  -1   9 -10   17.90    2.70
  -1   9 -10   15.90    1.90
  -1   9 -10   16.80    2.00
   1  -9  10   17.60    1.90
   1  -9  10   16.30    1.90
   1  -9  10   18.20    2.10
  -2   9 -10    1.70    1.30
  -2   9 -10    3.30    1.50
  -2   9 -10    1.90    1.10
  -2   9 -10   -0.20    0.90
   2  -9  10    0.10    0.80
   2  -9  10    0.70    1.00
   2  -9  10    1.20    1.00
  -3   9 -10    0.70    1.30
  -3   9 -10    1.30    1.10
  -3   9 -10    1.90    1.70
  -3   9 -10    1.10    0.90
   3  -9  10    1.10    0.90
   3  -9  10    1.10    1.00
  -4   9 -10   -0.90    1.50
  -4   9 -10    1.00    1.40
  -4   9 -10   -0.70    1.60
  -4   9 -10    0.90    1.20
   4  -9  10   -0.70    0.90
   4  -9  10   -0.10    1.00
   5   8 -10    0.80    1.60
   4   8 -10   -1.00    0.90
   4   8 -10    0.30    1.20
   4   8 -10    1.40    1.40
  -4  -8  10    0.10    1.20
  -4  -8  10   -0.40    1.00
  -4  -8  10   -0.50    1.70
   3   8 -10   26.50    2.50
   3   8 -10   26.80    2.30
  -3  -8  10   31.00    3.40
  -3  -8  10   27.70    2.60
  -3  -8  10   25.20    3.60
  -3  -8  10   26.00    2.60
   2   8 -10   16.70    1.50
   2   8 -10   19.20    2.70
   2   8 -10   17.60    1.90
  -2  -8  10   19.10    2.00
  -2  -8  10   15.10    2.00
  -2  -8  10   14.30    2.20
   1   8 -10   11.40    2.30
   1   8 -10    9.70    1.50
   1   8 -10   10.90    1.00
   1   8 -10    9.80    1.50
  -1  -8  10    9.90    1.60
  -1  -8  10    9.30    1.60
  -1  -8  10   11.00    1.60
   0   8 -10   -0.20    0.80
   0   8 -10   -0.30    1.30
   0   8 -10   -1.20    0.60
   0  -8  10   -0.20    1.00
   0  -8  10   -0.50    0.80
   0  -8  10    0.20    0.80
  -1   8 -10    6.40    1.80
  -1   8 -10    5.30    1.30
  -1   8 -10    4.90    1.30
   1  -8  10    4.00    1.10
   1  -8  10    5.50    1.30
   1  -8  10    9.10    1.50
  -2   8 -10   12.90    1.60
  -2   8 -10   14.60    2.10
  -2   8 -10   15.70    2.40
  -2   8 -10   12.10    1.80
   2  -8  10   16.50    1.90
   2  -8  10   12.70    1.70
  -3   8 -10   -1.40    1.20
  -3   8 -10    1.50    1.40
  -3   8 -10    0.00    0.80
   3  -8  10    0.40    0.90
   3  -8  10   -0.70    0.70
  -4   8 -10    0.10    1.80
  -4   8 -10    4.00    1.60
  -4   8 -10    1.10    1.20
   4  -8  10    0.70    1.00
   5   7 -10    2.90    1.60
   5   7 -10    1.90    1.60
  -5  -7  10    1.00    1.20
  -5  -7  10    2.50    2.00
   4   7 -10   10.20    1.60
   4   7 -10   18.00    2.20
   4   7 -10   11.90    2.30
  -4  -7  10   15.30    3.00
  -4  -7  10   10.30    1.80
  -4  -7  10   13.20    1.80
   3   7 -10    0.90    1.10
   3   7 -10   -0.60    0.90
   3   7 -10   -0.60    0.80
  -3  -7  10    0.10    1.50
  -3  -7  10    0.90    0.90
  -3  -7  10   -1.10    1.40
  -3  -7  10   -0.80    0.90
   2   7 -10    8.30    1.30
   2   7 -10    8.70    1.10
  -2  -7  10    5.30    1.60
  -2  -7  10    6.90    1.40
  -2  -7  10    7.80    1.40
   1   7 -10   85.29    4.20
   1   7 -10   81.29    3.90
   1   7 -10   81.99    3.30
   1   7 -10   75.89    4.50
  -1  -7  10   74.99    4.00
  -1  -7  10   83.39    4.40
  -1  -7  10   87.29    4.40
   0   7 -10   15.60    1.80
   0   7 -10   18.30    2.00
   0   7 -10   16.60    2.30
   0  -7  10   17.10    1.80
   0  -7  10   17.30    2.00
   0  -7  10   16.60    1.90
  -1   7 -10   14.60    1.90
  -1   7 -10   12.80    1.50
  -1   7 -10   16.90    2.50
  -1   7 -10   14.50    2.00
   1  -7  10   14.70    1.80
   1  -7  10   17.40    2.00
   1  -7  10   13.60    1.70
  -2   7 -10   10.40    1.80
  -2   7 -10    7.60    1.50
  -2   7 -10   12.00    1.60
  -2   7 -10   14.10    2.30
   2  -7  10   11.00    1.50
   2  -7  10   13.60    1.90
  -3   7 -10   -0.20    1.30
  -3   7 -10    0.80    1.30
  -3   7 -10    1.30    1.00
  -3   7 -10    2.20    1.20
  -3   7 -10   -0.80    1.20
   3  -7  10    0.50    0.90
   3  -7  10    1.00    0.90
  -4   7 -10   -1.80    1.50
  -4   7 -10    0.90    1.20
  -4   7 -10   -0.40    1.30
   4  -7  10    1.10    1.10
  -5   7 -10   -2.70    1.80
   5   6 -10    5.90    1.80
   5   6 -10    3.80    1.90
  -5  -6  10    3.90    1.40
  -5  -6  10    7.60    2.40
   4   6 -10    1.70    0.90
   4   6 -10    2.60    1.30
   4   6 -10   -1.30    1.20
  -4  -6  10    0.30    1.00
  -4  -6  10    0.40    1.60
  -4  -6  10   -0.20    0.90
   3   6 -10   11.80    1.50
   3   6 -10    8.60    1.30
   3   6 -10    7.00    1.60
  -3  -6  10   10.30    2.10
  -3  -6  10    6.90    1.30
  -3  -6  10    6.70    1.30
   2   6 -10   58.29    2.90
   2   6 -10   58.49    3.10
  -2  -6  10   58.19    3.20
  -2  -6  10   55.69    3.40
  -2  -6  10   65.49    3.90
   1   6 -10    5.20    1.20
   1   6 -10    3.20    1.50
   1   6 -10    3.10    0.70
   1   6 -10    2.10    0.90
  -1  -6  10    2.70    1.00
  -1  -6  10    2.60    1.20
  -1  -6  10    4.20    1.20
   0   6 -10    2.10    0.90
   0   6 -10    2.60    1.40
   0   6 -10    2.00    0.90
   0  -6  10    1.10    0.90
   0  -6  10    1.70    0.90
   0  -6  10    2.00    1.20
  -1   6 -10    0.10    1.00
  -1   6 -10    2.70    1.00
  -1   6 -10    1.60    0.90
  -1   6 -10    1.60    1.30
   1  -6  10    1.40    0.90
   1  -6  10    0.60    1.10
   1  -6  10    1.60    1.00
  -2   6 -10    3.30    1.40
  -2   6 -10   -0.30    0.90
  -2   6 -10    1.00    1.00
  -2   6 -10    1.40    1.10
  -2   6 -10    2.20    1.00
   2  -6  10    1.50    1.00
   2  -6  10    3.00    1.20
  -3   6 -10   -0.60    1.20
  -3   6 -10    1.00    1.30
  -3   6 -10    0.30    1.00
  -3   6 -10    1.80    1.30
   3  -6  10   -0.30    0.70
  -4   6 -10   -1.30    1.00
  -4   6 -10   -0.90    1.20
  -4   6 -10   -2.40    1.60
   4  -6  10    1.10    1.10
   5   5 -10    8.10    2.10
   5   5 -10    8.10    2.00
  -5  -5  10    9.10    2.50
  -5  -5  10    6.80    1.50
   4   5 -10    3.40    1.30
   4   5 -10    2.30    1.30
   4   5 -10    2.60    0.90
  -4  -5  10    1.70    1.00
  -4  -5  10    3.60    1.10
  -4  -5  10    1.90    1.80
   3   5 -10   -1.50    0.60
   3   5 -10    0.10    0.60
   3   5 -10   -0.50    0.80
  -3  -5  10    0.00    0.70
  -3  -5  10    0.40    0.80
  -3  -5  10   -2.10    0.90
   2   5 -10    4.10    1.00
   2   5 -10    6.10    1.00
  -2  -5  10    4.70    1.50
  -2  -5  10    4.20    1.10
  -2  -5  10    6.20    1.20
   1   5 -10   69.39    3.30
   1   5 -10   67.99    3.50
  -1  -5  10   62.19    3.50
  -1  -5  10   63.89    3.30
  -1  -5  10   66.39    3.60
  -1  -5  10   64.69    3.90
   0   5 -10   -0.60    0.70
   0   5 -10    0.60    1.10
   0   5 -10    1.00    0.70
   0   5 -10   -0.40    0.80
   0  -5  10    0.20    0.80
   0  -5  10   -0.10    0.80
   0  -5  10    0.20    1.00
  -1   5 -10    0.90    1.00
  -1   5 -10    1.60    0.80
  -1   5 -10    0.20    0.80
  -1   5 -10    0.90    0.80
  -1   5 -10    0.70    1.10
   1  -5  10   -0.60    0.70
   1  -5  10    0.00    0.70
   1  -5  10    1.30    1.20
  -2   5 -10   14.60    1.90
  -2   5 -10   11.90    1.90
  -2   5 -10   15.00    2.10
  -2   5 -10   12.30    1.60
  -2   5 -10   13.10    1.80
   2  -5  10   15.10    2.10
   2  -5  10   11.90    1.60
  -3   5 -10    4.60    1.70
  -3   5 -10    3.40    1.40
  -3   5 -10    3.30    1.30
  -3   5 -10    4.80    1.40
   3  -5  10    3.40    0.90
  -4   5 -10   -1.20    1.60
  -4   5 -10   -0.30    1.30
  -4   5 -10    1.30    1.20
   4  -5  10    0.50    1.00
   5   4 -10   18.60    2.70
   5   4 -10   18.00    2.50
  -5  -4  10   23.60    3.50
  -5  -4  10   14.80    1.80
   4   4 -10    3.20    1.30
   4   4 -10    4.50    0.90
   4   4 -10    2.20    1.20
  -4  -4  10    2.40    1.10
  -4  -4  10    3.50    1.00
  -4  -4  10    0.80    1.50
   3   4 -10    2.80    1.20
   3   4 -10    1.20    0.60
   3   4 -10    3.40    0.90
  -3  -4  10    2.40    0.90
  -3  -4  10    1.30    0.80
  -3  -4  10    1.40    1.30
   2   4 -10   46.30    2.60
   2   4 -10   49.50    2.50
   2   4 -10   46.70    3.00
   2   4 -10   43.40    2.50
  -2  -4  10   45.40    2.80
  -2  -4  10   46.00    3.40
  -2  -4  10   50.89    2.70
  -2  -4  10   45.20    3.30
   1   4 -10   24.70    2.10
   1   4 -10   25.90    1.90
  -1  -4  10   22.40    2.40
  -1  -4  10   26.00    2.00
  -1  -4  10   27.50    2.10
  -1  -4  10   23.00    2.10
   0   4 -10    1.00    0.70
   0   4 -10    0.00    0.80
   0   4 -10    0.20    0.60
   0   4 -10    0.20    0.90
   0  -4  10   -0.20    0.80
   0  -4  10    0.50    0.30
   0  -4  10    0.80    1.10
   0  -4  10    0.40    0.80
  -1   4 -10    0.20    0.80
  -1   4 -10   -0.60    0.90
  -1   4 -10    0.50    0.70
  -1   4 -10   -0.80    0.70
   1  -4  10   -0.30    0.70
   1  -4  10   -1.10    1.10
   1  -4  10   -0.10    0.80
  -2   4 -10    3.70    1.20
  -2   4 -10    4.30    1.30
  -2   4 -10    4.20    1.40
   2  -4  10    6.00    1.60
   2  -4  10    4.90    0.70
  -3   4 -10    1.10    1.40
  -3   4 -10    0.30    1.10
  -3   4 -10    3.60    1.50
  -4   4 -10    0.50    1.30
  -4   4 -10    0.40    1.30
  -4   4 -10   -1.70    1.50
   4  -4  10    0.10    1.10
   5   3 -10   -1.30    1.50
   5   3 -10    0.10    1.30
  -5  -3  10    0.10    0.80
  -5  -3  10    2.10    1.70
   4   3 -10   24.80    2.30
   4   3 -10   23.30    1.60
   4   3 -10   21.90    2.00
   4   3 -10   26.60    3.00
  -4  -3  10   26.20    3.10
  -4  -3  10   23.00    2.00
   3   3 -10    4.80    1.10
   3   3 -10    5.40    1.20
   3   3 -10    4.50    1.10
   3   3 -10    5.00    0.90
  -3  -3  10    4.60    1.50
  -3  -3  10    4.40    0.90
  -3  -3  10    3.10    1.00
   2   3 -10   12.70    1.30
   2   3 -10   10.30    1.60
   2   3 -10   12.40    1.60
   2   3 -10   11.00    1.30
  -2  -3  10    7.80    1.60
  -2  -3  10   12.50    1.40
  -2  -3  10   10.80    1.40
  -2  -3  10    9.10    1.30
   1   3 -10   38.80    2.50
   1   3 -10   35.50    2.30
   1   3 -10   30.70    2.10
  -1  -3  10   38.50    2.30
  -1  -3  10   34.50    2.40
  -1  -3  10   33.80    2.50
  -1  -3  10   32.90    2.80
   0   3 -10   75.59    4.00
   0   3 -10   76.79    3.30
   0   3 -10   72.89    3.60
   0   3 -10   81.89    3.90
   0  -3  10   78.09    3.90
   0  -3  10   70.89    4.10
   0  -3  10   74.79    3.70
  -1   3 -10    1.30    0.90
  -1   3 -10    1.10    1.00
  -1   3 -10    1.00    0.90
   1  -3  10    2.30    0.90
   1  -3  10    0.20    1.20
  -2   3 -10    1.60    1.20
  -2   3 -10    1.40    1.00
  -2   3 -10    1.10    1.20
   2  -3  10    2.30    1.30
  -3   3 -10   18.20    2.50
  -3   3 -10   15.70    2.40
  -3   3 -10   13.20    2.00
   3  -3  10   18.40    1.70
   3  -3  10   11.60    1.70
  -4   3 -10    0.90    1.30
  -4   3 -10   -0.60    1.70
  -4   3 -10   -0.90    1.30
   4  -3  10    0.50    1.10
   6   2 -10    0.00    1.60
   6   2 -10   -0.70    1.70
  -6  -2  10    0.80    0.90
  -6  -2  10   -2.30    1.70
   5   2 -10    9.00    2.10
   5   2 -10   16.60    2.30
  -5  -2  10   12.40    1.50
  -5  -2  10   18.10    2.90
   4   2 -10    1.10    1.10
   4   2 -10    1.00    1.30
  -4  -2  10    2.60    1.40
  -4  -2  10    0.90    0.80
   3   2 -10   11.50    1.80
   3   2 -10   16.40    1.30
   3   2 -10   15.20    1.60
  -3  -2  10   13.10    2.10
  -3  -2  10   16.90    1.50
  -3  -2  10   12.70    1.50
   2   2 -10   22.00    1.60
   2   2 -10   21.70    2.00
   2   2 -10   21.20    2.00
   2   2 -10   21.20    1.60
  -2  -2  10   23.70    1.90
  -2  -2  10   21.10    1.70
  -2  -2  10   20.40    2.30
  -2  -2  10   21.20    1.90
   1   2 -10   73.99    3.60
   1   2 -10   78.39    3.70
   1   2 -10   77.89    3.80
   1   2 -10   72.99    3.90
  -1  -2  10   76.09    4.20
  -1  -2  10   76.99    3.90
  -1  -2  10   76.79    3.90
  -1  -2  10   76.99    3.60
   0   2 -10    1.70    0.80
   0   2 -10    0.80    0.80
   0   2 -10    2.50    1.20
   0  -2  10    1.30    1.20
   0  -2  10    2.80    1.00
  -1   2 -10   14.70    1.70
  -1   2 -10   13.90    1.70
  -1   2 -10   13.60    1.90
   1  -2  10   14.00    1.80
   1  -2  10   13.60    2.00
  -2   2 -10   10.90    1.80
  -2   2 -10    7.60    1.60
  -2   2 -10   10.60    1.90
   2  -2  10    8.00    1.80
  -3   2 -10    1.30    1.50
  -3   2 -10    0.50    1.10
  -3   2 -10   -1.20    1.30
   3  -2  10   -0.10    0.90
   3  -2  10    1.20    0.90
  -4   2 -10    2.20    1.70
  -4   2 -10   -2.00    1.70
  -4   2 -10   -2.00    1.10
   4  -2  10   -0.40    1.10
   6   1 -10   -0.40    1.60
   6   1 -10    0.10    1.60
  -6  -1  10    0.60    0.80
  -6  -1  10    0.40    2.00
   5   1 -10    0.50    1.50
   5   1 -10   -0.30    1.20
  -5  -1  10   -1.10    1.40
  -5  -1  10   -0.10    0.60
   4   1 -10    2.10    1.00
   4   1 -10    1.50    1.40
  -4  -1  10    0.40    0.80
  -4  -1  10    2.70    1.60
   3   1 -10   20.90    1.50
   3   1 -10   22.90    1.80
   3   1 -10   22.90    2.20
  -3  -1  10   21.30    1.80
  -3  -1  10   25.60    2.70
  -3  -1  10   24.10    1.60
  -3  -1  10   19.70    2.70
   2   1 -10    4.90    0.90
   2   1 -10    4.00    1.10
   2   1 -10    3.70    1.10
   2   1 -10    3.50    0.80
  -2  -1  10    3.30    1.00
  -2  -1  10    3.50    1.30
  -2  -1  10    4.50    0.90
  -2  -1  10    4.20    1.00
   1   1 -10    1.40    1.00
   1   1 -10   -0.50    0.70
   1   1 -10    0.30    0.50
  -1  -1  10    0.90    1.10
  -1  -1  10    0.20    0.70
  -1  -1  10    0.40    0.80
   0   1 -10   38.30    2.20
   0   1 -10   37.00    2.10
   0   1 -10   37.10    2.80
   0   1 -10   40.40    2.60
   0  -1  10   37.40    2.60
   0  -1  10   37.90    3.10
  -1   1 -10    1.70    0.70
  -1   1 -10    0.10    0.90
  -1   1 -10    1.00    1.10
  -1   1 -10    0.30    0.90
   1  -1  10    1.40    0.90
   1  -1  10   -0.50    1.20
  -2   1 -10   -0.70    0.80
  -2   1 -10    0.40    1.20
  -2   1 -10   -0.30    1.20
   2  -1  10   -1.80    1.30
  -3   1 -10    4.30    1.50
  -3   1 -10    3.30    1.70
  -3   1 -10    5.50    1.90
   3  -1  10    5.10    1.30
  -4   1 -10   -0.30    1.50
  -4   1 -10    1.00    1.30
  -4   1 -10    0.40    1.30
  -4   1 -10    0.80    1.90
   4  -1  10    2.50    1.50
   4  -1  10    1.60    1.30
   4  -1  10    3.90    1.30
   6   0 -10    2.30    2.00
   6   0 -10   -1.90    1.40
  -6   0  10   -0.80    1.70
  -6   0  10    0.00    0.70
   5   0 -10    1.40    1.60
  -5   0  10   -0.20    1.60
  -5   0  10    2.20    0.80
   4   0 -10   35.90    3.20
  -4   0  10   37.00    2.40
  -4   0  10   47.00    3.60
   3   0 -10    6.90    1.50
   3   0 -10    7.10    1.20
  -3   0  10    7.70    1.60
  -3   0  10    4.00    1.00
   2   0 -10   20.00    1.90
   2   0 -10   15.30    1.70
   2   0 -10   17.10    2.10
  -2   0  10   14.20    1.60
  -2   0  10   13.80    1.60
  -2   0  10   14.50    2.00
   1   0 -10    0.20    0.90
   1   0 -10    0.00    0.70
   1   0 -10   -0.20    0.20
  -1   0  10    0.40    0.80
  -1   0  10    1.10    0.80
  -1   0  10    0.30    1.10
   0   0 -10   19.60    1.90
   0   0 -10   20.60    2.20
   0   0 -10   20.60    1.60
   0   0 -10   20.80    1.70
   0   0  10   16.20    2.20
   0   0  10   16.60    1.90
  -1   0 -10    1.00    1.00
  -1   0 -10    2.00    1.20
  -1   0 -10    1.00    0.90
   1   0  10    1.70    1.00
   1   0  10    1.10    1.30
  -2   0 -10    1.20    1.30
  -2   0 -10   -1.60    0.90
  -2   0 -10   -0.30    1.10
   2   0  10   -1.20    1.20
  -3   0 -10    1.50    1.30
  -3   0 -10    3.80    1.80
  -3   0 -10    6.70    2.10
   3   0  10    4.30    1.20
  -4   0 -10   -0.40    1.70
  -4   0 -10    0.70    1.30
  -4   0 -10    1.70    2.00
  -4   0 -10   -1.90    1.20
   4   0  10    0.70    1.10
   4   0  10    0.00    1.30
   4   0  10    3.10    1.40
   6  -1 -10   -1.50    1.60
  -6   1  10   -0.90    1.70
   5  -1 -10    1.40    1.60
  -5   1  10    3.00    0.80
  -5   1  10    1.10    1.70
   4  -1 -10   -0.10    1.20
  -4   1  10   -0.20    1.40
  -4   1  10    0.40    0.70
   3  -1 -10    9.50    1.60
   3  -1 -10   10.30    1.40
  -3   1  10    6.80    1.10
  -3   1  10   10.50    1.90
   2  -1 -10   86.19    4.30
   2  -1 -10   91.09    4.20
  -2   1  10   85.99    4.20
  -2   1  10   85.09    4.70
   1  -1 -10   13.50    1.50
   1  -1 -10   10.60    1.70
   1  -1 -10   11.90    1.10
  -1   1  10   12.70    1.60
  -1   1  10    9.30    1.80
   0  -1 -10    6.70    1.30
   0  -1 -10    8.00    1.30
   0  -1 -10    5.30    0.90
   0  -1 -10    6.00    1.60
   0   1  10    5.20    1.20
   0   1  10    5.80    1.60
  -1  -1 -10    6.30    1.40
  -1  -1 -10    7.30    1.50
  -1  -1 -10    7.40    1.70
   1   1  10    5.60    1.70
   1   1  10    5.60    1.30
  -2  -1 -10    0.60    1.30
  -2  -1 -10   -0.60    0.90
  -2  -1 -10    1.40    1.50
   2   1  10   -0.80    0.80
   2   1  10    2.10    1.50
  -3  -1 -10   -0.30    1.20
  -3  -1 -10    0.20    1.70
  -3  -1 -10   -0.80    1.20
  -3  -1 -10    1.50    1.80
   3   1  10    1.20    1.20
   3   1  10   -0.80    0.80
  -4  -1 -10    0.30    2.00
  -4  -1 -10    1.50    2.20
   4   1  10    3.10    1.40
   6  -2 -10    1.10    1.80
  -6   2  10    1.00    1.80
   5  -2 -10    0.50    1.40
  -5   2  10    1.60    0.70
  -5   2  10    0.10    1.60
   4  -2 -10    3.90    1.60
  -4   2  10    3.00    0.90
  -4   2  10    1.80    1.40
   3  -2 -10    7.80    1.20
   3  -2 -10    5.10    1.40
  -3   2  10    7.60    1.20
  -3   2  10    9.20    1.80
   2  -2 -10    3.30    1.10
   2  -2 -10    2.80    1.00
  -2   2  10    2.00    1.30
  -2   2  10    2.80    1.00
   1  -2 -10    1.90    0.80
   1  -2 -10    2.00    0.80
   1  -2 -10    2.20    1.20
  -1   2  10    0.60    1.10
  -1   2  10   -0.40    0.80
   0  -2 -10   30.00    2.40
   0  -2 -10   31.40    2.80
   0  -2 -10   33.60    2.40
   0   2  10   32.40    3.00
   0   2  10   27.10    2.40
  -1  -2 -10   -0.20    1.40
  -1  -2 -10    0.30    0.90
  -1  -2 -10   -0.50    1.10
   1   2  10    1.20    1.00
   1   2  10   -0.30    1.20
  -2  -2 -10   -0.50    1.00
  -2  -2 -10    1.90    1.70
  -2  -2 -10   -0.40    1.40
   2   2  10   -0.40    0.80
  -3  -2 -10    1.80    2.00
  -3  -2 -10    2.10    1.40
  -3  -2 -10    3.10    2.00
  -3  -2 -10    3.20    1.50
   3   2  10    3.90    1.60
   6  -3 -10    1.40    1.90
  -6   3  10    1.00    1.90
   5  -3 -10   -0.10    1.50
  -5   3  10   -0.40    0.50
  -5   3  10   -1.70    1.50
   4  -3 -10   11.50    2.00
  -4   3  10   10.40    1.30
  -4   3  10   13.90    2.40
   3  -3 -10    0.60    0.80
   3  -3 -10    1.60    1.20
  -3   3  10    0.40    0.80
  -3   3  10    0.40    1.20
   2  -3 -10   15.90    1.80
   2  -3 -10   15.20    1.90
  -2   3  10   17.10    2.30
  -2   3  10   12.40    1.60
   1  -3 -10   11.30    1.40
   1  -3 -10   10.40    1.30
   1  -3 -10   11.20    1.80
  -1   3  10   10.20    1.60
  -1   3  10    7.30    1.70
   0  -3 -10    4.70    1.40
   0  -3 -10    5.80    1.70
   0   3  10    7.30    1.80
   0   3  10    5.60    1.40
  -1  -3 -10    1.70    1.50
  -1  -3 -10    0.70    1.30
   1   3  10    2.70    1.50
   1   3  10   -0.60    0.90
   1   3  10    1.40    1.20
  -2  -3 -10    2.70    1.80
  -2  -3 -10    0.00    1.70
  -2  -3 -10    1.20    1.30
   2   3  10   -0.20    1.10
  -3  -3 -10   -0.90    1.90
  -3  -3 -10    2.60    2.20
  -3  -3 -10   -0.90    1.30
   3   3  10   -1.50    1.30
   5  -4 -10    0.80    1.70
  -5   4  10   -1.00    1.50
  -5   4  10    1.70    0.70
   4  -4 -10   -1.10    1.00
  -4   4  10   -0.40    0.60
  -4   4  10   -0.10    1.40
   3  -4 -10   14.00    1.60
   3  -4 -10   13.40    1.90
   3  -4 -10   10.20    1.20
  -3   4  10   16.40    2.30
  -3   4  10   13.30    1.60
  -3   4  10   12.60    1.40
   2  -4 -10   -0.90    0.70
   2  -4 -10    0.30    1.10
   2  -4 -10   -1.00    0.80
  -2   4  10   -1.20    1.10
  -2   4  10   -0.60    0.70
  -2   4  10   -0.40    0.70
   1  -4 -10   -0.90    0.90
   1  -4 -10   -2.10    0.90
  -1   4  10    0.80    0.80
  -1   4  10   -1.60    1.10
  -1   4  10   -1.40    0.80
   0  -4 -10    8.60    1.70
   0  -4 -10    9.50    1.60
   0  -4 -10   11.40    2.00
   0   4  10   10.80    2.10
   0   4  10    9.60    1.60
   0   4  10    8.60    1.60
  -1  -4 -10    0.80    1.50
  -1  -4 -10    3.70    1.90
  -1  -4 -10    1.50    1.20
   1   4  10    3.30    1.60
   1   4  10    2.30    1.20
  -2  -4 -10   -0.90    1.60
  -2  -4 -10    1.30    1.90
  -2  -4 -10    0.50    1.40
   2   4  10    0.60    1.20
  -3  -4 -10   -0.70    1.50
  -3  -4 -10    0.00    2.20
  -3  -4 -10    0.50    2.30
   3   4  10    2.50    1.70
   5  -5 -10   -1.80    1.60
  -5   5  10    1.10    1.70
  -5   5  10    0.60    0.70
   4  -5 -10   -0.90    1.20
  -4   5  10   -0.10    1.30
  -4   5  10    0.00    0.70
   3  -5 -10    5.90    1.30
   3  -5 -10    5.10    1.00
   3  -5 -10    6.50    1.50
  -3   5  10    4.70    1.60
  -3   5  10    6.80    1.10
  -3   5  10    4.20    1.20
   2  -5 -10    1.30    1.20
   2  -5 -10    0.70    0.80
  -2   5  10    1.90    1.00
  -2   5  10    1.00    0.90
  -2   5  10    0.90    1.40
   1  -5 -10    1.30    1.30
   1  -5 -10    0.00    1.00
   1  -5 -10    0.80    1.10
  -1   5  10    1.40    1.40
  -1   5  10   -1.00    0.80
  -1   5  10    1.30    1.10
   0  -5 -10    1.00    1.10
   0  -5 -10    2.30    1.40
   0  -5 -10    0.80    1.50
   0   5  10    0.20    1.30
   0   5  10    1.10    1.10
   0   5  10   -0.20    1.00
  -1  -5 -10    1.20    1.60
  -1  -5 -10   -1.10    1.20
  -1  -5 -10    4.10    2.00
   1   5  10    2.00    1.30
   1   5  10    0.80    1.40
  -2  -5 -10    0.00    2.00
  -2  -5 -10   -0.60    1.40
  -2  -5 -10    2.30    2.10
   2   5  10    0.10    1.50
  -5   6  10   -1.10    1.90
  -5   6  10   -1.10    0.60
  -4   6  10    1.20    0.90
  -4   6  10    1.10    1.40
   3  -6 -10    3.20    0.90
   3  -6 -10    3.30    1.10
  -3   6  10    2.90    1.00
  -3   6  10    1.90    1.00
  -3   6  10   -0.30    1.30
   2  -6 -10   14.60    2.10
   2  -6 -10   11.80    1.60
  -2   6  10    8.80    2.00
  -2   6  10   11.80    1.80
  -2   6  10   12.60    1.70
   1  -6 -10   -3.00    1.30
   1  -6 -10   -0.20    1.00
   1  -6 -10    1.60    1.20
  -1   6  10   -1.40    0.90
  -1   6  10    0.60    1.00
  -1   6  10   -1.70    1.20
   0  -6 -10   -0.10    1.10
   0  -6 -10    1.20    1.70
   0  -6 -10    1.50    1.70
   0   6  10    1.30    1.40
   0   6  10    1.20    1.30
   0   6  10    1.70    1.30
  -1  -6 -10    1.10    1.40
  -1  -6 -10    1.50    1.80
  -1  -6 -10    2.50    2.00
   1   6  10    2.90    1.40
  -2  -6 -10    1.50    2.20
  -2  -6 -10    4.10    1.70
  -2  -6 -10    1.90    2.30
   2   6  10    3.60    1.60
  -5   7  10    1.00    0.80
  -5   7  10    1.80    1.90
  -4   7  10    3.30    1.10
  -4   7  10   -0.40    2.20
  -3   7  10    1.80    1.10
  -3   7  10   -0.90    1.20
   2  -7 -10    1.50    1.10
   2  -7 -10    2.10    1.40
  -2   7  10    0.50    1.00
  -2   7  10   -0.60    1.00
  -2   7  10    0.30    1.30
   1  -7 -10    0.70    1.60
   1  -7 -10    1.70    1.30
   1  -7 -10   -0.30    1.10
  -1   7  10    2.30    1.30
  -1   7  10    0.30    1.20
  -1   7  10    1.50    1.50
   0  -7 -10    1.40    1.90
   0  -7 -10    0.10    1.20
   0  -7 -10   -1.40    1.70
   0   7  10    0.60    1.30
   0   7  10    0.40    1.40
   0   7  10    0.00    1.20
   0   7  10    1.70    1.60
  -1  -7 -10    5.70    2.20
  -1  -7 -10    2.00    1.50
  -1  -7 -10    1.80    2.10
   1   7  10    2.30    1.50
  -4   8  10   -0.80    0.90
  -4   8  10    0.50    1.60
  -3   8  10    7.90    2.30
   2  -8 -10    3.80    1.30
  -2   8  10    3.10    1.40
  -2   8  10    7.30    2.30
  -2   8  10    4.00    1.40
  -2   8  10    3.60    1.70
   1  -8 -10    0.50    1.70
   1  -8 -10   -2.10    1.00
  -1   8  10   -0.70    1.60
  -1   8  10   -0.10    1.40
  -1   8  10   -1.90    1.10
  -1   8  10    0.90    1.30
   0  -8 -10   -2.30    1.70
   0  -8 -10   -0.90    1.20
   0  -8 -10   -2.00    1.70
   0   8  10   -0.40    1.30
  -1  -8 -10    0.30    2.30
  -1  -8 -10    3.90    2.40
  -4   9  10    0.20    1.10
  -4   9  10    3.10    2.10
  -3   9  10    5.40    2.30
  -3   9  10   -0.20    1.20
   2  -9 -10    2.80    1.20
  -2   9  10    1.10    1.20
  -2   9  10    2.40    2.00
  -2   9  10    2.40    1.40
   1  -9 -10   -1.50    1.30
  -1   9  10   -0.10    1.80
  -1   9  10   -0.60    1.20
  -1   9  10    0.90    1.50
  -1   9  10   -0.90    1.70
   0  -9 -10    1.10    1.50
   0  -9 -10   -0.50    2.20
   0   9  10    2.00    1.70
   2 -10 -10    2.30    1.40
  -2  10  10    1.80    1.40
  -2  10  10    4.30    2.10
  -2  10  10    3.40    1.60
   1  15 -11   -0.30    1.40
   1  15 -11    0.20    2.30
  -1 -15  11   -1.60    1.30
  -1 -15  11   -0.30    1.60
   0  15 -11    0.70    1.60
   0  15 -11    1.60    2.20
   0 -15  11    1.00    1.40
   0 -15  11   -2.20    1.30
  -1  15 -11    1.20    2.20
  -1  15 -11    3.10    1.60
   1 -15  11    1.30    1.50
   1 -15  11   -0.80    1.40
  -2  15 -11    1.20    1.40
  -2  15 -11   -0.20    1.20
  -2  15 -11    5.10    2.50
   2 -15  11   -0.30    1.40
   2 -15  11   -1.10    1.20
   2  14 -11    3.20    2.20
   2  14 -11    0.40    1.50
  -2 -14  11    1.50    1.70
   1  14 -11    2.90    1.80
   1  14 -11    2.90    2.30
  -1 -14  11    1.90    1.60
   0  14 -11    1.40    2.20
   0  14 -11    3.70    1.60
   0 -14  11    3.00    1.60
   0 -14  11    4.50    1.70
  -1  14 -11    2.80    2.10
  -1  14 -11   -0.90    1.10
   1 -14  11    2.20    1.60
   1 -14  11    0.70    1.30
  -2  14 -11   -0.50    1.30
  -2  14 -11   -1.00    1.20
  -2  14 -11    0.70    1.80
   2 -14  11   -0.90    1.10
   2 -14  11   -1.30    1.20
  -3  14 -11   -0.50    1.10
  -3  14 -11    0.90    1.30
  -3  14 -11    0.10    1.80
   3 -14  11    0.90    1.40
   3 -14  11   -1.60    1.00
   3 -14  11   -0.60    1.10
   2  13 -11    1.40    1.40
   2  13 -11    2.50    2.20
  -2 -13  11    2.30    1.60
   1  13 -11    0.00    1.30
   1  13 -11   -0.10    1.90
  -1 -13  11   -0.90    1.30
   0  13 -11   -0.40    1.70
   0  13 -11   -0.40    1.20
   0 -13  11   -0.60    1.30
  -1  13 -11    2.60    1.90
  -1  13 -11   -0.30    1.20
  -1  13 -11    1.10    1.20
   1 -13  11    0.50    1.10
   1 -13  11    0.80    1.40
  -2  13 -11    2.60    1.40
  -2  13 -11    2.20    1.90
  -2  13 -11    2.60    1.30
   2 -13  11    4.70    1.50
   2 -13  11    1.30    1.40
  -3  13 -11   -0.20    1.80
  -3  13 -11    1.20    1.20
  -3  13 -11   -0.40    1.80
  -3  13 -11    0.60    1.30
   3 -13  11    1.10    1.30
   3 -13  11    0.70    1.10
   3  12 -11    3.00    1.60
  -3 -12  11    3.30    1.60
  -3 -12  11    3.40    2.20
  -3 -12  11    2.30    1.40
   2  12 -11   14.90    2.20
   2  12 -11   14.00    3.00
  -2 -12  11    7.40    1.90
  -2 -12  11   12.40    2.40
  -2 -12  11   12.10    2.10
   1  12 -11   -1.10    1.10
   1  12 -11    0.30    2.00
  -1 -12  11   -0.60    1.20
  -1 -12  11   -1.20    1.20
   0  12 -11    5.30    1.60
   0  12 -11    2.30    2.10
   0 -12  11    1.80    1.30
  -1  12 -11   14.60    2.30
  -1  12 -11   15.80    2.90
  -1  12 -11   13.60    2.10
   1 -12  11   13.90    2.20
  -2  12 -11    2.50    1.80
  -2  12 -11    0.40    1.20
  -2  12 -11   -0.60    1.10
   2 -12  11    0.90    1.20
   2 -12  11    2.60    1.40
  -3  12 -11    0.40    1.60
  -3  12 -11    2.70    1.50
  -3  12 -11    3.20    1.30
  -3  12 -11    2.60    2.00
   3 -12  11   -0.30    1.00
   3 -12  11    3.30    1.50
  -4  12 -11    3.00    1.60
  -4  12 -11    2.40    2.20
  -4  12 -11    1.20    1.60
  -4  12 -11    0.60    1.20
   4 -12  11    3.80    1.50
   4 -12  11   -1.50    0.90
   4 -12  11   -0.60    1.00
   3  11 -11    5.20    1.60
  -3 -11  11    3.50    1.50
  -3 -11  11    4.80    1.70
  -3 -11  11    3.50    2.00
   2  11 -11   -0.10    1.80
   2  11 -11   -1.40    1.00
  -2 -11  11    0.50    1.20
  -2 -11  11   -1.00    1.20
  -2 -11  11    1.00    1.60
   1  11 -11    2.60    1.30
   1  11 -11    3.80    2.00
  -1 -11  11    3.00    1.40
  -1 -11  11    0.90    1.30
  -1 -11  11    4.40    1.50
   0  11 -11    5.00    2.20
   0  11 -11    2.70    1.20
   0 -11  11    3.00    1.30
   0 -11  11    6.60    1.60
  -1  11 -11    1.30    1.60
  -1  11 -11    0.50    1.20
  -1  11 -11   -0.20    1.00
   1 -11  11   -0.40    1.10
  -2  11 -11    2.70    1.30
  -2  11 -11    1.80    1.10
  -2  11 -11    3.00    1.90
   2 -11  11    3.20    1.40
   2 -11  11    0.90    1.00
  -3  11 -11    0.50    1.00
  -3  11 -11    0.10    1.20
  -3  11 -11   -2.20    1.30
  -3  11 -11    0.50    1.70
   3 -11  11    1.40    1.10
   3 -11  11   -0.50    1.10
  -4  11 -11    1.10    1.10
  -4  11 -11   -0.40    1.50
  -4  11 -11   -0.80    1.70
   4 -11  11   -2.60    1.00
   4 -11  11    0.30    1.10
   4 -11  11    0.50    1.20
   4  10 -11    1.10    1.30
   4  10 -11   -0.10    1.40
   4  10 -11   -0.30    1.30
  -4 -10  11   -1.50    1.10
  -4 -10  11   -0.50    1.90
  -4 -10  11    0.80    1.30
   3  10 -11   -1.20    1.00
   3  10 -11   -0.70    1.10
  -3 -10  11   -0.50    1.20
  -3 -10  11   -2.60    1.50
  -3 -10  11   -1.10    1.10
   2  10 -11   39.90    3.00
   2  10 -11   44.10    3.80
  -2 -10  11   45.00    3.20
  -2 -10  11   43.60    3.70
  -2 -10  11   37.10    3.30
   1  10 -11   13.40    1.90
   1  10 -11   15.50    2.70
  -1 -10  11   14.10    2.00
  -1 -10  11    9.40    1.80
  -1 -10  11   14.30    2.10
   0  10 -11    6.30    2.30
   0  10 -11    0.90    1.10
   0  10 -11    4.30    1.30
   0 -10  11    4.60    1.40
   0 -10  11    2.90    1.30
   0 -10  11    5.20    1.50
  -1  10 -11    7.50    1.60
  -1  10 -11    9.20    1.60
  -1  10 -11   11.00    2.30
   1 -10  11   12.00    1.90
   1 -10  11    9.80    1.70
  -2  10 -11    2.90    1.30
  -2  10 -11    3.60    1.80
  -2  10 -11    2.70    1.80
  -2  10 -11    1.00    1.10
   2 -10  11    2.30    1.20
   2 -10  11    2.80    1.20
   2 -10  11    2.90    1.10
  -3  10 -11    0.80    1.10
  -3  10 -11   -0.60    1.00
  -3  10 -11   -2.30    1.20
  -3  10 -11    0.20    1.60
   3 -10  11   -1.10    0.90
   3 -10  11   -0.10    0.90
  -4  10 -11   -1.20    1.20
  -4  10 -11    1.40    2.00
  -4  10 -11    2.40    2.00
  -4  10 -11    0.90    1.40
   4 -10  11   -1.20    0.90
   4   9 -11   -0.10    1.20
   4   9 -11    0.50    1.10
   4   9 -11    0.20    1.60
  -4  -9  11   -0.30    1.20
  -4  -9  11   -0.50    1.10
  -4  -9  11   -0.30    1.90
   3   9 -11    2.00    1.10
   3   9 -11    1.40    1.20
  -3  -9  11    1.10    1.20
  -3  -9  11    1.40    1.30
  -3  -9  11    0.90    1.80
   2   9 -11   12.30    1.40
   2   9 -11   12.20    2.50
   2   9 -11    8.70    1.70
  -2  -9  11    9.40    1.80
  -2  -9  11    9.80    2.10
  -2  -9  11    9.10    1.80
   1   9 -11   -1.20    0.80
   1   9 -11   -1.20    1.50
  -1  -9  11   -1.00    0.90
  -1  -9  11    0.30    1.00
  -1  -9  11   -0.10    1.10
   0   9 -11   13.50    1.90
   0   9 -11   15.50    1.90
   0   9 -11   21.70    3.00
   0  -9  11   13.90    1.90
   0  -9  11   16.90    2.10
   0  -9  11   20.00    2.20
  -1   9 -11   11.00    1.60
  -1   9 -11   12.10    1.90
  -1   9 -11   12.50    2.60
   1  -9  11   15.60    2.00
   1  -9  11   11.60    1.70
  -2   9 -11   -1.60    1.30
  -2   9 -11    1.10    1.00
  -2   9 -11    0.70    1.00
  -2   9 -11    0.70    1.40
   2  -9  11   -2.00    0.90
   2  -9  11    1.20    1.10
  -3   9 -11    4.00    1.80
  -3   9 -11    1.50    1.50
  -3   9 -11    0.30    0.90
   3  -9  11    0.90    1.10
   3  -9  11    2.20    1.10
  -4   9 -11    0.20    1.20
  -4   9 -11    0.80    1.80
  -4   9 -11    1.10    1.60
   4  -9  11    0.30    1.00
   4   8 -11   -0.50    1.10
   4   8 -11    1.40    1.10
   4   8 -11    2.30    1.50
  -4  -8  11   -0.10    1.10
  -4  -8  11    0.70    1.20
  -4  -8  11    2.20    2.20
   3   8 -11    4.00    1.20
   3   8 -11    2.00    1.00
  -3  -8  11    2.00    1.80
  -3  -8  11    4.30    1.40
  -3  -8  11    4.30    1.40
   2   8 -11   21.20    2.10
   2   8 -11   20.40    1.60
  -2  -8  11   16.90    2.10
  -2  -8  11   19.50    2.10
  -2  -8  11   19.10    2.60
   1   8 -11   22.50    3.00
   1   8 -11   21.50    2.20
  -1  -8  11   20.20    2.30
  -1  -8  11   21.80    2.40
  -1  -8  11   23.30    2.30
   0   8 -11   -1.20    0.70
   0   8 -11   -0.20    0.90
   0   8 -11   -2.20    1.30
   0  -8  11    0.90    1.10
   0  -8  11   -0.40    0.80
   0  -8  11   -0.30    0.90
  -1   8 -11    7.40    2.00
  -1   8 -11    5.90    1.40
  -1   8 -11    6.90    1.40
  -1   8 -11    5.80    1.70
   1  -8  11    4.10    1.30
   1  -8  11    6.00    1.40
   1  -8  11    5.80    1.50
  -2   8 -11    8.20    2.10
  -2   8 -11    6.10    1.40
  -2   8 -11    7.60    1.50
  -2   8 -11    9.00    2.00
   2  -8  11    9.20    1.70
   2  -8  11    7.60    1.50
  -3   8 -11   -2.00    1.30
  -3   8 -11    1.70    1.00
  -3   8 -11    0.90    1.50
  -3   8 -11   -0.90    1.00
  -3   8 -11    0.30    1.40
   3  -8  11    0.40    1.00
   3  -8  11    0.80    1.10
  -4   8 -11    2.60    1.50
  -4   8 -11    0.80    1.80
  -4   8 -11    0.70    1.40
   4  -8  11    1.10    1.10
   5   7 -11    9.30    2.40
   5   7 -11    8.90    2.00
  -5  -7  11    7.20    1.60
  -5  -7  11   12.40    2.90
   4   7 -11    1.60    1.10
   4   7 -11    4.30    1.70
   4   7 -11    3.30    1.30
  -4  -7  11    3.10    1.40
  -4  -7  11    5.40    2.20
  -4  -7  11    3.20    1.40
   3   7 -11   -1.60    0.80
   3   7 -11    0.20    0.90
   3   7 -11    0.00    1.10
  -3  -7  11   -1.40    1.40
  -3  -7  11   -0.30    0.90
  -3  -7  11   -0.20    0.90
   2   7 -11    5.80    1.20
   2   7 -11    8.50    1.10
  -2  -7  11    7.70    1.40
  -2  -7  11    8.30    1.90
  -2  -7  11    5.40    1.40
   1   7 -11   14.00    1.70
   1   7 -11   12.60    2.30
   1   7 -11   11.80    1.70
  -1  -7  11   13.80    1.70
  -1  -7  11   14.80    1.90
  -1  -7  11   12.80    2.00
   0   7 -11    9.20    1.40
   0   7 -11   15.40    2.40
   0   7 -11   13.30    1.80
   0  -7  11   11.30    1.70
   0  -7  11   13.20    1.70
   0  -7  11   14.30    2.00
  -1   7 -11   13.10    1.80
  -1   7 -11   14.70    2.40
  -1   7 -11   15.40    2.10
  -1   7 -11   12.10    1.70
   1  -7  11   14.00    1.70
   1  -7  11   12.80    1.70
   1  -7  11   14.30    2.10
  -2   7 -11    0.80    0.90
  -2   7 -11    2.40    1.50
  -2   7 -11   -1.20    1.10
  -2   7 -11    0.20    1.10
   2  -7  11   -1.20    1.00
   2  -7  11    0.00    1.00
  -3   7 -11    3.10    1.30
  -3   7 -11    2.20    1.50
  -3   7 -11    0.10    1.40
  -3   7 -11   -2.00    1.20
   3  -7  11   -0.20    0.80
  -4   7 -11   -0.60    1.70
  -4   7 -11    0.60    1.40
  -4   7 -11    0.40    1.10
   4  -7  11   -0.40    1.00
   5   6 -11    0.50    1.80
   5   6 -11    0.90    1.40
  -5  -6  11    2.30    1.20
  -5  -6  11    3.60    2.20
   4   6 -11   19.10    1.90
   4   6 -11   17.90    2.20
   4   6 -11   19.60    2.70
  -4  -6  11   18.20    2.90
  -4  -6  11   22.60    2.20
  -4  -6  11   14.60    2.00
   3   6 -11    1.40    0.90
   3   6 -11    0.90    1.30
   3   6 -11    2.10    1.00
  -3  -6  11    2.50    1.10
  -3  -6  11    1.90    1.10
  -3  -6  11    0.90    1.50
   2   6 -11    9.30    1.10
   2   6 -11    6.10    1.20
  -2  -6  11    9.10    1.40
  -2  -6  11    4.30    1.20
  -2  -6  11    7.90    1.70
   1   6 -11   29.20    2.30
   1   6 -11   27.80    2.10
  -1  -6  11   27.90    2.20
  -1  -6  11   30.80    2.80
  -1  -6  11   28.10    2.40
   0   6 -11   30.90    2.20
   0   6 -11   32.40    2.50
   0   6 -11   34.20    2.70
   0   6 -11   33.80    3.00
   0  -6  11   30.70    2.50
   0  -6  11   27.40    2.30
   0  -6  11   30.10    2.80
  -1   6 -11    2.70    1.50
  -1   6 -11    1.20    1.20
  -1   6 -11    2.80    1.00
  -1   6 -11    3.00    1.00
   1  -6  11    3.50    1.10
   1  -6  11    3.40    1.40
   1  -6  11    0.90    0.90
  -2   6 -11    0.70    1.00
  -2   6 -11    0.40    1.00
  -2   6 -11   -0.60    1.20
  -2   6 -11    0.20    1.10
  -2   6 -11    0.20    1.20
   2  -6  11    0.20    0.90
   2  -6  11   -0.40    1.10
  -3   6 -11    4.80    1.50
  -3   6 -11    6.20    1.80
  -3   6 -11    4.00    1.50
  -3   6 -11    3.60    1.60
   3  -6  11    1.20    0.90
  -4   6 -11    3.20    1.90
  -4   6 -11   -0.30    1.20
  -4   6 -11   -0.70    1.40
   4  -6  11   -0.90    0.90
   5   5 -11   23.50    3.20
   5   5 -11   22.90    2.80
  -5  -5  11   12.70    1.90
  -5  -5  11   20.90    3.30
   4   5 -11    8.40    1.60
   4   5 -11    6.60    1.20
   4   5 -11    6.20    1.80
  -4  -5  11    6.40    1.40
  -4  -5  11    9.70    2.40
  -4  -5  11    3.90    1.20
   3   5 -11   -0.50    0.80
   3   5 -11   -0.20    0.80
   3   5 -11    0.50    0.70
  -3  -5  11    0.10    0.90
  -3  -5  11   -0.10    0.80
  -3  -5  11    1.20    1.40
   2   5 -11   11.60    1.40
  -2  -5  11   14.90    2.10
  -2  -5  11   15.40    1.70
  -2  -5  11   13.00    1.70
   1   5 -11   66.59    3.70
   1   5 -11   62.69    3.30
  -1  -5  11   59.69    3.40
  -1  -5  11   64.89    3.70
  -1  -5  11   69.29    4.10
   0   5 -11    1.20    1.00
   0   5 -11    1.80    0.80
   0   5 -11    0.80    0.90
   0   5 -11    2.20    0.90
   0  -5  11    0.60    1.30
   0  -5  11    2.20    1.10
   0  -5  11    1.40    1.00
  -1   5 -11    6.80    1.50
  -1   5 -11    5.90    1.20
  -1   5 -11    2.10    1.00
  -1   5 -11    5.20    1.60
  -1   5 -11    2.60    1.00
   1  -5  11    4.00    1.10
   1  -5  11    2.80    1.00
   1  -5  11    7.40    1.70
  -2   5 -11    0.00    1.10
  -2   5 -11    2.00    1.10
  -2   5 -11   -0.30    1.10
  -2   5 -11    1.80    1.20
   2  -5  11    1.00    1.40
  -3   5 -11    1.50    1.50
  -3   5 -11    3.80    1.70
  -3   5 -11    2.10    1.30
  -4   5 -11   -0.10    1.50
  -4   5 -11   -0.50    1.20
  -4   5 -11    2.10    1.90
   4  -5  11    0.90    1.20
   5   4 -11    4.20    1.70
   5   4 -11    3.30    1.90
  -5  -4  11    5.20    2.30
  -5  -4  11    3.10    1.20
   4   4 -11    8.50    1.30
   4   4 -11    9.20    1.60
   4   4 -11    9.40    2.10
  -4  -4  11    7.60    1.40
  -4  -4  11    8.20    2.10
   3   4 -11    1.00    0.70
   3   4 -11   -0.20    0.80
   3   4 -11    0.10    0.90
  -3  -4  11    1.30    0.80
  -3  -4  11    0.60    0.80
  -3  -4  11    1.70    1.40
   2   4 -11    1.00    1.10
   2   4 -11    3.10    0.90
   2   4 -11    3.40    1.20
  -2  -4  11    3.80    1.00
  -2  -4  11    1.70    1.20
  -2  -4  11    4.20    1.00
   1   4 -11   20.80    1.90
   1   4 -11   17.10    1.70
   1   4 -11   15.60    2.00
  -1  -4  11   16.30    1.90
  -1  -4  11   16.50    2.10
  -1  -4  11   16.20    1.80
   0   4 -11   24.90    2.40
   0   4 -11   23.40    1.60
   0   4 -11   23.60    2.10
   0   4 -11   22.40    1.90
   0  -4  11   31.00    2.90
   0  -4  11   19.50    2.10
   0  -4  11   22.10    2.10
  -1   4 -11    2.80    1.00
  -1   4 -11    1.30    1.20
  -1   4 -11    0.60    0.80
  -1   4 -11    1.60    0.90
   1  -4  11    0.80    0.90
   1  -4  11    0.00    1.20
   1  -4  11    2.60    1.10
  -2   4 -11   -0.90    1.20
  -2   4 -11   -0.60    1.00
  -2   4 -11    0.80    1.00
   2  -4  11    0.20    1.40
  -3   4 -11    2.40    1.70
  -3   4 -11    2.50    1.40
  -3   4 -11    1.70    1.50
  -4   4 -11   -0.80    1.10
  -4   4 -11   -1.90    1.70
  -4   4 -11    0.60    1.50
   4  -4  11    0.40    1.20
   5   3 -11    6.20    1.80
   5   3 -11    3.50    2.00
  -5  -3  11    8.40    2.30
  -5  -3  11    7.00    1.30
   4   3 -11   48.60    3.10
  -4  -3  11   54.19    4.20
  -4  -3  11   38.50    2.80
   3   3 -11    3.10    1.30
   3   3 -11    2.60    1.10
   3   3 -11    3.80    0.80
  -3  -3  11    0.10    0.80
  -3  -3  11    3.60    1.50
  -3  -3  11    2.50    0.90
   2   3 -11    3.90    1.10
   2   3 -11    5.90    1.00
   2   3 -11    5.30    1.30
  -2  -3  11    5.40    1.10
  -2  -3  11    5.90    1.20
  -2  -3  11    5.90    1.50
   1   3 -11   16.50    1.70
   1   3 -11   17.20    2.00
   1   3 -11   17.20    1.80
  -1  -3  11   18.60    1.80
  -1  -3  11   16.90    2.10
  -1  -3  11   17.60    1.90
   0   3 -11   42.10    2.60
   0   3 -11   36.70    2.70
   0   3 -11   43.60    3.00
   0   3 -11   37.40    2.10
   0  -3  11   33.90    2.50
   0  -3  11   35.20    2.60
   0  -3  11   41.80    3.20
  -1   3 -11    9.00    1.50
  -1   3 -11   12.20    1.60
  -1   3 -11   12.20    1.90
   1  -3  11   10.80    1.90
   1  -3  11    9.10    1.50
  -2   3 -11    2.00    1.30
  -2   3 -11    2.70    1.20
  -2   3 -11    2.60    1.30
   2  -3  11   -0.40    1.50
  -3   3 -11    8.10    2.10
  -3   3 -11    5.80    2.00
  -3   3 -11    7.40    1.80
   3  -3  11    4.80    1.30
  -4   3 -11    1.60    1.50
  -4   3 -11   -1.10    1.70
  -4   3 -11    0.70    1.70
   4  -3  11    1.20    1.10
   5   2 -11   -1.60    1.10
   5   2 -11   -1.10    1.50
  -5  -2  11    2.80    1.80
  -5  -2  11    1.70    0.90
   4   2 -11   -1.20    1.20
  -4  -2  11    1.00    1.70
  -4  -2  11    0.80    0.80
   3   2 -11   14.60    1.70
   3   2 -11   12.90    1.30
   3   2 -11    8.30    1.50
  -3  -2  11   11.90    1.60
  -3  -2  11   16.50    1.60
  -3  -2  11   15.50    2.30
   2   2 -11    0.30    0.60
   2   2 -11   -1.50    0.70
   2   2 -11   -0.50    0.80
  -2  -2  11    0.50    0.70
  -2  -2  11    0.60    0.80
  -2  -2  11   -0.20    1.10
   1   2 -11   11.10    1.40
   1   2 -11    8.50    1.40
   1   2 -11   10.40    1.40
   1   2 -11   10.00    1.60
  -1  -2  11    9.00    1.40
  -1  -2  11   12.00    1.60
  -1  -2  11    8.90    1.70
   0   2 -11   41.00    2.90
   0   2 -11   37.80    2.20
   0   2 -11   37.10    2.60
   0  -2  11   37.40    3.10
   0  -2  11   37.40    2.80
  -1   2 -11   11.80    2.00
  -1   2 -11   13.50    1.80
  -1   2 -11   12.80    1.70
   1  -2  11    9.70    2.00
   1  -2  11   10.40    1.60
  -2   2 -11    2.60    1.60
  -2   2 -11    4.50    1.50
  -2   2 -11    2.60    1.20
   2  -2  11    3.60    1.70
  -3   2 -11    0.20    1.50
  -3   2 -11    1.20    1.30
  -3   2 -11    2.70    1.70
   3  -2  11   -0.60    0.90
  -4   2 -11   -0.90    1.90
  -4   2 -11    0.60    1.80
  -4   2 -11   -0.40    1.20
   4  -2  11    0.00    1.10
   6   1 -11    1.50    1.70
   5   1 -11   -0.70    1.50
  -5  -1  11   -0.20    0.70
  -5  -1  11   -1.90    1.60
   4   1 -11    6.30    1.90
  -4  -1  11    3.90    1.80
  -4  -1  11    4.70    1.00
   3   1 -11   28.90    2.20
   3   1 -11   27.80    2.70
  -3  -1  11   32.30    3.20
  -3  -1  11   25.00    2.10
   2   1 -11   61.39    3.30
   2   1 -11   56.39    3.30
  -2  -1  11   51.69    3.10
  -2  -1  11   58.69    3.90
   1   1 -11  109.49    5.20
   1   1 -11  104.29    4.90
   1   1 -11  112.19    5.00
  -1  -1  11  109.69    5.10
  -1  -1  11  105.19    5.50
   0   1 -11   17.30    1.60
   0   1 -11   14.80    1.80
   0   1 -11   14.90    2.00
   0   1 -11   17.10    1.60
   0  -1  11   11.60    1.70
   0  -1  11   14.40    2.30
  -1   1 -11   -0.10    1.30
  -1   1 -11    0.30    0.80
  -1   1 -11    0.00    0.90
   1  -1  11   -0.60    0.90
   1  -1  11   -0.90    1.20
  -2   1 -11   -0.80    0.90
  -2   1 -11    0.20    1.20
  -2   1 -11   -0.90    1.30
   2  -1  11   -1.60    1.40
  -3   1 -11    2.20    1.80
  -3   1 -11    0.70    1.20
  -3   1 -11    1.60    1.80
   3  -1  11    0.50    1.10
  -4   1 -11    4.10    2.20
  -4   1 -11   -1.20    1.90
  -4   1 -11    1.70    1.40
  -4   1 -11   -0.40    1.40
   4  -1  11    0.80    1.40
   4  -1  11    2.50    1.20
   5   0 -11   -1.30    1.40
  -5   0  11   -0.30    0.70
  -5   0  11   -0.20    1.60
   4   0 -11    4.60    1.70
  -4   0  11    5.40    1.10
  -4   0  11    8.60    2.20
   3   0 -11   -0.50    0.80
   3   0 -11   -0.10    1.20
  -3   0  11    1.90    1.40
  -3   0  11    0.30    0.70
   2   0 -11   23.80    2.30
   2   0 -11   28.30    2.30
  -2   0  11   24.30    2.70
  -2   0  11   24.10    2.10
   1   0 -11    5.70    1.20
   1   0 -11    5.40    1.50
  -1   0  11    6.10    1.70
  -1   0  11    7.30    1.40
   0   0 -11   26.70    2.30
   0   0 -11   33.10    2.10
   0   0 -11   28.40    2.80
   0   0 -11   29.50    1.90
   0   0  11   30.30    2.60
   0   0  11   30.80    3.10
  -1   0 -11   17.30    2.50
  -1   0 -11   14.30    1.90
  -1   0 -11   17.50    2.00
   1   0  11   17.60    2.10
   1   0  11   18.00    2.50
  -2   0 -11   -1.10    0.90
  -2   0 -11   -0.40    1.20
  -2   0 -11   -0.50    1.40
   2   0  11    0.00    1.50
  -3   0 -11    2.60    1.40
  -3   0 -11    2.20    1.80
  -3   0 -11    4.00    2.10
   3   0  11    2.60    1.20
   5  -1 -11   -1.40    1.30
  -5   1  11   -0.20    0.60
  -5   1  11   -0.10    1.70
   4  -1 -11   -0.70    1.10
  -4   1  11    0.80    0.70
  -4   1  11   -1.60    1.30
   3  -1 -11   13.90    1.70
   3  -1 -11    9.30    1.80
  -3   1  11   12.40    2.20
  -3   1  11   11.30    1.50
   2  -1 -11   30.70    2.40
   2  -1 -11   23.70    2.30
  -2   1  11   23.80    2.70
  -2   1  11   24.60    2.10
   1  -1 -11    1.20    0.60
   1  -1 -11    0.20    1.10
   1  -1 -11   -0.10    0.70
  -1   1  11   -1.20    1.20
  -1   1  11   -0.40    0.80
   0  -1 -11   28.60    1.90
   0  -1 -11   33.00    3.00
   0  -1 -11   28.10    2.20
   0   1  11   31.00    2.60
   0   1  11   33.90    3.20
  -1  -1 -11   -0.60    1.10
  -1  -1 -11    2.70    1.20
  -1  -1 -11    0.10    1.40
   1   1  11    0.40    1.00
   1   1  11    1.30    1.50
  -2  -1 -11    0.50    1.10
  -2  -1 -11    0.30    1.60
  -2  -1 -11    0.20    1.40
   2   1  11    0.50    1.70
   2   1  11    0.50    1.00
  -3  -1 -11    0.00    1.90
  -3  -1 -11    0.80    1.80
  -3  -1 -11    0.40    2.00
  -3  -1 -11   -0.60    1.30
   3   1  11   -1.30    1.10
   3   1  11   -1.70    1.20
   5  -2 -11    0.10    1.50
  -5   2  11    0.10    1.80
  -5   2  11    0.20    0.60
   4  -2 -11    1.10    1.30
  -4   2  11    0.00    1.50
  -4   2  11    0.40    0.70
   3  -2 -11    2.50    1.00
   3  -2 -11    3.30    1.30
  -3   2  11    2.90    1.00
  -3   2  11    4.00    1.60
   2  -2 -11    0.10    0.90
   2  -2 -11   -0.10    1.00
  -2   2  11   -0.10    0.80
  -2   2  11   -0.50    1.20
   1  -2 -11    4.00    0.90
   1  -2 -11    3.40    1.00
   1  -2 -11    3.90    1.40
  -1   2  11    3.20    1.50
  -1   2  11    2.40    1.00
   0  -2 -11    7.80    1.80
   0  -2 -11    5.60    1.30
   0   2  11    5.30    1.40
   0   2  11    5.20    1.80
  -1  -2 -11    1.60    1.30
  -1  -2 -11    0.60    1.50
   1   2  11    4.20    1.70
   1   2  11    1.10    1.70
  -2  -2 -11   -1.10    1.10
  -2  -2 -11   -0.70    1.70
  -2  -2 -11    1.60    1.70
   2   2  11    0.10    1.30
  -3  -2 -11    2.90    2.10
  -3  -2 -11   -1.10    1.40
  -3  -2 -11   -0.60    1.80
   3   2  11    0.70    1.40
   5  -3 -11    0.10    1.60
  -5   3  11    2.80    1.80
  -5   3  11    1.80    0.80
   4  -3 -11   -0.10    1.30
  -4   3  11   -0.20    0.60
  -4   3  11   -0.20    1.40
   3  -3 -11    0.90    1.00
   3  -3 -11    0.60    1.20
  -3   3  11   -1.00    1.30
  -3   3  11    0.70    0.90
   2  -3 -11   21.00    2.30
   2  -3 -11   22.30    2.20
  -2   3  11   19.10    2.50
  -2   3  11   22.20    2.10
   1  -3 -11    4.00    1.50
   1  -3 -11    3.90    1.00
   1  -3 -11    4.80    1.10
  -1   3  11    2.00    1.50
  -1   3  11    3.60    1.20
   0  -3 -11    3.30    1.60
   0  -3 -11    2.10    1.20
   0   3  11    1.10    1.10
   0   3  11    3.10    1.60
  -1  -3 -11    0.60    1.50
  -1  -3 -11    0.90    1.20
  -1  -3 -11    0.00    1.60
   1   3  11   -1.10    1.40
   1   3  11    1.40    1.20
  -2  -3 -11    3.90    2.10
  -2  -3 -11    1.60    1.60
  -2  -3 -11    0.70    1.80
   2   3  11    0.30    1.30
  -3  -3 -11   -2.00    1.90
  -3  -3 -11   -2.70    2.10
   5  -4 -11   -3.10    1.60
  -5   4  11    0.60    0.70
  -5   4  11    1.00    1.80
   4  -4 -11   -0.80    1.20
  -4   4  11   -1.10    1.30
  -4   4  11   -0.50    0.70
   3  -4 -11    7.50    1.60
   3  -4 -11    6.40    1.30
   3  -4 -11    6.90    1.10
  -3   4  11    4.00    1.20
  -3   4  11    8.40    1.30
  -3   4  11    6.30    1.90
   2  -4 -11   -1.40    0.90
   2  -4 -11    0.30    1.10
   2  -4 -11    0.70    0.90
  -2   4  11    0.70    0.90
  -2   4  11   -0.40    0.80
  -2   4  11    1.00    1.40
   1  -4 -11    8.50    1.40
   1  -4 -11    8.20    1.50
   1  -4 -11    7.80    1.90
  -1   4  11    3.40    1.70
  -1   4  11    7.60    1.50
  -1   4  11    6.90    1.50
   0  -4 -11    0.90    1.20
   0  -4 -11    1.50    1.20
   0  -4 -11    1.50    1.60
   0   4  11    1.70    1.50
   0   4  11    0.60    1.10
   0   4  11    0.30    1.10
  -1  -4 -11    2.30    1.90
  -1  -4 -11    3.80    1.60
  -1  -4 -11    1.60    1.60
   1   4  11    5.40    2.00
   1   4  11    0.20    1.00
  -2  -4 -11    3.20    2.30
  -2  -4 -11   -0.80    1.40
  -2  -4 -11   -2.10    1.90
   2   4  11   -2.10    1.30
   5  -5 -11    0.10    1.70
  -5   5  11    0.20    0.80
  -5   5  11   -1.00    1.70
   4  -5 -11   -1.00    1.20
  -4   5  11   -0.40    1.50
  -4   5  11   -1.10    0.60
   3  -5 -11   -0.20    0.80
   3  -5 -11   -0.50    1.00
   3  -5 -11    1.50    1.30
  -3   5  11    0.00    1.40
  -3   5  11   -0.40    0.80
  -3   5  11   -0.70    0.80
   2  -5 -11    4.00    1.10
   2  -5 -11    5.70    1.60
  -2   5  11    4.60    1.20
  -2   5  11    2.80    1.60
  -2   5  11    2.20    1.10
   1  -5 -11   -1.00    1.00
   1  -5 -11   -0.70    1.40
   1  -5 -11   -0.10    1.00
  -1   5  11    0.00    1.40
  -1   5  11   -0.10    1.00
  -1   5  11   -0.10    1.00
   0  -5 -11    0.40    1.30
   0  -5 -11   -2.20    1.30
   0  -5 -11    0.50    1.20
   0   5  11    0.60    1.50
   0   5  11   -2.30    1.00
   0   5  11   -1.00    1.00
  -1  -5 -11    0.00    1.70
  -1  -5 -11    2.20    2.10
  -1  -5 -11   -0.20    1.40
   1   5  11    0.30    1.20
   1   5  11    0.90    1.70
  -2  -5 -11    3.70    2.40
  -2  -5 -11   -2.40    1.90
  -2  -5 -11    2.80    1.80
   2   5  11    3.00    1.60
  -5   6  11   -0.10    0.80
  -4   6  11   -0.30    0.80
  -4   6  11    0.20    1.60
  -3   6  11   -1.80    0.80
  -3   6  11   -0.20    1.30
   2  -6 -11    6.40    1.70
   2  -6 -11    6.10    1.40
  -2   6  11    4.60    1.40
  -2   6  11    5.60    1.40
  -2   6  11    4.00    1.80
   1  -6 -11   -1.50    0.90
   1  -6 -11   -1.70    1.40
  -1   6  11    1.60    1.60
  -1   6  11    0.70    1.20
  -1   6  11   -1.80    1.00
   0  -6 -11   -0.90    1.50
   0  -6 -11    0.40    1.30
   0  -6 -11   -0.60    1.80
   0   6  11    1.50    1.30
   0   6  11   -1.90    1.00
   0   6  11   -0.60    1.60
  -1  -6 -11   -0.60    1.50
  -1  -6 -11    4.30    2.20
  -1  -6 -11    3.30    2.10
   1   6  11    0.60    1.40
  -4   7  11   -0.70    0.90
  -3   7  11   -0.30    1.00
  -3   7  11   -0.70    1.50
   2  -7 -11    2.90    1.50
   2  -7 -11    1.60    1.10
  -2   7  11    0.50    1.20
  -2   7  11    1.80    1.60
  -2   7  11    2.20    1.20
   1  -7 -11    1.80    1.40
   1  -7 -11    2.10    1.80
  -1   7  11    2.70    1.50
  -1   7  11    1.40    1.40
  -1   7  11    3.90    1.80
   0  -7 -11   -0.40    1.70
   0  -7 -11   -2.00    1.90
   0  -7 -11    0.20    1.30
   0   7  11    1.90    1.80
   0   7  11   -0.20    1.30
  -1  -7 -11    2.80    2.30
  -1  -7 -11    1.00    2.30
  -4   8  11    4.10    2.20
  -4   8  11   -0.50    1.00
  -3   8  11   -1.30    1.10
  -3   8  11    0.10    1.80
   2  -8 -11    8.10    1.60
  -2   8  11   12.10    2.20
  -2   8  11   12.20    2.70
  -2   8  11    8.70    1.80
  -2   8  11    8.80    2.10
   1  -8 -11   -0.10    1.20
   1  -8 -11    1.70    2.00
  -1   8  11    0.80    1.40
  -1   8  11   -0.10    1.30
  -1   8  11    2.80    2.00
  -1   8  11   -2.00    1.40
   0  -8 -11    0.40    1.50
   0  -8 -11   -0.70    1.90
   0   8  11   -0.20    1.40
  -3   9  11    3.20    2.10
   2  -9 -11    3.20    1.40
  -2   9  11   -1.20    1.20
  -2   9  11    2.30    1.50
  -2   9  11    6.10    2.30
   0  15 -12    1.00    2.50
   0  15 -12    0.10    1.40
   0 -15  12    2.80    1.60
   0 -15  12    2.20    1.70
  -1  15 -12    1.00    2.20
  -1  15 -12    0.80    1.50
   1 -15  12   -1.20    1.40
   1 -15  12    2.00    1.60
  -2  15 -12   -2.50    1.90
   2 -15  12   -0.30    1.30
   1  14 -12    8.50    2.90
   1  14 -12    7.00    1.90
  -1 -14  12    6.60    1.90
   0  14 -12    1.90    2.50
   0  14 -12    0.70    1.30
   0 -14  12    0.50    1.50
  -1  14 -12    2.50    1.60
  -1  14 -12    4.00    2.40
   1 -14  12    0.20    1.40
   1 -14  12    0.80    1.20
  -2  14 -12    1.60    2.10
  -2  14 -12    0.60    1.30
  -2  14 -12    0.30    1.30
   2 -14  12    0.30    1.30
   2 -14  12   -0.80    1.20
  -3  14 -12   -3.00    2.00
   2  13 -12    2.40    1.60
   2  13 -12    2.60    2.30
  -2 -13  12    2.90    1.70
   1  13 -12    2.70    1.50
   1  13 -12    3.60    2.50
  -1 -13  12    0.50    1.50
   0  13 -12    1.50    1.30
   0  13 -12   -2.30    2.10
   0 -13  12   -1.60    1.30
  -1  13 -12    4.10    1.50
  -1  13 -12    3.90    2.10
   1 -13  12    2.60    1.50
   1 -13  12    4.20    1.60
  -2  13 -12   -0.20    1.20
  -2  13 -12    0.00    1.20
  -2  13 -12    1.20    2.00
   2 -13  12    1.20    1.20
   2 -13  12    1.80    1.50
  -3  13 -12   -1.60    1.20
  -3  13 -12    3.00    1.40
  -3  13 -12   -1.40    1.80
  -3  13 -12    0.50    2.00
   3 -13  12   -1.70    1.20
   3 -13  12   -0.70    1.00
   3  12 -12   -0.30    1.40
  -3 -12  12   -2.80    1.60
  -3 -12  12    0.40    1.40
  -3 -12  12   -0.90    1.30
   2  12 -12    5.50    2.50
   2  12 -12    0.60    1.40
  -2 -12  12    2.80    1.60
  -2 -12  12    2.70    1.50
  -2 -12  12    0.70    1.80
   1  12 -12    4.40    2.40
   1  12 -12    7.10    1.70
  -1 -12  12    5.60    1.80
  -1 -12  12    4.70    1.80
   0  12 -12   -0.20    1.10
   0  12 -12    0.50    2.00
   0 -12  12    1.00    1.20
  -1  12 -12   12.10    3.00
  -1  12 -12    7.80    1.90
  -1  12 -12   10.90    1.80
   1 -12  12    6.80    1.70
  -2  12 -12    0.60    1.90
  -2  12 -12    1.00    1.20
  -2  12 -12    1.40    1.30
   2 -12  12    2.30    1.40
   2 -12  12    0.30    1.10
  -3  12 -12    2.40    2.10
  -3  12 -12    0.80    1.20
  -3  12 -12    0.00    1.90
  -3  12 -12   -0.40    1.10
   3 -12  12    0.90    1.20
   3 -12  12   -0.50    1.00
   3  11 -12    0.10    1.30
  -3 -11  12   -1.50    1.20
  -3 -11  12   -0.20    1.30
  -3 -11  12   -0.80    1.70
   2  11 -12    5.60    2.30
   2  11 -12    5.00    1.60
  -2 -11  12    3.00    1.50
  -2 -11  12    3.00    1.90
  -2 -11  12    1.50    1.40
   1  11 -12   18.50    3.20
   1  11 -12   20.70    2.30
  -1 -11  12   16.50    2.40
  -1 -11  12   18.20    2.50
  -1 -11  12   18.90    2.40
   0  11 -12    0.20    2.00
   0  11 -12    0.70    1.00
   0 -11  12    2.00    1.50
   0 -11  12    0.70    1.30
  -1  11 -12    3.20    2.10
  -1  11 -12    0.70    1.10
  -1  11 -12    1.20    1.10
   1 -11  12    0.10    1.20
  -2  11 -12    3.40    1.60
  -2  11 -12    6.80    2.40
  -2  11 -12    5.70    2.20
  -2  11 -12    6.20    1.60
   2 -11  12    4.60    1.40
   2 -11  12    4.70    1.40
  -3  11 -12    0.00    1.80
  -3  11 -12    1.80    1.40
  -3  11 -12    2.00    1.20
  -3  11 -12    0.30    1.80
   3 -11  12    0.90    1.20
   3 -11  12   -0.40    0.90
  -4  11 -12   -1.30    1.50
  -4  11 -12    0.00    1.80
   4  10 -12    0.70    1.70
   4  10 -12    0.00    1.30
  -4 -10  12    0.50    1.30
  -4 -10  12   -2.10    1.30
  -4 -10  12   -0.60    2.00
   3  10 -12   -0.20    1.20
  -3 -10  12    0.10    1.80
  -3 -10  12    1.70    1.50
  -3 -10  12   -1.00    1.20
   2  10 -12   16.20    3.10
   2  10 -12   19.20    2.40
  -2 -10  12   18.80    2.50
  -2 -10  12   16.70    2.30
  -2 -10  12   19.90    2.80
   1  10 -12    7.90    1.60
   1  10 -12    8.50    2.40
  -1 -10  12    7.00    1.90
  -1 -10  12    8.80    1.80
  -1 -10  12   12.40    1.90
   0  10 -12    9.40    2.50
   0  10 -12    5.60    1.40
   0 -10  12    6.70    1.70
   0 -10  12    6.00    1.70
   0 -10  12    5.00    1.50
  -1  10 -12   -1.10    1.60
  -1  10 -12   -1.40    0.90
  -1  10 -12    0.00    1.10
   1 -10  12   -1.30    1.10
   1 -10  12    1.40    1.20
  -2  10 -12   -0.10    1.10
  -2  10 -12   -2.00    1.60
  -2  10 -12    0.20    1.80
  -2  10 -12    0.90    1.10
   2 -10  12   -0.30    1.10
   2 -10  12    1.80    1.30
   2 -10  12    0.90    1.00
  -3  10 -12    0.10    1.10
  -3  10 -12    1.00    1.70
  -3  10 -12    2.90    2.10
   3 -10  12    0.30    1.10
   3 -10  12    0.70    1.00
  -4  10 -12   -2.10    1.70
  -4  10 -12   -0.60    1.20
  -4  10 -12   -1.00    1.60
   4 -10  12    0.80    1.10
   4   9 -12    2.00    1.60
   4   9 -12    1.60    1.30
   4   9 -12    2.30    1.30
  -4  -9  12    0.40    1.30
  -4  -9  12    3.80    1.50
  -4  -9  12    2.60    2.20
   3   9 -12    7.90    1.60
  -3  -9  12    5.70    1.70
  -3  -9  12    9.10    1.80
  -3  -9  12   10.80    2.40
   2   9 -12   -2.00    0.90
  -2  -9  12   -1.70    0.90
  -2  -9  12    1.40    1.30
  -2  -9  12   -2.00    1.40
   1   9 -12    1.70    1.90
   1   9 -12    1.50    1.00
  -1  -9  12    1.40    1.20
  -1  -9  12    0.20    1.40
  -1  -9  12    1.00    1.10
   0   9 -12   29.30    3.70
   0   9 -12   20.30    2.40
   0   9 -12   21.40    2.40
   0  -9  12   24.10    2.50
   0  -9  12   25.20    2.50
   0  -9  12   24.20    2.60
  -1   9 -12    5.30    1.80
  -1   9 -12    1.60    1.20
  -1   9 -12    2.20    1.20
  -1   9 -12    4.00    2.10
   1  -9  12    2.60    1.50
   1  -9  12    2.40    1.30
  -2   9 -12    5.90    2.00
  -2   9 -12    2.30    1.70
  -2   9 -12    3.40    1.30
  -2   9 -12    0.60    1.10
   2  -9  12    5.00    1.50
   2  -9  12    2.60    1.20
  -3   9 -12    0.80    1.70
  -3   9 -12    2.50    1.40
  -3   9 -12    2.40    1.30
  -3   9 -12    0.50    1.60
  -3   9 -12   -0.30    1.50
   3  -9  12    0.50    1.10
   3  -9  12    1.70    1.10
  -4   9 -12   -0.10    1.60
  -4   9 -12    3.30    2.00
  -4   9 -12    0.40    1.30
   4  -9  12   -0.80    1.00
   4   8 -12    4.20    1.50
   4   8 -12    2.50    1.30
   4   8 -12    4.40    1.80
  -4  -8  12    5.50    1.60
  -4  -8  12    3.10    1.50
  -4  -8  12    3.40    2.20
   3   8 -12   -1.80    1.30
   3   8 -12    1.10    0.90
   3   8 -12    0.00    1.00
  -3  -8  12   -1.70    1.10
  -3  -8  12    1.40    1.20
  -3  -8  12   -0.40    1.60
   2   8 -12    2.30    1.10
  -2  -8  12    2.20    1.70
  -2  -8  12    2.00    1.20
  -2  -8  12    3.20    1.30
   1   8 -12   27.70    3.40
   1   8 -12   27.90    2.30
  -1  -8  12   25.60    2.80
  -1  -8  12   26.60    2.50
  -1  -8  12   27.30    2.30
   0   8 -12   -0.50    1.50
   0   8 -12   -0.40    0.90
   0   8 -12    0.60    1.00
   0  -8  12    0.00    1.00
   0  -8  12   -0.10    0.90
   0  -8  12   -1.50    1.20
  -1   8 -12    0.00    0.90
  -1   8 -12   -0.40    1.30
  -1   8 -12   -0.10    1.50
  -1   8 -12   -0.50    0.90
   1  -8  12   -0.50    1.20
   1  -8  12   -1.50    0.90
  -2   8 -12   -1.50    1.30
  -2   8 -12   -0.50    0.80
  -2   8 -12    0.70    1.40
  -2   8 -12    0.50    1.20
   2  -8  12    0.40    1.20
   2  -8  12   -0.60    1.00
  -3   8 -12    0.50    1.10
  -3   8 -12   -0.60    1.60
  -3   8 -12   -2.90    1.40
  -3   8 -12   -0.20    1.10
  -3   8 -12    1.20    1.60
   3  -8  12   -0.50    1.10
   3  -8  12   -1.00    0.80
  -4   8 -12   -2.40    1.40
  -4   8 -12    0.50    1.80
  -4   8 -12   -0.70    1.30
   4  -8  12   -1.50    0.80
   5   7 -12    1.40    1.50
   4   7 -12    6.20    1.50
   4   7 -12    7.50    2.10
   4   7 -12    4.10    1.30
  -4  -7  12    5.30    1.60
  -4  -7  12    3.00    1.50
  -4  -7  12    5.80    2.30
   3   7 -12   -0.40    1.30
   3   7 -12    4.20    1.20
   3   7 -12    4.20    1.10
  -3  -7  12    1.30    1.60
  -3  -7  12    2.80    1.20
  -3  -7  12    3.00    1.20
   2   7 -12    0.40    0.80
   2   7 -12   -0.20    0.60
  -2  -7  12   -1.90    1.10
  -2  -7  12   -1.30    0.90
  -2  -7  12   -1.40    0.80
   1   7 -12    1.70    1.00
  -1  -7  12    2.10    1.40
  -1  -7  12    1.70    1.10
  -1  -7  12    1.80    1.10
   0   7 -12   29.90    2.50
   0   7 -12   35.40    3.00
   0   7 -12   34.80    3.20
   0   7 -12   28.70    2.40
   0  -7  12   32.20    3.10
   0  -7  12   26.70    2.60
   0  -7  12   31.10    2.70
  -1   7 -12    0.90    1.40
  -1   7 -12    0.70    1.30
  -1   7 -12    0.40    0.90
   1  -7  12   -1.90    1.20
   1  -7  12    0.30    0.90
  -2   7 -12    0.70    1.00
  -2   7 -12    0.60    1.20
  -2   7 -12    0.80    1.10
  -2   7 -12   -1.00    1.40
  -2   7 -12   -1.20    1.20
   2  -7  12   -0.50    1.00
   2  -7  12   -1.20    1.20
  -3   7 -12    1.30    1.60
  -3   7 -12    1.30    1.30
  -3   7 -12   -0.20    1.50
  -3   7 -12    0.70    1.50
   3  -7  12    1.90    1.00
  -4   7 -12   -0.30    1.20
  -4   7 -12   -1.10    1.60
  -4   7 -12    0.60    1.70
   4  -7  12   -0.30    1.00
   5   6 -12   -1.00    1.30
   5   6 -12    0.00    1.80
  -5  -6  12   -0.10    1.00
  -5  -6  12    3.70    2.50
   4   6 -12   22.30    2.20
   4   6 -12   28.70    3.40
   4   6 -12   26.50    2.60
  -4  -6  12   19.60    2.30
  -4  -6  12   29.90    3.50
   3   6 -12    1.60    1.00
   3   6 -12    3.20    1.40
   3   6 -12    1.70    1.00
  -3  -6  12    2.40    1.20
  -3  -6  12    1.50    1.70
  -3  -6  12    1.30    1.20
   2   6 -12    1.00    0.80
  -2  -6  12    0.60    0.90
  -2  -6  12    0.80    1.30
  -2  -6  12   -0.30    0.90
   1   6 -12   23.80    2.60
   1   6 -12   23.70    2.00
  -1  -6  12   22.20    2.20
  -1  -6  12   22.00    2.50
  -1  -6  12   16.80    2.00
   0   6 -12    3.80    1.40
   0   6 -12    2.30    0.80
   0   6 -12    2.20    1.00
   0  -6  12    2.40    1.10
   0  -6  12    4.10    1.20
   0  -6  12    1.80    1.40
  -1   6 -12    0.40    0.90
  -1   6 -12   -0.80    0.90
  -1   6 -12    0.30    0.90
  -1   6 -12   -1.50    1.20
  -1   6 -12   -0.60    1.10
   1  -6  12   -1.10    0.80
   1  -6  12   -0.40    0.90
   1  -6  12    0.50    1.30
  -2   6 -12    0.10    1.10
  -2   6 -12    0.00    1.50
  -2   6 -12    0.30    0.90
  -2   6 -12    0.20    1.30
  -2   6 -12   -0.70    0.90
   2  -6  12    1.00    1.40
   2  -6  12   -0.80    1.00
  -3   6 -12    1.90    1.60
  -3   6 -12    0.60    1.50
  -3   6 -12    1.30    1.30
  -4   6 -12   -0.10    1.30
  -4   6 -12    0.30    1.80
  -4   6 -12   -1.90    1.60
   4  -6  12   -0.20    1.10
   5   5 -12    7.50    1.90
   5   5 -12    7.70    2.50
  -5  -5  12    6.80    1.50
  -5  -5  12    8.90    2.70
   4   5 -12   -0.20    1.30
   4   5 -12   -1.70    1.10
  -4  -5  12    2.80    1.90
  -4  -5  12    0.40    0.90
   3   5 -12   16.90    2.50
   3   5 -12   21.00    1.90
   3   5 -12   17.40    1.80
  -3  -5  12   21.30    2.90
  -3  -5  12   19.70    2.00
  -3  -5  12   17.20    2.10
   2   5 -12    4.70    1.10
   2   5 -12    4.20    1.40
  -2  -5  12    5.60    1.30
  -2  -5  12    6.40    1.70
  -2  -5  12    3.70    1.10
   1   5 -12    9.80    1.80
   1   5 -12   10.20    1.40
  -1  -5  12    8.90    1.50
  -1  -5  12   12.40    2.00
  -1  -5  12   10.00    1.50
   0   5 -12    4.20    1.50
   0   5 -12    7.30    1.40
   0   5 -12    6.60    1.00
   0   5 -12    5.10    1.20
   0  -5  12    8.20    1.80
   0  -5  12    5.40    1.30
   0  -5  12    5.10    1.40
  -1   5 -12   16.00    1.80
  -1   5 -12   19.20    2.40
  -1   5 -12   21.20    2.40
  -1   5 -12   19.70    2.20
   1  -5  12   18.50    2.50
   1  -5  12   15.90    2.00
   1  -5  12   19.60    2.20
  -2   5 -12    2.70    1.20
  -2   5 -12    4.00    1.80
  -2   5 -12    3.00    1.40
   2  -5  12   -0.80    1.40
  -3   5 -12    1.10    1.50
  -3   5 -12    0.30    1.20
  -3   5 -12    0.70    1.60
  -4   5 -12    3.00    2.00
  -4   5 -12    1.20    1.50
  -4   5 -12    3.80    2.10
   4  -5  12    2.40    1.40
   5   4 -12   -0.90    1.20
   5   4 -12   -1.10    1.60
  -5  -4  12   -0.50    2.00
  -5  -4  12    1.60    1.10
   4   4 -12   17.40    2.20
   4   4 -12   12.30    2.20
  -4  -4  12   15.90    2.70
  -4  -4  12   11.60    1.70
   3   4 -12    0.60    1.20
   3   4 -12    2.70    0.90
   3   4 -12    2.00    1.20
  -3  -4  12    1.20    1.60
  -3  -4  12    2.50    1.10
  -3  -4  12    3.20    1.10
   2   4 -12    6.20    1.40
   2   4 -12    7.10    1.20
   2   4 -12    4.10    1.40
  -2  -4  12    7.70    1.30
  -2  -4  12    5.00    1.60
  -2  -4  12    4.60    1.20
   1   4 -12    3.90    1.10
   1   4 -12    6.80    1.60
  -1  -4  12    4.50    1.50
  -1  -4  12    6.60    1.40
  -1  -4  12    4.70    1.10
   0   4 -12   40.00    3.00
   0   4 -12   37.50    2.50
   0   4 -12   33.20    2.60
   0   4 -12   35.50    2.00
   0  -4  12   40.80    3.30
   0  -4  12   33.40    2.70
   0  -4  12   33.80    2.50
  -1   4 -12    0.30    1.20
  -1   4 -12   -0.30    0.90
  -1   4 -12    0.70    0.90
   1  -4  12   -0.60    0.90
   1  -4  12    0.60    1.40
  -2   4 -12    0.20    1.50
  -2   4 -12    1.20    1.20
  -2   4 -12    2.20    1.20
   2  -4  12    1.30    1.60
  -3   4 -12   -0.80    1.20
  -3   4 -12    1.30    1.60
  -3   4 -12    2.30    1.90
  -4   4 -12    0.50    1.40
  -4   4 -12    2.20    2.10
  -4   4 -12    0.70    2.00
   4  -4  12    1.40    1.30
   5   3 -12    0.70    1.70
   5   3 -12    0.20    1.30
  -5  -3  12    0.30    0.90
  -5  -3  12    0.80    2.10
   4   3 -12    2.40    1.50
  -4  -3  12    3.00    1.00
  -4  -3  12    1.60    1.80
   3   3 -12    3.70    1.00
   3   3 -12    1.80    1.20
   3   3 -12    2.90    1.30
  -3  -3  12    3.50    1.00
  -3  -3  12    3.80    1.70
  -3  -3  12    2.60    1.10
   2   3 -12    6.60    1.40
   2   3 -12    7.30    1.50
   2   3 -12    8.40    1.20
  -2  -3  12    7.20    1.30
  -2  -3  12    8.10    1.40
  -2  -3  12   10.70    2.00
   1   3 -12   13.10    1.50
   1   3 -12   11.20    1.60
   1   3 -12   12.10    1.90
  -1  -3  12   11.70    1.60
  -1  -3  12   11.30    1.90
  -1  -3  12   10.20    1.60
   0   3 -12    1.00    1.10
   0   3 -12   -0.80    0.70
   0   3 -12    0.20    0.80
   0  -3  12   -0.20    0.90
   0  -3  12   -0.10    0.90
   0  -3  12    0.30    1.30
  -1   3 -12   13.90    1.80
  -1   3 -12   12.60    1.90
  -1   3 -12   13.20    2.20
   1  -3  12   11.20    1.80
   1  -3  12   12.00    2.20
  -2   3 -12   -0.50    0.90
  -2   3 -12    1.60    1.30
  -2   3 -12    0.60    1.40
   2  -3  12    0.90    1.50
  -3   3 -12   -1.10    1.10
  -3   3 -12   -1.10    1.50
  -3   3 -12    1.30    1.80
   3  -3  12   -1.40    0.90
  -4   3 -12    2.50    2.10
  -4   3 -12    2.80    2.10
   4  -3  12    0.00    1.20
   5   2 -12    1.90    1.70
  -5  -2  12    1.20    0.90
  -5  -2  12    3.10    2.10
   4   2 -12   -0.30    1.40
  -4  -2  12   -0.30    1.80
  -4  -2  12    1.90    0.90
   3   2 -12   31.80    2.10
   3   2 -12   28.50    2.80
   3   2 -12   33.90    2.60
  -3  -2  12   35.50    3.60
  -3  -2  12   26.90    2.40
  -3  -2  12   30.60    2.20
   2   2 -12   14.50    2.00
   2   2 -12   14.50    1.90
   2   2 -12   12.60    1.50
  -2  -2  12   10.50    1.60
  -2  -2  12   10.90    2.00
  -2  -2  12   17.80    1.80
   1   2 -12    3.60    1.20
   1   2 -12    3.50    1.10
  -1  -2  12    2.30    1.40
  -1  -2  12    1.70    1.10
   0   2 -12    0.00    1.20
   0   2 -12   -0.50    0.60
   0   2 -12    0.40    0.80
   0   2 -12    1.50    0.90
   0  -2  12   -0.10    0.90
   0  -2  12    0.10    1.30
  -1   2 -12   15.80    2.00
  -1   2 -12   12.10    1.80
  -1   2 -12   17.80    2.60
   1  -2  12   14.10    2.40
   1  -2  12   14.40    2.00
  -2   2 -12    1.10    1.10
  -2   2 -12    0.40    1.70
  -2   2 -12    2.10    1.50
   2  -2  12    0.90    1.70
  -3   2 -12   -0.60    1.20
  -3   2 -12    0.90    1.90
  -3   2 -12   -1.00    1.70
   3  -2  12    0.30    1.10
   5   1 -12   -2.10    1.50
  -5  -1  12    0.30    0.80
  -5  -1  12   -0.40    1.90
   4   1 -12    3.20    1.80
  -4  -1  12    3.70    1.00
  -4  -1  12    1.50    1.70
   3   1 -12   -0.40    1.20
   3   1 -12   -0.20    1.00
  -3  -1  12    1.20    0.90
  -3  -1  12    0.60    1.50
   2   1 -12    8.10    1.50
   2   1 -12    7.30    1.60
  -2  -1  12    6.40    1.80
  -2  -1  12    6.30    1.30
   1   1 -12   41.00    2.90
   1   1 -12   53.39    3.40
  -1  -1  12   43.80    3.10
  -1  -1  12   49.50    3.80
   0   1 -12    7.60    1.20
   0   1 -12    6.70    1.20
   0   1 -12    5.80    1.70
   0  -1  12    5.20    1.30
   0  -1  12    5.80    1.70
  -1   1 -12    4.90    1.30
  -1   1 -12    4.30    1.80
  -1   1 -12    2.70    1.30
   1  -1  12    4.40    1.40
   1  -1  12    3.70    1.80
  -2   1 -12    2.00    1.50
  -2   1 -12    0.60    1.10
  -2   1 -12    1.60    1.80
   2  -1  12    2.00    1.80
  -3   1 -12    1.80    1.80
  -3   1 -12   -0.20    1.30
  -3   1 -12   -3.50    1.70
   3  -1  12    0.70    1.10
   5   0 -12    2.30    1.70
  -5   0  12   -1.60    1.80
  -5   0  12    1.20    0.90
   4   0 -12    2.70    1.60
  -4   0  12    0.10    1.50
  -4   0  12    2.30    0.90
   3   0 -12    5.40    1.60
   3   0 -12    8.70    1.50
  -3   0  12    7.70    1.40
  -3   0  12    7.30    2.00
   2   0 -12    6.60    1.50
   2   0 -12    5.70    1.40
  -2   0  12    6.80    1.30
  -2   0  12    5.50    1.80
   1   0 -12    2.30    1.00
   1   0 -12    1.00    1.20
  -1   0  12    1.30    1.40
  -1   0  12    2.10    1.00
   0   0 -12    2.60    1.60
   0   0 -12    2.00    1.00
   0   0 -12    0.60    0.70
   0   0  12    1.60    1.10
   0   0  12    0.00    1.40
  -1   0 -12    7.50    2.10
  -1   0 -12    8.30    1.70
   1   0  12    7.90    2.00
  -2   0 -12    0.50    1.70
  -2   0 -12    0.50    1.40
   2   0  12   -2.00    1.60
  -3   0 -12   -0.50    1.80
  -3   0 -12    1.00    2.00
   3   0  12   -0.70    1.00
   5  -1 -12    1.40    1.80
  -5   1  12   -2.40    1.60
  -5   1  12   -0.60    0.70
   4  -1 -12    1.30    1.30
  -4   1  12   -0.10    0.70
  -4   1  12    1.30    1.80
   3  -1 -12    7.60    1.60
   3  -1 -12   10.90    1.70
  -3   1  12    8.60    1.40
  -3   1  12   10.30    2.10
   2  -1 -12    2.50    1.10
   2  -1 -12   -0.50    1.10
  -2   1  12    0.70    1.40
  -2   1  12    2.50    1.10
   1  -1 -12   10.80    1.50
   1  -1 -12   11.60    2.00
  -1   1  12   10.80    1.80
  -1   1  12   11.20    2.20
   0  -1 -12    1.40    1.50
   0  -1 -12    0.40    0.90
   0   1  12    0.70    1.50
   0   1  12   -0.10    1.00
  -1  -1 -12   -0.30    1.50
  -1  -1 -12   -0.60    1.20
   1   1  12    0.80    1.60
  -2  -1 -12    2.10    1.90
  -2  -1 -12   -1.40    1.50
   2   1  12    0.10    1.00
   2   1  12    0.00    1.70
  -3  -1 -12   -1.00    1.40
  -3  -1 -12   -0.50    2.10
  -3  -1 -12   -1.10    1.80
   3   1  12   -3.10    1.10
   5  -2 -12   14.60    2.60
  -5   2  12    9.50    2.60
  -5   2  12    6.30    1.30
   4  -2 -12    3.40    1.60
  -4   2  12    1.60    0.90
  -4   2  12   -0.70    1.50
   3  -2 -12   -0.70    1.10
   3  -2 -12    0.60    1.00
  -3   2  12   -1.50    1.40
  -3   2  12   -0.70    0.90
   2  -2 -12   12.70    1.80
   2  -2 -12   13.40    1.90
  -2   2  12    7.90    1.50
  -2   2  12   10.90    2.20
   1  -2 -12   -0.20    1.30
   1  -2 -12    0.50    0.80
  -1   2  12   -0.60    0.90
  -1   2  12    0.40    1.50
   0  -2 -12    3.80    1.80
   0  -2 -12    2.50    1.20
   0   2  12    4.20    1.50
   0   2  12    3.60    1.80
  -1  -2 -12    4.80    2.20
  -1  -2 -12    3.70    1.70
   1   2  12    3.40    1.80
  -2  -2 -12    0.00    2.00
  -2  -2 -12    0.00    1.80
  -2  -2 -12   -1.00    1.40
   2   2  12    0.50    1.40
   5  -3 -12   -1.40    1.60
  -5   3  12    3.80    2.20
  -5   3  12    2.70    0.90
   4  -3 -12    0.70    1.40
  -4   3  12   -0.10    1.50
  -4   3  12    0.70    0.80
   3  -3 -12   -0.40    1.10
   3  -3 -12    2.00    1.00
  -3   3  12    0.10    0.90
  -3   3  12    2.30    1.60
   2  -3 -12    5.30    1.30
   2  -3 -12    5.80    1.60
  -2   3  12    4.30    1.30
  -2   3  12    3.00    1.70
   1  -3 -12   -1.20    1.20
  -1   3  12    0.70    1.60
  -1   3  12    0.80    1.10
   0  -3 -12   -0.80    1.40
   0  -3 -12   -0.20    1.10
   0   3  12    0.70    1.00
   0   3  12    0.00    1.50
  -1  -3 -12   -0.30    1.50
  -1  -3 -12   -2.30    1.10
  -1  -3 -12    1.50    1.70
   1   3  12   -0.30    1.10
   1   3  12    1.20    1.70
  -2  -3 -12    0.40    1.90
  -2  -3 -12   -0.50    1.50
  -2  -3 -12    2.50    2.10
   2   3  12   -1.10    1.20
   5  -4 -12    1.50    1.90
  -5   4  12    2.40    1.00
  -5   4  12    2.20    2.20
   4  -4 -12   -3.00    1.30
  -4   4  12   -0.50    0.80
  -4   4  12   -0.20    1.60
   3  -4 -12    3.60    1.20
   3  -4 -12    2.00    1.20
   3  -4 -12    1.30    0.90
  -3   4  12    2.20    1.00
  -3   4  12    1.60    1.10
  -3   4  12   -0.20    1.40
   2  -4 -12    0.90    1.00
   2  -4 -12    0.60    1.00
   2  -4 -12    3.00    1.40
  -2   4  12    1.90    1.70
  -2   4  12    0.50    1.10
  -2   4  12    1.70    1.10
   1  -4 -12    5.30    1.90
   1  -4 -12    5.70    1.50
  -1   4  12    5.40    1.60
  -1   4  12    4.40    1.40
  -1   4  12    4.80    1.90
   0  -4 -12   -2.40    0.90
   0  -4 -12   -0.10    1.50
   0   4  12    0.10    1.10
   0   4  12   -1.30    1.50
   0   4  12   -0.30    1.20
  -1  -4 -12    4.10    2.00
  -1  -4 -12    1.90    1.70
  -1  -4 -12   -3.80    1.10
   1   4  12    0.60    1.80
   1   4  12   -0.70    1.10
  -2  -4 -12    0.10    2.20
  -2  -4 -12    1.70    2.20
  -2  -4 -12   -0.10    1.60
   2   4  12    1.40    1.60
   5  -5 -12   -0.80    1.70
  -5   5  12    0.50    0.90
  -5   5  12   -1.90    1.70
   4  -5 -12   -0.90    1.40
  -4   5  12   -0.30    0.90
  -4   5  12    1.50    1.80
   3  -5 -12    3.60    1.60
   3  -5 -12    2.70    1.40
  -3   5  12    3.10    1.20
  -3   5  12    4.70    1.80
   2  -5 -12    2.50    1.10
   2  -5 -12    2.00    1.50
  -2   5  12    3.80    1.40
  -2   5  12    3.90    1.90
  -2   5  12    2.80    1.20
   1  -5 -12    0.70    1.20
   1  -5 -12    3.30    1.60
  -1   5  12    0.90    1.60
  -1   5  12    0.40    1.30
  -1   5  12    0.00    1.10
   0  -5 -12   -0.10    1.70
   0  -5 -12    2.30    1.50
   0   5  12    0.30    1.60
   0   5  12    2.90    1.90
   0   5  12    0.80    1.20
  -1  -5 -12   -0.30    1.90
  -1  -5 -12   -0.80    1.70
  -1  -5 -12   -1.10    1.40
   1   5  12   -0.70    1.40
   1   5  12    0.70    1.70
  -4   6  12    0.70    1.80
  -4   6  12    1.30    1.10
  -3   6  12   -0.80    0.90
  -3   6  12   -1.00    1.40
   2  -6 -12    0.20    1.10
   2  -6 -12    1.30    1.50
  -2   6  12    2.10    1.30
  -2   6  12    1.20    1.30
  -2   6  12    4.10    1.90
   1  -6 -12    6.20    1.70
   1  -6 -12    9.40    2.40
  -1   6  12    6.50    1.70
  -1   6  12   12.60    2.50
  -1   6  12    3.60    1.60
   0  -6 -12   -3.40    1.90
   0  -6 -12    1.10    1.40
   0   6  12   -0.40    1.30
   0   6  12   -0.30    1.60
  -4   7  12    1.40    1.20
  -3   7  12   -1.50    1.60
  -3   7  12   -1.60    1.00
   2  -7 -12    6.80    2.00
   2  -7 -12    2.50    1.40
  -2   7  12    2.40    1.50
  -2   7  12    3.50    1.90
  -2   7  12    3.50    1.50
   1  -7 -12    1.40    1.40
   1  -7 -12    0.10    1.70
  -1   7  12   -0.30    1.30
  -1   7  12   -0.20    1.30
  -1   7  12    0.40    1.60
  -1   7  12    5.40    2.00
   0  -7 -12   -1.80    1.40
   0  -7 -12    0.70    2.00
   0   7  12    0.60    1.50
   0   7  12   -0.70    1.60
  -3   8  12   -0.70    1.80
   2  -8 -12    5.40    1.90
   2  -8 -12    1.50    1.20
  -2   8  12    3.30    1.60
  -2   8  12    4.40    2.10
  -2   8  12    3.40    2.90
  -2   8  12    3.60    1.60
   0  15 -13    3.40    2.90
   0 -15  13   -0.50    1.30
  -1  15 -13    0.20    2.80
   1 -15  13    1.40    1.50
   1  14 -13    2.80    2.60
   1  14 -13    2.30    1.50
  -1 -14  13    5.80    1.90
   0  14 -13    0.30    1.30
   0  14 -13   -1.00    2.30
   0 -14  13   -0.10    1.50
  -1  14 -13    2.80    2.80
  -1  14 -13    1.20    1.50
   1 -14  13   -0.30    1.40
   1 -14  13    1.20    1.20
  -2  14 -13    3.80    2.40
  -2  14 -13    2.40    1.50
   2 -14  13    3.30    1.50
   2 -14  13   -0.40    1.40
   2  13 -13    0.30    1.50
   2  13 -13   -0.60    2.20
  -2 -13  13    0.50    1.50
   1  13 -13    2.00    2.40
   1  13 -13    1.30    1.50
  -1 -13  13    2.60    1.60
   0  13 -13   -1.30    2.30
   0  13 -13    2.40    1.50
   0 -13  13    3.50    1.80
  -1  13 -13    0.30    2.40
  -1  13 -13    3.10    1.50
   1 -13  13   -0.50    1.40
  -2  13 -13    1.40    1.30
  -2  13 -13   -0.40    1.50
  -2  13 -13    0.30    2.20
  -2  13 -13    3.00    2.50
   2 -13  13    1.30    1.50
   2 -13  13    1.80    1.40
  -3  13 -13   -0.70    2.10
   2  12 -13   -1.70    1.20
   2  12 -13   -0.20    2.30
  -2 -12  13   -0.70    1.40
  -2 -12  13   -1.90    1.60
  -2 -12  13   -0.10    1.30
   1  12 -13   12.00    2.10
   1  12 -13   12.90    3.20
  -1 -12  13   13.70    2.30
  -1 -12  13   12.50    2.30
   0  12 -13   10.60    2.90
   0  12 -13    2.90    1.50
   0 -12  13    2.50    1.50
  -1  12 -13    0.40    1.30
  -1  12 -13   -0.60    2.00
   1 -12  13    0.40    1.30
  -2  12 -13    5.40    1.70
  -2  12 -13    4.20    2.40
  -2  12 -13    3.10    2.20
  -2  12 -13    0.90    1.40
   2 -12  13    0.60    1.40
   2 -12  13    3.00    1.30
  -3  12 -13    0.00    1.20
  -3  12 -13    0.30    2.10
  -3  12 -13   -0.60    1.40
  -3  12 -13   -0.90    2.00
   3 -12  13    0.40    1.30
   3 -12  13   -0.50    1.10
   3  11 -13    0.30    1.20
  -3 -11  13   -1.30    1.30
  -3 -11  13   -0.40    1.40
  -3 -11  13   -0.90    1.80
   2  11 -13    1.20    1.40
  -2 -11  13    0.70    1.60
  -2 -11  13    0.00    1.30
  -2 -11  13    4.90    1.70
   1  11 -13    3.90    1.50
   1  11 -13    6.80    2.50
  -1 -11  13    4.60    1.60
  -1 -11  13    3.20    1.80
  -1 -11  13    4.90    1.60
   0  11 -13   -0.90    2.00
   0  11 -13    0.80    1.20
   0 -11  13   -2.00    1.10
   0 -11  13   -1.80    1.30
  -1  11 -13    1.40    1.30
  -1  11 -13    1.40    1.90
   1 -11  13    2.30    1.50
  -2  11 -13    0.40    2.10
  -2  11 -13    1.30    1.30
  -2  11 -13    1.40    2.10
  -2  11 -13    1.40    1.30
   2 -11  13    1.10    1.10
   2 -11  13    2.20    1.40
  -3  11 -13   -1.20    1.00
  -3  11 -13    0.20    1.90
  -3  11 -13   -2.10    1.80
   3 -11  13   -1.20    1.00
   3 -11  13   -0.50    1.30
   3  10 -13   -1.80    1.00
  -3 -10  13   -2.00    1.70
  -3 -10  13   -3.00    1.10
  -3 -10  13   -0.40    1.30
   2  10 -13   -0.20    1.20
  -2 -10  13    1.60    1.70
  -2 -10  13    1.40    1.30
  -2 -10  13    0.30    1.20
   1  10 -13    5.00    1.50
   1  10 -13    4.90    2.30
  -1 -10  13    3.80    1.60
  -1 -10  13    6.90    1.90
  -1 -10  13    7.60    1.70
   0  10 -13    3.90    2.30
   0  10 -13    2.80    1.20
   0 -10  13    4.20    1.70
   0 -10  13    2.70    1.30
  -1  10 -13    0.10    1.20
  -1  10 -13    3.70    2.00
  -1  10 -13    0.20    1.70
  -1  10 -13    1.20    1.30
   1 -10  13    1.70    1.40
   1 -10  13   -0.10    1.20
  -2  10 -13    1.50    1.90
  -2  10 -13   -0.70    1.00
  -2  10 -13   -1.10    1.10
  -2  10 -13   -0.50    1.80
   2 -10  13    0.30    1.90
   2 -10  13    0.20    1.20
  -3  10 -13    1.90    2.10
  -3  10 -13   -0.70    1.50
  -3  10 -13   -0.90    1.20
  -3  10 -13   -1.00    1.10
  -3  10 -13    1.10    1.80
   3 -10  13   -1.10    1.00
   3 -10  13    3.10    1.50
   4   9 -13   10.30    2.80
   4   9 -13   11.60    2.50
  -4  -9  13    7.10    1.80
  -4  -9  13    7.70    2.70
   3   9 -13    2.50    1.30
   3   9 -13    4.20    1.70
  -3  -9  13    1.40    1.40
  -3  -9  13    6.10    1.70
  -3  -9  13    4.90    2.20
   2   9 -13   -0.30    1.00
  -2  -9  13    0.10    1.60
  -2  -9  13   -0.30    1.20
  -2  -9  13   -0.90    1.00
   1   9 -13    4.10    1.40
   1   9 -13    4.30    2.20
  -1  -9  13    2.30    1.70
  -1  -9  13    3.40    1.40
  -1  -9  13    1.90    1.30
   0   9 -13    6.80    2.30
   0   9 -13    6.20    1.60
   0  -9  13    4.20    1.40
   0  -9  13    6.10    1.90
   0  -9  13    3.50    1.40
  -1   9 -13    5.20    1.50
  -1   9 -13    5.90    1.50
  -1   9 -13    6.50    2.30
  -1   9 -13    7.70    2.30
   1  -9  13    8.70    1.60
   1  -9  13    7.20    1.90
  -2   9 -13    4.90    1.40
  -2   9 -13    3.00    1.50
  -2   9 -13    3.90    2.20
  -2   9 -13    2.90    2.00
   2  -9  13    2.20    1.30
   2  -9  13    8.50    1.90
  -3   9 -13   -1.00    1.20
  -3   9 -13    0.70    1.70
  -3   9 -13   -1.10    1.80
  -3   9 -13   -1.60    1.50
  -3   9 -13   -1.50    1.10
   3  -9  13   -0.10    0.90
   3  -9  13   -1.30    1.10
   4   8 -13    1.60    1.70
  -4  -8  13    1.90    2.20
  -4  -8  13    2.20    1.40
   3   8 -13   16.60    2.00
   3   8 -13   18.40    2.80
  -3  -8  13   17.30    2.40
  -3  -8  13   15.70    2.10
  -3  -8  13   17.20    3.00
   2   8 -13   -1.40    0.90
  -2  -8  13   -0.40    1.10
  -2  -8  13    0.40    1.60
  -2  -8  13    0.60    1.10
   1   8 -13    1.00    1.00
  -1  -8  13    1.30    1.10
  -1  -8  13    3.30    1.70
  -1  -8  13    1.50    1.20
   0   8 -13    5.30    1.70
   0   8 -13    5.80    2.10
   0   8 -13    6.20    1.50
   0  -8  13    7.70    1.60
   0  -8  13    7.20    1.90
   0  -8  13    3.20    1.40
  -1   8 -13    2.20    1.20
  -1   8 -13    3.90    1.80
  -1   8 -13    4.30    1.90
   1  -8  13    3.30    1.60
   1  -8  13    3.80    1.40
  -2   8 -13   -0.80    1.10
  -2   8 -13   -1.40    1.60
  -2   8 -13   -0.70    1.20
  -2   8 -13    0.10    1.10
  -2   8 -13   -0.10    1.50
   2  -8  13   -0.80    1.30
   2  -8  13   -0.10    1.10
  -3   8 -13    1.30    1.70
  -3   8 -13   -2.40    1.60
  -3   8 -13    1.40    1.70
  -3   8 -13    0.90    1.20
   4   7 -13   19.40    2.20
   4   7 -13   20.70    3.10
  -4  -7  13   14.50    2.20
  -4  -7  13   20.10    3.30
   3   7 -13    3.30    1.10
   3   7 -13    2.80    1.20
   3   7 -13    6.40    1.90
  -3  -7  13    3.60    1.40
  -3  -7  13    4.80    2.00
  -3  -7  13    2.30    1.30
   2   7 -13    0.40    0.90
  -2  -7  13    0.40    1.50
  -2  -7  13   -1.60    0.80
  -2  -7  13   -1.50    0.90
   1   7 -13   -0.90    0.90
   1   7 -13   -0.70    1.30
  -1  -7  13    0.60    1.10
  -1  -7  13    2.10    1.10
  -1  -7  13   -0.30    1.40
   0   7 -13   12.20    1.70
   0   7 -13   18.40    2.60
   0  -7  13   15.40    2.00
   0  -7  13   16.70    2.40
   0  -7  13   13.20    1.90
  -1   7 -13    0.60    1.00
  -1   7 -13   -1.50    0.90
  -1   7 -13   -0.10    1.50
  -1   7 -13    0.10    1.40
  -1   7 -13   -0.80    1.00
   1  -7  13   -1.20    1.40
   1  -7  13    0.10    1.10
  -2   7 -13    0.40    1.20
  -2   7 -13    0.00    1.40
  -2   7 -13    0.30    1.20
  -2   7 -13    0.80    1.70
  -2   7 -13    0.10    1.00
   2  -7  13    0.60    1.50
   2  -7  13    1.30    1.20
  -3   7 -13    1.70    1.90
  -3   7 -13   -0.30    1.50
  -3   7 -13    1.60    1.40
   5   6 -13   -1.80    1.40
   4   6 -13    7.30    1.60
   4   6 -13    3.70    2.00
  -4  -6  13    4.90    1.50
  -4  -6  13    2.40    2.20
   3   6 -13    3.90    1.50
   3   6 -13    2.70    1.10
  -3  -6  13    2.90    1.30
  -3  -6  13    3.90    2.10
  -3  -6  13    4.70    1.30
   2   6 -13   -1.30    1.20
   2   6 -13    1.70    1.00
  -2  -6  13    5.20    1.40
  -2  -6  13    1.50    1.10
  -2  -6  13    1.50    1.60
   1   6 -13    4.90    1.60
   1   6 -13    2.50    1.00
  -1  -6  13    2.40    1.10
  -1  -6  13    5.20    1.40
  -1  -6  13    5.60    1.80
   0   6 -13    1.60    1.00
   0   6 -13    1.70    1.40
   0  -6  13    1.80    1.10
   0  -6  13    0.50    1.10
   0  -6  13    2.90    1.60
  -1   6 -13    5.70    1.30
  -1   6 -13    5.10    1.30
  -1   6 -13    6.00    1.50
  -1   6 -13    4.10    1.80
   1  -6  13    5.10    1.80
   1  -6  13    4.90    1.40
  -2   6 -13   -0.30    1.20
  -2   6 -13    0.90    1.70
  -2   6 -13   -0.90    1.00
   2  -6  13    1.50    1.60
  -3   6 -13    0.70    1.70
  -3   6 -13    0.50    1.30
  -3   6 -13    2.00    1.90
   5   5 -13   -1.30    1.60
   5   5 -13    0.70    1.40
  -5  -5  13   -1.00    2.10
  -5  -5  13    0.00    1.00
   4   5 -13    3.20    1.70
   4   5 -13    7.60    1.70
  -4  -5  13    4.20    2.20
  -4  -5  13    5.30    1.40
   3   5 -13   46.10    2.90
   3   5 -13   46.50    3.40
   3   5 -13   51.89    3.70
  -3  -5  13   40.30    3.10
  -3  -5  13   46.90    3.00
  -3  -5  13   49.50    4.40
   2   5 -13   -1.00    0.70
   2   5 -13   -0.10    1.20
   2   5 -13    0.40    1.10
  -2  -5  13   -0.50    0.90
  -2  -5  13    0.10    1.40
  -2  -5  13    1.20    1.00
   1   5 -13    1.70    1.00
   1   5 -13    0.80    1.30
  -1  -5  13    2.70    1.10
  -1  -5  13    2.20    1.50
  -1  -5  13   -1.10    0.90
   0   5 -13   10.40    2.10
   0   5 -13    8.80    1.50
   0  -5  13   12.50    2.20
   0  -5  13    9.70    1.70
   0  -5  13    7.80    1.50
  -1   5 -13    9.50    2.00
  -1   5 -13    9.90    1.80
  -1   5 -13   10.90    1.80
  -1   5 -13    9.10    1.50
   1  -5  13    8.20    1.70
   1  -5  13   10.80    2.30
  -2   5 -13    3.20    1.50
  -2   5 -13    1.00    1.70
  -2   5 -13    1.70    1.30
   2  -5  13    0.20    1.50
  -3   5 -13   -2.00    1.10
  -3   5 -13    0.60    1.70
  -3   5 -13   -2.70    1.70
   5   4 -13    2.60    2.00
   5   4 -13    2.70    1.50
  -5  -4  13    0.40    1.00
  -5  -4  13   -0.30    2.00
   4   4 -13    3.00    1.70
  -4  -4  13    3.40    1.20
  -4  -4  13   -0.30    1.80
   3   4 -13    0.70    0.90
   3   4 -13    1.70    1.50
   3   4 -13   -0.40    1.20
  -3  -4  13    2.50    1.10
  -3  -4  13   -1.80    1.60
  -3  -4  13    0.20    1.00
   2   4 -13    1.20    1.20
   2   4 -13    0.20    1.20
   2   4 -13    1.30    0.90
  -2  -4  13    3.20    1.10
  -2  -4  13    3.20    1.70
  -2  -4  13    1.50    1.10
   1   4 -13    1.00    1.20
   1   4 -13    0.70    0.90
  -1  -4  13    2.00    1.10
  -1  -4  13    1.90    1.40
  -1  -4  13    0.40    1.00
   0   4 -13    3.20    1.30
   0   4 -13    4.30    1.70
   0  -4  13    2.50    1.20
   0  -4  13    4.80    1.70
   0  -4  13    2.70    1.20
  -1   4 -13    3.50    1.40
  -1   4 -13    6.20    1.40
  -1   4 -13    5.30    1.90
   1  -4  13    7.60    2.10
  -2   4 -13    4.30    1.50
  -2   4 -13    5.30    1.60
  -2   4 -13    6.10    2.00
   2  -4  13    5.00    2.00
  -3   4 -13    0.40    1.30
  -3   4 -13    3.30    1.80
  -3   4 -13    2.30    2.10
   5   3 -13    2.50    1.90
  -5  -3  13    4.20    2.30
  -5  -3  13    2.70    1.20
   4   3 -13   -0.80    1.40
  -4  -3  13   -0.90    1.90
  -4  -3  13    0.60    0.90
   3   3 -13    1.20    1.30
   3   3 -13    1.40    1.40
   3   3 -13    0.90    0.80
  -3  -3  13    1.70    1.90
  -3  -3  13    2.40    1.00
  -3  -3  13    1.00    1.00
   2   3 -13   35.50    2.90
   2   3 -13   32.80    2.40
   2   3 -13   38.40    3.00
  -2  -3  13   34.40    2.50
  -2  -3  13   28.60    2.60
  -2  -3  13   33.80    3.40
   1   3 -13   25.10    2.40
   1   3 -13   32.90    2.80
   1   3 -13   29.30    2.60
  -1  -3  13   34.60    3.40
  -1  -3  13   22.00    2.40
  -1  -3  13   28.90    2.40
   0   3 -13   48.00    3.50
   0  -3  13   43.00    3.90
   0  -3  13   39.70    3.10
  -1   3 -13    4.40    1.80
  -1   3 -13    3.90    1.90
  -1   3 -13    1.10    1.20
   1  -3  13    3.20    1.90
  -2   3 -13   -2.50    1.60
  -2   3 -13    0.80    1.10
  -2   3 -13    2.00    1.50
   2  -3  13    2.40    1.80
  -3   3 -13    1.50    2.10
  -3   3 -13   -0.50    1.30
  -3   3 -13   -1.00    1.60
   3  -3  13   -3.20    0.90
   5   2 -13   -2.60    1.50
  -5  -2  13   -0.20    0.90
  -5  -2  13   -3.40    1.80
   4   2 -13   -1.20    1.30
  -4  -2  13   -1.40    1.50
  -4  -2  13   -0.70    0.80
   3   2 -13    8.00    1.90
   3   2 -13    8.50    1.60
  -3  -2  13    8.80    1.50
  -3  -2  13    9.30    2.30
   2   2 -13   -0.40    1.10
   2   2 -13    0.60    1.10
  -2  -2  13   -0.50    0.90
  -2  -2  13   -0.80    1.40
   1   2 -13   16.50    2.30
   1   2 -13   16.10    1.90
  -1  -2  13   11.00    1.80
  -1  -2  13   13.30    2.30
   0   2 -13    2.30    1.00
   0   2 -13   -0.10    1.30
   0  -2  13    1.80    1.10
   0  -2  13    1.70    1.60
  -1   2 -13    6.70    1.60
  -1   2 -13    4.60    1.90
   1  -2  13    8.10    2.20
  -2   2 -13    3.00    2.10
  -2   2 -13    2.50    1.60
   2  -2  13    3.00    2.10
  -3   2 -13   -1.20    1.70
  -3   2 -13   -2.40    1.80
   3  -2  13    1.00    1.30
   5   1 -13    0.90    1.80
  -5  -1  13    0.60    0.90
  -5  -1  13   -2.00    1.90
   4   1 -13   -1.00    1.40
  -4  -1  13   -1.10    0.70
  -4  -1  13   -0.70    1.60
   3   1 -13    1.90    1.40
   3   1 -13    2.20    1.30
  -3  -1  13    2.20    1.80
  -3  -1  13    1.40    0.90
   2   1 -13    6.20    1.60
   2   1 -13    2.80    1.30
  -2  -1  13    4.80    1.80
  -2  -1  13    4.50    1.20
   1   1 -13    7.60    1.40
   1   1 -13    8.00    1.80
  -1  -1  13    7.10    1.50
  -1  -1  13    6.50    2.00
   0   1 -13   -1.40    1.30
   0   1 -13    0.40    0.80
   0  -1  13    0.50    1.50
   0  -1  13   -0.10    1.00
  -1   1 -13    0.30    1.10
  -1   1 -13    1.40    1.80
   1  -1  13    2.30    1.80
  -2   1 -13    1.10    1.90
  -2   1 -13    0.90    1.50
   2  -1  13   -0.20    1.70
  -3   1 -13   -0.80    1.80
  -3   1 -13    0.70    2.10
   3  -1  13   -1.20    1.10
   5   0 -13    3.60    1.90
  -5   0  13    3.60    2.30
  -5   0  13    2.50    1.10
   4   0 -13   -1.50    1.20
  -4   0  13    0.90    0.90
  -4   0  13   -0.30    1.70
   3   0 -13   -0.10    1.20
   3   0 -13   -1.00    0.90
  -3   0  13   -1.00    0.70
  -3   0  13    0.10    1.50
   2   0 -13    3.50    1.40
   2   0 -13    4.00    1.40
  -2   0  13    3.70    1.80
  -2   0  13    2.10    1.20
   1   0 -13    0.70    0.90
   1   0 -13    1.00    1.40
  -1   0  13   -1.10    1.40
  -1   0  13   -0.20    0.90
   0   0 -13    0.90    1.50
   0   0  13    1.90    1.20
   0   0  13    3.10    1.80
  -1   0 -13    6.20    1.70
  -1   0 -13    8.20    2.30
   1   0  13    8.30    2.20
  -2   0 -13   -0.60    1.50
  -2   0 -13    2.00    2.10
   2   0  13    3.20    2.10
  -3   0 -13    0.20    2.10
   5  -1 -13    0.30    1.80
  -5   1  13    0.50    2.10
  -5   1  13   -0.50    0.80
   4  -1 -13    7.30    1.90
  -4   1  13    6.20    1.30
  -4   1  13    6.70    2.30
   3  -1 -13    0.70    1.00
   3  -1 -13    0.90    1.30
  -3   1  13    0.30    0.90
  -3   1  13    0.90    1.70
   2  -1 -13    2.30    1.40
   2  -1 -13    0.70    1.10
  -2   1  13    0.70    1.10
  -2   1  13    3.20    1.70
   1  -1 -13    9.30    1.40
   1  -1 -13   10.20    2.10
  -1   1  13    7.40    1.70
  -1   1  13    9.70    2.30
   0  -1 -13   -0.10    1.40
   0   1  13    0.30    1.50
   0   1  13    0.90    1.10
  -1  -1 -13    1.10    1.80
   1   1  13   -2.70    1.40
  -2  -1 -13   -0.50    1.90
  -2  -1 -13   -0.60    1.80
   2   1  13    0.20    1.80
   5  -2 -13    4.70    2.10
  -5   2  13    2.00    1.00
  -5   2  13    3.70    2.40
   4  -2 -13    2.20    1.70
  -4   2  13    3.30    2.10
  -4   2  13    2.30    1.10
   3  -2 -13    0.00    1.20
   3  -2 -13    0.20    1.00
  -3   2  13   -0.50    1.50
  -3   2  13    1.00    1.00
   2  -2 -13    4.70    1.40
   2  -2 -13    6.60    1.60
  -2   2  13    3.80    1.90
  -2   2  13    2.70    1.30
   1  -2 -13    2.90    1.70
  -1   2  13   -0.50    1.50
  -1   2  13    0.60    1.10
   0  -2 -13   -0.80    1.40
   0   2  13    0.30    1.10
   0   2  13    0.00    1.60
  -1  -2 -13    0.90    1.90
   1   2  13   -1.90    1.70
  -2  -2 -13   -0.90    1.80
  -2  -2 -13    0.00    1.50
  -2  -2 -13    1.20    2.10
   2   2  13    0.20    1.40
   5  -3 -13    3.10    2.10
  -5   3  13    0.10    0.80
  -5   3  13    2.00    2.30
   4  -3 -13   -1.80    1.50
  -4   3  13    0.00    1.80
  -4   3  13    1.50    1.00
   3  -3 -13    1.00    1.10
   3  -3 -13   -1.70    1.10
  -3   3  13    0.20    1.00
  -3   3  13    0.30    1.60
   2  -3 -13    0.00    1.00
   2  -3 -13   -0.70    1.20
  -2   3  13   -0.70    1.00
  -2   3  13    0.80    1.60
   1  -3 -13    3.00    1.60
  -1   3  13    4.30    1.90
  -1   3  13    5.90    1.70
   0  -3 -13    2.10    1.80
   0   3  13   -0.40    1.10
   0   3  13   -0.90    1.70
  -1  -3 -13    2.20    2.00
  -1  -3 -13   -0.70    1.40
   1   3  13   -0.20    1.70
   1   3  13   -1.00    1.20
   4  -4 -13   -0.70    1.60
  -4   4  13    0.70    1.90
  -4   4  13    0.10    1.00
   3  -4 -13    1.70    1.40
  -3   4  13    4.40    1.90
  -3   4  13    1.20    1.20
   2  -4 -13    0.40    1.00
   2  -4 -13    2.30    1.40
  -2   4  13   -0.90    0.90
  -2   4  13    0.20    1.60
  -2   4  13    1.20    1.20
   1  -4 -13    7.30    1.90
   1  -4 -13    3.60    1.40
  -1   4  13    5.60    2.00
  -1   4  13    0.50    1.30
  -1   4  13    2.90    1.40
   0  -4 -13   -0.10    1.70
   0  -4 -13    0.60    1.40
   0   4  13    1.80    1.90
   0   4  13    1.50    1.40
  -1  -4 -13   -1.40    1.90
  -1  -4 -13   -1.50    1.50
   1   4  13   -2.40    1.80
   1   4  13    0.90    1.60
   4  -5 -13   -3.80    1.40
  -4   5  13   -1.20    1.80
  -4   5  13   -0.40    1.00
   3  -5 -13   -2.40    1.10
  -3   5  13    0.60    1.20
  -3   5  13    1.90    1.80
   2  -5 -13    0.30    1.20
   2  -5 -13    1.80    1.60
  -2   5  13   -2.40    1.40
  -2   5  13   -0.60    1.20
  -2   5  13    1.50    1.30
   1  -5 -13    3.10    1.80
   1  -5 -13    0.10    1.30
  -1   5  13    0.30    1.40
  -1   5  13    0.40    1.70
  -1   5  13    1.10    1.40
   0  -5 -13    4.00    2.10
   0  -5 -13    2.10    1.50
   0   5  13    2.60    2.00
   0   5  13   -0.40    1.30
  -3   6  13   -2.70    1.60
  -3   6  13    0.00    1.20
   2  -6 -13    2.90    1.70
   2  -6 -13    2.10    1.40
  -2   6  13   -0.30    1.70
  -2   6  13   -1.30    1.20
  -2   6  13    1.80    1.50
   1  -6 -13    9.20    2.40
   1  -6 -13    3.90    1.60
  -1   6  13    8.70    2.30
  -1   6  13    5.70    1.80
  -1   6  13    6.20    1.90
   0  -6 -13    4.80    2.50
   2  -7 -13    0.60    1.70
   2  -7 -13    0.80    1.30
  -2   7  13    1.90    1.50
  -2   7  13    0.10    1.30
  -2   7  13    0.50    1.70
   1  14 -14    1.90    2.40
   0  14 -14    3.20    2.80
   0  14 -14    1.50    1.40
   0 -14  14    2.60    1.70
  -1  14 -14    2.20    1.50
  -1  14 -14    1.10    2.50
   1 -14  14    2.20    1.80
   1 -14  14   -0.60    1.20
   1  13 -14    0.10    1.40
   1  13 -14   -1.90    2.20
  -1 -13  14   -0.30    1.60
   0  13 -14    3.30    1.70
   0  13 -14    3.20    2.60
   0 -13  14    2.60    1.60
  -1  13 -14   -1.80    1.30
  -1  13 -14    0.30    2.40
   1 -13  14    0.10    1.50
  -2  13 -14   -1.70    1.40
  -2  13 -14    1.90    2.30
  -2  13 -14   -4.20    1.90
   2 -13  14   -0.60    1.00
   2 -13  14    1.00    1.60
   2  12 -14    0.40    1.40
  -2 -12  14   -0.20    1.50
  -2 -12  14   -3.80    1.50
   1  12 -14    7.50    2.90
   1  12 -14    6.20    1.80
  -1 -12  14    6.10    2.20
  -1 -12  14    5.50    1.90
   0  12 -14    3.00    2.40
   0  12 -14    4.20    1.60
   0 -12  14    8.20    1.90
  -1  12 -14    1.00    2.40
  -1  12 -14    2.80    1.50
   1 -12  14    0.90    1.50
  -2  12 -14   -0.70    2.20
  -2  12 -14   -2.20    1.10
  -2  12 -14   -0.10    2.00
   2 -12  14    1.10    1.60
   2 -12  14    1.00    1.20
   3  11 -14    2.20    1.50
  -3 -11  14    1.90    1.50
  -3 -11  14    0.90    2.20
  -3 -11  14    2.20    1.60
   2  11 -14    3.00    1.50
  -2 -11  14    2.60    2.00
  -2 -11  14    3.00    1.60
  -2 -11  14    0.80    1.50
   1  11 -14   -2.00    2.10
   1  11 -14    1.40    1.40
  -1 -11  14   -2.30    1.60
  -1 -11  14   -0.20    1.30
   0  11 -14   -1.30    2.20
   0  11 -14   -0.20    1.10
   0 -11  14   -0.90    1.50
   0 -11  14   -2.20    1.10
  -1  11 -14    0.80    2.30
  -1  11 -14    5.60    2.40
  -1  11 -14    2.10    1.50
   1 -11  14    3.40    1.60
  -2  11 -14    0.90    2.10
  -2  11 -14    0.20    1.90
  -2  11 -14   -0.10    1.20
   2 -11  14    0.00    1.30
   2 -11  14    2.10    1.40
  -3  11 -14    0.70    1.30
  -3  11 -14    0.60    2.00
  -3  11 -14    4.50    2.50
  -3  11 -14   -1.60    1.70
   3 -11  14    1.80    1.20
   3 -11  14   -1.40    1.20
   3  10 -14    5.40    1.90
   3  10 -14    3.00    1.50
  -3 -10  14   -0.80    1.20
  -3 -10  14    6.50    2.40
  -3 -10  14    2.60    1.50
   2  10 -14   -1.70    1.00
  -2 -10  14   -0.80    1.30
  -2 -10  14    0.60    1.80
  -2 -10  14   -0.90    1.20
   1  10 -14   -0.50    1.10
   1  10 -14    1.40    2.20
  -1 -10  14    1.30    1.30
  -1 -10  14    1.30    1.40
  -1 -10  14    1.40    1.80
   0  10 -14    3.70    2.20
   0  10 -14    2.00    1.30
   0 -10  14   -0.10    1.30
   0 -10  14    1.30    1.70
  -1  10 -14    0.30    1.90
  -1  10 -14    1.30    1.30
  -1  10 -14   -0.20    1.80
   1 -10  14   -0.40    1.50
   1 -10  14    0.70    1.30
  -2  10 -14    0.10    1.30
  -2  10 -14    0.30    1.90
  -2  10 -14   -1.50    1.90
  -2  10 -14   -1.70    1.30
   2 -10  14   -0.20    1.30
  -3  10 -14   -4.10    1.80
  -3  10 -14   -1.50    1.20
  -3  10 -14    2.80    2.00
  -3  10 -14    0.80    1.90
  -3  10 -14    2.00    1.50
   3 -10  14   -1.70    0.90
   3 -10  14   -0.20    1.30
   3   9 -14    3.20    1.30
   3   9 -14    4.60    1.70
  -3  -9  14    1.20    1.40
  -3  -9  14    1.70    1.50
  -3  -9  14    0.70    2.10
   2   9 -14    4.20    1.40
  -2  -9  14    0.00    1.70
  -2  -9  14    1.90    1.30
  -2  -9  14   -0.40    1.20
   1   9 -14   -1.10    1.00
  -1  -9  14   -1.10    1.10
  -1  -9  14   -1.30    1.50
  -1  -9  14    0.60    1.10
   0   9 -14    0.30    1.20
   0   9 -14    0.20    1.50
   0   9 -14    2.70    2.00
   0  -9  14    1.40    1.70
   0  -9  14    0.30    1.20
  -1   9 -14    8.70    2.40
  -1   9 -14    5.80    1.50
  -1   9 -14    6.80    2.30
   1  -9  14    3.50    1.40
   1  -9  14    2.90    1.80
  -2   9 -14   -1.70    1.20
  -2   9 -14   -0.20    1.90
  -2   9 -14   -0.30    1.20
  -2   9 -14    0.00    1.30
  -2   9 -14    0.40    1.60
   2  -9  14   -0.20    1.40
   2  -9  14   -1.00    1.20
  -3   9 -14   -1.00    1.60
  -3   9 -14    1.70    1.80
  -3   9 -14    1.10    1.30
  -3   9 -14   -1.70    2.00
   4   8 -14   -0.50    1.40
  -4  -8  14   -1.80    2.00
  -4  -8  14    0.90    1.30
   3   8 -14   25.60    2.60
   3   8 -14   18.30    2.80
  -3  -8  14   25.80    3.50
  -3  -8  14   18.70    2.50
  -3  -8  14   20.60    2.50
   2   8 -14    0.40    1.00
  -2  -8  14    3.40    1.90
  -2  -8  14   -0.70    1.10
  -2  -8  14   -0.90    1.20
   1   8 -14   -0.10    1.00
   1   8 -14    0.80    1.60
  -1  -8  14    1.50    1.30
  -1  -8  14    0.50    1.20
  -1  -8  14    1.80    1.70
   0   8 -14    8.90    2.10
   0   8 -14    9.70    1.70
   0  -8  14    9.80    2.20
   0  -8  14   10.00    1.90
   0  -8  14   11.50    1.90
  -1   8 -14    0.70    1.20
  -1   8 -14   -2.10    1.50
  -1   8 -14   -1.00    1.60
   1  -8  14    0.80    1.30
   1  -8  14    1.50    1.70
  -2   8 -14    0.80    2.00
  -2   8 -14    0.60    1.30
  -2   8 -14    0.40    1.20
  -2   8 -14    0.00    1.10
  -2   8 -14   -0.60    1.60
   2  -8  14   -0.80    1.20
   2  -8  14   -1.10    1.40
  -3   8 -14    1.00    1.60
  -3   8 -14    1.00    1.40
  -3   8 -14    0.10    2.10
   4   7 -14    6.70    2.30
  -4  -7  14    9.70    2.80
  -4  -7  14    5.30    1.60
   3   7 -14    0.40    1.10
   3   7 -14   -0.60    1.50
  -3  -7  14   -2.00    1.10
  -3  -7  14   -0.20    1.90
  -3  -7  14    0.10    1.10
   2   7 -14    7.20    2.00
   2   7 -14   10.10    1.70
  -2  -7  14   11.90    2.00
  -2  -7  14   11.60    2.40
  -2  -7  14   10.20    1.90
   1   7 -14    0.50    1.00
   1   7 -14   -1.10    1.30
  -1  -7  14    1.00    1.50
  -1  -7  14    0.40    1.20
  -1  -7  14   -1.70    0.90
   0   7 -14    5.50    1.90
   0   7 -14    3.20    1.30
   0  -7  14    4.60    1.50
   0  -7  14    6.20    2.00
   0  -7  14    5.00    1.50
  -1   7 -14    0.60    1.20
  -1   7 -14    1.70    1.80
   1  -7  14    0.20    1.20
   1  -7  14    4.40    1.80
  -2   7 -14    1.90    1.40
  -2   7 -14    2.40    2.00
  -2   7 -14    4.10    1.50
   2  -7  14    0.30    1.70
  -3   7 -14   -1.70    2.00
  -3   7 -14   -0.70    1.30
  -3   7 -14    2.90    1.80
   4   6 -14   -3.20    1.30
  -4  -6  14   -0.70    2.10
  -4  -6  14    1.10    1.20
   3   6 -14   10.20    1.70
   3   6 -14   10.50    2.30
   3   6 -14    7.70    1.80
  -3  -6  14   10.00    1.80
  -3  -6  14    7.20    2.40
  -3  -6  14    7.50    1.60
   2   6 -14    3.10    1.20
   2   6 -14    2.50    1.50
   2   6 -14    1.20    1.40
  -2  -6  14    0.80    1.20
  -2  -6  14    3.60    1.30
  -2  -6  14    1.70    1.80
   1   6 -14    5.10    1.30
   1   6 -14    5.60    1.80
  -1  -6  14    6.40    2.00
  -1  -6  14    8.50    1.60
  -1  -6  14    6.10    1.50
   0   6 -14   -0.90    1.00
   0   6 -14    0.70    1.50
   0  -6  14   -1.20    1.00
   0  -6  14    1.20    1.60
   0  -6  14    2.00    1.30
  -1   6 -14    9.00    2.30
  -1   6 -14    8.70    1.60
   1  -6  14    8.30    2.20
   1  -6  14    8.50    1.70
  -2   6 -14   -1.30    1.70
  -2   6 -14   -0.10    1.30
  -2   6 -14    0.10    1.30
   2  -6  14   -0.10    1.60
  -3   6 -14    0.20    1.40
  -3   6 -14    0.70    1.60
  -3   6 -14    1.60    2.10
   4   5 -14   -2.90    1.30
  -4  -5  14   -0.10    1.00
  -4  -5  14   -2.00    2.10
   3   5 -14    4.40    1.20
   3   5 -14    2.50    1.50
   3   5 -14    2.10    1.50
  -3  -5  14    3.10    1.30
  -3  -5  14    3.30    2.10
  -3  -5  14    2.00    1.20
   2   5 -14    0.20    1.30
   2   5 -14    2.90    1.40
   2   5 -14   -0.70    0.80
  -2  -5  14   -0.10    1.00
  -2  -5  14   -0.10    1.10
  -2  -5  14   -0.10    1.70
   1   5 -14    8.50    1.90
   1   5 -14    8.80    1.50
  -1  -5  14   10.30    2.20
  -1  -5  14    9.00    1.60
  -1  -5  14    7.20    1.60
   0   5 -14    9.40    2.10
   0   5 -14    6.60    1.60
   0  -5  14    8.70    1.70
   0  -5  14    8.50    2.10
   0  -5  14    6.80    1.60
  -1   5 -14   -0.40    1.50
   1  -5  14    0.90    1.60
  -2   5 -14    1.30    1.50
  -2   5 -14    6.10    2.30
   2  -5  14    7.10    2.20
  -3   5 -14   -0.10    2.20
  -3   5 -14    2.20    1.80
   5   4 -14    3.10    2.00
  -5  -4  14    0.80    1.20
  -5  -4  14   -0.30    2.20
   4   4 -14    1.10    1.60
  -4  -4  14    0.50    1.10
  -4  -4  14    2.80    2.20
   3   4 -14    2.90    1.50
   3   4 -14    5.10    1.20
   3   4 -14    1.10    1.40
  -3  -4  14    1.80    1.90
  -3  -4  14    3.30    1.30
  -3  -4  14    3.00    1.20
   2   4 -14   17.40    1.90
   2   4 -14   18.60    2.30
   2   4 -14   20.90    2.60
  -2  -4  14   22.00    3.00
  -2  -4  14   17.00    2.10
  -2  -4  14   17.60    2.20
   1   4 -14    4.90    1.30
   1   4 -14    3.20    1.40
   1   4 -14    5.10    1.60
  -1  -4  14    3.90    1.30
  -1  -4  14    2.70    1.90
  -1  -4  14    4.30    1.30
   0   4 -14    2.40    1.60
   0  -4  14    0.30    1.70
   0  -4  14    0.70    1.20
  -1   4 -14    1.10    1.80
   1  -4  14   -1.80    1.70
  -2   4 -14    4.30    2.10
  -2   4 -14    0.80    1.50
   2  -4  14    5.90    2.30
  -3   4 -14   -0.40    2.00
  -3   4 -14    0.90    1.90
   3  -4  14   -0.50    1.20
   5   3 -14    1.30    1.90
  -5  -3  14    0.30    1.10
  -5  -3  14    0.50    2.20
   4   3 -14   -1.50    1.40
  -4  -3  14    0.00    1.00
  -4  -3  14    0.10    1.80
   3   3 -14    0.50    1.30
   3   3 -14    3.80    1.70
   3   3 -14    2.00    1.00
  -3  -3  14    2.10    1.10
  -3  -3  14    2.20    1.90
  -3  -3  14    4.10    1.30
   2   3 -14    0.80    0.90
   2   3 -14    0.50    1.40
   2   3 -14   -0.10    1.30
  -2  -3  14    0.50    1.10
  -2  -3  14   -0.10    1.00
  -2  -3  14   -0.50    1.60
   1   3 -14    2.70    1.40
   1   3 -14    3.70    1.60
  -1  -3  14    1.60    1.10
  -1  -3  14    0.20    1.60
   0   3 -14   14.10    2.50
   0   3 -14   12.40    1.70
   0  -3  14   12.20    2.00
   0  -3  14   12.40    2.50
  -1   3 -14    1.50    1.80
   1  -3  14   -0.30    1.70
  -2   3 -14   -2.00    1.90
  -2   3 -14   -1.30    2.40
   2  -3  14    0.90    2.00
  -3   3 -14   -0.30    1.80
  -3   3 -14    1.60    2.20
   3  -3  14   -1.00    1.20
   5   2 -14    7.40    2.30
  -5  -2  14    7.50    2.80
  -5  -2  14    6.20    1.50
   4   2 -14    2.80    1.60
  -4  -2  14    2.40    1.20
  -4  -2  14    3.70    2.30
   3   2 -14    0.00    1.20
   3   2 -14    0.00    1.10
  -3  -2  14    0.80    1.70
  -3  -2  14   -0.50    0.90
   2   2 -14    4.40    1.70
   2   2 -14    0.60    1.20
  -2  -2  14    2.70    1.20
  -2  -2  14    3.20    1.80
   1   2 -14    4.00    1.40
   1   2 -14    3.90    1.70
  -1  -2  14    3.00    1.30
  -1  -2  14    4.10    1.90
   0   2 -14    0.00    1.50
   0   2 -14    1.80    1.40
   0  -2  14    0.50    1.70
   0  -2  14    1.40    1.10
  -1   2 -14    0.10    1.80
   1  -2  14    3.10    1.90
  -2   2 -14    4.70    2.40
   2  -2  14    5.20    2.30
   5   1 -14   -2.20    1.80
  -5  -1  14   -0.70    0.90
  -5  -1  14   -1.00    2.00
   4   1 -14    1.50    1.50
  -4  -1  14    0.00    1.00
  -4  -1  14    4.20    2.20
   3   1 -14    1.40    1.40
   3   1 -14    1.10    1.20
  -3  -1  14    1.00    1.00
  -3  -1  14    0.30    1.60
   2   1 -14    9.80    1.80
   2   1 -14    9.40    1.90
  -2  -1  14    7.20    2.20
  -2  -1  14    8.80    1.70
   1   1 -14   -0.30    1.20
   1   1 -14    0.50    1.00
  -1  -1  14    0.20    1.60
  -1  -1  14    0.30    1.10
   0   1 -14    1.90    1.70
   0  -1  14    2.30    1.90
   0  -1  14   -0.20    1.10
  -1   1 -14   -1.10    1.80
   1  -1  14   -1.20    1.60
  -2   1 -14    0.40    2.10
   2  -1  14    1.40    2.00
   5   0 -14   -0.60    1.80
  -5   0  14   -1.10    0.90
  -5   0  14   -4.10    1.90
   4   0 -14   10.00    2.20
  -4   0  14    5.90    1.50
  -4   0  14   10.00    2.70
   3   0 -14    0.90    1.30
   3   0 -14    1.80    1.30
  -3   0  14    0.70    1.10
  -3   0  14    0.50    1.60
   2   0 -14   -0.20    1.10
   2   0 -14   -1.90    1.10
  -2   0  14    0.70    1.10
  -2   0  14    0.60    1.60
   1   0 -14    2.70    1.60
   1   0 -14    2.40    1.20
  -1   0  14    0.80    1.60
  -1   0  14    1.70    1.30
   0   0 -14    2.90    1.80
   0   0  14    1.90    1.30
   0   0  14    1.00    1.70
  -1   0 -14    0.10    1.80
   1   0  14   -2.60    1.60
  -2   0 -14   -0.70    2.00
   2   0  14    1.10    2.00
   5  -1 -14    0.30    1.90
  -5   1  14    1.50    1.10
  -5   1  14    1.20    2.30
   4  -1 -14    3.60    2.10
  -4   1  14    5.10    2.30
  -4   1  14    4.70    1.40
   3  -1 -14    2.40    1.40
   3  -1 -14    0.70    1.10
  -3   1  14   -0.60    1.60
  -3   1  14    1.30    1.10
   2  -1 -14    1.10    1.30
   2  -1 -14   -0.20    1.10
  -2   1  14    0.40    1.60
  -2   1  14   -1.20    1.00
   1  -1 -14    9.60    2.30
  -1   1  14    5.90    2.10
  -1   1  14    7.20    1.70
   0  -1 -14    1.20    1.70
   0   1  14    0.70    1.80
   0   1  14   -0.70    1.10
  -1  -1 -14    3.20    2.10
   1   1  14   -0.40    1.80
  -2  -1 -14    0.00    2.10
   2   1  14    1.60    2.20
   4  -2 -14    1.80    1.80
  -4   2  14    3.80    2.20
  -4   2  14    3.80    1.30
   3  -2 -14    0.30    1.20
   3  -2 -14    2.80    1.40
  -3   2  14   -0.30    1.80
  -3   2  14   -0.10    1.10
   2  -2 -14    0.60    1.20
   2  -2 -14    4.00    1.60
  -2   2  14    2.00    1.30
  -2   2  14    6.90    2.10
   1  -2 -14    0.30    1.50
  -1   2  14    0.20    1.80
  -1   2  14    1.20    1.30
   0  -2 -14    5.10    2.10
   0   2  14    2.90    2.10
  -1  -2 -14   -0.60    1.90
   1   2  14   -2.30    1.70
   4  -3 -14   -0.70    1.60
  -4   3  14   -2.50    1.80
  -4   3  14    0.30    1.00
   3  -3 -14   -0.30    1.30
  -3   3  14   -1.40    1.70
  -3   3  14   -0.80    0.90
   2  -3 -14    4.80    1.70
  -2   3  14    1.60    1.30
  -2   3  14    2.10    1.90
   1  -3 -14   -0.20    1.50
  -1   3  14   -0.60    1.70
  -1   3  14    0.90    1.30
   0  -3 -14    2.60    2.00
   0   3  14   -1.00    1.30
   0   3  14    0.90    1.90
  -1  -3 -14   -1.30    1.50
  -1  -3 -14    1.00    2.10
   1   3  14   -0.10    1.40
   1   3  14    0.10    1.90
   4  -4 -14   -2.20    1.50
  -4   4  14    0.40    1.10
  -4   4  14   -4.20    1.80
   3  -4 -14    0.50    1.40
  -3   4  14    2.70    1.40
  -3   4  14    2.20    2.00
   2  -4 -14   -0.50    1.50
   2  -4 -14   -1.60    1.00
  -2   4  14   -0.80    1.90
  -2   4  14    0.10    1.20
  -2   4  14    0.10    1.30
   1  -4 -14    3.40    1.90
   1  -4 -14    1.80    1.40
  -1   4  14    2.90    2.00
  -1   4  14    2.10    1.40
  -1   4  14    1.20    1.40
   0  -4 -14    1.40    1.60
   0  -4 -14    4.00    2.10
   0   4  14    1.40    1.60
   0   4  14    2.90    2.00
  -3   5  14    1.00    2.00
  -3   5  14    2.20    1.40
   2  -5 -14    2.60    1.30
   2  -5 -14    3.10    1.90
  -2   5  14   -0.80    1.20
  -2   5  14    1.20    1.50
  -2   5  14   -1.00    1.70
   1  -5 -14    1.90    1.60
   1  -5 -14    4.20    2.00
  -1   5  14   -1.40    1.30
  -1   5  14    0.70    1.80
  -1   5  14    1.60    1.60
   2  -6 -14    2.00    1.90
   1  13 -15    0.30    1.50
   1  13 -15   -4.10    2.30
  -1 -13  15   -2.00    1.40
   0  13 -15    1.40    1.40
   0  13 -15    2.10    2.60
   0 -13  15    2.40    1.60
  -1  13 -15    2.10    1.70
  -1  13 -15   -1.60    2.30
  -1  13 -15    0.10    2.50
   1 -13  15   -1.30    1.40
   2  12 -15   -0.40    1.30
  -2 -12  15    0.80    1.50
  -2 -12  15   -4.10    1.60
   1  12 -15    1.40    1.40
   1  12 -15    1.60    2.60
  -1 -12  15   -0.30    1.40
   0  12 -15    0.80    1.50
   0  12 -15    0.70    2.30
   0 -12  15    1.60    1.60
  -1  12 -15   -0.90    1.30
  -1  12 -15   -2.00    2.10
  -1  12 -15   -0.70    2.20
   1 -12  15    2.50    1.60
  -2  12 -15    0.90    2.60
  -2  12 -15   -2.80    2.00
  -2  12 -15   -0.10    1.40
   2 -12  15    1.10    1.50
   2 -12  15   -0.50    1.00
   2  11 -15    0.30    1.40
  -2 -11  15    2.20    1.60
  -2 -11  15    0.30    2.00
  -2 -11  15    1.30    1.60
   1  11 -15   -0.60    1.20
  -1 -11  15   -0.10    1.80
  -1 -11  15    0.10    1.50
   0  11 -15   -0.60    1.30
   0  11 -15    0.70    2.20
   0 -11  15   -2.20    1.60
   0 -11  15    0.40    1.60
  -1  11 -15    5.00    1.70
  -1  11 -15    3.70    2.40
  -1  11 -15    6.60    2.60
   1 -11  15    1.90    1.60
  -2  11 -15    1.30    1.30
  -2  11 -15    0.80    2.00
  -2  11 -15   -1.10    2.40
   2 -11  15   -1.20    1.00
   2 -11  15    0.60    1.50
   3  10 -15    3.20    1.50
   3  10 -15    2.30    1.70
  -3 -10  15    1.10    1.50
  -3 -10  15    4.10    2.50
  -3 -10  15    1.50    1.50
   2  10 -15    5.30    1.70
  -2 -10  15    4.40    2.30
  -2 -10  15    6.40    1.90
  -2 -10  15    6.70    1.80
   1  10 -15   -0.50    1.20
  -1 -10  15   -2.60    1.20
  -1 -10  15    0.50    1.70
   0  10 -15    2.80    2.40
   0  10 -15    0.70    1.20
   0  10 -15    2.20    2.10
   0 -10  15    0.30    1.30
   0 -10  15    0.90    1.80
  -1  10 -15   -0.70    2.10
  -1  10 -15    2.50    2.30
  -1  10 -15    1.70    1.30
   1 -10  15    0.70    1.40
   1 -10  15   -1.60    1.60
  -2  10 -15    2.30    2.20
  -2  10 -15    0.00    1.10
  -2  10 -15   -3.30    1.90
   2 -10  15    0.80    1.50
   3   9 -15    8.80    1.90
   3   9 -15    9.70    2.20
  -3  -9  15   11.70    2.80
  -3  -9  15   10.80    2.20
  -3  -9  15   11.70    2.10
   2   9 -15    0.20    1.30
  -2  -9  15   -1.50    1.90
  -2  -9  15    2.20    1.50
  -2  -9  15    2.20    1.40
   1   9 -15    0.70    1.80
   1   9 -15   -1.70    1.00
  -1  -9  15   -0.70    1.10
  -1  -9  15   -0.60    1.60
  -1  -9  15   -0.50    1.20
   0   9 -15   -0.70    1.60
   0   9 -15   -0.90    1.10
   0  -9  15    0.20    1.20
   0  -9  15    1.50    1.80
  -1   9 -15    1.90    2.20
  -1   9 -15    3.30    1.50
  -1   9 -15    4.30    2.40
   1  -9  15    5.10    1.60
   1  -9  15    1.50    1.80
  -2   9 -15   -1.30    1.20
  -2   9 -15    1.50    1.80
  -2   9 -15    3.60    2.50
   2  -9  15    0.20    1.40
   2  -9  15   -0.40    1.60
   3   8 -15    4.90    1.50
   3   8 -15    5.40    1.80
  -3  -8  15    4.50    1.60
  -3  -8  15    4.10    2.40
  -3  -8  15    0.00    1.40
   2   8 -15    2.00    1.40
   2   8 -15    2.00    1.70
  -2  -8  15    1.00    1.30
  -2  -8  15    0.30    1.90
  -2  -8  15    3.80    1.50
   1   8 -15    1.80    1.70
   1   8 -15    0.00    1.00
  -1  -8  15    1.00    1.70
  -1  -8  15   -0.20    1.20
  -1  -8  15    0.20    1.20
   0   8 -15    1.50    1.80
   0   8 -15    1.10    1.20
   0  -8  15    0.30    1.60
   0  -8  15    1.60    1.20
  -1   8 -15   -0.80    1.90
  -1   8 -15   -0.10    1.20
   1  -8  15   -0.60    1.20
   1  -8  15   -0.70    1.70
  -2   8 -15    0.20    2.20
  -2   8 -15    0.00    1.20
   2  -8  15   -1.70    1.30
   2  -8  15    3.50    1.90
   4   7 -15   -2.10    1.40
  -4  -7  15   -1.70    2.10
  -4  -7  15    0.00    1.30
   3   7 -15    3.00    1.40
   3   7 -15    0.80    1.50
   3   7 -15    2.50    1.60
  -3  -7  15    3.50    1.50
  -3  -7  15    0.80    1.20
  -3  -7  15    3.00    2.40
   2   7 -15   20.00    2.40
   2   7 -15   26.80    3.20
   2   7 -15   28.10    3.20
  -2  -7  15   25.70    2.70
  -2  -7  15   23.00    2.70
  -2  -7  15   21.60    3.20
   1   7 -15    0.50    1.50
   1   7 -15    1.00    1.00
  -1  -7  15   -1.10    1.00
  -1  -7  15   -0.50    1.00
  -1  -7  15    0.00    1.70
   0   7 -15    1.10    1.80
   0   7 -15    2.40    1.30
   0  -7  15    1.20    1.20
   0  -7  15    2.60    1.80
  -1   7 -15    0.30    2.00
  -1   7 -15    3.30    1.50
   1  -7  15    2.30    1.40
   1  -7  15    2.30    1.90
  -2   7 -15    3.30    2.40
   2  -7  15    3.40    2.00
  -3   7 -15    1.20    2.20
   4   6 -15   -0.40    1.80
  -4  -6  15   -0.10    2.20
  -4  -6  15    0.20    1.20
   3   6 -15    5.00    1.40
   3   6 -15    2.20    1.60
   3   6 -15    1.00    1.50
  -3  -6  15    2.50    2.40
  -3  -6  15    3.20    1.40
  -3  -6  15    2.90    1.40
   2   6 -15   -1.70    1.40
   2   6 -15    1.50    1.30
   2   6 -15   -0.80    1.00
  -2  -6  15   -0.80    1.00
  -2  -6  15    0.20    1.80
  -2  -6  15   -0.70    1.20
   1   6 -15    0.00    1.00
   1   6 -15    1.70    1.60
  -1  -6  15   -0.70    1.80
  -1  -6  15    0.80    1.20
  -1  -6  15    0.50    1.20
   0   6 -15    1.20    1.90
   0   6 -15   -0.30    1.00
   0  -6  15   -0.30    1.20
   0  -6  15   -2.80    1.00
   0  -6  15   -2.70    1.60
  -1   6 -15    1.90    1.90
   1  -6  15   -1.90    1.60
  -2   6 -15    4.30    2.20
   2  -6  15    1.50    2.00
   4   5 -15    1.30    1.70
  -4  -5  15    0.10    1.20
  -4  -5  15    2.90    2.40
   3   5 -15   -1.50    1.40
   3   5 -15   -1.40    1.50
   3   5 -15    0.20    0.90
  -3  -5  15   -2.20    1.70
  -3  -5  15    0.80    1.20
  -3  -5  15   -0.20    1.00
   2   5 -15    0.30    1.60
   2   5 -15    0.50    1.30
   2   5 -15   -1.10    1.00
  -2  -5  15   -1.20    1.10
  -2  -5  15    0.80    1.20
  -2  -5  15   -1.40    1.60
   1   5 -15    7.90    1.60
   1   5 -15    8.80    2.10
   1   5 -15   11.70    1.90
  -1  -5  15    5.90    1.70
  -1  -5  15    5.70    2.20
  -1  -5  15    4.30    1.40
   0   5 -15   10.50    2.30
   0   5 -15    5.00    1.50
   0  -5  15    3.10    1.40
   0  -5  15    4.90    1.60
   0  -5  15    8.10    2.30
  -1   5 -15    8.10    2.40
   1  -5  15    7.70    2.40
  -2   5 -15    2.00    2.30
   2  -5  15    1.50    2.10
   4   4 -15   -0.40    1.70
  -4  -4  15    0.40    2.20
  -4  -4  15   -0.30    1.10
   3   4 -15    2.00    1.40
   3   4 -15    0.80    1.00
   3   4 -15   -2.60    1.40
  -3  -4  15   -1.40    1.90
  -3  -4  15    0.30    1.00
  -3  -4  15    0.50    1.10
   2   4 -15    7.80    1.60
   2   4 -15    3.10    1.70
   2   4 -15    6.30    1.70
  -2  -4  15    3.80    1.50
  -2  -4  15    4.90    2.20
  -2  -4  15    8.10    1.70
   1   4 -15   -0.30    1.00
   1   4 -15    0.40    1.20
   1   4 -15    0.40    1.50
  -1  -4  15    0.80    1.30
  -1  -4  15   -2.20    1.60
  -1  -4  15    0.20    1.10
   0   4 -15    5.50    1.50
   0   4 -15    5.90    2.00
   0  -4  15    3.00    1.40
   0  -4  15    3.50    2.10
  -1   4 -15    0.30    1.70
   1  -4  15    1.00    1.90
  -2   4 -15    1.10    2.20
   2  -4  15    0.70    2.00
   4   3 -15    0.40    1.70
  -4  -3  15   -0.50    1.10
  -4  -3  15    0.30    2.10
   3   3 -15    0.40    1.20
   3   3 -15    0.80    1.40
  -3  -3  15   -1.70    1.00
  -3  -3  15    1.00    1.80
   2   3 -15    0.00    1.40
   2   3 -15    1.20    1.40
  -2  -3  15    0.10    1.80
  -2  -3  15    0.80    1.10
   1   3 -15    5.90    2.00
   1   3 -15    4.20    1.50
  -1  -3  15    1.20    1.30
  -1  -3  15    3.60    2.00
   0   3 -15    0.20    1.70
   0  -3  15   -1.40    1.00
   0  -3  15    0.30    1.80
  -1   3 -15   -0.90    1.70
   1  -3  15    0.60    1.90
  -2   3 -15    1.60    2.20
   2  -3  15   -0.10    2.00
   4   2 -15   -0.10    1.80
  -4  -2  15    1.60    2.20
  -4  -2  15    2.10    1.30
   3   2 -15    0.40    1.40
   3   2 -15    0.30    1.20
  -3  -2  15   -0.20    1.80
  -3  -2  15    0.30    1.00
   2   2 -15   -0.60    1.10
   2   2 -15   -1.80    1.10
  -2  -2  15   -2.20    0.90
  -2  -2  15   -3.40    1.40
   1   2 -15    1.90    1.60
   1   2 -15    0.00    1.10
  -1  -2  15    0.70    1.20
  -1  -2  15   -0.10    1.60
   0   2 -15   -1.00    1.60
   0  -2  15   -1.10    1.00
   0  -2  15    1.70    1.90
  -1   2 -15    1.70    2.10
   1  -2  15   -0.70    1.80
  -2   2 -15    5.80    2.60
   2  -2  15    2.50    2.20
   4   1 -15    1.40    1.80
  -4  -1  15    5.30    2.40
  -4  -1  15   -1.30    1.10
   3   1 -15    9.60    1.90
   3   1 -15    6.30    1.90
  -3  -1  15    9.70    2.50
  -3  -1  15    4.20    1.40
   2   1 -15   -0.60    1.10
   2   1 -15    1.00    1.50
  -2  -1  15   -1.10    0.80
  -2  -1  15    0.70    1.80
   1   1 -15   -1.30    1.40
   1   1 -15    0.80    1.20
  -1  -1  15   -1.80    1.00
  -1  -1  15   -0.50    1.80
   0   1 -15    7.50    2.40
   0  -1  15    6.80    2.20
   0  -1  15    5.10    1.90
  -1   1 -15   -2.70    1.80
   1  -1  15    1.00    2.20
  -2   1 -15   -1.10    2.30
   2  -1  15   -0.80    1.90
   4   0 -15    5.40    2.00
  -4   0  15    2.50    1.30
  -4   0  15    4.60    2.60
   3   0 -15   -0.60    1.40
   3   0 -15    2.10    1.40
  -3   0  15   -1.00    2.00
  -3   0  15    1.50    1.20
   2   0 -15    0.70    1.20
   2   0 -15   -0.90    1.40
  -2   0  15    1.20    1.80
  -2   0  15    0.50    1.10
   1   0 -15    5.00    1.90
  -1   0  15    2.40    1.50
  -1   0  15    0.40    1.80
   0   0 -15    1.50    1.90
   0   0  15    1.30    2.00
  -1   0 -15   -0.40    1.90
   1   0  15   -0.60    1.80
   4  -1 -15    0.10    1.80
  -4   1  15    0.30    1.10
  -4   1  15   -1.90    2.10
   3  -1 -15    0.20    1.90
   3  -1 -15   -0.10    1.50
  -3   1  15    0.30    2.10
  -3   1  15   -1.00    1.10
   2  -1 -15    0.50    1.40
   2  -1 -15   -0.50    1.20
  -2   1  15   -1.70    1.00
  -2   1  15   -1.60    1.70
   1  -1 -15    2.40    1.70
  -1   1  15   -0.80    1.10
  -1   1  15    0.30    1.80
   0  -1 -15    1.50    1.90
   0   1  15   -1.20    1.80
  -1  -1 -15    0.40    2.00
   1   1  15    2.10    2.10
   4  -2 -15    1.80    1.90
  -4   2  15    5.80    2.50
  -4   2  15    1.60    1.30
   3  -2 -15    0.40    1.50
  -3   2  15   -1.30    2.00
  -3   2  15   -0.80    1.10
   2  -2 -15    4.80    1.90
  -2   2  15    1.50    1.40
  -2   2  15   -1.80    2.00
   1  -2 -15    0.50    1.70
  -1   2  15   -2.20    1.10
  -1   2  15   -0.50    1.70
   0  -2 -15    1.80    2.00
   0   2  15    5.90    2.40
   3  -3 -15   -0.40    1.40
  -3   3  15   -2.10    1.80
  -3   3  15    0.00    1.20
   2  -3 -15    0.90    1.50
  -2   3  15   -0.80    1.20
  -2   3  15    1.40    2.10
   1  -3 -15   -0.20    1.70
  -1   3  15   -2.80    1.70
  -1   3  15   -2.10    1.20
   0  -3 -15    0.10    1.50
   0  -3 -15    3.50    2.10
   0   3  15    2.00    2.10
   0   3  15   -0.10    1.30
  -3   4  15   -1.00    1.90
  -3   4  15   -1.70    1.10
   2  -4 -15   -1.90    1.10
   2  -4 -15    2.40    1.80
  -2   4  15    0.00    1.30
  -2   4  15   -1.00    1.90
  -2   4  15    0.70    1.30
   1  -4 -15   -1.90    1.20
   1  -4 -15    0.80    1.70
  -1   4  15    0.10    1.50
  -1   4  15    2.00    1.50
  -1   4  15   -0.30    2.00
   1  12 -16    0.40    1.50
  -1 -12  16   -0.20    1.40
   0  12 -16    0.60    1.50
   0  12 -16   -2.40    2.00
   0  12 -16   -4.50    2.10
   0 -12  16    0.10    1.70
  -1  12 -16   -0.10    2.30
  -1  12 -16    0.50    2.50
  -1  12 -16   -0.20    1.40
   1 -12  16   -0.90    1.50
   2  11 -16    0.40    1.40
  -2 -11  16    2.80    1.70
  -2 -11  16   -0.30    2.00
   1  11 -16    1.00    1.40
  -1 -11  16    0.60    1.60
  -1 -11  16   -2.90    1.70
   0  11 -16    2.20    2.30
   0  11 -16   -1.50    1.30
   0  11 -16   -3.90    2.10
   0 -11  16   -0.70    1.50
   0 -11  16    0.00    1.90
  -1  11 -16   -3.80    2.10
  -1  11 -16    0.10    1.30
  -1  11 -16   -0.70    2.20
   1 -11  16    1.10    1.50
   2  10 -16    7.80    2.00
  -2 -10  16    8.90    2.10
  -2 -10  16    8.20    2.10
  -2 -10  16    9.60    2.70
   1  10 -16    0.90    1.40
   1  10 -16   -0.70    2.00
  -1 -10  16   -1.80    1.90
  -1 -10  16   -0.30    1.40
   0  10 -16   -1.00    1.20
   0  10 -16    1.40    2.00
   0 -10  16   -0.90    1.70
   0 -10  16   -0.50    1.40
  -1  10 -16    0.20    1.30
  -1  10 -16    0.80    2.40
   1 -10  16    0.00    1.40
   1 -10  16    1.60    1.90
  -2  10 -16   -1.60    2.30
   3   9 -16    3.40    1.50
   3   9 -16    2.50    2.00
   3   9 -16    2.60    2.10
  -3  -9  16    2.90    1.60
  -3  -9  16    3.40    1.80
  -3  -9  16    3.20    2.40
   2   9 -16    0.80    1.30
   2   9 -16    0.40    1.80
  -2  -9  16   -0.90    2.10
  -2  -9  16   -0.40    1.40
  -2  -9  16    0.20    1.40
   1   9 -16    3.40    2.20
   1   9 -16    4.80    1.50
  -1  -9  16    7.50    1.80
  -1  -9  16    2.00    2.10
   0   9 -16    0.30    1.80
   0   9 -16    0.10    1.20
   0  -9  16   -2.90    1.70
   0  -9  16   -0.20    1.30
  -1   9 -16    0.60    1.30
  -1   9 -16   -1.90    2.10
   1  -9  16    0.00    1.30
   1  -9  16    2.80    1.90
  -2   9 -16   -0.50    2.30
  -2   9 -16    1.40    1.50
   2  -9  16    0.40    1.40
   2  -9  16    2.70    1.90
   3   8 -16   -2.20    1.60
   3   8 -16   -1.10    1.10
   3   8 -16    1.00    1.90
  -3  -8  16   -1.50    1.20
  -3  -8  16   -3.00    2.10
  -3  -8  16   -0.20    1.30
   2   8 -16    3.30    2.00
   2   8 -16    4.00    1.50
  -2  -8  16    4.90    1.80
  -2  -8  16    2.50    2.20
  -2  -8  16    2.30    1.50
   1   8 -16    0.70    1.20
   1   8 -16    1.70    1.90
  -1  -8  16   -2.40    1.80
  -1  -8  16   -0.30    1.40
  -1  -8  16   -0.40    1.20
   0   8 -16    0.10    1.20
   0   8 -16    0.80    2.00
   0  -8  16   -1.20    1.20
   0  -8  16   -1.90    1.60
  -1   8 -16   -0.50    1.30
  -1   8 -16    3.50    2.30
   1  -8  16    2.50    2.00
   1  -8  16   -1.40    1.20
  -2   8 -16    2.10    2.40
   2  -8  16    1.70    2.00
   3   7 -16    2.60    1.80
   3   7 -16    1.00    1.20
   3   7 -16    1.10    1.80
  -3  -7  16   -3.90    1.90
  -3  -7  16   -0.80    1.30
  -3  -7  16   -1.50    1.10
   2   7 -16    0.80    1.70
   2   7 -16    2.20    1.30
   2   7 -16    0.90    1.70
  -2  -7  16   -1.80    2.00
  -2  -7  16    0.40    1.30
  -2  -7  16    0.90    1.40
   1   7 -16    0.10    1.20
   1   7 -16   -0.70    1.80
  -1  -7  16   -0.10    1.90
  -1  -7  16    0.90    1.30
  -1  -7  16   -1.40    1.10
   0   7 -16    0.40    1.20
   0   7 -16    0.70    1.90
   0  -7  16   -1.90    1.80
   0  -7  16    0.10    1.30
  -1   7 -16    5.30    2.50
  -1   7 -16    2.30    1.60
   1  -7  16    1.20    1.40
   1  -7  16    0.40    1.90
  -2   7 -16   -1.40    2.20
   2  -7  16   -0.40    1.80
   3   6 -16    4.40    2.00
   3   6 -16    2.40    1.90
   3   6 -16    2.10    1.20
  -3  -6  16   -0.10    2.20
  -3  -6  16    2.20    1.50
  -3  -6  16    0.00    1.20
   2   6 -16   -1.10    1.60
   2   6 -16   -2.10    1.00
   2   6 -16   -1.30    1.40
  -2  -6  16   -2.10    1.80
  -2  -6  16    1.80    1.30
  -2  -6  16   -2.10    1.10
   1   6 -16    4.90    2.00
   1   6 -16    5.60    1.60
  -1  -6  16    5.40    2.30
  -1  -6  16    4.20    1.50
  -1  -6  16    1.90    1.50
   0   6 -16    1.00    1.90
   0   6 -16    4.70    1.50
   0  -6  16    1.60    2.00
   0  -6  16    5.70    1.70
  -1   6 -16    1.40    2.10
   1  -6  16   -0.60    2.00
  -2   6 -16    2.60    2.50
   2  -6  16   -0.60    1.90
   4   5 -16    0.30    1.80
  -4  -5  16    0.50    1.20
  -4  -5  16   -0.50    2.50
   3   5 -16   -2.40    1.30
   3   5 -16   -1.20    1.40
   3   5 -16   -0.90    1.00
  -3  -5  16   -2.00    2.00
  -3  -5  16   -0.20    1.20
  -3  -5  16    0.00    1.30
   2   5 -16    0.00    1.70
   2   5 -16    3.40    1.70
   2   5 -16    0.70    1.20
  -2  -5  16    2.80    1.40
  -2  -5  16    0.90    1.30
  -2  -5  16    2.60    2.10
   1   5 -16    1.80    1.40
   1   5 -16   -1.30    1.10
   1   5 -16    1.60    1.80
  -1  -5  16   -0.40    1.40
  -1  -5  16   -0.10    1.20
  -1  -5  16   -0.30    1.90
   0   5 -16    2.70    1.50
   0   5 -16    1.00    1.80
   0  -5  16    1.90    2.10
  -1   5 -16    2.60    2.10
   1  -5  16    3.80    2.20
  -2   5 -16    3.30    2.40
   2  -5  16   -0.40    2.00
   4   4 -16    8.20    2.50
  -4  -4  16    8.90    2.90
  -4  -4  16    4.80    1.50
   3   4 -16    0.00    1.40
   3   4 -16    1.10    1.60
  -3  -4  16    0.90    1.30
  -3  -4  16   -0.40    1.20
  -3  -4  16    2.40    2.30
   2   4 -16   -0.20    1.40
   2   4 -16    0.60    1.60
  -2  -4  16   -0.90    1.10
  -2  -4  16    0.20    1.80
   1   4 -16    1.50    1.30
   1   4 -16   -1.90    1.60
  -1  -4  16   -0.20    1.10
  -1  -4  16    1.80    2.00
   0   4 -16    0.50    1.90
   0  -4  16   -0.60    1.90
  -1   4 -16    1.00    2.00
   1  -4  16    0.20    2.10
  -2   4 -16    0.00    2.40
   2  -4  16   -0.20    2.00
   4   3 -16    0.30    1.80
  -4  -3  16   -3.60    2.00
  -4  -3  16    0.10    1.20
   3   3 -16    1.70    1.50
   3   3 -16    3.40    1.70
  -3  -3  16    0.80    2.20
  -3  -3  16    0.30    1.20
   2   3 -16    2.20    1.70
   2   3 -16    0.10    1.40
  -2  -3  16   -0.80    1.00
  -2  -3  16    0.90    2.00
   1   3 -16    2.30    1.40
   1   3 -16    5.00    2.00
  -1  -3  16    1.00    1.40
  -1  -3  16    1.90    2.00
   0   3 -16    3.70    2.10
   0  -3  16   -1.70    1.90
  -1   3 -16    0.30    2.10
   1  -3  16   -0.70    2.10
   4   2 -16   -0.40    1.80
  -4  -2  16   -3.90    2.10
  -4  -2  16   -1.40    1.00
   3   2 -16    7.60    2.10
   3   2 -16    8.60    2.00
  -3  -2  16    4.30    1.60
  -3  -2  16    8.60    2.70
   2   2 -16    0.40    1.50
   2   2 -16   -0.40    1.40
  -2  -2  16    0.90    1.90
  -2  -2  16    1.20    1.20
   1   2 -16   -0.50    1.60
  -1  -2  16   -1.90    1.70
  -1  -2  16   -0.90    1.20
   0   2 -16    1.10    2.00
   0  -2  16   -1.00    1.90
  -1   2 -16   -0.30    2.20
   1  -2  16   -1.70    1.90
   4   1 -16   -2.30    1.60
  -4  -1  16   -0.60    1.20
  -4  -1  16    0.70    2.50
   3   1 -16    3.80    1.90
   3   1 -16    3.60    1.80
  -3  -1  16    1.90    1.40
  -3  -1  16    2.80    2.30
   2   1 -16   -1.20    1.50
   2   1 -16   -0.30    1.30
  -2  -1  16    0.60    1.20
  -2  -1  16   -0.30    2.00
   1   1 -16   -0.60    1.70
  -1  -1  16   -2.80    1.90
  -1  -1  16   -0.20    1.30
   0   1 -16    0.40    2.00
   0  -1  16    4.70    2.30
  -1   1 -16    2.30    2.20
   1  -1  16   -1.40    2.10
   3   0 -16    2.40    1.80
  -3   0  16   -1.00    2.10
  -3   0  16    1.20    1.40
   2   0 -16   -0.20    1.40
   2   0 -16   -1.50    1.60
  -2   0  16    0.10    1.20
  -2   0  16   -1.50    2.20
   1   0 -16    1.40    1.70
  -1   0  16   -0.90    1.20
  -1   0  16    1.80    2.20
   0   0 -16   -1.10    1.70
   0   0  16   -1.00    1.90
   3  -1 -16    0.10    1.60
  -3   1  16    0.60    1.20
  -3   1  16    1.80    2.40
   2  -1 -16   -0.70    1.60
  -2   1  16   -2.70    1.90
  -2   1  16   -1.30    1.10
   1  -1 -16    2.90    2.00
  -1   1  16   -2.10    1.10
  -1   1  16   -0.80    2.10
   0  -1 -16    3.80    2.10
   0   1  16    0.00    2.00
   3  -2 -16   -0.90    2.10
  -3   2  16   -1.40    2.30
  -3   2  16    0.50    1.30
   2  -2 -16   -2.10    1.60
  -2   2  16   -0.10    1.30
  -2   2  16   -1.80    2.00
   1  -2 -16    0.00    1.70
  -1   2  16    1.60    1.50
  -1   2  16    0.40    2.10
   2  -3 -16    1.20    1.70
   1  11 -17    0.40    1.50
   1  11 -17   -0.60    2.10
   0  11 -17   -0.60    2.30
   0  11 -17    2.30    1.50
   0 -11  17   -0.70    2.50
   0 -11  17    0.80    1.70
   2  10 -17    2.00    2.10
   1  10 -17    0.20    1.40
   1  10 -17    1.90    2.10
  -1 -10  17   -1.50    2.10
  -1 -10  17   -1.30    1.50
   0  10 -17   -4.30    1.90
   0  10 -17    0.10    1.40
   0 -10  17   -1.80    1.20
   0 -10  17   -1.60    2.00
  -1  10 -17   -2.70    2.20
   2   9 -17    0.70    1.40
   2   9 -17   -0.90    1.90
  -2  -9  17   -4.10    1.90
  -2  -9  17    2.40    1.70
  -2  -9  17   -1.70    1.40
   1   9 -17    4.20    1.60
   1   9 -17    2.00    2.30
  -1  -9  17    3.50    2.40
  -1  -9  17    3.90    1.70
   0   9 -17   -1.30    1.20
   0   9 -17   -1.20    1.90
   0  -9  17   -0.60    1.40
   0  -9  17   -2.50    1.90
  -1   9 -17   -2.90    2.10
  -1   9 -17   -0.80    1.40
   1  -9  17    1.60    2.00
   1  -9  17    0.20    1.40
   3   8 -17    0.20    1.90
   2   8 -17    0.90    1.70
   2   8 -17   -1.60    1.80
   2   8 -17    0.00    1.40
  -2  -8  17   -0.40    2.00
  -2  -8  17   -1.40    1.40
  -2  -8  17    1.30    1.50
   1   8 -17    0.90    1.30
   1   8 -17   -2.80    1.80
  -1  -8  17    0.10    1.40
  -1  -8  17   -3.00    1.90
   0   8 -17   -0.40    1.30
   0   8 -17    2.90    2.20
   0  -8  17   -1.00    1.40
   0  -8  17   -3.40    1.90
  -1   8 -17   -0.50    2.30
  -1   8 -17   -0.50    1.60
   1  -8  17    0.10    2.00
   1  -8  17   -1.20    1.40
   3   7 -17    0.70    1.90
   3   7 -17    2.30    1.90
   3   7 -17    2.30    1.40
  -3  -7  17   -0.40    1.30
  -3  -7  17    1.70    1.50
  -3  -7  17   -0.30    2.10
   2   7 -17   -1.20    1.80
   2   7 -17    1.70    1.70
   2   7 -17   -1.50    1.20
  -2  -7  17   -1.00    1.20
  -2  -7  17    0.20    2.20
  -2  -7  17   -1.70    1.40
   1   7 -17    1.20    1.50
   1   7 -17   -2.70    1.70
  -1  -7  17   -3.30    2.00
  -1  -7  17   -2.10    1.60
  -1  -7  17   -1.00    1.30
   0   7 -17    1.80    1.50
   0   7 -17    3.70    2.30
   0  -7  17    1.10    2.20
   0  -7  17    0.30    1.40
  -1   7 -17   -0.40    2.00
   1  -7  17    0.00    2.00
   3   6 -17    1.30    1.70
   3   6 -17   -0.30    1.20
   3   6 -17    1.80    1.80
  -3  -6  17   -1.30    1.20
  -3  -6  17   -3.90    2.10
  -3  -6  17    0.00    1.40
   2   6 -17   -2.00    1.50
   2   6 -17    0.10    1.20
   2   6 -17   -1.60    1.70
  -2  -6  17   -1.50    1.90
  -2  -6  17    0.40    1.40
  -2  -6  17   -1.70    1.20
   1   6 -17   -2.60    1.70
   1   6 -17    0.90    1.30
   1   6 -17    2.00    1.70
  -1  -6  17    0.60    1.50
  -1  -6  17    1.20    2.10
  -1  -6  17    1.80    1.40
   0   6 -17    2.00    1.90
   0  -6  17   -1.30    2.10
  -1   6 -17    4.30    2.30
   1  -6  17   -1.00    2.10
   3   5 -17    2.30    1.30
   3   5 -17    0.80    1.70
   3   5 -17   -0.10    1.70
  -3  -5  17    0.50    1.40
  -3  -5  17    1.60    1.40
  -3  -5  17   -2.70    2.10
   2   5 -17   -0.30    1.70
   2   5 -17   -0.50    1.10
   2   5 -17   -3.20    1.30
  -2  -5  17   -2.00    1.10
  -2  -5  17   -0.80    2.10
  -2  -5  17   -0.20    1.30
   1   5 -17    1.00    1.50
   1   5 -17    1.30    1.90
  -1  -5  17    0.40    1.30
  -1  -5  17    6.10    2.40
   0   5 -17    4.10    2.10
   0  -5  17    0.20    2.10
  -1   5 -17    1.80    2.20
   1  -5  17    2.90    2.30
   3   4 -17    0.50    1.60
   3   4 -17    1.90    1.70
  -3  -4  17    2.10    2.40
  -3  -4  17   -0.20    1.30
   2   4 -17   -0.60    1.60
   2   4 -17    1.60    1.60
  -2  -4  17   -1.20    2.10
  -2  -4  17   -0.20    1.20
   1   4 -17    1.70    1.90
   1   4 -17    1.30    1.40
  -1  -4  17   -1.10    1.90
  -1  -4  17   -1.30    1.20
   0   4 -17    2.70    2.00
   0  -4  17    0.70    2.20
  -1   4 -17    1.30    2.30
   1  -4  17    3.40    2.30
   3   3 -17    2.30    1.80
   3   3 -17    3.20    1.80
  -3  -3  17    1.10    2.40
  -3  -3  17    0.70    1.40
   2   3 -17    1.40    1.50
   2   3 -17    4.90    2.00
  -2  -3  17    0.50    1.30
  -2  -3  17    3.10    2.40
   1   3 -17   -0.10    1.70
  -1  -3  17    1.90    1.50
  -1  -3  17    1.10    2.20
   0   3 -17    0.00    1.90
   0  -3  17    1.70    2.10
  -1   3 -17   -0.80    2.20
   3   2 -17    0.90    1.80
  -3  -2  17    2.10    1.50
  -3  -2  17    0.70    2.30
   2   2 -17    2.30    1.80
   2   2 -17   -0.30    1.40
  -2  -2  17    1.00    1.40
  -2  -2  17    1.20    2.30
   1   2 -17   -3.00    1.50
  -1  -2  17    0.20    2.30
  -1  -2  17   -0.80    1.30
   0   2 -17   -0.90    2.00
   0  -2  17   -2.10    2.00
   3   1 -17    0.30    1.70
  -3  -1  17   -0.40    1.30
  -3  -1  17   -1.50    2.40
   2   1 -17   -1.30    1.80
  -2  -1  17   -2.10    1.10
  -2  -1  17   -0.20    2.30
   1   1 -17    0.20    1.80
  -1  -1  17   -0.10    2.30
  -1  -1  17   -1.80    1.20
   0   1 -17    1.40    2.10
   0  -1  17    1.00    2.30
   2   0 -17   -0.40    1.80
  -2   0  17    0.50    1.40
  -2   0  17    0.50    2.20
   1   0 -17    1.10    1.80
  -1   0  17   -1.10    2.10
  -1   0  17    0.10    1.30
   2  -1 -17    0.10    1.70
   1   9 -18    0.90    2.40
   0   9 -18    2.00    2.60
   2   8 -18    0.40    2.10
   1   8 -18   -0.30    1.50
   1   8 -18    1.50    2.20
  -1  -8  18    0.10    2.20
  -1  -8  18   -1.70    1.40
   0   8 -18    0.00    1.50
   0   8 -18   -0.80    2.20
   0  -8  18    0.30    2.30
   0  -8  18    2.00    1.70
   2   7 -18    0.40    2.00
   2   7 -18    1.40    1.70
   2   7 -18    0.10    1.30
  -2  -7  18   -1.60    1.20
  -2  -7  18    0.50    1.60
  -2  -7  18   -2.90    2.10
   1   7 -18   -0.20    1.40
   1   7 -18   -0.70    1.60
   1   7 -18   -1.60    2.00
  -1  -7  18   -0.20    2.20
  -1  -7  18   -0.70    1.50
   0   7 -18   -0.20    2.20
   0  -7  18   -1.60    2.10
   2   6 -18    0.10    1.90
   2   6 -18    2.00    1.90
   2   6 -18   -0.30    1.30
  -2  -6  18   -0.50    1.50
  -2  -6  18    1.80    1.70
  -2  -6  18    2.00    2.50
   1   6 -18   -0.60    1.60
   1   6 -18   -1.00    1.90
  -1  -6  18    1.00    2.00
   0   6 -18   -2.60    1.90
   0  -6  18    0.10    2.30
   2   5 -18   -0.50    1.60
   2   5 -18    0.50    1.90
  -2  -5  18    0.40    1.40
  -2  -5  18    0.50    2.40
   1   5 -18   -0.60    1.60
   1   5 -18   -2.70    1.80
  -1  -5  18   -4.60    1.90
   0   5 -18   -0.90    2.10
   0  -5  18    2.10    2.30
   2   4 -18    5.10    2.10
   2   4 -18    2.70    1.80
  -2  -4  18    0.00    1.50
  -2  -4  18    1.40    2.40
   1   4 -18    2.40    2.00
  -1  -4  18   -1.90    2.20
   0   4 -18    0.40    2.10
   2   3 -18    2.80    1.90
   2   3 -18    6.70    2.20
  -2  -3  18    3.40    1.70
  -2  -3  18    3.70    2.70
   1   3 -18    1.30    2.10
  -1  -3  18   -0.50    2.30
   2   2 -18    2.00    2.10
   1   2 -18   -2.10    1.90
_computing_structure_solution     'SHELXT 2014/4 (Sheldrick, 2015)'
_computing_structure_solution     'SHELXT 2014/4 (Sheldrick, 2015)'
_computing_structure_solution     'SHELXT 2014/4 (Sheldrick, 2015)'
;
_shelx_hkl_checksum              24018
_shelx_res_file
;
    shelx.res created by SHELXL-2014/7
TITL BAD16_D344_DRX1_a_a_a.res in P-1
CELL  0.71073   4.7764  11.7499  13.0666  109.917   99.766  101.710
ZERR     2.00   0.0010   0.0026   0.0031    0.010    0.011    0.010
LATT   1
SFAC  C    H    N    O    F    S
UNIT  26 20 2 2 2 4
MERG   2
OMIT     0   0   1
SHEL 50 0.78
EQIV $1 -x, -y, -z+1
HTAB C7 O1_$1
HTAB C3 O1_$1
FMAP   2
PLAN   10
ACTA
BOND   $H
L.S.  10
TEMP    23.00
WGHT    0.070600    0.227400
FVAR       0.63088
C1    1    0.319674    0.528421    0.872808    11.00000    0.09791    0.06228 =
         0.07756    0.02072    0.03735    0.03029
C2    1    0.146104    0.409669    0.847872    11.00000    0.11258    0.07548 =
         0.08805    0.02926    0.05776    0.02248
AFIX  43
H2    2    0.025976    0.395018    0.893738    11.00000   -1.20000
AFIX   0
C3    1    0.152424    0.312412    0.753835    11.00000    0.08018    0.05758 =
         0.07543    0.02618    0.03171    0.00850
AFIX  43
H3    2    0.035173    0.231342    0.736332    11.00000   -1.20000
AFIX   0
C4    1    0.330195    0.332593    0.684357    11.00000    0.05591    0.05055 =
         0.05998    0.02485    0.01511    0.01122
C5    1    0.498408    0.456043    0.713189    11.00000    0.08486    0.05797 =
         0.08245    0.02623    0.03780    0.00826
AFIX  43
H5    2    0.616980    0.472917    0.667566    11.00000   -1.20000
AFIX   0
C6    1    0.493113    0.553130    0.807208    11.00000    0.09988    0.04775 =
         0.09298    0.01942    0.03777    0.00981
AFIX  43
H6    2    0.607529    0.634894    0.825498    11.00000   -1.20000
AFIX   0
C7    1    0.319094    0.225899    0.585415    11.00000    0.05572    0.04723 =
         0.06194    0.02452    0.01483    0.00569
AFIX  43
H7    2    0.192429    0.150053    0.577098    11.00000   -1.20000
AFIX   0
C8    1    0.459434    0.217003    0.503402    11.00000    0.05192    0.04915 =
         0.06028    0.02645    0.01196    0.00504
C9    1    0.408813    0.095449    0.410606    11.00000    0.05526    0.04875 =
         0.05968    0.02213    0.01543    0.00812
C10   1    0.754897    0.227633    0.362541    11.00000    0.04542    0.06134 =
         0.07189    0.03508    0.01458    0.01398
C11   1    0.574584   -0.001008    0.238088    11.00000    0.07269    0.06138 =
         0.07995    0.02551    0.03456    0.02182
AFIX  23
H11A  2    0.518148   -0.077317    0.252121    11.00000   -1.20000
H11B  2    0.770604    0.007322    0.225324    11.00000   -1.20000
AFIX   0
C12   1    0.361560   -0.012692    0.135190    11.00000    0.11499    0.06708 =
         0.06826    0.01921    0.02490    0.01788
AFIX  43
H12   2    0.382694    0.058590    0.117912    11.00000   -1.20000
AFIX   0
C13   1    0.156079   -0.108711    0.069155    11.00000    0.15373    0.08842 =
         0.09171    0.01984    0.01484    0.03069
AFIX  93
H13A  2    0.125397   -0.182497    0.082598    11.00000   -1.20000
H13B  2    0.034761   -0.105952    0.006865    11.00000   -1.20000
AFIX   0
N1    3    0.584658    0.108062    0.337868    11.00000    0.05204    0.05560 =
         0.06027    0.02607    0.01868    0.01305
O1    4    0.241539   -0.004592    0.395276    11.00000    0.08300    0.05228 =
         0.07762    0.02099    0.03048   -0.00333
F1    5    0.313889    0.624261    0.965302    11.00000    0.16757    0.07301 =
         0.11166    0.01339    0.07502    0.03366
S1    6    0.710395    0.334712    0.484337    11.00000    0.05342    0.05149 =
         0.07311    0.02706    0.01904    0.00330
S2    6    0.973646    0.269589    0.290231    11.00000    0.06694    0.08651 =
         0.09543    0.04692    0.03820    0.01290
HKLF 4
REM  BAD16_D344_DRX1_a_a_a.res in P-1
REM R1 =  0.0496 for    2035 Fo > 4sig(Fo)  and  0.0733 for all    2861 data
REM    163 parameters refined using      0 restraints
END
WGHT      0.0707      0.2271
REM Highest difference peak  0.539,  deepest hole -0.229,  1-sigma level  0.054
Q1    1   0.6595  0.2988  0.3955  11.00000  0.05    0.54
Q2    1   1.0257  0.3110  0.3828  11.00000  0.05    0.40
Q3    1   0.7725  0.3724  0.5817  11.00000  0.05    0.37
Q4    1   0.8893  0.2512  0.1994  11.00000  0.05    0.30
Q5    1   0.3861 -0.0834  0.1396  11.00000  0.05    0.27
Q6    1   0.4926  0.2379  0.5815  11.00000  0.05    0.25
Q7    1   0.8233  0.2974  0.2682  11.00000  0.05    0.23
Q8    1   0.7475  0.2271  0.2787  11.00000  0.05    0.21
Q9    1   0.3002  0.2961  0.6194  11.00000  0.05    0.20
Q10   1   1.1106  0.2284  0.2401  11.00000  0.05    0.19
;
_shelx_res_checksum              28909
loop_
_space_group_symop_operation_xyz
'x, y, z'
'-x, -y, -z'
loop_
_atom_site_type_symbol
_atom_site_label
_atom_site_fract_x
_atom_site_fract_y
_atom_site_fract_z
_atom_site_U_iso_or_equiv
_atom_site_adp_type
_atom_site_calc_flag
_atom_site_occupancy
C C1 0.3197(8) 0.5284(3) 0.8728(3) 0.0779(9) Uani d 1
C C2 0.1461(9) 0.4097(3) 0.8479(3) 0.0892(10) Uani d 1
H H2 0.0260 0.3950 0.8937 0.107 Uiso calc 1
C C3 0.1524(7) 0.3124(3) 0.7538(3) 0.0712(8) Uani d 1
H H3 0.0352 0.2313 0.7363 0.085 Uiso calc 1
C C4 0.3302(6) 0.3326(2) 0.6844(2) 0.0551(6) Uani d 1
C C5 0.4984(7) 0.4560(3) 0.7132(3) 0.0751(8) Uani d 1
H H5 0.6170 0.4729 0.6676 0.090 Uiso calc 1
C C6 0.4931(8) 0.5531(3) 0.8072(3) 0.0825(9) Uani d 1
H H6 0.6075 0.6349 0.8255 0.099 Uiso calc 1
C C7 0.3191(6) 0.2259(2) 0.5854(2) 0.0555(6) Uani d 1
H H7 0.1924 0.1501 0.5771 0.067 Uiso calc 1
C C8 0.4594(5) 0.2170(2) 0.5034(2) 0.0541(6) Uani d 1
C C9 0.4088(6) 0.0954(2) 0.4106(2) 0.0552(6) Uani d 1
C C10 0.7549(5) 0.2276(3) 0.3625(2) 0.0572(6) Uani d 1
C C11 0.5746(7) -0.0010(3) 0.2381(3) 0.0695(8) Uani d 1
H H11A 0.5181 -0.0773 0.2521 0.083 Uiso calc 1
H H11B 0.7706 0.0073 0.2253 0.083 Uiso calc 1
C C12 0.3616(9) -0.0127(3) 0.1352(3) 0.0865(10) Uani d 1
H H12 0.3827 0.0586 0.1179 0.104 Uiso calc 1
C C13 0.1561(11) -0.1087(4) 0.0692(4) 0.1183(15) Uani d 1
H H13A 0.1254 -0.1825 0.0826 0.142 Uiso calc 1
H H13B 0.0348 -0.1060 0.0069 0.142 Uiso calc 1
N N1 0.5847(4) 0.1081(2) 0.33787(18) 0.0548(5) Uani d 1
O O1 0.2415(5) -0.00459(18) 0.39528(17) 0.0744(6) Uani d 1
F F1 0.3139(6) 0.6243(2) 0.9653(2) 0.1186(8) Uani d 1
S S1 0.71039(14) 0.33471(6) 0.48434(6) 0.0600(2) Uani d 1
S S2 0.97365(17) 0.26959(8) 0.29023(8) 0.0789(3) Uani d 1
loop_
_atom_site_aniso_label
_atom_site_aniso_U_11
_atom_site_aniso_U_22
_atom_site_aniso_U_33
_atom_site_aniso_U_12
_atom_site_aniso_U_13
_atom_site_aniso_U_23
C1 0.098(2) 0.0623(18) 0.078(2) 0.0303(17) 0.0374(18) 0.0207(16)
C2 0.113(3) 0.075(2) 0.088(2) 0.0225(19) 0.058(2) 0.0293(18)
C3 0.0802(19) 0.0576(16) 0.0754(19) 0.0085(14) 0.0317(16) 0.0262(14)
C4 0.0559(14) 0.0505(13) 0.0600(15) 0.0112(11) 0.0151(11) 0.0248(12)
C5 0.085(2) 0.0580(17) 0.082(2) 0.0083(14) 0.0378(17) 0.0262(15)
C6 0.100(2) 0.0478(16) 0.093(2) 0.0098(15) 0.038(2) 0.0194(15)
C7 0.0557(14) 0.0472(13) 0.0619(15) 0.0057(11) 0.0148(12) 0.0245(12)
C8 0.0519(13) 0.0492(13) 0.0603(15) 0.0050(10) 0.0120(11) 0.0265(12)
C9 0.0553(14) 0.0487(13) 0.0597(15) 0.0081(11) 0.0154(12) 0.0221(12)
C10 0.0454(13) 0.0613(15) 0.0719(17) 0.0140(11) 0.0146(11) 0.0351(13)
C11 0.0727(18) 0.0614(17) 0.080(2) 0.0218(14) 0.0346(16) 0.0255(15)
C12 0.115(3) 0.067(2) 0.068(2) 0.0179(19) 0.0249(19) 0.0192(16)
C13 0.154(4) 0.088(3) 0.092(3) 0.031(3) 0.015(3) 0.020(2)
N1 0.0520(11) 0.0556(12) 0.0603(13) 0.0130(9) 0.0187(10) 0.0261(10)
O1 0.0830(13) 0.0523(11) 0.0776(13) -0.0033(9) 0.0305(11) 0.0210(9)
F1 0.168(2) 0.0730(13) 0.1117(17) 0.0337(13) 0.0750(16) 0.0134(11)
S1 0.0534(4) 0.0515(4) 0.0731(5) 0.0033(3) 0.0190(3) 0.0271(3)
S2 0.0669(5) 0.0865(6) 0.0954(6) 0.0129(4) 0.0382(4) 0.0469(5)
loop_
_atom_type_symbol
_atom_type_description
_atom_type_scat_dispersion_real
_atom_type_scat_dispersion_imag
_atom_type_scat_source
C C 0.0033 0.0016 'International Tables Vol C Tables 4.2.6.8 and 6.1.1.4'
H H 0.0000 0.0000 'International Tables Vol C Tables 4.2.6.8 and 6.1.1.4'
N N 0.0061 0.0033 'International Tables Vol C Tables 4.2.6.8 and 6.1.1.4'
O O 0.0106 0.0060 'International Tables Vol C Tables 4.2.6.8 and 6.1.1.4'
F F 0.0171 0.0103 'International Tables Vol C Tables 4.2.6.8 and 6.1.1.4'
S S 0.1246 0.1234 'International Tables Vol C Tables 4.2.6.8 and 6.1.1.4'
loop_
_geom_angle_atom_site_label_1
_geom_angle_atom_site_label_2
_geom_angle_atom_site_label_3
_geom_angle
C6 C1 F1 119.0(3)
C6 C1 C2 122.1(3)
F1 C1 C2 118.9(3)
C1 C2 C3 118.8(3)
C1 C2 H2 120.6
C3 C2 H2 120.6
C2 C3 C4 121.4(3)
C2 C3 H3 119.3
C4 C3 H3 119.3
C3 C4 C5 117.1(3)
C3 C4 C7 118.1(2)
C5 C4 C7 124.7(2)
C6 C5 C4 121.5(3)
C6 C5 H5 119.2
C4 C5 H5 119.2
C1 C6 C5 119.1(3)
C1 C6 H6 120.5
C5 C6 H6 120.5
C8 C7 C4 131.4(2)
C8 C7 H7 114.3
C4 C7 H7 114.3
C7 C8 C9 120.7(2)
C7 C8 S1 129.7(2)
C9 C8 S1 109.58(18)
O1 C9 N1 122.3(2)
O1 C9 C8 127.1(2)
N1 C9 C8 110.6(2)
N1 C10 S2 126.4(2)
N1 C10 S1 110.99(19)
S2 C10 S1 122.59(16)
N1 C11 C12 112.2(2)
N1 C11 H11A 109.2
C12 C11 H11A 109.2
N1 C11 H11B 109.2
C12 C11 H11B 109.2
H11A C11 H11B 107.9
C13 C12 C11 126.9(4)
C13 C12 H12 116.6
C11 C12 H12 116.6
C12 C13 H13A 120.0
C12 C13 H13B 120.0
H13A C13 H13B 120.0
C10 N1 C9 116.2(2)
C10 N1 C11 122.7(2)
C9 N1 C11 121.0(2)
C10 S1 C8 92.50(12)
loop_
_geom_bond_atom_site_label_1
_geom_bond_atom_site_label_2
_geom_bond_distance
C1 C6 1.348(5)
C1 F1 1.351(3)
C1 C2 1.367(5)
C2 C3 1.374(4)
C2 H2 0.9300
C3 C4 1.388(4)
C3 H3 0.9300
C4 C5 1.394(4)
C4 C7 1.446(4)
C5 C6 1.371(4)
C5 H5 0.9300
C6 H6 0.9300
C7 C8 1.343(4)
C7 H7 0.9300
C8 C9 1.466(4)
C8 S1 1.754(2)
C9 O1 1.210(3)
C9 N1 1.395(3)
C10 N1 1.370(3)
C10 S2 1.634(3)
C10 S1 1.738(3)
C11 N1 1.470(3)
C11 C12 1.488(5)
C11 H11A 0.9700
C11 H11B 0.9700
C12 C13 1.257(5)
C12 H12 0.9300
C13 H13A 0.9300
C13 H13B 0.9300
loop_
_geom_hbond_atom_site_label_D
_geom_hbond_atom_site_label_H
_geom_hbond_atom_site_label_A
_geom_hbond_site_symmetry_A
_geom_hbond_distance_DH
_geom_hbond_distance_HA
_geom_hbond_distance_DA
_geom_hbond_angle_DHA
C7 H7 O1 2_556 0.93 2.57 3.442(3) 157.1
C3 H3 O1 2_556 0.93 2.55 3.407(4) 154.3

_cod_database_fobs_code 1543885
