#------------------------------------------------------------------------------
#$Date: 2016-04-28 05:17:22 +0300 (Thu, 28 Apr 2016) $
#$Revision: 182312 $
#$URL: svn://www.crystallography.net/cod/cif/1/54/31/1543172.cif $
#------------------------------------------------------------------------------
#
# This file is available in the Crystallography Open Database (COD),
# http://www.crystallography.net/. The original data for this entry
# were provided by IUCr Journals, http://journals.iucr.org/.
#
# The file may be used within the scientific community so long as
# proper attribution is given to the journal article from which the
# data were obtained.
#
data_1543172
loop_
_publ_author_name
'Bakhite, Etify A.'
'Mague, Joel T.'
'Mohamed, Shaaban K.'
'Akkurt, Mehmet'
'Al-Taifi, Elham A.'
_publ_section_title
;
 Ethyl
 3-amino-4-(4-chlorophenyl)-2-[(4-methoxyphenyl)carbamoyl]-6-phenylthieno[2,3-<i>b</i>]pyridine-5-carboxylate
;
_journal_coeditor_code           SU4032
_journal_issue                   4
_journal_name_full               IUCrData
_journal_page_first              x160657
_journal_paper_doi               10.1107/S241431461600657X
_journal_volume                  1
_journal_year                    2016
_chemical_formula_iupac          'C30 H24 Cl N3 O4 S'
_chemical_formula_moiety         'C30 H24 Cl N3 O4 S'
_chemical_formula_sum            'C30 H24 Cl N3 O4 S'
_chemical_formula_weight         558.03
_chemical_name_systematic
'Ethyl 3-amino-4-(4-chlorophenyl)-2-[(4-methoxyphenyl)carbamoyl]-6-phenylthieno[2,3-<i>b</i>]pyridine-5-carboxylate'
_space_group_crystal_system      monoclinic
_space_group_IT_number           14
_space_group_name_Hall           '-P 2ybc'
_space_group_name_H-M_alt        'P 1 21/c 1'
_symmetry_space_group_name_Hall  '-P 2ybc'
_symmetry_space_group_name_H-M   'P 1 21/c 1'
_atom_sites_solution_hydrogens   mixed
_atom_sites_solution_primary     direct
_atom_sites_solution_secondary   difmap
_audit_creation_method           SHELXL-2014/7
_cell_angle_alpha                90
_cell_angle_beta                 94.159(2)
_cell_angle_gamma                90
_cell_formula_units_Z            4
_cell_length_a                   8.8388(3)
_cell_length_b                   17.7686(6)
_cell_length_c                   16.9487(6)
_cell_measurement_reflns_used    9974
_cell_measurement_temperature    150.(2)
_cell_measurement_theta_max      74.2602
_cell_measurement_theta_min      3.6090
_cell_volume                     2654.84(16)
_computing_cell_refinement
;
<i>SAINT</i> (Bruker, 2016)
;
_computing_data_collection
;
<i>APEX3</i> (Bruker, 2016)
;
_computing_data_reduction
;
<i>SAINT</i>  (Bruker, 2016)
;
_computing_molecular_graphics
;
<i>DIAMOND</i> (Brandenburg & Putz, 2012)
;
_computing_publication_material
;
<i>SHELXTL</i> (Sheldrick, 2008)
;
_computing_structure_refinement
;
<i>SHELXL2014</i> (Sheldrick, 2015b)
;
_computing_structure_solution
;
<i>SHELXT</i> (Sheldrick, 2015a)
;
_diffrn_ambient_temperature      150(2)
_diffrn_detector_area_resol_mean 10.4167
_diffrn_measured_fraction_theta_full 0.990
_diffrn_measured_fraction_theta_max 0.974
_diffrn_measurement_device_type  'Bruker D8 VENTURE PHOTON 100 CMOS'
_diffrn_measurement_method       '\w scans'
_diffrn_radiation_monochromator  mirror
_diffrn_radiation_type           CuK\a
_diffrn_radiation_wavelength     1.54178
_diffrn_reflns_av_R_equivalents  0.0396
_diffrn_reflns_limit_h_max       10
_diffrn_reflns_limit_h_min       -11
_diffrn_reflns_limit_k_max       22
_diffrn_reflns_limit_k_min       -19
_diffrn_reflns_limit_l_max       20
_diffrn_reflns_limit_l_min       -17
_diffrn_reflns_number            20325
_diffrn_reflns_theta_full        70.000
_diffrn_reflns_theta_max         74.486
_diffrn_reflns_theta_min         3.609
_exptl_absorpt_coefficient_mu    2.359
_exptl_absorpt_correction_T_max  0.85
_exptl_absorpt_correction_T_min  0.75
_exptl_absorpt_correction_type   multi-scan
_exptl_absorpt_process_details
;
(<i>SADABS</i>; Bruker, 2016)
;
_exptl_crystal_colour            pale-yellow
_exptl_crystal_density_diffrn    1.396
_exptl_crystal_density_method    'not measured'
_exptl_crystal_description       needle
_exptl_crystal_F_000             1160
_exptl_crystal_size_max          0.156
_exptl_crystal_size_mid          0.073
_exptl_crystal_size_min          0.070
_refine_diff_density_max         0.295
_refine_diff_density_min         -0.218
_refine_ls_extinction_coef       0.00154(15)
_refine_ls_extinction_expression Fc^*^=kFc[1+0.001xFc^2^\l^3^/sin(2\q)]^-1/4^
_refine_ls_extinction_method
;
<i>SHELXL2014</i> (Sheldrick, 2015b)
;
_refine_ls_goodness_of_fit_ref   1.022
_refine_ls_hydrogen_treatment    mixed
_refine_ls_matrix_type           full
_refine_ls_number_parameters     367
_refine_ls_number_reflns         5277
_refine_ls_number_restraints     0
_refine_ls_restrained_S_all      1.022
_refine_ls_R_factor_all          0.0456
_refine_ls_R_factor_gt           0.0370
_refine_ls_shift/su_max          0.001
_refine_ls_shift/su_mean         0.000
_refine_ls_structure_factor_coef Fsqd
_refine_ls_weighting_details
'w=1/[\s^2^(Fo^2^)+(0.0439P)^2^+1.0305P] where P=(Fo^2^+2Fc^2^)/3'
_refine_ls_weighting_scheme      calc
_refine_ls_wR_factor_gt          0.0884
_refine_ls_wR_factor_ref         0.0935
_reflns_number_gt                4468
_reflns_number_total             5277
_reflns_threshold_expression     'I > 2\s(I)'
_cod_data_source_file            su4032sup1.cif
_cod_data_source_block           I
_cod_database_code               1543172
_shelx_space_group_comment
;
The symmetry employed for this shelxl refinement is uniquely defined
by the following loop, which should always be used as a source of
symmetry information in preference to the above space-group names.
They are only intended as comments.
;
_shelx_estimated_absorpt_t_min   0.710
_shelx_estimated_absorpt_t_max   0.852
_shelx_hkl_file
;
   1   0   0    7.01    0.26
   2   0   0   70.20    2.52
   3   0   0  428.04   15.34
   4   0   0    2.48    0.14
   4   0   0    2.54    0.13
   4   0   0    2.65    0.22
   5   0   0    1.32    0.20
  -6   0   0    7.80    0.43
  -6   0   0    8.45    0.73
   6   0   0    8.45    0.42
  -7   0   0    0.81    0.18
  -7   0   0    0.45    0.30
   7   0   0    0.85    0.18
  -8   0   0    0.25    0.16
   8   0   0    0.33    0.17
   9   0   0   11.83    0.61
  -9   0   0   13.35    0.58
 -10   0   0    3.90    0.25
 -11   0   0    0.10    0.09
   0  -1   0    0.01    0.01
   0   1   0    0.00    0.00
  -1  -1   0   11.16    0.42
   1  -1   0   10.71    0.41
  -1   1   0   11.87    0.41
   1   1   0   11.77    0.42
  -2  -1   0   57.06    2.13
   2  -1   0   59.03    2.13
   2  -1   0   60.47    2.13
   2   1   0   60.34    2.13
   3  -1   0   29.43    1.09
   3  -1   0   30.94    1.09
   3   1   0   29.28    1.09
   4  -1   0   55.54    1.99
   4  -1   0   55.91    1.99
   4  -1   0   54.98    2.04
   4   1   0   57.13    2.00
   4   1   0   52.13    2.03
   5  -1   0   24.23    0.96
   5   1   0   24.94    0.96
   5   1   0   24.29    0.92
  -6  -1   0    6.10    0.51
  -6  -1   0    6.37    0.38
   6  -1   0    5.62    0.35
  -6   1   0    5.95    0.38
   6   1   0    6.44    0.37
  -7  -1   0    2.21    0.28
  -7  -1   0    1.86    0.45
   7  -1   0    2.16    0.28
  -7   1   0    2.60    0.28
   7   1   0    1.93    0.27
  -8  -1   0    0.01    0.29
   8  -1   0    0.47    0.18
  -8  -1   0    0.72    0.17
   8   1   0    0.54    0.18
  -8   1   0    0.51    0.18
  -9  -1   0   -0.16    0.11
   9  -1   0   -0.08    0.18
  -9   1   0    0.18    0.13
   9   1   0   -0.17    0.22
 -10  -1   0    0.91    0.15
 -10   1   0    0.75    0.15
   0   2   0   91.16    3.27
   1  -2   0   11.06    0.40
  -1  -2   0   10.18    0.40
   1   2   0   10.65    0.40
  -1   2   0   11.54    0.40
   2  -2   0  120.02    4.35
  -2  -2   0  124.63    4.36
   2   2   0  119.69    4.35
   3  -2   0   53.23    1.87
  -3  -2   0   51.88    1.88
   3  -2   0   50.45    1.86
   3   2   0   51.21    1.87
   4  -2   0    2.27    0.12
   4  -2   0    2.30    0.13
   4  -2   0    2.22    0.21
   4   2   0    2.28    0.16
   5  -2   0    0.91    0.19
   5   2   0    1.03    0.21
   6  -2   0    0.49    0.13
  -6  -2   0    0.23    0.23
  -6  -2   0    0.49    0.17
   6   2   0    0.40    0.16
  -6   2   0    0.48    0.17
   7  -2   0    0.04    0.14
  -7  -2   0    0.13    0.25
  -7  -2   0    0.08    0.16
   7   2   0    0.19    0.19
  -7   2   0    0.19    0.16
  -8  -2   0    0.22    0.15
  -8  -2   0    0.12    0.23
   8  -2   0   -0.09    0.15
  -8   2   0    0.01    0.14
   8   2   0    0.25    0.19
  -9  -2   0    0.29    0.16
   9  -2   0    0.20    0.17
  10  -2   0    2.45    0.49
 -10  -2   0    1.78    0.18
 -10   2   0    1.59    0.19
   0  -3   0   -0.02    0.01
   0   3   0   -0.01    0.02
  -1  -3   0   36.70    1.32
   1  -3   0   34.18    1.32
  -1   3   0   38.88    1.32
   1   3   0   36.20    1.32
  -2  -3   0   11.60    0.46
   2  -3   0   11.73    0.45
  -2   3   0   12.28    0.45
   2   3   0   12.70    0.46
  -3  -3   0    2.41    0.13
   3  -3   0    2.50    0.12
   3   3   0    2.69    0.14
   4  -3   0  103.08    3.83
  -4  -3   0  105.96    3.86
   4  -3   0  110.49    3.88
   4  -3   0  107.46    3.84
   4   3   0  106.76    3.86
   5   3   0    5.60    0.34
   6  -3   0    0.95    0.21
  -6  -3   0    1.49    0.36
  -6  -3   0    1.24    0.25
  -6   3   0    1.43    0.28
   6   3   0    1.25    0.20
   7  -3   0   -0.11    0.13
  -7  -3   0   -0.10    0.19
  -7  -3   0    0.21    0.15
   7   3   0   -0.08    0.20
  -7   3   0    0.17    0.16
  -8  -3   0    2.06    0.26
   8  -3   0    1.77    0.27
  -8  -3   0    1.37    0.25
   8   3   0    1.69    0.34
  -8   3   0    1.53    0.26
   9  -3   0    0.81    0.19
  -9  -3   0    1.34    0.30
  -9  -3   0    0.95    0.23
  -9   3   0    0.68    0.16
  10  -3   0    1.79    0.39
 -10  -3   0    1.43    0.17
 -10   3   0    1.31    0.17
   0  -4   0   53.87    2.01
   0   4   0   57.25    2.01
  -1  -4   0   10.12    0.40
   1  -4   0   10.23    0.39
  -1   4   0   10.30    0.39
   1   4   0   10.72    0.40
   2  -4   0   11.10    0.44
  -2  -4   0   11.86    0.45
  -2   4   0   11.70    0.44
   2   4   0   12.00    0.45
   3  -4   0    2.52    0.20
   3  -4   0    2.85    0.13
  -3  -4   0    2.59    0.15
   3   4   0    2.67    0.16
   4  -4   0    3.57    0.24
   4  -4   0    3.82    0.20
  -4  -4   0    3.85    0.22
   4  -4   0    3.68    0.18
   4   4   0    3.68    0.23
   5  -4   0   67.64    2.51
  -6  -4   0    0.16    0.19
   6  -4   0    0.16    0.12
  -6  -4   0    0.13    0.17
   6   4   0    0.20    0.28
   6   4   0    0.14    0.18
  -6   4   0    0.06    0.17
  -7  -4   0    7.66    0.47
   7  -4   0    8.22    0.43
  -7  -4   0    7.46    0.43
  -7   4   0    7.36    0.43
   7   4   0    7.28    0.49
  -8  -4   0    2.76    0.28
  -8  -4   0    3.43    0.37
   8  -4   0    2.81    0.29
  -8   4   0    2.43    0.30
   9  -4   0    0.44    0.17
  -9  -4   0    0.53    0.13
  -9  -4   0    0.42    0.19
  -9   4   0    0.56    0.14
 -10  -4   0    0.23    0.10
  10  -4   0    0.41    0.23
 -10   4   0    0.03    0.10
   0  -5   0    0.00    0.03
   0   5   0    0.01    0.03
   1  -5   0   58.34    2.19
  -1  -5   0   58.55    2.19
   1   5   0   61.48    2.19
  -1   5   0   63.43    2.19
   2  -5   0   73.91    2.76
  -2  -5   0   70.89    2.77
  -2   5   0   79.96    2.76
   2   5   0   81.07    2.77
  -3  -5   0   74.71    2.73
   3  -5   0   74.53    2.75
   3  -5   0   75.11    2.72
  -3   5   0   75.20    2.72
   3   5   0   76.17    2.73
  -4  -5   0    1.80    0.18
   4  -5   0    1.62    0.14
   4  -5   0    1.60    0.18
   4   5   0    1.47    0.22
  -5  -5   0   25.15    1.04
  -5  -5   0   25.98    1.06
   5  -5   0   26.62    1.03
  -6  -5   0    0.00    0.17
  -6  -5   0   -0.13    0.18
   6  -5   0    0.11    0.13
  -6   5   0   -0.04    0.18
   6   5   0   -0.07    0.20
   6   5   0    0.11    0.25
   7  -5   0    0.52    0.15
  -7  -5   0    0.59    0.20
  -7  -5   0    0.64    0.17
   7   5   0    0.63    0.27
  -7   5   0    0.52    0.18
   8  -5   0    0.33    0.16
  -8  -5   0    0.22    0.14
  -8  -5   0    0.30    0.20
  -8   5   0    0.30    0.16
  -9  -5   0    0.12    0.11
   9  -5   0   -0.01    0.15
  -9  -5   0   -0.04    0.17
  -9   5   0   -0.02    0.12
  10  -5   0    0.32    0.27
 -10  -5   0    0.23    0.10
 -10   5   0    0.14    0.11
   0  -6   0    2.46    0.14
   0   6   0    2.69    0.14
   1  -6   0    4.84    0.22
  -1  -6   0    5.17    0.23
   1   6   0    5.49    0.24
  -1   6   0    4.95    0.22
  -2  -6   0  104.42    3.75
   2  -6   0  102.99    3.74
  -2   6   0  103.16    3.74
   2   6   0  104.57    3.75
   3  -6   0    4.06    0.20
   3  -6   0    3.46    0.23
  -3  -6   0    3.98    0.22
   3   6   0    3.57    0.23
  -3   6   0    3.75    0.21
  -4  -6   0   28.78    1.10
   4  -6   0   28.41    1.07
   4  -6   0   29.46    1.10
  -4  -6   0   27.25    1.13
  -5  -6   0    3.61    0.44
  -5  -6   0    2.94    0.34
   5  -6   0    3.48    0.25
   5  -6   0    3.38    0.49
   5   6   0    3.19    0.37
  -5   6   0    3.60    0.39
   6  -6   0    4.66    0.45
  -6  -6   0    5.85    0.38
  -6  -6   0    5.62    0.39
   6  -6   0    5.79    0.34
   6   6   0    5.70    0.45
  -6   6   0    5.69    0.40
   7  -6   0    7.31    0.40
  -7  -6   0    7.06    0.43
  -7  -6   0    6.24    0.41
   7   6   0    6.47    0.48
  -7   6   0    6.39    0.42
  -8  -6   0    4.58    0.33
   8  -6   0    4.23    0.32
  -8  -6   0    4.64    0.36
  -8   6   0    4.31    0.34
   9  -6   0    5.93    0.38
  -9  -6   0    5.79    0.33
  -9  -6   0    5.88    0.37
  -9   6   0    5.59    0.34
 -10  -6   0    3.58    0.29
 -10   6   0    3.03    0.24
   0  -7   0   -0.01    0.04
   0   7   0    0.00    0.05
   1  -7   0    1.63    0.12
   1   7   0    1.50    0.13
  -1   7   0    1.36    0.13
   2  -7   0   66.71    2.42
  -2  -7   0   67.51    2.43
   2  -7   0   69.11    2.44
  -2   7   0   64.65    2.42
   2   7   0   63.78    2.43
   3  -7   0    0.81    0.14
  -3  -7   0    1.00    0.17
   3  -7   0    0.79    0.17
  -3   7   0    0.85    0.17
   3   7   0    1.10    0.24
  -4  -7   0   43.48    1.78
   4  -7   0   44.53    1.77
  -4  -7   0   54.87    1.95
   5  -7   0    5.53    0.40
  -5  -7   0    5.47    0.38
   5  -7   0    5.93    0.33
  -5   7   0    5.32    0.47
   5   7   0    5.77    0.42
  -6  -7   0    0.65    0.20
  -6  -7   0    0.13    0.18
   6  -7   0    0.36    0.15
  -6   7   0    0.53    0.23
   6   7   0   -0.15    0.21
   7  -7   0    8.68    0.60
  -7  -7   0    8.17    0.46
  -7  -7   0    8.23    0.47
  -7   7   0    7.80    0.47
   7   7   0    8.99    0.53
  -8  -7   0    0.03    0.17
   8  -7   0   -0.04    0.14
  -8  -7   0   -0.11    0.14
  -8   7   0    0.09    0.18
   9  -7   0   -0.03    0.15
  -9  -7   0   -0.13    0.14
  -9  -7   0   -0.21    0.11
  -9   7   0    0.05    0.14
 -10  -7   0    1.17    0.17
 -10  -7   0    1.44    0.29
   0  -8   0   29.56    1.12
   0   8   0   30.00    1.13
   1  -8   0   24.67    0.99
  -1  -8   0   25.58    0.98
   1  -8   0   26.45    0.98
  -1   8   0   25.98    0.99
   1   8   0   25.96    0.99
  -2  -8   0    0.04    0.08
   2  -8   0   -0.05    0.07
   2  -8   0    0.15    0.10
  -2   8   0    0.09    0.09
   3  -8   0   12.84    0.55
  -3  -8   0   12.57    0.56
   3  -8   0   12.83    0.53
  -3   8   0   12.26    0.56
  -4  -8   0    1.49    0.34
   4  -8   0    0.77    0.19
  -4  -8   0    0.87    0.20
   4  -8   0    0.46    0.18
   4   8   0    1.19    0.23
   5  -8   0    0.98    0.17
  -5  -8   0    0.73    0.17
   5   8   0    1.20    0.30
  -6  -8   0    4.53    0.36
  -6  -8   0    5.18    0.38
   6  -8   0    4.86    0.33
   6   8   0    4.76    0.40
  -6   8   0    4.65    0.46
   7  -8   0    1.44    0.25
  -7  -8   0    1.92    0.28
  -7  -8   0    1.44    0.29
  -7   8   0    2.13    0.34
   7   8   0    2.20    0.35
   8  -8   0    0.25    0.15
  -8  -8   0    0.06    0.15
   8   8   0   -0.06    0.23
  -8   8   0    0.13    0.18
  -9  -8   0    0.56    0.13
  -9  -8   0    0.77    0.15
   9  -8   0    0.46    0.16
  -9   8   0    0.35    0.18
   0  -9   0    0.14    0.14
   0  -9   0    0.08    0.07
  -1  -9   0   43.08    1.58
   1  -9   0   45.23    1.58
   1  -9   0   41.22    1.58
  -1   9   0   38.91    1.58
  -2  -9   0   24.90    1.01
   2  -9   0   25.35    1.00
   2  -9   0   24.96    1.00
  -2   9   0   27.50    1.08
  -3  -9   0   10.60    0.55
   3  -9   0   10.67    0.51
   3  -9   0   11.60    0.52
   3   9   0   10.79    0.55
  -4  -9   0    7.70    0.43
   4  -9   0    7.27    0.38
   4   9   0    7.11    0.44
   5  -9   0    7.48    0.42
  -5  -9   0    8.17    0.45
   5   9   0    7.93    0.47
  -6  -9   0    3.92    0.40
  -6  -9   0    4.56    0.36
   6  -9   0    4.85    0.34
   6   9   0    4.68    0.38
   7  -9   0    3.90    0.32
  -7  -9   0    4.11    0.33
  -7  -9   0    3.89    0.34
   7   9   0    4.17    0.37
  -7   9   0    4.66    0.46
  -8  -9   0    3.76    0.30
  -8  -9   0    3.54    0.30
   8  -9   0    3.30    0.30
   8   9   0    3.59    0.38
   9  -9   0    3.16    0.28
  -9  -9   0    3.09    0.26
  -9  -9   0    3.84    0.26
   0 -10   0    4.57    0.31
   0 -10   0    5.18    0.32
   1 -10   0   19.60    0.77
   1 -10   0   19.08    0.76
  -1 -10   0   18.45    0.77
  -1 -10   0   17.36    0.78
   2 -10   0   46.33    1.66
   2 -10   0   41.77    1.67
   3 -10   0    0.07    0.24
  -3 -10   0    0.03    0.18
   3 -10   0    0.25    0.13
   3  10   0    0.14    0.18
   4 -10   0    0.94    0.20
  -4 -10   0    0.82    0.19
   4  10   0    1.12    0.27
  -5 -10   0   19.12    0.82
   5 -10   0   18.39    0.80
   5  10   0   19.15    0.84
  -6 -10   0    1.95    0.37
  -6 -10   0    2.80    0.30
   6  10   0    1.71    0.32
   7 -10   0    0.36    0.15
  -7 -10   0    0.40    0.15
  -7 -10   0    0.42    0.22
   7  10   0    0.54    0.20
  -8 -10   0    1.81    0.28
  -8 -10   0    2.41    0.25
   8 -10   0    1.83    0.25
   8  10   0    2.11    0.33
   9 -10   0    0.01    0.14
  -9 -10   0    0.04    0.11
   0 -11   0    0.10    0.18
   0 -11   0   -0.15    0.15
   0  11   0   -0.05    0.18
  -1 -11   0   -0.16    0.21
   1 -11   0    0.37    0.15
   2 -11   0    1.72    0.23
   2 -11   0    1.87    0.36
   2  11   0    1.99    0.36
  -3 -11   0   16.66    0.75
   3 -11   0   18.82    0.74
   3 -11   0   15.48    0.80
   3  11   0   17.58    0.76
  -4 -11   0    9.27    0.50
   4 -11   0    9.82    0.48
   4  11   0    9.19    0.50
  -5 -11   0    5.99    0.39
   5 -11   0    6.14    0.38
   5  11   0    5.86    0.40
   6 -11   0    1.67    0.26
  -6 -11   0    2.18    0.29
   6  11   0    1.95    0.31
  -7 -11   0    1.36    0.21
   7 -11   0    1.19    0.24
  -7  11   0    1.43    0.28
   7  11   0    1.51    0.27
  -8 -11   0    1.49    0.21
   8 -11   0    1.73    0.24
   8  11   0    1.65    0.29
   9 -11   0    0.56    0.18
  -9 -11   0    0.38    0.12
   0 -12   0    0.29    0.20
   0  12   0    0.14    0.18
   1 -12   0   38.57    1.48
   1 -12   0   39.11    1.46
   1  12   0   35.92    1.46
  -1  12   0   37.43    1.46
   2 -12   0    5.84    0.35
   2 -12   0    5.51    0.42
  -2 -12   0    5.27    0.41
   2  12   0    4.95    0.42
   3 -12   0   35.22    1.34
  -3 -12   0   33.90    1.35
   3 -12   0   33.56    1.38
   3  12   0   35.32    1.37
   3  12   0   33.63    1.37
  -4 -12   0    2.57    0.29
   4 -12   0    2.47    0.27
   4  12   0    2.68    0.29
  -5 -12   0   26.28    1.08
   5  12   0   26.50    1.10
  -6 -12   0    6.13    0.39
   6 -12   0    5.80    0.38
   6  12   0    6.33    0.40
   7 -12   0    1.64    0.25
  -7 -12   0    1.92    0.23
  -7  12   0    1.47    0.27
   7  12   0    1.18    0.25
  -8 -12   0    4.51    0.28
   8 -12   0    4.57    0.31
   8  12   0    4.24    0.33
  -9 -12   0    0.13    0.10
   0 -13   0    0.25    0.22
   0  13   0    0.10    0.15
   1 -13   0    3.42    0.32
   1  13   0    3.32    0.33
  -1  13   0    3.55    0.29
  -2 -13   0    5.44    0.43
   2 -13   0    5.69    0.37
   2 -13   0    5.96    0.41
   2  13   0    5.24    0.41
  -2  13   0    5.79    0.36
  -3 -13   0    1.56    0.32
   3 -13   0    2.21    0.37
   3 -13   0    1.52    0.28
   3  13   0    1.62    0.29
   3  13   0    1.65    0.26
  -4 -13   0    2.69    0.30
   4 -13   0    2.35    0.28
   4  13   0    1.77    0.27
  -5 -13   0    3.27    0.31
   5 -13   0    2.84    0.28
   5  13   0    2.87    0.30
  -6 -13   0   -0.35    0.13
   6 -13   0   -0.02    0.15
  -6  13   0   -0.10    0.14
   6  13   0   -0.04    0.15
  -7 -13   0    0.20    0.13
   7 -13   0    0.11    0.14
   7  13   0    0.05    0.14
  -7  13   0   -0.12    0.14
  -8 -13   0    8.46    0.39
   8 -13   0    7.98    0.43
   8  13   0    7.94    0.43
   1 -14   0    6.35    0.44
  -1  14   0    7.15    0.40
   2 -14   0    0.89    0.19
  -2 -14   0    0.98    0.24
   2  14   0    0.90    0.21
   2  14   0    1.05    0.25
  -2  14   0    0.80    0.17
   3 -14   0   -0.20    0.16
  -3 -14   0    0.19    0.18
   3  14   0    0.24    0.24
  -3  14   0    0.32    0.14
   3  14   0    0.21    0.16
  -4 -14   0    0.10    0.17
   4 -14   0    0.35    0.18
  -4  14   0    0.15    0.14
   4  14   0    0.42    0.16
  -5 -14   0    0.85    0.18
   5 -14   0    1.03    0.25
  -5  14   0    0.44    0.14
   5  14   0    0.51    0.16
   6 -14   0    0.43    0.17
  -6 -14   0    0.48    0.14
  -6  14   0    0.28    0.14
   6  14   0    0.50    0.15
   7 -14   0    0.12    0.15
  -7 -14   0    0.09    0.11
  -7  14   0    0.05    0.13
   7  14   0   -0.03    0.13
  -8 -14   0    0.42    0.11
   8  14   0    0.35    0.24
   0  15   0   -0.04    0.14
   1 -15   0    2.72    0.39
   1  15   0    2.47    0.29
  -1  15   0    2.02    0.26
   2 -15   0   20.14    0.86
  -2 -15   0   19.93    0.88
   2  15   0   19.06    0.85
  -2  15   0   19.25    0.84
   2  15   0   20.15    0.85
   3 -15   0    1.71    0.29
  -3 -15   0    1.57    0.32
   3  15   0    1.61    0.36
  -3  15   0    1.35    0.23
   3  15   0    1.07    0.25
  -4 -15   0   14.54    0.68
   4 -15   0   14.22    0.68
   4  15   0   15.30    0.69
  -4  15   0   15.19    0.66
  -5 -15   0   13.05    0.67
   5 -15   0   10.45    0.56
  -5  15   0   12.12    0.57
   5  15   0   12.02    0.57
  -6 -15   0    0.58    0.13
   6 -15   0    0.32    0.16
  -6  15   0    0.27    0.12
   6  15   0    0.12    0.13
   7 -15   0    1.08    0.26
  -7 -15   0    1.08    0.19
  -7  15   0    1.32    0.21
   7  15   0    1.65    0.20
  -8 -15   0    0.02    0.10
   0  16   0   12.48    0.59
   1  16   0   24.23    1.00
  -1  16   0   24.29    1.00
   1  16   0   24.40    1.02
   2 -16   0    1.37    0.27
  -2  16   0    1.00    0.22
   2  16   0    1.41    0.24
   2  16   0    1.56    0.30
   3 -16   0   16.14    0.76
  -3 -16   0   17.68    0.77
  -3  16   0   17.05    0.74
   3  16   0   17.58    0.77
   3  16   0   16.76    0.76
   4 -16   0   23.94    1.02
  -4  16   0   24.48    1.00
   4  16   0   25.45    1.03
   5 -16   0    1.74    0.28
  -5 -16   0    1.32    0.23
   5  16   0    1.33    0.22
  -5  16   0    1.60    0.20
  -6 -16   0    1.42    0.21
   6 -16   0    1.81    0.29
   6  16   0    1.44    0.20
  -6  16   0    1.70    0.19
  -7 -16   0    1.46    0.18
  -7  16   0    1.64    0.23
   7  16   0    0.92    0.18
   0  17   0    0.14    0.14
   0  17   0    0.05    0.16
   1  17   0    0.62    0.16
  -1  17   0    0.38    0.15
   1  17   0    0.32    0.15
   2  17   0    1.27    0.27
  -2  17   0    0.45    0.14
   2  17   0    0.77    0.16
   3 -17   0    1.61    0.39
  -3 -17   0    1.41    0.33
  -3  17   0    1.38    0.21
   3  17   0    1.34    0.22
   4 -17   0    1.12    0.23
  -4 -17   0    0.87    0.17
   4  17   0    1.00    0.20
  -4  17   0    0.74    0.18
   5 -17   0    2.73    0.36
  -5 -17   0    2.91    0.26
  -5  17   0    2.71    0.22
   5  17   0    2.87    0.23
  -6 -17   0    2.21    0.21
   6  17   0    2.04    0.19
  -6  17   0    1.76    0.18
  -7 -17   0    0.19    0.12
   0  18   0    3.61    0.28
   0  18   0    3.76    0.36
  -1  18   0    2.53    0.24
  -1  18   0    2.44    0.28
   1  18   0    2.59    0.34
  -2  18   0    0.31    0.13
   2  18   0    0.15    0.15
  -2  18   0    0.32    0.18
   2  18   0    0.31    0.12
   3  18   0    0.57    0.14
  -3  18   0    0.29    0.12
  -4 -18   0    7.40    0.41
   4  18   0    7.33    0.38
  -4  18   0    7.30    0.37
  -5 -18   0    1.10    0.17
  -5  18   0    1.29    0.16
   5  18   0    1.38    0.16
  -6 -18   0    2.64    0.25
   6  18   0    2.56    0.19
  -6  18   0    2.49    0.19
   0  19   0    0.04    0.13
   0  19   0   -0.11    0.12
   1  19   0    3.08    0.25
  -1  19   0    2.94    0.26
  -1  19   0    2.75    0.23
   1  19   0    3.13    0.25
   2  19   0    0.32    0.16
  -2  19   0    0.29    0.11
  -2  19   0    0.40    0.18
   2  19   0    0.23    0.12
  -3  19   0    3.76    0.24
   3  19   0    3.89    0.26
   4  19   0    0.75    0.15
  -4  19   0    0.89    0.15
  -5  19   0    1.24    0.14
   5  19   0    0.92    0.14
   0  20   0    1.19    0.20
   0  20   0    1.04    0.18
   1  20   0    1.21    0.19
  -1  20   0    0.83    0.17
   1  20   0    1.09    0.18
  -1  20   0    0.63    0.16
  -2  20   0    0.63    0.14
   2  20   0    0.70    0.16
  -3  20   0    1.45    0.15
   3  20   0    1.19    0.16
  -4  20   0    0.25    0.09
   4  20   0    0.37    0.10
   0  21   0   -0.05    0.12
   0  21   0   -0.22    0.10
  -1  21   0    0.85    0.14
   1  21   0    1.12    0.22
   1  21   0    1.07    0.17
   2  21   0    2.19    0.18
  -2  21   0    1.98    0.20
  -3  21   0    0.19    0.08
   3  21   0    0.13    0.09
  -1  22   0    0.20    0.10
 -11   0   1    0.13    0.08
 -10   0   1    0.00    0.10
  -9   0   1   -0.24    0.12
   9   0  -1    0.13    0.18
  -8   0   1   -0.24    0.13
   8   0  -1    0.24    0.17
  -8   0   1    0.59    0.34
  -7   0   1    0.03    0.15
   7   0  -1    0.13    0.16
  -7   0   1   -0.10    0.26
   6   0  -1    0.14    0.13
  -6   0   1   -0.17    0.29
  -6   0   1   -0.19    0.16
   5   0  -1   -0.06    0.08
   5   0  -1    0.14    0.12
   4   0  -1    0.02    0.05
   3   0  -1   -0.02    0.03
   2   0  -1    0.01    0.02
   1   0  -1    0.01    0.01
  -1   0  -1    0.01    0.01
   1   0   1    0.00    0.00
   2   0   1    0.01    0.01
   3   0   1    0.02    0.02
   3   0   1    0.03    0.02
   4   0   1    0.05    0.03
   4   0   1   -0.03    0.12
   4   0   1    0.02    0.04
   5   0   1   -0.16    0.12
   6   0   1   -0.13    0.13
  -6   0  -1   -0.07    0.15
  -7   0  -1    0.10    0.16
   7   0   1   -0.04    0.16
  -8   0  -1    0.25    0.14
   8   0   1    0.12    0.18
   9   0   1    0.05    0.23
  -9   0  -1   -0.14    0.13
 -10   0  -1    0.04    0.10
 -11  -1   1    0.94    0.13
 -11   1   1    0.84    0.14
 -10  -1   1    6.38    0.33
  10  -1  -1    6.44    0.48
 -10   1   1    6.57    0.33
   9  -1  -1    0.45    0.17
  -9  -1   1    0.35    0.13
  -9   1   1    0.28    0.14
   9   1  -1    0.15    0.20
  -8  -1   1    1.19    0.27
   8  -1  -1    1.07    0.20
  -8  -1   1    1.63    0.25
  -8   1   1    1.65    0.24
   8   1  -1    1.48    0.29
  -7  -1   1    7.33    0.51
   7  -1  -1    6.90    0.40
  -7  -1   1    7.17    0.41
  -7   1   1    7.50    0.42
   7   1  -1    7.08    0.42
  -6  -1   1    1.69    0.27
   6  -1  -1    1.80    0.24
  -6  -1   1    1.99    0.26
   6   1  -1    1.51    0.23
  -6   1   1    1.58    0.26
   5  -1  -1   71.51    2.65
   5  -1  -1   75.02    2.69
   5   1  -1   70.43    2.65
   5   1  -1   74.77    2.69
   4  -1  -1   54.33    1.98
   4  -1  -1   52.01    1.95
   4  -1  -1   55.46    1.95
   4   1  -1   52.75    1.96
   3  -1  -1   11.76    0.44
   3  -1  -1   11.27    0.44
   3   1  -1   11.86    0.45
  -2  -1   1   22.24    0.80
   2  -1  -1   21.10    0.80
   2   1  -1   22.25    0.80
   1  -1  -1    0.93    0.05
  -1  -1   1    1.12    0.05
  -1   1   1    1.02    0.05
   1   1  -1    0.99    0.05
   0  -1  -1   74.08    2.85
   0  -1   1   84.91    2.86
   0   1   1   79.95    2.85
   1  -1   1   24.52    0.87
  -1  -1  -1   21.70    0.87
  -1   1  -1   25.30    0.87
   1   1   1   25.49    0.87
  -2  -1  -1  936.66   34.64
   2   1   1 1000.00   34.64
   3  -1   1   67.98    2.33
  -3  -1  -1   62.96    2.34
   3  -1   1   64.43    2.33
   3   1   1   64.91    2.34
   4  -1   1   13.91    0.49
   4  -1   1   12.90    0.56
   4  -1   1   13.26    0.49
   4   1   1   13.82    0.50
   4   1   1   12.36    0.56
   5  -1   1    2.65    0.24
   5   1   1    3.51    0.27
   6  -1   1    5.32    0.32
  -6  -1  -1    4.64    0.52
   6   1   1    4.75    0.34
  -6   1  -1    4.97    0.35
  -7  -1  -1    0.33    0.29
  -7  -1  -1    0.00    0.14
   7  -1   1    0.12    0.15
  -7   1  -1   -0.27    0.14
   7   1   1   -0.11    0.16
  -8  -1  -1    0.01    0.14
   8  -1   1    0.05    0.17
   8   1   1   -0.05    0.19
  -8   1  -1    0.03    0.14
   9  -1   1    0.52    0.22
  -9   1  -1    0.76    0.22
 -10  -1  -1    3.32    0.23
 -10   1  -1    3.74    0.24
 -10  -2   1    0.97    0.16
  10  -2  -1    0.93    0.24
 -10   2   1    0.71    0.17
   9  -2  -1    0.48    0.18
  -9  -2   1    0.39    0.13
  -9  -2   1    0.27    0.22
  -9   2   1    0.73    0.16
   9   2  -1    0.28    0.22
   8  -2  -1   18.40    0.82
  -8  -2   1   19.04    0.81
  -8  -2   1   19.39    0.85
   8   2  -1   18.51    0.82
  -8   2   1   18.75    0.81
  -7  -2   1    1.64    0.26
  -7  -2   1    1.72    0.37
   7  -2  -1    2.07    0.26
  -7   2   1    1.35    0.26
   7   2  -1    1.78    0.29
  -6  -2   1    0.62    0.24
  -6  -2   1    0.55    0.17
   6  -2  -1    0.43    0.14
  -6   2   1    0.33    0.17
   6   2  -1    0.36    0.15
   5  -2  -1    0.17    0.12
   5  -2  -1    0.05    0.09
   4  -2  -1    2.53    0.15
   4  -2  -1    2.73    0.16
   4  -2  -1    2.52    0.19
   4   2  -1    2.74    0.18
  -3  -2   1   73.31    2.70
   3  -2  -1   73.09    2.69
   3  -2  -1   77.51    2.70
   3   2  -1   74.91    2.70
  -2  -2   1  355.47   12.77
   2  -2  -1  365.10   12.76
   2   2  -1  344.73   12.71
   1  -2  -1   13.49    0.50
  -1  -2   1   13.08    0.50
  -1   2   1   13.24    0.50
   1   2  -1   14.52    0.50
   0  -2  -1    0.36    0.03
   0  -2   1    0.39    0.03
   0   2   1    0.42    0.03
   0   2  -1    0.38    0.03
   1  -2   1   18.63    0.68
  -1  -2  -1   17.95    0.68
  -1   2  -1   19.56    0.68
   1   2   1   18.69    0.68
   2  -2   1  104.03    3.72
  -2  -2  -1   98.75    3.73
   2   2   1  108.86    3.73
  -3  -2  -1   48.21    1.80
   3  -2   1   49.18    1.79
   3  -2   1   51.51    1.79
   3   2   1   50.12    1.80
   4  -2   1    9.35    0.41
   4   2   1    8.32    0.35
   5  -2   1   25.38    1.00
   5   2   1   25.77    1.01
   6  -2   1    7.52    0.40
  -6  -2  -1    7.55    0.53
   6   2   1    7.69    0.43
  -6   2  -1    8.14    0.44
   6   2   1    7.54    0.54
   7  -2   1    3.09    0.28
  -7  -2  -1    2.61    0.44
  -7  -2  -1    3.02    0.29
   7   2   1    2.48    0.35
  -7   2  -1    2.67    0.29
   8  -2   1   -0.08    0.16
  -8  -2  -1    0.08    0.15
  -8  -2  -1    0.06    0.25
  -8   2  -1    0.25    0.16
   8   2   1    0.26    0.22
   9  -2   1    1.34    0.30
  -9   2  -1    1.47    0.28
 -10  -2  -1    0.75    0.16
 -10   2  -1    0.97    0.16
  10  -3  -1    0.29    0.22
 -10  -3   1    0.03    0.09
 -10   3   1    0.02    0.10
  -9  -3   1   -0.04    0.18
   9  -3  -1    0.22    0.16
  -8  -3   1    3.60    0.36
   8  -3  -1    2.99    0.29
  -8  -3   1    3.11    0.30
   8   3  -1    2.67    0.36
  -8   3   1    3.09    0.29
  -7  -3   1    3.42    0.39
   7  -3  -1    3.35    0.30
  -7  -3   1    3.76    0.31
   7   3  -1    4.17    0.35
  -7   3   1    3.78    0.31
  -6  -3   1    4.50    0.40
   6  -3  -1    3.97    0.28
  -6  -3   1    4.29    0.33
  -6   3   1    4.05    0.34
   6   3  -1    4.58    0.32
  -4  -3   1    2.06    0.15
   4  -3  -1    2.13    0.20
   4  -3  -1    2.00    0.14
   4  -3  -1    1.89    0.17
   4   3  -1    2.14    0.18
   3  -3  -1    0.05    0.03
  -3  -3   1    0.02    0.04
   3   3  -1    0.05    0.04
   2  -3  -1   11.72    0.45
  -2  -3   1   12.83    0.46
  -2   3   1   11.71    0.45
   2   3  -1   11.77    0.46
   1  -3  -1    9.70    0.38
  -1  -3   1    9.87    0.38
   1   3  -1    9.66    0.38
  -1   3   1   10.91    0.38
   0  -3  -1   47.97    1.83
   0  -3   1   46.09    1.82
   0   3  -1   54.87    1.83
   0   3   1   53.55    1.83
  -1  -3  -1   34.02    1.39
   1  -3   1   37.13    1.39
   1   3   1   41.61    1.39
  -1   3  -1   40.91    1.39
  -2  -3  -1    4.71    0.20
   2  -3   1    4.79    0.19
  -2   3  -1    4.89    0.19
   2   3   1    4.80    0.20
   3  -3   1   94.60    3.39
  -3  -3  -1   92.22    3.40
   3   3   1   96.50    3.40
   4  -3   1   16.45    0.60
   4  -3   1   17.21    0.60
   4  -3   1   15.82    0.66
  -4  -3  -1   15.73    0.63
   4   3   1   16.81    0.64
   5   3   1   23.80    0.95
  -6  -3  -1    0.22    0.22
   6  -3   1    0.10    0.12
  -6   3  -1   -0.10    0.16
   6   3   1   -0.10    0.18
   6   3   1    0.37    0.24
   7  -3   1    1.67    0.25
  -7  -3  -1    2.02    0.37
  -7  -3  -1    1.89    0.26
  -7   3  -1    1.75    0.27
   7   3   1    1.46    0.25
   7   3   1    2.41    0.40
  -8  -3  -1    1.78    0.39
  -8  -3  -1    1.68    0.25
   8  -3   1    1.82    0.28
  -8   3  -1    1.90    0.26
   9  -3   1    2.52    0.31
  -9  -3  -1    2.32    0.24
  -9   3  -1    2.50    0.25
 -10  -3  -1    0.11    0.10
 -10   3  -1    0.26    0.11
 -10  -4   1    0.20    0.10
  10  -4  -1    0.21    0.20
 -10   4   1    0.42    0.11
  -9  -4   1    2.19    0.29
   9  -4  -1    2.45    0.27
  -9  -4   1    1.75    0.23
  -9   4   1    2.00    0.23
  -8  -4   1    0.90    0.22
  -8  -4   1    1.03    0.24
   8  -4  -1    0.74    0.17
   8   4  -1    1.03    0.24
  -8   4   1    1.11    0.25
  -7  -4   1    2.53    0.28
   7  -4  -1    2.66    0.26
  -7  -4   1    2.68    0.34
   7   4  -1    2.53    0.34
  -7   4   1    2.07    0.29
  -6  -4   1   13.34    0.61
  -6  -4   1   12.81    0.63
   6  -4  -1   13.34    0.59
  -6   4   1   12.80    0.61
   6   4  -1   13.04    0.60
   5  -4  -1   24.20    0.96
  -4  -4   1   15.38    0.60
  -4  -4   1   14.00    0.64
   4  -4  -1   15.14    0.59
   4  -4  -1   14.54    0.58
   4  -4  -1   14.99    0.61
   4   4  -1   15.12    0.61
   3  -4  -1    7.01    0.28
  -3  -4   1    6.69    0.29
   3  -4  -1    6.26    0.32
   3   4  -1    6.61    0.29
  -2  -4   1  158.35    5.63
   2  -4  -1  152.47    5.62
  -2   4   1  165.54    5.62
   2   4  -1  150.33    5.63
  -1  -4   1  197.23    7.28
   1  -4  -1  183.73    7.28
  -1   4   1  213.71    7.28
   1   4  -1  218.70    7.29
   0  -4   1   90.70    3.30
   0  -4  -1   92.69    3.30
   0   4   1   86.77    3.30
   0   4  -1   96.49    3.30
   1  -4   1  130.96    5.03
  -1  -4  -1  136.81    5.04
   1   4   1  151.27    5.04
  -1   4  -1  142.55    5.03
  -2  -4  -1   21.08    0.80
   2  -4   1   20.82    0.79
  -2   4  -1   21.90    0.79
   2   4   1   22.02    0.80
   3  -4   1    6.90    0.27
   3  -4   1    6.55    0.33
  -3  -4  -1    6.89    0.29
   3   4   1    6.84    0.29
   4  -4   1    2.29    0.13
  -4  -4  -1    2.04    0.17
   4  -4   1    2.47    0.20
   4  -4   1    2.21    0.12
   4   4   1    2.26    0.20
   5  -4   1    9.67    0.44
   5   4   1    8.88    0.48
  -6  -4  -1    2.98    0.36
   6  -4   1    2.85    0.25
  -6   4  -1    2.95    0.32
   6   4   1    3.43    0.37
   6   4   1    2.61    0.38
   7  -4   1    9.18    0.48
  -7  -4  -1    9.91    0.54
  -7  -4  -1    9.00    0.49
  -7   4  -1   10.04    0.50
   7   4   1    9.47    0.57
  -8  -4  -1    4.57    0.32
   8  -4   1    4.17    0.33
  -8  -4  -1    4.71    0.41
  -8   4  -1    4.30    0.34
  -9  -4  -1    0.16    0.21
  -9  -4  -1    0.11    0.12
   9  -4   1    0.18    0.17
  -9   4  -1    0.20    0.13
 -10  -4  -1    3.17    0.22
 -10   4  -1    3.32    0.23
 -10  -5   1    0.38    0.21
 -10  -5   1    0.33    0.10
  10  -5  -1    0.44    0.19
 -10   5   1    0.76    0.17
  -9  -5   1    1.73    0.28
  -9  -5   1    2.09    0.23
   9  -5  -1    1.98    0.26
  -9   5   1    1.99    0.24
  -8  -5   1    2.61    0.29
   8  -5  -1    2.66    0.28
  -8  -5   1    2.67    0.34
  -8   5   1    2.71    0.28
  -7  -5   1    7.04    0.44
  -7  -5   1    6.87    0.41
   7  -5  -1    7.31    0.41
   7   5  -1    7.09    0.47
  -7   5   1    6.82    0.42
  -6  -5   1    0.30    0.18
   6  -5  -1   -0.01    0.11
  -6  -5   1    0.06    0.17
   6   5  -1    0.27    0.18
  -6   5   1    0.24    0.18
   6   5  -1   -0.19    0.27
   5  -5  -1    5.49    0.31
  -5  -5   1    4.39    0.38
  -5  -5   1    4.89    0.39
  -4  -5   1    7.62    0.37
   4  -5  -1    7.71    0.35
   4  -5  -1    8.33    0.38
  -4  -5   1    8.10    0.43
   4   5  -1    7.55    0.40
   3  -5  -1   25.28    0.96
   3  -5  -1   24.48    0.93
  -3  -5   1   24.09    0.94
   3   5  -1   25.50    0.94
  -3   5   1   24.65    0.93
   2  -5  -1   29.66    1.10
  -2  -5   1   29.20    1.11
   2   5  -1   30.73    1.11
  -2   5   1   29.48    1.10
  -1  -5   1  138.11    4.86
   1  -5  -1  136.62    4.85
   1   5  -1  129.07    4.85
  -1   5   1  136.31    4.85
   0  -5   1   20.81    0.75
   0  -5  -1   17.40    0.75
   0   5  -1   21.68    0.75
   0   5   1   20.44    0.75
   1  -5   1   75.98    2.66
  -1  -5  -1   66.00    2.66
   1   5   1   75.28    2.66
  -1   5  -1   77.28    2.66
   2  -5   1    0.04    0.03
  -2  -5  -1    0.07    0.04
   2   5   1    0.08    0.04
  -2   5  -1    0.16    0.04
   3  -5   1    0.46    0.08
   3  -5   1    0.62    0.12
  -3  -5  -1    0.46    0.07
  -3   5  -1    0.38    0.09
   3   5   1    0.55    0.13
   4  -5   1   20.83    0.81
  -4  -5  -1   19.12    0.79
   4  -5   1   20.64    0.75
   4   5   1   20.15    0.80
  -5  -5  -1   14.95    0.72
   5  -5   1   16.34    0.67
   5   5   1   15.96    0.74
  -6  -5  -1    2.34    0.33
   6  -5   1    2.85    0.39
   6  -5   1    2.60    0.25
  -6   5  -1    2.16    0.33
   6   5   1    2.71    0.37
  -7  -5  -1   20.23    0.90
   7  -5   1   21.89    0.89
  -7  -5  -1   20.99    0.88
   7   5   1   20.43    0.93
  -7   5  -1   20.81    0.89
  -8  -5  -1   20.17    0.86
  -8  -5  -1   19.32    0.83
   8  -5   1   18.95    0.84
  -8   5  -1   19.71    0.84
  -9  -5  -1    1.40    0.21
  -9  -5  -1    1.64    0.30
   9  -5   1    1.50    0.28
  -9   5  -1    1.71    0.23
 -10  -5  -1    3.09    0.21
 -10   5  -1    3.03    0.26
 -10  -6   1   -0.03    0.16
  10  -6  -1   -0.15    0.20
 -10  -6   1   -0.04    0.14
 -10   6   1   -0.07    0.12
  -9  -6   1    7.58    0.38
  -9  -6   1    6.79    0.41
   9  -6  -1    7.26    0.42
  -9   6   1    7.71    0.39
  -8  -6   1    0.66    0.19
   8  -6  -1    0.70    0.17
  -8  -6   1    0.97    0.18
  -8   6   1    1.02    0.18
  -7  -6   1    0.70    0.17
  -7  -6   1    0.36    0.16
   7  -6  -1    0.42    0.15
  -7   6   1    0.37    0.17
   7   6  -1    1.25    0.45
   6  -6  -1    0.31    0.13
  -6  -6   1    0.11    0.18
  -6  -6   1    0.38    0.18
   6   6  -1    0.50    0.27
  -6   6   1    0.34    0.19
   6   6  -1    0.45    0.21
  -5  -6   1    1.66    0.41
   5  -6  -1    2.61    0.22
  -5  -6   1    2.54    0.31
   5   6  -1    2.23    0.39
  -5   6   1    2.44    0.36
   4  -6  -1    8.95    0.40
  -4  -6   1    8.63    0.42
   4  -6  -1    7.68    0.41
  -4  -6   1    8.47    0.45
   3  -6  -1   41.85    1.52
  -3  -6   1   42.37    1.54
   3  -6  -1   40.27    1.54
   3   6  -1   41.35    1.54
  -3   6   1   40.39    1.53
   2  -6  -1   12.71    0.49
  -2  -6   1   12.55    0.50
  -2   6   1   13.06    0.49
   2   6  -1   11.47    0.50
  -1  -6   1  123.32    4.69
   1  -6  -1  132.16    4.69
   1   6  -1  128.52    4.69
  -1   6   1  136.65    4.69
   0  -6   1  100.31    3.78
   0  -6  -1  108.74    3.79
   0   6   1  108.09    3.79
   0   6  -1  102.80    3.79
   1  -6   1   12.15    0.48
  -1  -6  -1   12.23    0.49
  -1   6  -1   12.48    0.48
   1   6   1   12.65    0.49
   2  -6   1   42.17    1.58
  -2  -6  -1   42.11    1.59
  -2   6  -1   42.61    1.58
   2   6   1   45.79    1.59
  -3  -6  -1    6.67    0.31
   3  -6   1    6.61    0.28
   3  -6   1    6.15    0.32
  -3   6  -1    6.57    0.30
   3   6   1    6.35    0.32
   4  -6   1   14.16    0.59
  -4  -6  -1   13.99    0.60
   4   6   1   13.47    0.62
   5  -6   1    0.73    0.22
   5  -6   1    0.93    0.18
  -5  -6  -1    0.90    0.21
   5   6   1    0.69    0.24
  -5   6  -1    0.97    0.30
  -6  -6  -1    0.87    0.20
   6  -6   1    0.58    0.22
   6  -6   1    1.05    0.21
   6   6   1    0.87    0.22
  -6   6  -1    1.37    0.32
  -7  -6  -1    0.06    0.15
  -7  -6  -1   -0.12    0.17
   7  -6   1   -0.21    0.14
  -7   6  -1   -0.02    0.18
   7   6   1    0.33    0.21
  -8  -6  -1    7.70    0.45
   8  -6   1    6.37    0.41
  -8  -6  -1    7.19    0.41
  -8   6  -1    7.25    0.42
   8   6   1    7.00    0.49
   9  -6   1    1.31    0.26
  -9  -6  -1    0.95    0.20
  -9  -6  -1    0.92    0.18
  -9   6  -1    0.77    0.16
 -10   6  -1    0.15    0.16
 -10  -7   1    2.10    0.21
 -10  -7   1    2.42    0.26
 -10   7   1    2.86    0.28
  -9  -7   1    0.00    0.14
   9  -7  -1    0.15    0.15
  -9  -7   1    0.02    0.12
  -9   7   1    0.07    0.14
  -8  -7   1    0.64    0.19
  -8  -7   1    0.80    0.17
   8  -7  -1    0.96    0.23
  -8   7   1    0.71    0.17
  -7  -7   1    7.75    0.44
  -7  -7   1    7.90    0.45
   7   7  -1    7.93    0.54
  -7   7   1    7.85    0.45
  -6  -7   1    9.15    0.50
   6  -7  -1    9.85    0.49
  -6  -7   1    9.19    0.56
   6   7  -1    9.45    0.56
  -6   7   1    9.57    0.51
   5  -7  -1    9.84    0.46
  -5  -7   1   10.05    0.49
  -5  -7   1    9.12    0.54
  -5   7   1    8.63    0.52
   5   7  -1    9.39    0.55
  -4  -7   1    0.59    0.20
   4  -7  -1    0.21    0.11
  -4  -7   1    0.06    0.14
   4  -7  -1    0.43    0.12
   3  -7  -1    0.23    0.08
  -3  -7   1    0.10    0.17
  -3  -7   1    0.06    0.08
   3  -7  -1    0.05    0.10
  -3   7   1    0.17    0.10
   2  -7  -1   10.74    0.44
  -2  -7   1   10.91    0.45
   2  -7  -1   10.63    0.47
   2   7  -1   10.17    0.45
  -2   7   1   10.97    0.45
  -1  -7   1  101.34    4.22
   1  -7  -1  121.99    4.16
  -1   7   1  118.92    4.17
   1   7  -1  118.36    4.17
   0  -7  -1   29.03    1.05
   0  -7   1   28.17    1.05
   0   7   1   26.53    1.05
   0   7  -1   28.71    1.06
  -1  -7  -1    2.03    0.19
   1  -7   1    2.66    0.15
   1   7   1    2.51    0.16
  -1   7  -1    2.65    0.16
   2  -7   1   14.13    0.58
   2  -7   1   14.14    0.55
  -2  -7  -1   14.22    0.57
   2   7   1   13.98    0.57
  -2   7  -1   13.67    0.56
   3  -7   1   37.92    1.37
   3  -7   1   36.25    1.33
  -3  -7  -1   36.07    1.36
  -3   7  -1   34.14    1.34
   3   7   1   35.66    1.37
  -4  -7  -1    0.57    0.18
  -4  -7  -1    0.90    0.17
   4  -7   1    0.55    0.13
   5  -7   1    0.88    0.19
  -5  -7  -1    0.89    0.20
   5  -7   1    0.58    0.21
  -5   7  -1    1.26    0.29
   5   7   1    1.09    0.22
   6  -7   1    5.99    0.36
   6  -7   1    5.47    0.41
  -6  -7  -1    5.54    0.39
   6   7   1    5.19    0.41
  -6   7  -1    5.55    0.43
  -7  -7  -1    0.21    0.17
   7  -7   1   -0.10    0.13
  -7  -7  -1   -0.03    0.17
  -7   7  -1   -0.26    0.19
   7   7   1    0.21    0.22
  -8  -7  -1    1.49    0.28
   8  -7   1    1.64    0.27
  -8  -7  -1    1.63    0.26
   8   7   1    2.05    0.36
  -8   7  -1    2.29    0.30
  -9  -7  -1    0.60    0.15
   9  -7   1    0.67    0.18
  -9  -7  -1    0.31    0.13
  -9   7  -1    0.69    0.17
 -10  -7  -1    0.05    0.10
 -10  -8   1    0.05    0.14
  -9  -8   1    1.81    0.23
   9  -8  -1    2.15    0.26
  -9  -8   1    1.83    0.23
  -9   8   1    1.61    0.25
  -8  -8   1    5.97    0.37
   8  -8  -1    4.95    0.35
  -7  -8   1    5.81    0.39
  -7  -8   1    6.02    0.40
   7  -8  -1    5.53    0.37
  -7   8   1    5.64    0.40
   7   8  -1    6.38    0.47
  -6  -8   1    0.57    0.21
  -6  -8   1    0.72    0.19
   6  -8  -1    0.32    0.14
   6   8  -1    0.11    0.22
  -5  -8   1    9.89    0.51
  -5  -8   1    9.52    0.57
   5  -8  -1    9.85    0.48
  -5   8   1    9.67    0.58
   5   8  -1   11.23    0.56
  -4  -8   1    9.43    0.49
   4  -8  -1    8.78    0.42
  -4  -8   1    8.42    0.49
   4   8  -1    8.15    0.49
  -3  -8   1   10.83    0.49
  -3  -8   1   10.07    0.51
   3  -8  -1   10.74    0.47
   3  -8  -1   10.09    0.46
  -3   8   1    9.36    0.49
   2  -8  -1   10.71    0.44
   2  -8  -1   10.46    0.46
  -2  -8   1    9.78    0.49
  -2  -8   1   10.08    0.45
  -2   8   1   10.35    0.46
   1  -8  -1   27.85    1.00
  -1  -8   1   26.72    1.01
  -1   8   1   25.34    1.00
   1   8  -1   25.23    1.01
   0  -8  -1   45.88    1.60
   0  -8   1   44.00    1.60
   0   8   1   40.34    1.60
   0   8  -1   41.96    1.60
   1  -8   1    3.07    0.23
   1  -8   1    2.67    0.17
  -1  -8  -1    2.62    0.18
   1   8   1    2.74    0.21
  -1   8  -1    2.63    0.20
  -2  -8  -1    2.79    0.20
   2  -8   1    2.88    0.22
   2  -8   1    2.88    0.19
  -2   8  -1    2.68    0.22
   3  -8   1    9.34    0.41
  -3  -8  -1    9.00    0.45
   3  -8   1    9.73    0.43
  -3   8  -1    8.78    0.44
  -4  -8  -1    0.15    0.19
   4  -8   1    0.48    0.18
  -4  -8  -1    0.30    0.17
   4  -8   1    0.10    0.11
   4   8   1   -0.09    0.17
   5  -8   1    0.02    0.11
  -5  -8  -1    0.06    0.17
   5  -8   1    0.06    0.18
   5   8   1    0.04    0.19
  -6  -8  -1    9.34    0.50
   6  -8   1    9.22    0.49
   6  -8   1    9.37    0.48
   6   8   1    8.81    0.51
  -6   8  -1    8.80    0.59
   7  -8   1    3.38    0.29
  -7  -8  -1    3.26    0.32
  -7  -8  -1    2.78    0.31
   7   8   1    2.94    0.35
  -7   8  -1    2.81    0.38
  -8  -8  -1    4.11    0.34
   8  -8   1    3.08    0.30
  -8  -8  -1    4.00    0.39
  -8   8  -1    3.28    0.36
   8   8   1    3.77    0.35
   9  -8   1    0.25    0.15
  -9  -8  -1    0.21    0.12
  -9  -8  -1    0.02    0.13
   9  -9  -1    0.31    0.14
  -9  -9   1    0.56    0.13
  -8  -9   1    0.51    0.17
   8  -9  -1    0.35    0.16
  -8  -9   1    0.22    0.14
  -8   9   1    0.62    0.20
  -7  -9   1    0.17    0.14
   7  -9  -1   -0.02    0.13
  -7  -9   1    0.08    0.20
   7   9  -1   -0.09    0.22
  -7   9   1   -0.09    0.21
  -6  -9   1    4.34    0.35
  -6  -9   1    4.41    0.41
   6  -9  -1    4.24    0.32
   6   9  -1    4.35    0.38
  -6   9   1    3.37    0.43
  -5  -9   1    1.45    0.27
   5  -9  -1    1.23    0.21
   5   9  -1    2.02    0.33
  -4  -9   1   22.94    0.96
  -4  -9   1   24.17    0.96
   4  -9  -1   22.03    0.92
   4   9  -1   22.45    0.96
  -3  -9   1   21.79    0.95
   3  -9  -1   21.61    0.88
  -3  -9   1   21.16    0.89
   3  -9  -1   21.72    0.92
  -2  -9   1    9.28    0.49
   2  -9  -1   10.03    0.46
   2  -9  -1   10.38    0.46
  -2  -9   1   10.51    0.47
  -1  -9   1   16.53    0.67
   1  -9  -1   15.94    0.68
  -1  -9   1   15.85    0.68
   1  -9  -1   16.93    0.66
   0  -9  -1    0.21    0.09
   0  -9   1    0.25    0.09
   0  -9   1    0.42    0.14
  -1  -9  -1    9.13    0.41
   1  -9   1    8.80    0.40
   1  -9   1    8.36    0.41
  -1   9  -1    8.92    0.43
  -2  -9  -1   45.45    1.65
   2  -9   1   44.41    1.63
   2  -9   1   44.03    1.64
  -2   9  -1   40.58    1.64
   3  -9   1    0.10    0.11
   3  -9   1   -0.16    0.15
   3  -9   1    0.16    0.14
  -3  -9  -1    0.10    0.16
   3   9   1    0.08    0.17
   4  -9   1    1.41    0.25
   4  -9   1    1.30    0.20
  -4  -9  -1    1.94    0.27
   4   9   1    1.70    0.28
   5  -9   1    0.42    0.13
   5  -9   1    0.68    0.18
  -5  -9  -1    0.77    0.19
   5   9   1    0.47    0.20
  -6  -9  -1    0.42    0.20
  -6  -9  -1   -0.20    0.16
   6  -9   1    0.07    0.14
   6   9   1   -0.01    0.18
  -7  -9  -1    9.37    0.48
   7  -9   1    8.42    0.48
  -7  -9  -1    8.83    0.48
   7   9   1    8.99    0.52
   8  -9   1    0.03    0.14
  -8  -9  -1   -0.05    0.15
  -8  -9  -1   -0.04    0.13
   8   9   1   -0.06    0.17
  -9  -9  -1    0.70    0.14
   9  -9   1    0.58    0.16
  -9  -9  -1    0.42    0.14
  -9 -10   1    0.50    0.12
   9 -10  -1    0.41    0.15
   8 -10  -1    2.38    0.27
  -8 -10   1    2.53    0.26
  -7 -10   1    5.93    0.38
  -7 -10   1    6.04    0.46
   7 -10  -1    6.19    0.39
   7  10  -1    5.78    0.43
  -6 -10   1    2.31    0.29
   6  10  -1    2.52    0.34
   5 -10  -1    0.65    0.16
  -5 -10   1    1.16    0.27
   5  10  -1    0.85    0.21
  -4 -10   1    0.28    0.17
   4 -10  -1   -0.04    0.12
   4  10  -1    0.49    0.19
  -3 -10   1    5.02    0.40
  -3 -10   1    4.21    0.37
   3 -10  -1    5.33    0.46
   3 -10  -1    4.56    0.30
   2 -10  -1    5.42    0.38
  -2 -10   1    5.23    0.36
   2 -10  -1    5.24    0.32
  -1 -10   1    0.06    0.13
  -1 -10   1    0.11    0.16
   1 -10  -1    0.15    0.12
   1 -10  -1    0.35    0.16
   0 -10   1    0.06    0.12
   0 -10  -1   -0.05    0.10
   0 -10   1   -0.05    0.11
   0 -10  -1    0.18    0.19
   1 -10   1    3.27    0.27
  -1 -10  -1    2.52    0.27
   1 -10   1    3.07    0.25
   2 -10   1    1.13    0.19
   2 -10   1    0.68    0.17
   3 -10   1   31.07    1.21
   3  10   1   30.73    1.23
  -4 -10  -1    3.13    0.32
   4 -10   1    3.00    0.27
   4  10   1    3.32    0.31
   5 -10   1    7.86    0.43
  -5 -10  -1    7.23    0.44
   5  10   1    7.52    0.45
  -6 -10  -1    0.67    0.22
   6 -10   1    0.45    0.27
  -6 -10  -1    0.49    0.17
   6  10   1    0.25    0.17
   7 -10   1    0.92    0.19
  -7 -10  -1    1.05    0.20
  -7 -10  -1    0.88    0.19
   7  10   1    0.64    0.19
  -8 -10  -1    0.33    0.16
   8 -10   1    0.09    0.14
  -8 -10  -1    0.16    0.12
   8  10   1   -0.04    0.16
  -9 -10  -1    5.47    0.31
   9 -10   1    5.64    0.34
  -9 -11   1    1.10    0.17
   9 -11  -1    0.58    0.16
  -8 -11   1    0.33    0.12
   8 -11  -1    0.31    0.14
   8  11  -1    0.51    0.25
  -7 -11   1   20.88    0.89
   7 -11  -1   20.98    0.90
  -7  11   1   19.90    0.89
   7  11  -1   23.71    0.95
  -6 -11   1   23.60    0.98
   6 -11  -1   21.58    0.97
  -6  11   1   23.90    0.97
   6  11  -1   24.36    1.00
   5 -11  -1    8.48    0.45
  -5 -11   1    7.76    0.46
   5  11  -1    8.34    0.48
  -4 -11   1    4.24    0.34
   4 -11  -1    4.02    0.31
   4  11  -1    4.00    0.34
  -3 -11   1   35.47    1.43
   3 -11  -1   37.90    1.41
   3  11  -1   35.97    1.44
  -2 -11   1    1.79    0.33
  -2 -11   1    2.07    0.39
   2 -11  -1    1.99    0.25
   1 -11  -1    0.28    0.16
  -1 -11   1   -0.04    0.17
  -1  11   1    0.12    0.16
   0 -11   1   32.03    1.23
   0 -11   1   31.33    1.21
   0 -11  -1   30.80    1.22
   0  11   1   30.48    1.22
   0  11  -1   30.96    1.23
   1 -11   1    2.42    0.26
   1 -11   1    2.37    0.31
   1  11   1    2.22    0.30
   2 -11   1    0.01    0.21
   2 -11   1    1.01    0.20
   2  11   1    0.45    0.22
   2  11   1    0.51    0.18
  -3 -11  -1   51.61    1.94
   3 -11   1   51.20    1.93
   3 -11   1   50.00    1.95
   3  11   1   52.49    1.96
   3  11   1   50.01    1.95
  -4 -11  -1    1.81    0.28
   4 -11   1    2.05    0.48
   4 -11   1    2.06    0.25
   4  11   1    1.57    0.27
  -5 -11  -1   18.76    0.84
   5 -11   1   20.32    0.84
   5  11   1   19.15    0.86
  -6 -11  -1    0.37    0.17
   6 -11   1    0.17    0.16
   6  11   1   -0.19    0.16
   7 -11   1   18.93    0.87
  -7 -11  -1   22.16    0.88
  -7 -11  -1   20.67    0.88
   7  11   1   20.91    0.89
   8 -11   1    7.74    0.49
  -8 -11  -1    8.24    0.41
   8  11   1    7.42    0.43
  -9 -11  -1    0.14    0.13
  -9 -12   1    0.79    0.15
   8 -12  -1   -0.02    0.14
  -8 -12   1    0.04    0.11
   7 -12  -1    1.21    0.24
  -7 -12   1    1.40    0.23
   7  12  -1    1.43    0.26
  -7  12   1    1.52    0.28
   6 -12  -1    0.20    0.16
  -6 -12   1    0.06    0.15
  -6  12   1    0.17    0.16
   6  12  -1    0.25    0.18
   5 -12  -1    6.36    0.44
  -5 -12   1    5.86    0.39
  -5  12   1    5.81    0.38
   5  12  -1    6.25    0.41
   4 -12  -1    0.73    0.19
  -4 -12   1    1.02    0.20
   4  12  -1    0.76    0.19
  -3 -12   1   45.56    1.76
   3 -12  -1   47.14    1.75
   3  12  -1   44.81    1.78
   2 -12  -1    3.22    0.37
  -2 -12   1    2.10    0.39
   2 -12  -1    3.01    0.29
  -2  12   1    2.44    0.27
   2  12  -1    2.92    0.38
   1 -12  -1    2.02    0.34
   1  12  -1    1.61    0.30
  -1  12   1    2.31    0.26
   0 -12   1    7.89    0.42
   0 -12   1    7.18    0.42
   0  12  -1    7.20    0.42
   0  12   1    7.43    0.42
   1 -12   1    0.02    0.13
   1 -12   1   -0.04    0.18
   1  12   1   -0.16    0.17
   2 -12   1    0.99    0.18
   2 -12   1    1.05    0.23
   2  12   1    0.74    0.18
   2  12   1    1.25    0.29
   3 -12   1    2.60    0.26
  -3 -12  -1    3.04    0.32
   3 -12   1    2.47    0.37
   3  12   1    2.38    0.38
   3  12   1    2.93    0.29
  -4 -12  -1    0.04    0.17
   4 -12   1   -0.18    0.26
   4 -12   1    0.18    0.14
   4  12   1   -0.01    0.14
  -5 -12  -1    0.37    0.17
   5  12   1    0.49    0.17
   6 -12   1    0.70    0.16
  -6 -12  -1    1.08    0.20
   6  12   1    0.55    0.17
  -7 -12  -1    0.44    0.14
   7 -12   1    0.29    0.15
   7  12   1    0.33    0.15
  -7  12  -1    0.27    0.15
  -8 -12  -1    0.08    0.11
   8 -12   1   -0.04    0.14
   8  12   1   -0.38    0.14
  -9 -12  -1    0.17    0.11
   8 -13  -1    0.06    0.16
  -8 -13   1    0.08    0.10
  -7 -13   1    0.53    0.13
   7 -13  -1    0.78    0.16
   7  13  -1    0.66    0.17
  -7  13   1    0.73    0.17
   6 -13  -1    4.02    0.32
  -6 -13   1    4.28    0.32
  -6  13   1    4.18    0.32
   6  13  -1    4.23    0.35
  -5 -13   1    5.64    0.39
   5 -13  -1    5.90    0.38
  -5  13   1    6.12    0.38
   5  13  -1    5.84    0.40
   4 -13  -1    6.95    0.41
  -4 -13   1    7.37    0.43
   4  13  -1    6.05    0.42
  -4  13   1    6.65    0.39
   3 -13  -1   21.60    0.86
  -3 -13   1   18.78    0.87
  -3  13   1   20.23    0.85
  -2 -13   1    1.71    0.41
   2 -13  -1    1.86    0.29
  -2  13   1    1.68    0.25
   2  13  -1    1.96    0.34
   1 -13  -1    1.37    0.30
  -1 -13   1    1.52    0.25
   1  13  -1    1.66    0.29
  -1  13   1    1.73    0.25
   0 -13   1   11.64    0.58
   0  13  -1   12.36    0.58
   0  13   1   12.07    0.56
   1 -13   1    9.05    0.48
   1 -13   1    8.66    0.47
   1  13   1    8.79    0.47
  -1  13  -1    8.68    0.45
   2 -13   1    6.08    0.41
  -2 -13  -1    5.43    0.42
   2 -13   1    6.25    0.38
   2  13   1    6.28    0.41
   2  13   1    6.40    0.39
  -3 -13  -1    9.51    0.52
   3 -13   1   11.01    0.52
   3  13   1   10.19    0.53
   3  13   1    9.66    0.55
  -4 -13  -1   22.95    0.98
   4 -13   1   22.73    1.00
   4 -13   1   24.64    0.98
   4  13   1   23.20    0.99
   5 -13   1    9.73    0.51
  -5 -13  -1   10.31    0.53
   5  13   1   10.39    0.54
   6 -13   1    0.51    0.15
  -6 -13  -1    0.57    0.17
   6  13   1    0.67    0.17
  -6  13  -1    0.93    0.17
   7 -13   1    7.38    0.42
  -7 -13  -1    7.83    0.40
   7  13   1    7.48    0.41
  -7  13  -1    7.61    0.40
   8 -13   1    0.47    0.15
  -8 -13  -1    0.32    0.11
   8  13   1    0.19    0.15
  -8 -14   1    2.40    0.22
  -7 -14   1    0.25    0.12
   7 -14  -1    0.36    0.17
   7  14  -1    0.37    0.15
  -7  14   1    0.04    0.16
   6 -14  -1    0.06    0.15
  -6 -14   1   -0.02    0.12
  -6  14   1   -0.09    0.13
   6  14  -1    0.19    0.15
   5 -14  -1    3.23    0.32
  -5 -14   1    3.45    0.32
   5  14  -1    3.57    0.31
  -5  14   1    3.71    0.30
   4 -14  -1   -0.10    0.17
  -4 -14   1    0.10    0.16
  -4  14   1    0.16    0.14
   4  14  -1    0.02    0.16
  -3 -14   1   51.63    2.03
   3 -14  -1   57.25    2.05
   3  14  -1   53.82    2.06
  -3  14   1   51.63    2.03
  -2 -14   1    6.89    0.52
   2 -14  -1    7.33    0.44
   2  14  -1    7.09    0.46
  -2  14   1    7.33    0.41
   1 -14  -1    8.24    0.51
  -1  14   1    8.99    0.45
   1  14  -1    7.97    0.53
   0 -14   1    3.39    0.36
   0  14   1    2.39    0.29
   1 -14   1    5.04    0.38
  -1  14  -1    4.73    0.34
   1  14   1    5.24    0.35
   2 -14   1    6.98    0.41
  -2 -14  -1    6.28    0.45
   2 -14   1    6.14    0.41
  -2  14  -1    6.40    0.38
   2  14   1    6.16    0.40
   2  14   1    6.59    0.42
   3 -14   1    3.37    0.35
  -3 -14  -1    3.57    0.33
   3 -14   1    2.76    0.30
   3  14   1    3.35    0.36
   3  14   1    3.22    0.30
   4 -14   1    1.83    0.27
  -4 -14  -1    1.26    0.28
   4  14   1    2.01    0.28
   5 -14   1    0.32    0.17
  -5 -14  -1    0.23    0.15
  -5  14  -1    0.49    0.16
   5  14   1    0.08    0.15
   6 -14   1    5.72    0.37
  -6 -14  -1    6.14    0.35
   6  14   1    6.01    0.37
  -6  14  -1    5.68    0.34
  -7 -14  -1   -0.10    0.10
   7 -14   1    0.24    0.15
  -7  14  -1    0.14    0.13
   7  14   1   -0.08    0.13
  -8 -14  -1    0.63    0.16
   8  14   1    0.60    0.16
  -8 -15   1    0.81    0.15
  -7 -15   1    1.23    0.19
   7 -15  -1    1.75    0.28
  -7  15   1    1.47    0.24
   7  15  -1    1.13    0.21
  -6 -15   1   12.21    0.54
   6 -15  -1   12.11    0.57
   6  15  -1   11.42    0.55
  -6  15   1   11.43    0.53
   5 -15  -1    2.80    0.32
   5  15  -1    2.67    0.29
  -5  15   1    3.03    0.30
   4 -15  -1    0.27    0.19
  -4 -15   1    0.55    0.19
   4  15  -1    0.60    0.18
  -4  15   1    1.04    0.22
  -3 -15   1    0.28    0.20
   3 -15  -1    0.19    0.20
  -3  15   1   -0.06    0.14
   3  15  -1    0.05    0.14
   2 -15  -1    4.86    0.43
   2  15  -1    5.39    0.36
   2  15  -1    5.07    0.39
  -2  15   1    4.29    0.33
  -1  15   1   21.17    0.89
   1  15  -1   21.15    0.89
   0 -15   1   -0.18    0.23
   0  15  -1    0.32    0.15
   0  15   1    0.26    0.16
   1 -15   1    5.99    0.43
   1  15   1    5.71    0.39
   1  15   1    5.65    0.37
  -1  15  -1    5.74    0.37
   2 -15   1   14.28    0.64
  -2 -15  -1   12.94    0.65
   2  15   1   12.79    0.62
   2  15   1   12.73    0.62
  -2  15  -1   13.47    0.61
  -3 -15  -1    7.93    0.47
   3 -15   1    8.84    0.47
   3  15   1    8.49    0.49
  -3  15  -1    8.69    0.45
   3  15   1    7.57    0.46
   4 -15   1    2.09    0.29
  -4 -15  -1    2.97    0.32
   4  15   1    2.69    0.29
  -4  15  -1    2.46    0.26
   5 -15   1    1.45    0.25
   5  15   1    0.90    0.23
  -5  15  -1    1.56    0.28
  -6 -15  -1    0.52    0.13
   6 -15   1    0.63    0.16
   6  15   1    0.52    0.14
  -6  15  -1    0.48    0.13
   7 -15   1   -0.01    0.15
  -7 -15  -1   -0.02    0.10
  -7  15  -1    0.17    0.14
   7  15   1    0.09    0.12
  -8 -15  -1    2.57    0.19
  -7 -16   1   -0.07    0.10
   7  16  -1    0.12    0.13
  -6 -16   1    0.06    0.12
   6 -16  -1   -0.07    0.19
   6  16  -1   -0.11    0.12
  -6  16   1    0.16    0.12
  -5 -16   1   -0.05    0.13
   5 -16  -1   -0.50    0.18
  -5  16   1   -0.21    0.11
   5  16  -1    0.01    0.12
   4 -16  -1    3.62    0.36
  -4  16   1    3.86    0.29
   4  16  -1    3.45    0.30
   3 -16  -1    0.24    0.23
  -3 -16   1    0.12    0.22
  -3  16   1    0.46    0.14
   3  16  -1    0.55    0.17
  -2  16   1   11.50    0.56
   2  16  -1   11.45    0.57
   2  16  -1   12.08    0.58
   1  16  -1   -0.14    0.16
  -1  16   1   -0.15    0.13
   0  16  -1    3.85    0.32
   0  16   1    3.18    0.29
   0  16   1    3.88    0.32
   1 -16   1   -0.02    0.24
   1  16   1    0.51    0.16
  -1  16  -1    0.31    0.15
   1  16   1    0.49    0.16
  -2 -16  -1    0.10    0.22
   2 -16   1    0.21    0.20
  -2  16  -1    0.02    0.14
   2  16   1    0.30    0.15
   2  16   1    0.31    0.17
  -3 -16  -1    0.38    0.19
   3 -16   1    0.24    0.17
  -3  16  -1    0.52    0.15
   3  16   1    0.56    0.20
   3  16   1    0.35    0.15
   4 -16   1    3.09    0.32
  -4  16  -1    3.44    0.28
   4  16   1    3.92    0.30
  -5 -16  -1    0.12    0.14
   5 -16   1    0.28    0.17
  -5  16  -1    0.03    0.11
   5  16   1    0.02    0.11
   6 -16   1    0.41    0.18
  -6 -16  -1    0.98    0.18
   6  16   1    1.10    0.18
  -6  16  -1    0.82    0.17
  -7 -16  -1   -0.07    0.10
  -7  16  -1    0.21    0.13
   7  16   1   -0.13    0.11
   6  17  -1    0.98    0.17
  -5 -17   1    0.47    0.15
   5 -17  -1    0.23    0.25
  -5  17   1    0.32    0.12
   5  17  -1    0.37    0.13
  -4 -17   1    9.83    0.50
  -4  17   1   10.87    0.49
   4  17  -1   10.17    0.51
   3  17  -1    0.20    0.15
  -3  17   1    0.28    0.13
  -2  17   1   22.84    0.95
   2  17  -1   22.53    0.93
  -2  17   1   22.90    0.93
   2  17  -1   21.11    0.94
   1  17  -1   25.79    1.06
  -1  17   1   25.96    1.04
  -1  17   1   24.75    1.05
   1  17  -1   25.35    1.03
   0  17  -1    0.69    0.17
   0  17   1    0.82    0.18
   0  17   1    1.22    0.23
   1  17   1    8.40    0.47
  -1  17  -1    8.94    0.46
   1  17   1    8.73    0.46
   2 -17   1    0.07    0.24
   2  17   1   -0.11    0.14
   2  17   1   -0.21    0.15
  -2  17  -1    0.31    0.13
  -3 -17  -1    0.44    0.19
   3 -17   1    0.55    0.22
   3  17   1    0.51    0.20
  -3  17  -1    0.37    0.13
   3  17   1    0.20    0.14
  -4 -17  -1    0.11    0.15
   4 -17   1    0.08    0.18
  -4  17  -1   -0.04    0.10
   4  17   1    0.16    0.12
  -5 -17  -1   -0.01    0.12
   5 -17   1   -0.14    0.19
   5  17   1   -0.07    0.10
  -5  17  -1    0.05    0.10
  -6 -17  -1    0.79    0.18
   6  17   1    0.59    0.15
  -6  17  -1    0.69    0.15
  -6  18   1    7.19    0.33
  -5 -18   1    0.12    0.17
   5  18  -1   -0.10    0.10
  -5  18   1    0.00    0.09
  -4  18   1    3.85    0.25
   4  18  -1    3.44    0.26
   3  18  -1    1.00    0.19
  -3  18   1    0.91    0.18
  -2  18   1    1.17    0.19
   2  18  -1    1.29    0.20
  -2  18   1    0.81    0.23
   2  18  -1    1.03    0.20
  -1  18   1    4.54    0.30
   1  18  -1    4.87    0.33
  -1  18   1    4.34    0.33
   1  18  -1    4.52    0.33
   0  18  -1    0.59    0.16
   0  18   1    0.36    0.14
   0  18  -1    0.49    0.15
  -1  18  -1    1.24    0.23
  -1  18  -1    1.30    0.23
   2  18   1    0.27    0.14
   2  18   1   -0.06    0.14
  -2  18  -1   -0.10    0.12
  -3 -18  -1    0.33    0.20
   3  18   1    0.38    0.13
  -3  18  -1    0.52    0.13
  -4 -18  -1    1.58    0.25
   4 -18   1    2.18    0.42
  -4  18  -1    2.04    0.20
   4  18   1    2.02    0.21
   5  18   1    0.08    0.10
  -5  18  -1   -0.03    0.09
  -6  18  -1    4.31    0.23
   6  18   1    4.50    0.24
   5  19  -1    0.18    0.09
  -5  19   1    0.46    0.10
   4  19  -1    3.63    0.24
  -4  19   1    3.51    0.22
  -3  19   1    0.17    0.11
   3  19  -1    0.31    0.11
  -2  19   1    1.15    0.17
   2  19  -1    1.08    0.18
  -1  19   1    0.14    0.11
   1  19  -1    0.00    0.13
   1  19  -1    0.08    0.12
  -1  19   1    0.12    0.16
   0  19   1    2.34    0.22
   0  19  -1    2.49    0.23
   0  19   1    2.22    0.24
   0  19  -1    2.35    0.23
   1  19   1    0.09    0.12
  -1  19  -1   -0.02    0.13
  -1  19  -1   -0.17    0.11
   1  19   1   -0.07    0.11
  -2  19  -1    0.58    0.16
   2  19   1    0.50    0.14
  -2  19  -1    0.25    0.11
   2  19   1    0.32    0.13
   3  19   1    0.07    0.10
  -3  19  -1    0.30    0.10
   4  19   1    0.01    0.09
  -4  19  -1    0.09    0.09
   5  19   1    2.64    0.18
  -5  19  -1    2.62    0.17
   4  20  -1   -0.11    0.08
  -4  20   1    0.05    0.08
  -3  20   1    1.73    0.16
   3  20  -1    1.96    0.18
  -2  20   1    4.93    0.27
   2  20  -1    4.71    0.28
   1  20  -1   -0.05    0.13
  -1  20   1    0.02    0.09
   1  20  -1   -0.11    0.10
   0  20   1    3.04    0.25
   0  20   1    3.43    0.23
   0  20  -1    3.23    0.24
   0  20  -1    3.28    0.24
   1  20   1    1.07    0.19
  -1  20  -1    1.05    0.17
  -1  20  -1    0.87    0.21
   1  20   1    1.16    0.19
  -2  20  -1    2.48    0.19
   2  20   1    2.57    0.27
   2  20   1    2.29    0.21
  -3  20  -1    2.28    0.18
   3  20   1    2.62    0.20
   4  20   1    0.09    0.09
  -4  20  -1    0.11    0.08
  -3  21   1    0.30    0.08
   3  21  -1    0.81    0.13
   2  21  -1    1.45    0.16
  -1  21   1    6.59    0.31
   0  21  -1    1.82    0.19
   0  21   1    1.84    0.23
   0  21   1    2.55    0.23
   0  21  -1    1.92    0.20
  -1  21  -1    1.27    0.24
  -1  21  -1    1.47    0.21
   1  21   1    1.77    0.20
   1  21   1    1.83    0.19
   2  21   1    1.49    0.17
  -2  21  -1    1.80    0.15
  -3  21  -1    0.27    0.08
   3  21   1    0.27    0.09
  -1  22   1    0.65    0.14
 -11   0   2    1.75    0.15
  10   0  -2    6.20    0.46
 -10   0   2    5.82    0.31
   9   0  -2    0.03    0.16
  -9   0   2   -0.03    0.13
   8   0  -2    4.59    0.35
  -8   0   2    4.63    0.46
  -8   0   2    4.87    0.34
   7   0  -2    0.28    0.15
  -7   0   2    0.29    0.16
  -7   0   2   -0.14    0.26
  -6   0   2   11.61    0.67
   6   0  -2   13.68    0.58
  -6   0   2   13.01    0.59
   5   0  -2    0.30    0.11
   5   0  -2    0.42    0.15
   5   0  -2    0.43    0.14
   4   0  -2  108.74    3.87
   4   0  -2  105.42    3.86
   3   0  -2   94.46    3.41
   2   0  -2  180.38    6.46
   1   0  -2   23.06    0.84
   0   0  -2  206.60    7.43
  -1   0  -2  149.55    5.36
   4   0   2   10.11    0.47
   5   0   2    0.33    0.13
   6   0   2    0.52    0.15
   6   0   2    1.01    0.30
  -7   0  -2   44.89    1.76
   7   0   2   47.11    1.76
   8   0   2    0.26    0.21
  -8   0  -2    0.14    0.14
  -9   0  -2    3.48    0.39
 -10   0  -2    0.00    0.10
 -11  -1   2    0.09    0.09
 -11   1   2   -0.01    0.09
 -10  -1   2    1.33    0.17
  10  -1  -2    1.69    0.34
 -10   1   2    1.40    0.18
   9  -1  -2   -0.01    0.15
  -9  -1   2   -0.01    0.12
  -9  -1   2   -0.43    0.21
  -9   1   2    0.01    0.13
   9   1  -2    0.00    0.18
   8  -1  -2   10.29    0.51
  -8  -1   2    9.08    0.55
  -8  -1   2    9.86    0.49
   8   1  -2    9.48    0.51
  -8   1   2    9.36    0.49
   7  -1  -2   14.62    0.66
  -7  -1   2   13.76    0.70
  -7  -1   2   14.67    0.67
  -7   1   2   14.42    0.66
   7   1  -2   15.85    0.68
  -7   1   2   13.94    0.75
  -6  -1   2    1.96    0.28
   6  -1  -2    1.18    0.22
  -6  -1   2    1.25    0.26
   6   1  -2    1.61    0.22
  -6   1   2    1.57    0.26
  -6   1   2    1.38    0.31
   5  -1  -2    4.28    0.27
   5  -1  -2    3.84    0.38
   5  -1  -2    4.19    0.30
   5   1  -2    3.68    0.30
   5   1  -2    4.24    0.26
   4  -1  -2    2.14    0.14
   4  -1  -2    2.25    0.16
   4   1  -2    2.34    0.17
   3  -1  -2    4.64    0.20
   3  -1  -2    4.23    0.19
   2  -1  -2    2.33    0.11
  -2  -1   2    2.45    0.12
   2   1  -2    2.23    0.11
  -1  -1   2    2.94    0.13
   1  -1  -2    3.06    0.13
   1   1  -2    3.04    0.13
   0  -1   2   69.10    2.51
   0  -1  -2   67.55    2.51
   0   1  -2   74.00    2.51
   0   1   2   69.39    2.51
  -1  -1  -2   20.26    0.79
  -1   1  -2   22.95    0.79
   1   1   2   22.59    0.79
  -2  -1  -2  747.33   28.48
   2   1   2  845.28   28.49
  -3  -1  -2   43.44    1.62
   3   1   2   46.43    1.62
   4  -1   2    0.03    0.11
   4   1   2    0.03    0.03
   4   1   2    0.16    0.04
   5  -1   2   88.25    3.19
   5   1   2   85.70    3.18
   6  -1   2    2.60    0.45
   6  -1   2    2.93    0.25
  -6  -1  -2    2.02    0.35
  -6   1  -2    2.72    0.31
   6   1   2    2.91    0.40
   6   1   2    2.79    0.28
   7  -1   2    0.21    0.16
  -7  -1  -2    0.38    0.15
   7   1   2    0.47    0.27
  -7   1  -2    0.52    0.16
   7   1   2    0.32    0.19
   8  -1   2    2.88    0.33
  -8  -1  -2    3.30    0.29
   8   1   2    2.19    0.39
  -8   1  -2    3.06    0.30
  -9  -1  -2    0.33    0.14
   9  -1   2    0.77    0.34
  -9   1  -2    0.66    0.15
 -10  -1  -2    0.16    0.10
 -10   1  -2    0.20    0.11
  10  -2  -2   -0.02    0.19
 -10  -2   2   -0.10    0.09
 -10   2   2    0.11    0.10
   9  -2  -2    0.10    0.16
  -9  -2   2    0.15    0.16
  -9  -2   2   -0.17    0.18
   9   2  -2   -0.08    0.18
  -9   2   2    0.28    0.14
  -8  -2   2    1.26    0.24
  -8  -2   2    1.54    0.35
   8  -2  -2    1.11    0.24
  -8   2   2    1.63    0.25
   8   2  -2    1.52    0.30
   7  -2  -2    4.81    0.35
  -7  -2   2    5.11    0.36
   7   2  -2    5.79    0.38
  -7   2   2    5.48    0.35
  -6  -2   2    0.34    0.16
   6  -2  -2    0.09    0.13
  -6  -2   2    0.14    0.20
   6   2  -2    0.31    0.14
  -6   2   2    0.19    0.16
   5  -2  -2   10.37    0.47
   5   2  -2   10.39    0.52
   4  -2  -2    1.06    0.14
   4  -2  -2    1.07    0.15
   4  -2  -2    1.12    0.11
   4   2  -2    1.03    0.15
  -3  -2   2   27.19    1.01
   3  -2  -2   27.63    1.01
   3  -2  -2   27.70    1.01
   3   2  -2   26.52    1.01
   2  -2  -2    2.66    0.12
  -2  -2   2    2.69    0.13
   2   2  -2    2.35    0.13
  -1  -2   2   70.53    2.58
   1  -2  -2   68.92    2.57
  -1   2   2   73.20    2.58
   1   2  -2   73.69    2.58
   0  -2  -2   97.70    3.50
   0  -2   2   92.63    3.50
   0   2   2   98.81    3.50
   0   2  -2  101.35    3.50
  -1  -2  -2   17.20    0.68
   1  -2   2   18.07    0.67
  -1   2  -2   20.09    0.67
   1   2   2   18.64    0.68
  -2  -2  -2    3.05    0.13
   2   2   2    3.20    0.13
  -3  -2  -2    2.15    0.11
   3   2   2    2.16    0.11
   4  -2   2   11.52    0.51
   4   2   2   12.56    0.46
   5  -2   2    1.77    0.20
   5   2   2    1.33    0.27
  -6  -2  -2   19.01    0.92
   6  -2   2   21.37    0.85
   6   2   2   21.08    0.92
  -6   2  -2   21.11    0.87
   6   2   2   21.14    0.87
  -7  -2  -2    3.04    0.30
   7  -2   2    3.22    0.30
   7   2   2    3.11    0.35
  -7   2  -2    2.74    0.30
  -8  -2  -2    0.78    0.18
   8  -2   2    0.73    0.20
  -8   2  -2    0.76    0.16
   9  -2   2    0.62    0.22
  -9  -2  -2    0.70    0.14
  -9   2  -2    0.43    0.14
 -10  -2  -2   -0.11    0.09
 -10   2  -2   -0.07    0.10
 -10  -3   2    1.30    0.17
  10  -3  -2    0.75    0.20
 -10   3   2    1.03    0.17
   9  -3  -2    3.08    0.29
  -9  -3   2    3.59    0.33
  -9  -3   2    3.61    0.32
   9   3  -2    3.41    0.37
  -8  -3   2    2.95    0.35
   8  -3  -2    3.15    0.28
  -8  -3   2    3.36    0.28
   8   3  -2    3.92    0.36
  -8   3   2    3.40    0.30
   7  -3  -2    2.88    0.28
  -7  -3   2    2.76    0.29
  -7  -3   2    2.93    0.35
  -7   3   2    2.42    0.28
   7   3  -2    2.97    0.31
  -6  -3   2    3.98    0.37
  -6  -3   2    4.48    0.33
   6  -3  -2    4.25    0.30
  -6   3   2    4.38    0.33
   6   3  -2    4.20    0.32
   5  -3  -2   39.25    1.51
   5  -3  -2   38.59    1.54
   5   3  -2   43.87    1.65
   4  -3  -2    6.96    0.30
  -4  -3   2    6.47    0.36
   4  -3  -2    6.62    0.32
   4  -3  -2    6.83    0.33
   4   3  -2    6.91    0.33
  -3  -3   2   80.05    3.02
   3  -3  -2   84.64    3.01
   3   3  -2   85.15    3.02
  -2  -3   2   33.51    1.33
   2  -3  -2   36.93    1.33
  -2   3   2   39.12    1.33
   2   3  -2   35.69    1.33
   1  -3  -2    0.67    0.06
  -1  -3   2    0.67    0.06
  -1   3   2    0.76    0.06
   1   3  -2    0.66    0.06
   0  -3  -2  139.11    5.13
   0  -3   2  138.81    5.13
   0   3   2  147.81    5.13
   0   3  -2  146.70    5.13
   1  -3   2   15.99    0.58
  -1  -3  -2   15.43    0.58
   1   3   2   14.55    0.58
  -1   3  -2   16.78    0.58
   2  -3   2    0.06    0.02
  -2  -3  -2    0.05    0.03
  -2   3  -2    0.02    0.02
   2   3   2    0.05    0.03
  -3  -3  -2    0.12    0.04
   3   3   2    0.14    0.04
  -4  -3  -2  140.50    5.08
   4  -3   2  140.66    5.11
   4   3   2  142.63    5.08
   5  -3   2   24.02    1.11
   5   3   2   29.06    1.06
  -6  -3  -2    6.08    0.47
   6  -3   2    6.24    0.48
   6  -3   2    6.38    0.36
   6   3   2    6.13    0.44
  -6   3  -2    6.73    0.41
  -7  -3  -2    0.09    0.16
  -7  -3  -2   -0.09    0.23
   7  -3   2    0.16    0.15
  -7   3  -2    0.18    0.15
   7   3   2    0.24    0.22
  -8  -3  -2    1.22    0.24
   8  -3   2    0.84    0.20
  -8  -3  -2    1.40    0.26
   8   3   2    1.89    0.36
  -8   3  -2    0.64    0.16
   9  -3   2   -0.03    0.21
  -9  -3  -2    0.16    0.12
  -9   3  -2    0.17    0.12
 -10  -3  -2    5.11    0.28
 -10   3  -2    5.49    0.29
 -10  -4   2    0.54    0.11
 -10  -4   2    0.72    0.21
  10  -4  -2    0.59    0.18
 -10   4   2    0.51    0.12
   9  -4  -2    0.18    0.15
  -9  -4   2    0.26    0.12
  -9  -4   2    0.15    0.16
  -9   4   2    0.15    0.13
  -8  -4   2    1.58    0.31
  -8  -4   2    1.80    0.26
   8  -4  -2    1.62    0.24
  -8   4   2    1.39    0.25
   8   4  -2    1.42    0.33
   7  -4  -2   10.71    0.52
  -7  -4   2   10.79    0.52
  -7  -4   2    9.62    0.53
   7   4  -2   10.08    0.53
  -7   4   2    9.47    0.51
  -6  -4   2   25.91    1.05
  -6  -4   2   23.74    1.03
   6  -4  -2   26.91    1.04
  -6   4   2   25.59    1.04
   5  -4  -2   24.91    0.97
  -5  -4   2   23.76    1.00
  -4  -4   2   31.39    1.20
  -4  -4   2   30.32    1.22
   4  -4  -2   32.24    1.20
   4  -4  -2   31.48    1.21
   4  -4  -2   31.67    1.19
   4   4  -2   33.32    1.21
   3  -4  -2    0.91    0.10
   3  -4  -2    1.02    0.17
  -3  -4   2    0.80    0.10
   3   4  -2    0.72    0.12
   2  -4  -2    8.39    0.36
  -2  -4   2    9.48    0.37
   2   4  -2    9.31    0.37
   1  -4  -2   34.17    1.27
  -1  -4   2   33.55    1.27
  -1   4   2   35.45    1.27
   1   4  -2   36.11    1.28
   0  -4   2    5.43    0.22
   0  -4  -2    5.25    0.22
   0   4  -2    4.97    0.22
   0   4   2    5.59    0.22
   1  -4   2   25.75    0.96
  -1  -4  -2   22.86    0.96
  -1   4  -2   27.94    0.96
   1   4   2   28.51    0.97
  -2  -4  -2   74.16    2.82
   2  -4   2   79.03    2.81
  -2   4  -2   80.34    2.81
   2   4   2   79.09    2.82
   3  -4   2    0.60    0.12
   3  -4   2    0.73    0.05
  -3  -4  -2    0.74    0.09
   3   4   2    0.60    0.10
  -4  -4  -2   12.11    0.49
   4  -4   2   12.84    0.52
   4   4   2   11.51    0.50
  -5  -4  -2   15.31    0.74
   5  -4   2   15.69    0.65
   6  -4   2   24.86    1.00
   6  -4   2   24.60    1.03
  -6  -4  -2   24.22    1.04
  -6   4  -2   25.77    1.02
   6   4   2   25.52    1.05
  -7  -4  -2    3.31    0.30
  -7  -4  -2    3.32    0.37
   7  -4   2    3.05    0.30
  -7   4  -2    3.79    0.32
   7   4   2    3.33    0.40
  -8  -4  -2    1.45    0.25
  -8  -4  -2    1.05    0.24
   8  -4   2    1.28    0.26
   8   4   2    1.70    0.36
  -8   4  -2    1.37    0.27
   9  -4   2    0.22    0.19
  -9  -4  -2    0.29    0.12
  -9  -4  -2    0.51    0.24
  -9   4  -2    0.31    0.14
 -10  -4  -2    0.34    0.10
 -10   4  -2    0.60    0.12
  10  -5  -2    0.64    0.19
 -10  -5   2    0.71    0.18
 -10  -5   2    0.80    0.16
 -10   5   2    0.60    0.12
  -9  -5   2    1.08    0.21
  -9  -5   2    1.15    0.25
   9  -5  -2    1.40    0.24
  -9   5   2    1.13    0.21
  -8  -5   2    0.76    0.19
  -8  -5   2    0.89    0.16
   8  -5  -2    0.37    0.14
   8   5  -2    0.90    0.24
  -8   5   2    0.99    0.23
   7  -5  -2   31.76    1.28
  -7  -5   2   31.16    1.26
  -7  -5   2   31.55    1.28
  -7   5   2   31.87    1.27
   7   5  -2   33.24    1.28
  -6  -5   2    0.89    0.21
  -6  -5   2    0.66    0.19
   6  -5  -2    0.64    0.16
  -6   5   2    0.37    0.18
   5  -5  -2    1.46    0.20
  -5  -5   2    1.44    0.30
  -5  -5   2    1.87    0.30
  -5   5   2    1.64    0.31
   4  -5  -2   62.15    2.25
  -4  -5   2   57.53    2.25
   4  -5  -2   60.11    2.22
  -4  -5   2   62.92    2.25
   4   5  -2   60.90    2.26
  -3  -5   2    0.10    0.06
   3  -5  -2    0.15    0.06
  -3  -5   2    0.32    0.15
   3  -5  -2    0.27    0.12
   3   5  -2    0.10    0.08
  -3   5   2    0.26    0.08
   2  -5  -2    4.89    0.23
  -2  -5   2    5.19    0.24
   2   5  -2    5.64    0.24
  -2   5   2    4.98    0.23
   1  -5  -2    5.69    0.26
  -1  -5   2    6.33    0.26
   1   5  -2    6.30    0.26
  -1   5   2    6.16    0.26
   0  -5   2   15.60    0.57
   0  -5  -2   13.30    0.57
   0   5  -2   15.20    0.57
   0   5   2   16.12    0.58
  -1  -5  -2    5.91    0.25
   1  -5   2    6.18    0.25
   1   5   2    5.96    0.25
  -1   5  -2    6.03    0.25
  -2  -5  -2    8.44    0.37
   2  -5   2    9.56    0.36
   2   5   2    9.75    0.38
  -2   5  -2    9.05    0.36
  -3  -5  -2   13.61    0.55
   3  -5   2   13.51    0.57
   3  -5   2   14.15    0.52
  -3   5  -2   14.60    0.52
   3   5   2   13.49    0.55
   4  -5   2   11.75    0.51
   4   5   2   12.04    0.52
   5  -5   2    1.42    0.18
  -5  -5  -2    1.19    0.22
   5  -5   2    1.08    0.22
   5   5   2    1.25    0.31
   6  -5   2    3.66    0.36
   6  -5   2    3.72    0.29
  -6  -5  -2    3.74    0.37
  -6   5  -2    4.07    0.37
   6   5   2    4.13    0.37
  -7  -5  -2    9.64    0.54
   7  -5   2   10.16    0.51
  -7  -5  -2    9.85    0.51
   7  -5   2    9.59    0.56
  -7   5  -2   10.07    0.52
   7   5   2   10.60    0.56
   8  -5   2    0.23    0.16
  -8  -5  -2    0.33    0.15
  -8  -5  -2    0.28    0.19
   8   5   2    0.49    0.22
  -8   5  -2    0.51    0.17
  -9  -5  -2    0.49    0.20
   9  -5   2    0.26    0.18
  -9  -5  -2    0.33    0.13
  -9   5  -2    0.26    0.13
 -10  -5  -2    3.59    0.22
 -10   5  -2    3.35    0.25
 -10  -6   2    1.63    0.24
  10  -6  -2    1.48    0.28
 -10  -6   2    1.34    0.19
 -10   6   2    1.54    0.19
  -9  -6   2    0.87    0.15
   9  -6  -2    0.54    0.16
  -9  -6   2    0.71    0.15
  -9   6   2    0.46    0.14
   8  -6  -2    0.48    0.16
  -8  -6   2    0.69    0.19
  -8  -6   2    0.61    0.17
  -8   6   2    0.52    0.16
  -7  -6   2    7.26    0.44
  -7  -6   2    8.23    0.46
   7  -6  -2    8.03    0.44
  -7   6   2    7.82    0.44
   7   6  -2    7.97    0.49
  -6  -6   2   13.22    0.64
  -6  -6   2   13.56    0.64
   6  -6  -2   14.49    0.63
  -6   6   2   13.67    0.63
   6   6  -2   13.18    0.72
  -5  -6   2    7.97    0.46
   5  -6  -2    8.61    0.42
  -5  -6   2    8.07    0.50
  -5   6   2    8.12    0.47
   4  -6  -2    7.47    0.37
  -4  -6   2    7.76    0.39
   4  -6  -2    6.96    0.36
  -4  -6   2    7.25    0.39
  -3  -6   2   18.86    0.76
   3  -6  -2   19.09    0.75
  -3  -6   2   18.20    0.74
   3  -6  -2   17.80    0.75
  -3   6   2   19.07    0.73
   3   6  -2   18.71    0.74
   2  -6  -2    8.86    0.38
  -2  -6   2    8.93    0.39
  -2   6   2    9.13    0.38
   2   6  -2    9.38    0.39
   1  -6  -2  100.54    3.55
  -1  -6   2   92.43    3.55
  -1   6   2   98.50    3.55
   1   6  -2  101.38    3.55
   0  -6  -2   54.26    2.08
   0  -6   2   55.89    2.08
   0   6   2   59.54    2.08
   0   6  -2   58.75    2.08
  -1  -6  -2   20.12    0.82
   1  -6   2   22.25    0.81
   1   6   2   22.54    0.82
  -1   6  -2   21.78    0.81
   2  -6   2   32.07    1.18
   2  -6   2   31.01    1.21
  -2  -6  -2   33.62    1.20
  -2   6  -2   32.78    1.18
   2   6   2   30.71    1.20
  -3  -6  -2    4.21    0.24
   3  -6   2    4.39    0.20
   3  -6   2    4.34    0.25
  -3   6  -2    4.13    0.21
   3   6   2    4.69    0.26
   4  -6   2    3.76    0.25
  -4  -6  -2    3.98    0.28
   4   6   2    3.43    0.34
  -5  -6  -2    7.75    0.45
   5  -6   2    7.52    0.44
   5  -6   2    7.23    0.38
  -5   6  -2    7.33    0.56
   5   6   2    7.65    0.45
   6  -6   2    2.95    0.34
  -6  -6  -2    2.82    0.34
   6  -6   2    2.91    0.27
  -6   6  -2    3.23    0.36
   6   6   2    3.13    0.35
   7  -6   2    1.56    0.35
  -7  -6  -2    0.76    0.20
  -7  -6  -2    0.88    0.18
   7   6   2    1.22    0.23
  -7   6  -2    1.22    0.22
   8  -6   2    0.41    0.17
  -8  -6  -2    0.57    0.16
  -8  -6  -2    0.67    0.18
   8   6   2    0.15    0.21
  -8   6  -2    0.54    0.18
  -9  -6  -2    1.37    0.20
   9  -6   2    1.08    0.25
  -9  -6  -2    1.17    0.28
  -9   6  -2    1.05    0.24
 -10  -6  -2    1.00    0.16
 -10  -7   2    5.89    0.32
 -10   7   2    6.27    0.33
   9  -7  -2    5.66    0.36
  -9  -7   2    5.90    0.35
  -9  -7   2    5.60    0.33
  -9   7   2    5.99    0.34
  -8  -7   2    1.54    0.29
   8  -7  -2    1.75    0.25
  -8  -7   2    2.22    0.27
  -8   7   2    2.59    0.28
  -7  -7   2    3.87    0.33
  -7  -7   2    4.28    0.36
  -7   7   2    4.49    0.36
   6  -7  -2   14.20    0.63
  -6  -7   2   14.11    0.66
  -6  -7   2   13.88    0.65
  -6   7   2   13.82    0.65
   6   7  -2   13.35    0.70
  -5  -7   2   -0.07    0.16
   5  -7  -2    0.13    0.12
  -5  -7   2   -0.18    0.19
  -5  -7   2    0.23    0.24
  -5   7   2    0.19    0.21
   5   7  -2    0.03    0.25
  -4  -7   2    1.65    0.28
  -4  -7   2    1.38    0.31
  -4  -7   2    1.82    0.29
   4  -7  -2    1.51    0.26
   4  -7  -2    1.64    0.19
   3  -7  -2    0.60    0.14
  -3  -7   2    0.79    0.17
   3  -7  -2    0.68    0.16
  -3  -7   2    0.88    0.18
  -3   7   2    0.82    0.20
  -2  -7   2    0.53    0.12
   2  -7  -2    0.70    0.14
  -2  -7   2    0.83    0.16
   2  -7  -2    0.55    0.12
  -2   7   2    0.71    0.15
   2   7  -2    0.74    0.11
   1  -7  -2    0.90    0.12
  -1  -7   2    1.09    0.11
  -1   7   2    1.05    0.12
   1   7  -2    0.71    0.12
   0  -7   2   21.91    0.83
   0   7  -2   22.64    0.84
   0   7   2   21.29    0.84
   1  -7   2    9.24    0.38
   1  -7   2    8.50    0.40
  -1  -7  -2    9.06    0.38
   1   7   2    9.32    0.39
  -1   7  -2    9.22    0.38
   2  -7   2    1.58    0.13
  -2  -7  -2    1.66    0.15
   2  -7   2    1.69    0.19
   2   7   2    1.41    0.17
  -2   7  -2    1.47    0.15
   3  -7   2    2.72    0.20
  -3  -7  -2    2.69    0.23
   3  -7   2    2.53    0.17
   3   7   2    2.55    0.27
  -3   7  -2    2.56    0.20
   4  -7   2    0.28    0.18
   4  -7   2    0.44    0.12
  -4  -7  -2   -0.11    0.16
   4   7   2    0.08    0.18
   5  -7   2   20.53    0.87
  -5  -7  -2   19.92    0.87
   5  -7   2   21.47    0.86
   5   7   2   21.03    0.90
   6  -7   2    1.10    0.23
  -6  -7  -2    1.91    0.31
   6   7   2    1.22    0.23
  -6   7  -2    1.41    0.28
   7  -7   2    0.30    0.15
   7  -7   2    0.39    0.20
  -7  -7  -2    0.39    0.19
  -7  -7  -2    0.58    0.18
  -7   7  -2    0.48    0.21
   7   7   2    0.03    0.17
  -8  -7  -2    1.98    0.26
  -8  -7  -2    1.52    0.29
   8  -7   2    1.85    0.26
  -9  -7  -2    3.31    0.25
   9  -7   2    3.45    0.30
  -9  -7  -2    3.71    0.29
  -9   7  -2    3.35    0.32
 -10  -7  -2    3.02    0.21
 -10  -8   2    0.12    0.12
  -9  -8   2    0.30    0.13
  -9  -8   2    0.17    0.14
   9  -8  -2    0.35    0.15
  -9   8   2    0.12    0.14
  -8  -8   2    2.24    0.28
   8  -8  -2    2.02    0.26
  -8  -8   2    2.24    0.28
  -7  -8   2    6.86    0.44
   7  -8  -2    7.20    0.41
  -7  -8   2    6.73    0.42
   7   8  -2    6.81    0.52
  -7   8   2    7.01    0.43
   6  -8  -2    6.16    0.36
  -6  -8   2    5.30    0.43
  -6  -8   2    6.17    0.38
   6   8  -2    4.53    0.52
  -6   8   2    5.67    0.41
  -5  -8   2    0.20    0.21
   5  -8  -2    0.48    0.15
  -5  -8   2    0.26    0.17
  -5   8   2    0.50    0.23
   5   8  -2    0.46    0.23
   4  -8  -2    0.91    0.21
  -4  -8   2    0.85    0.19
   4  -8  -2    0.44    0.13
  -4  -8   2    0.93    0.21
   4   8  -2    0.98    0.24
  -3  -8   2    9.48    0.47
   3  -8  -2    9.46    0.44
  -3  -8   2    9.01    0.46
   3  -8  -2    9.93    0.45
  -2  -8   2   72.16    2.75
  -2  -8   2   79.20    2.76
   2  -8  -2   74.25    2.75
   2  -8  -2   78.20    2.75
  -2   8   2   71.73    2.76
  -1  -8   2    0.35    0.08
  -1  -8   2    0.67    0.15
   1  -8  -2    0.23    0.08
   1   8  -2    0.29    0.09
  -1   8   2    0.20    0.08
   0  -8  -2    4.53    0.23
   0  -8   2    4.37    0.23
   0  -8   2    3.67    0.26
   0   8  -2    3.99    0.24
   0   8   2    4.10    0.24
  -1  -8  -2   38.92    1.36
   1  -8   2   37.50    1.35
   1  -8   2   34.72    1.36
   1   8   2   33.58    1.36
  -1   8  -2   35.77    1.35
   2  -8   2    0.07    0.11
  -2  -8  -2    0.14    0.09
  -2   8  -2   -0.01    0.09
   3  -8   2    5.12    0.28
  -3  -8  -2    4.99    0.34
   3  -8   2    4.76    0.27
  -3   8  -2    4.28    0.31
  -4  -8  -2    0.49    0.22
   4  -8   2    0.56    0.17
   4  -8   2    0.63    0.14
   4   8   2   -0.05    0.27
   4   8   2    0.58    0.19
   5  -8   2    8.09    0.44
  -5  -8  -2    7.87    0.44
   5  -8   2    8.44    0.43
   5   8   2    7.88    0.47
   6  -8   2   -0.09    0.17
  -6  -8  -2    0.04    0.16
   6  -8   2    0.04    0.14
   6   8   2    0.07    0.16
  -7  -8  -2    0.62    0.18
  -7  -8  -2    0.68    0.19
   7  -8   2    0.63    0.16
   7   8   2    0.82    0.22
   8  -8   2   -0.11    0.15
  -8  -8  -2    0.16    0.14
   8   8   2    0.34    0.18
  -9  -8  -2    5.04    0.28
   9  -8   2    4.64    0.33
  -9  -8  -2    4.94    0.31
 -10  -9   2    0.23    0.15
   9  -9  -2   -0.17    0.15
  -9  -9   2    0.23    0.12
  -8  -9   2   -0.07    0.18
  -8  -9   2    0.20    0.14
   8  -9  -2    0.31    0.14
  -8   9   2    0.35    0.17
   7  -9  -2    3.47    0.30
  -7  -9   2    4.19    0.38
  -7  -9   2    3.72    0.32
   7   9  -2    3.79    0.42
  -7   9   2    3.48    0.37
   6  -9  -2    1.45    0.24
  -6  -9   2    1.70    0.27
   6   9  -2    1.39    0.26
  -6   9   2    1.28    0.25
  -5  -9   2    1.42    0.27
  -5  -9   2    1.48    0.28
   5  -9  -2    1.48    0.23
  -5   9   2    1.78    0.30
   5   9  -2    1.79    0.33
  -4  -9   2    1.84    0.40
   4  -9  -2    2.33    0.23
  -4  -9   2    1.68    0.30
   4   9  -2    2.33    0.31
   3  -9  -2    7.61    0.44
  -3  -9   2    7.64    0.43
   3  -9  -2    7.92    0.39
   2  -9  -2   15.73    0.66
  -2  -9   2   15.60    0.66
  -2  -9   2   15.52    0.67
   2  -9  -2   15.79    0.65
   1  -9  -2   12.91    0.60
  -1  -9   2   13.96    0.59
  -1  -9   2   14.14    0.59
   1  -9  -2   14.46    0.59
   0  -9   2   20.04    0.80
   0  -9   2   20.34    0.81
   0  -9  -2   20.02    0.80
  -1  -9  -2    9.92    0.43
   1  -9   2    9.39    0.44
   1  -9   2    9.65    0.43
  -1   9  -2    8.56    0.44
  -2  -9  -2    1.98    0.24
   2  -9   2    2.23    0.22
   2  -9   2    2.10    0.21
  -2   9  -2    1.74    0.27
   3  -9   2    0.43    0.16
   3  -9   2    0.51    0.14
  -3  -9  -2    0.57    0.19
   3   9   2    0.36    0.18
   4  -9   2    1.16    0.20
   4  -9   2    0.35    0.27
   4  -9   2    0.64    0.17
   4   9   2    1.24    0.26
   4   9   2    0.67    0.20
   5  -9   2   17.19    0.74
   5  -9   2   17.02    0.74
   5   9   2   17.09    0.77
  -6  -9  -2    3.24    0.34
   6  -9   2    4.90    0.33
   6  -9   2    3.56    0.32
   6   9   2    4.32    0.35
  -7  -9  -2    0.96    0.19
  -7  -9  -2    1.28    0.27
   7  -9   2    0.91    0.18
   7   9   2    0.89    0.20
  -8  -9  -2    0.26    0.15
   8  -9   2    0.38    0.14
  -8  -9  -2    0.27    0.14
   8   9   2    0.22    0.16
  -9  -9  -2    1.90    0.21
  -9  -9  -2    1.82    0.22
   9  -9   2    1.70    0.26
   9 -10  -2    0.40    0.14
  -9 -10   2    0.42    0.11
  -8 -10   2    3.65    0.28
   8 -10  -2    3.09    0.29
  -7 -10   2    0.07    0.15
   7 -10  -2    0.01    0.14
  -7  10   2    0.06    0.22
   7  10  -2    0.20    0.22
  -6 -10   2    0.49    0.17
   6  10  -2    0.37    0.22
  -6  10   2    0.13    0.20
   5 -10  -2   18.77    0.79
  -5 -10   2   18.30    0.79
   5  10  -2   17.27    0.82
  -4 -10   2    0.19    0.18
   4 -10  -2    0.31    0.15
  -4 -10   2    0.05    0.22
   4  10  -2    0.00    0.19
   3 -10  -2    0.07    0.13
  -3 -10   2    0.18    0.20
  -3 -10   2   -0.08    0.20
   2 -10  -2   64.41    2.41
  -2 -10   2   65.58    2.40
   2 -10  -2   63.88    2.39
   1 -10  -2    0.76    0.18
  -1 -10   2    0.80    0.17
   1 -10  -2    0.75    0.15
  -1 -10   2    0.57    0.14
   0 -10   2    1.88    0.26
   0 -10   2    1.37    0.21
   0 -10  -2    1.30    0.23
   1 -10   2   16.93    0.69
   1 -10   2   16.09    0.70
  -1 -10  -2   16.29    0.70
   2 -10   2   12.55    0.56
   2 -10   2   12.83    0.61
   2  10   2   13.00    0.61
   3 -10   2    0.86    0.24
   3 -10   2    0.53    0.14
   3 -10   2    0.97    0.21
   3  10   2    0.67    0.24
   3  10   2    0.23    0.17
   4 -10   2    2.17    0.36
  -4 -10  -2    1.80    0.28
   4 -10   2    1.89    0.23
   4 -10   2    1.79    0.25
   4  10   2    2.04    0.48
   4  10   2    1.65    0.28
   5 -10   2    0.12    0.16
  -5 -10  -2    0.20    0.17
   5 -10   2    0.20    0.14
   5  10   2    0.22    0.17
   6 -10   2    0.91    0.23
  -6 -10  -2    0.63    0.19
   6  10   2    1.32    0.27
   7 -10   2    3.64    0.31
  -7 -10  -2    3.40    0.33
  -7 -10  -2    3.97    0.33
   7  10   2    3.81    0.33
   8 -10   2    3.22    0.28
  -8 -10  -2    3.16    0.28
  -8 -10  -2    3.22    0.27
   8  10   2    3.30    0.29
  -9 -10  -2    8.04    0.38
  -9 -10  -2    7.80    0.40
   9 -10   2    8.16    0.42
  -9 -11   2    0.67    0.15
   9 -11  -2    0.99    0.24
   8 -11  -2    0.68    0.17
  -8 -11   2    0.68    0.14
   7 -11  -2    7.64    0.45
  -7 -11   2    8.80    0.45
   6 -11  -2    1.16    0.25
  -6 -11   2    1.18    0.25
  -6  11   2    0.98    0.21
   6  11  -2    1.72    0.31
   5 -11  -2    0.16    0.15
  -5 -11   2   -0.03    0.16
   5  11  -2   -0.07    0.18
  -5  11   2   -0.04    0.17
   4 -11  -2   -0.27    0.14
  -4 -11   2    0.11    0.17
  -4 -11   2    0.02    0.30
   4  11  -2   -0.14    0.16
   3 -11  -2    0.44    0.16
  -3 -11   2    0.04    0.19
  -3 -11   2    0.16    0.22
  -3  11   2    0.40    0.17
  -2 -11   2    0.84    0.24
  -2 -11   2    1.19    0.20
  -2  11   2    1.18    0.24
   1 -11  -2    0.97    0.21
  -1 -11   2    0.92    0.18
  -1 -11   2    1.12    0.26
  -1  11   2    1.31    0.22
   0 -11   2   21.91    0.87
   0 -11   2   20.57    0.89
   0  11   2   21.40    0.88
   1 -11   2    3.28    0.27
   1 -11   2    3.32    0.31
   1  11   2    3.18    0.32
   2 -11   2    1.08    0.21
   2 -11   2    1.11    0.22
   2  11   2    1.27    0.22
   2  11   2    1.48    0.24
   3 -11   2    7.50    0.47
   3 -11   2    7.72    0.41
   3  11   2    8.03    0.45
   3  11   2    8.30    0.48
   4 -11   2    4.32    0.40
  -4 -11  -2    3.08    0.49
   4 -11   2    4.41    0.31
   4  11   2    3.60    0.46
   4  11   2    3.90    0.44
  -5 -11  -2   10.67    0.56
   5 -11   2   12.17    0.56
   5  11   2   11.21    0.58
   6 -11   2   -0.03    0.14
  -6 -11  -2   -0.04    0.15
  -6 -11  -2   -0.23    0.21
   6  11   2    0.10    0.16
   7 -11   2    0.10    0.14
  -7 -11  -2    0.01    0.18
  -7 -11  -2   -0.40    0.13
  -8 -11  -2    2.83    0.28
   8 -11   2    3.05    0.27
  -8 -11  -2    2.84    0.25
   8  11   2    2.88    0.27
  -9 -11  -2    0.21    0.12
  -9 -12   2   -0.02    0.09
   8 -12  -2   -0.07    0.14
  -8 -12   2   -0.01    0.10
  -7 -12   2   -0.09    0.13
   7 -12  -2    0.03    0.14
   7  12  -2    0.17    0.18
   6 -12  -2    3.83    0.33
  -6 -12   2    4.58    0.34
  -6  12   2    4.37    0.35
   6  12  -2    5.02    0.38
  -5 -12   2   45.59    1.79
   5  12  -2   47.70    1.82
  -5  12   2   45.94    1.78
   4 -12  -2    1.90    0.28
  -4 -12   2    2.36    0.30
   4  12  -2    1.94    0.28
  -4  12   2    2.00    0.27
  -3 -12   2   49.30    1.94
   3 -12  -2   51.75    1.93
  -3 -12   2   51.68    1.95
  -3  12   2   50.69    1.93
  -2 -12   2   11.61    0.58
   2 -12  -2   11.92    0.56
  -2 -12   2   11.06    0.64
  -2  12   2   12.33    0.55
   2  12  -2   11.28    0.64
   1 -12  -2   -0.03    0.20
  -1 -12   2    0.20    0.16
   1  12  -2    0.14    0.20
  -1  12   2    0.17    0.15
   0 -12   2    8.64    0.47
   0 -12   2    8.94    0.46
   0  12  -2    8.65    0.47
   0  12   2    9.10    0.46
   1 -12   2    3.06    0.27
   1 -12   2    2.23    0.30
   1  12   2    2.84    0.30
   2 -12   2   11.21    0.56
   2 -12   2   11.30    0.53
   2  12   2   10.90    0.55
   2  12   2   11.11    0.56
   3 -12   2    1.06    0.23
   3 -12   2    1.23    0.30
   3  12   2    0.82    0.21
   3  12   2    0.72    0.18
   4 -12   2    4.18    0.39
  -4 -12  -2    3.89    0.33
   4 -12   2    3.70    0.30
   4  12   2    2.90    0.60
   4  12   2    4.19    0.33
  -5 -12  -2    0.71    0.19
   5 -12   2    0.39    0.14
   5  12   2    0.52    0.18
  -6 -12  -2   25.37    1.00
   6 -12   2   22.20    0.98
   6  12   2   23.96    1.00
  -7 -12  -2    4.33    0.30
   7 -12   2    3.72    0.30
   7  12   2    4.43    0.32
   8 -12   2    9.22    0.45
  -8 -12  -2    8.67    0.41
   8  12   2    8.72    0.43
  -9 -12  -2    5.55    0.29
   8 -13  -2    5.97    0.37
  -8 -13   2    6.39    0.32
   7 -13  -2    1.96    0.25
  -7 -13   2    1.87    0.23
   7  13  -2    1.81    0.28
   6 -13  -2    4.20    0.33
  -6 -13   2    4.15    0.32
   6  13  -2    4.80    0.37
  -6  13   2    4.26    0.35
  -5 -13   2    0.60    0.18
   5 -13  -2    0.36    0.16
   5  13  -2    0.19    0.19
  -5  13   2    0.60    0.17
  -4 -13   2    0.31    0.19
   4 -13  -2    0.52    0.18
  -4  13   2    0.26    0.16
   4  13  -2   -0.02    0.15
  -3 -13   2   25.76    1.07
   3 -13  -2   25.82    1.07
   3  13  -2   26.66    1.09
  -3  13   2   26.52    1.06
   2 -13  -2    3.09    0.35
  -2 -13   2    3.71    0.42
  -2 -13   2    3.46    0.39
   2  13  -2    3.02    0.40
  -2  13   2    3.84    0.30
  -1 -13   2   50.80    1.91
  -1  13   2   49.68    1.90
   1  13  -2   49.69    1.90
   0 -13   2   19.37    0.83
   0 -13   2   19.26    0.82
   0  13  -2   19.42    0.82
   0  13   2   19.29    0.82
   1 -13   2   33.10    1.29
   1 -13   2   33.02    1.28
   1  13   2   31.68    1.30
   1  13   2   31.99    1.28
   2 -13   2    8.30    0.45
   2 -13   2    8.30    0.47
   2  13   2    8.79    0.47
   3 -13   2   -0.19    0.14
  -3 -13  -2    0.11    0.15
   3 -13   2    0.13    0.20
   3  13   2    0.12    0.15
   3  13   2   -0.10    0.19
   4 -13   2    0.88    0.24
   4 -13   2    0.47    0.16
  -4 -13  -2    0.55    0.17
   4  13   2    0.71    0.26
   4  13   2    0.72    0.18
   5 -13   2    0.14    0.15
  -5 -13  -2    0.32    0.15
   5  13   2    0.16    0.16
  -6 -13  -2    5.66    0.37
   6 -13   2    5.38    0.37
   6  13   2    6.22    0.38
  -7 -13  -2   -0.08    0.12
   7 -13   2   -0.30    0.13
  -7  13  -2   -0.12    0.12
   7  13   2   -0.21    0.12
  -8 -13  -2   -0.11    0.10
   8 -13   2   -0.10    0.14
   8  13   2   -0.09    0.13
  -8 -14   2    0.18    0.11
   7 -14  -2    2.76    0.31
  -7 -14   2    2.77    0.23
   7  14  -2    2.74    0.27
   6 -14  -2    5.27    0.36
  -6 -14   2    5.08    0.33
   6  14  -2    5.22    0.35
  -6  14   2    5.22    0.33
   5 -14  -2    4.02    0.33
  -5 -14   2    4.16    0.33
  -5  14   2    3.55    0.31
   5  14  -2    3.45    0.32
  -4 -14   2   17.41    0.78
   4 -14  -2   16.61    0.77
   4  14  -2   17.95    0.79
  -4  14   2   18.02    0.76
  -3 -14   2    8.13    0.51
   3 -14  -2    8.57    0.49
  -3  14   2    8.25    0.44
   3  14  -2    8.20    0.47
   2 -14  -2   18.20    0.78
  -2  14   2   17.03    0.75
   2  14  -2   16.44    0.78
  -1 -14   2    0.90    0.24
  -1  14   2    0.53    0.16
   0 -14   2    0.83    0.21
   0  14   2    0.81    0.18
   0  14  -2    1.04    0.23
   1 -14   2    5.46    0.36
   1 -14   2    4.97    0.36
  -1  14  -2    4.71    0.34
   1  14   2    5.06    0.35
   1  14   2    4.72    0.36
   2 -14   2   12.68    0.61
  -2 -14  -2   12.17    0.61
   2 -14   2   13.65    0.61
   2  14   2   11.98    0.60
   2  14   2   12.69    0.61
  -3 -14  -2    0.51    0.18
   3 -14   2    0.27    0.16
   3 -14   2    0.79    0.21
   3  14   2    0.85    0.19
   3  14   2    0.46    0.20
   4 -14   2    0.43    0.15
  -4 -14  -2    0.64    0.18
   4 -14   2    0.56    0.22
   4  14   2    0.10    0.16
   4  14   2    0.95    0.25
  -5 -14  -2    0.73    0.18
   5 -14   2    0.59    0.17
   5  14   2    0.38    0.16
  -6 -14  -2    0.68    0.15
   6 -14   2    0.62    0.16
  -6  14  -2    0.67    0.14
   6  14   2    0.51    0.13
   7 -14   2    3.23    0.28
  -7 -14  -2    3.03    0.23
   7  14   2    2.99    0.25
  -7  14  -2    2.88    0.24
  -8 -14  -2    0.15    0.09
   8  14   2    0.24    0.14
  -8 -15   2    0.39    0.10
   7 -15  -2    0.52    0.21
  -7 -15   2    0.07    0.11
   7  15  -2    0.37    0.21
  -6 -15   2    1.28    0.23
   6  15  -2    1.31    0.21
  -6  15   2    1.12    0.22
   5 -15  -2    0.41    0.19
   5  15  -2    0.16    0.15
   4 -15  -2    6.75    0.44
  -4 -15   2    7.24    0.43
  -4  15   2    6.47    0.39
   4  15  -2    7.10    0.42
   3 -15  -2    8.12    0.53
  -3 -15   2    8.89    0.53
   3  15  -2    8.63    0.48
  -3  15   2    8.88    0.46
  -2  15   2   38.84    1.53
   2  15  -2   39.86    1.54
  -1 -15   2    1.29    0.27
   1  15  -2    1.39    0.30
  -1  15   2    1.04    0.23
  -1  15   2    1.57    0.32
   0 -15   2    1.11    0.23
   0  15  -2    1.16    0.20
   0  15   2    1.33    0.24
   0  15   2    1.41    0.28
  -1 -15  -2   11.07    0.62
   1 -15   2   13.23    0.60
   1  15   2   11.44    0.58
   1  15   2   11.50    0.57
  -1  15  -2   12.40    0.57
   2 -15   2    3.10    0.34
   2 -15   2    3.01    0.31
  -2 -15  -2    2.35    0.35
   2  15   2    2.94    0.30
   2  15   2    3.06    0.29
  -2  15  -2    3.11    0.28
  -3 -15  -2    1.46    0.29
   3 -15   2    1.37    0.27
   3 -15   2    2.16    0.30
   3  15   2    1.90    0.30
  -3  15  -2    1.50    0.23
   3  15   2    1.13    0.24
  -4 -15  -2    3.36    0.31
   4 -15   2    2.59    0.30
  -4  15  -2    3.85    0.29
   4  15   2    3.33    0.30
   5 -15   2   14.81    0.67
   5  15   2   14.28    0.79
  -6 -15  -2    0.17    0.11
   6 -15   2   -0.09    0.14
   6  15   2    0.05    0.12
  -6  15  -2    0.09    0.11
   7 -15   2    0.51    0.16
  -7 -15  -2    0.15    0.10
   7  15   2    0.25    0.12
  -7  15  -2    0.21    0.15
  -7 -16   2    0.16    0.11
   7  16  -2   -0.04    0.16
  -6 -16   2    3.11    0.25
   6 -16  -2    2.49    0.37
   6  16  -2    3.18    0.24
  -6  16   2    2.48    0.23
  -5 -16   2    0.53    0.15
   5  16  -2    0.52    0.14
  -5  16   2    0.50    0.13
  -4 -16   2    0.51    0.17
   4 -16  -2    0.26    0.24
   4  16  -2    0.55    0.14
  -4  16   2    0.40    0.14
  -3 -16   2    1.74    0.27
   3  16  -2    2.30    0.26
  -3  16   2    2.27    0.25
   2  16  -2    1.18    0.24
  -2  16   2    1.17    0.23
   2  16  -2    0.67    0.17
   1  16  -2    0.16    0.17
  -1  16   2    0.22    0.15
  -1  16   2    0.51    0.20
   0 -16   2    0.90    0.26
   0  16   2    1.07    0.20
   0  16   2    0.65    0.17
   0  16  -2    1.33    0.25
   1 -16   2    4.73    0.41
   1  16   2    5.27    0.35
  -1  16  -2    5.27    0.34
   1  16   2    5.20    0.36
   2 -16   2    1.70    0.30
  -2 -16  -2    0.87    0.23
   2  16   2    0.56    0.17
   2  16   2    1.00    0.19
  -2  16  -2    1.04    0.22
  -3 -16  -2    4.52    0.36
   3 -16   2    3.75    0.34
   3  16   2    3.81    0.34
  -3  16  -2    3.66    0.29
   3  16   2    4.04    0.33
   4 -16   2    0.30    0.17
  -4  16  -2    0.42    0.13
   4  16   2    0.44    0.15
  -5 -16  -2    0.33    0.13
   5 -16   2    0.37    0.16
  -5  16  -2    0.27    0.11
   5  16   2    0.57    0.14
   6 -16   2    0.51    0.16
  -6 -16  -2    0.62    0.13
   6  16   2    0.90    0.18
  -6  16  -2    1.00    0.16
  -7 -16  -2    3.30    0.21
  -7  16  -2    2.80    0.22
   7  16   2    3.49    0.22
  -6 -17   2   -0.03    0.12
   6  17  -2   -0.03    0.10
  -6  17   2    0.02    0.11
  -5 -17   2    1.80    0.25
   5  17  -2    1.66    0.21
  -5  17   2    1.19    0.18
  -4 -17   2   20.50    0.85
   4  17  -2   20.08    0.86
  -4  17   2   20.23    0.83
  -3  17   2   -0.11    0.13
   3  17  -2    0.43    0.15
   2  17  -2    2.64    0.35
   2  17  -2    2.81    0.27
  -2  17   2    2.82    0.26
   1  17  -2    1.57    0.26
  -1  17   2    1.41    0.29
  -1  17   2    1.26    0.22
   0  17   2    2.27    0.29
   0  17  -2    2.35    0.27
   0  17   2    1.80    0.25
   1 -17   2    1.15    0.26
  -1  17  -2    0.97    0.22
   1  17   2    1.01    0.23
   1  17   2    1.07    0.24
   2 -17   2    3.41    0.36
  -2  17  -2    3.52    0.28
   2  17   2    3.86    0.30
   2  17   2    3.38    0.29
  -3 -17  -2    1.74    0.29
   3 -17   2    1.58    0.31
   3  17   2    1.52    0.28
  -3  17  -2    1.51    0.21
   3  17   2    1.46    0.27
  -4 -17  -2    2.35    0.27
   4 -17   2    2.66    0.30
   4  17   2    2.11    0.23
  -4  17  -2    2.15    0.21
   5 -17   2    4.40    0.34
  -5 -17  -2    3.96    0.28
   5  17   2    3.92    0.27
  -5  17  -2    4.32    0.26
  -6 -17  -2    4.78    0.27
   6  17   2    5.13    0.27
  -6  17  -2    4.67    0.26
  -6  18   2    1.24    0.22
   6  18  -2    1.11    0.17
  -5  18   2    0.03    0.09
   5  18  -2    0.31    0.11
   4  18  -2    4.73    0.29
  -4  18   2    4.60    0.27
   3  18  -2    1.15    0.20
  -3  18   2    1.18    0.19
  -2  18   2    6.86    0.37
   2  18  -2    6.44    0.37
  -1  18   2    0.20    0.13
   1  18  -2   -0.06    0.16
  -1  18   2    0.10    0.17
   0  18   2    1.09    0.21
   0  18   2    0.95    0.24
   1  18   2   -0.07    0.13
   1  18   2   -0.19    0.21
   2 -18   2    2.77    0.42
   2  18   2    3.04    0.26
   2  18   2    3.59    0.28
  -2  18  -2    3.94    0.26
   3 -18   2    0.20    0.24
  -3 -18  -2    0.57    0.18
   3  18   2    0.35    0.18
   3  18   2    0.43    0.13
  -3  18  -2    0.34    0.11
  -4 -18  -2    0.10    0.14
   4 -18   2    0.12    0.23
   4  18   2    0.21    0.11
  -4  18  -2   -0.18    0.09
  -5  18  -2    0.75    0.14
   5  18   2    0.55    0.11
  -6 -18  -2    0.05    0.12
   6  18   2    0.13    0.09
  -6  18  -2   -0.09    0.09
   5  19  -2    2.56    0.19
  -5  19   2    2.50    0.18
   4  19  -2   21.42    0.83
  -4  19   2   19.45    0.80
   3  19  -2    1.18    0.19
  -3  19   2    1.64    0.17
   2  19  -2    0.01    0.11
  -2  19   2    0.21    0.10
   1  19  -2    0.74    0.19
  -1  19   2    1.15    0.20
   1  19  -2    0.91    0.16
  -1  19   2    1.15    0.18
   0  19  -2    4.98    0.32
   0  19  -2    4.98    0.30
   0  19   2    5.02    0.30
   0  19   2    5.04    0.33
  -1  19  -2    0.92    0.21
   1  19   2    0.78    0.16
  -1  19  -2    1.01    0.18
   1  19   2    1.25    0.18
  -2  19  -2    0.13    0.14
  -2  19  -2    0.17    0.11
   2  19   2    0.05    0.13
   2  19   2    0.28    0.12
  -3  19  -2    1.73    0.19
   3  19   2    1.61    0.19
  -4 -19  -2    1.84    0.39
  -4  19  -2    1.68    0.16
   4  19   2    1.45    0.17
   5  19   2    1.62    0.15
  -5  19  -2    1.45    0.14
   4  20  -2    0.04    0.09
  -4  20   2   -0.04    0.08
   3  20  -2    0.62    0.14
  -3  20   2    0.64    0.13
   2  20  -2    0.66    0.15
  -2  20   2    0.64    0.14
   1  20  -2    2.90    0.22
   1  20  -2    2.68    0.32
  -1  20   2    3.07    0.21
   0  20  -2    0.06    0.11
   0  20  -2    0.13    0.11
   0  20   2    0.35    0.11
   0  20   2    0.34    0.15
   1  20   2    1.14    0.20
  -1  20  -2    1.20    0.17
   1  20   2    1.05    0.18
  -1  20  -2    1.03    0.19
  -2  20  -2    0.32    0.10
   2  20   2    0.41    0.11
  -2  20  -2    0.68    0.16
   2  20   2    0.62    0.20
   3  20   2    1.65    0.16
  -3  20  -2    1.31    0.15
  -4  20  -2    0.24    0.08
   4  20   2    0.24    0.09
   3  21  -2    0.12    0.09
  -3  21   2    0.07    0.07
  -2  21   2    0.02    0.08
   2  21  -2   -0.01    0.09
  -1  21   2    0.01    0.08
   1  21  -2   -0.25    0.13
   0  21  -2    0.81    0.16
   0  21   2    0.96    0.18
   0  21  -2    1.15    0.19
  -1  21  -2   -0.19    0.13
   1  21   2    0.02    0.13
  -1  21  -2   -0.02    0.10
   1  21   2    0.06    0.11
  -2  21  -2    0.16    0.09
   2  21   2    0.02    0.10
   3  21   2    0.12    0.10
  -3  21  -2    0.27    0.09
  -1  22   2    0.21    0.09
 -11   0   3    0.23    0.09
  10   0  -3    0.04    0.22
 -10   0   3   -0.07    0.09
   9   0  -3   -0.02    0.16
  -9   0   3    0.02    0.11
   8   0  -3    0.16    0.16
  -8   0   3   -0.05    0.21
  -8   0   3   -0.09    0.14
  -7   0   3   -0.12    0.14
   7   0  -3    0.05    0.15
  -7   0   3    0.11    0.23
   6   0  -3   -0.10    0.13
  -6   0   3   -0.04    0.15
  -6   0   3    0.05    0.22
   5   0  -3   -0.07    0.11
   5   0  -3    0.12    0.17
   4   0  -3   -0.01    0.06
   4   0  -3    0.01    0.08
   3   0  -3    0.08    0.04
   3   0  -3    0.03    0.04
   2   0  -3    0.00    0.03
   1   0  -3    0.07    0.03
   0   0  -3    0.01    0.01
  -1   0  -3    0.01    0.01
   4   0   3   -0.04    0.13
   5   0   3    0.37    0.15
   6   0   3    0.21    0.16
   6   0   3   -0.16    0.22
   7   0   3   -0.02    0.25
  -7   0  -3    0.12    0.16
   7   0   3    0.03    0.19
  -8   0  -3   -0.01    0.14
  -9   0  -3   -0.15    0.11
 -10   0  -3    0.06    0.10
 -10  -1   3    0.20    0.10
  10  -1  -3    0.38    0.20
  10   1  -3   -0.11    0.25
 -10   1   3    0.51    0.11
  -9  -1   3    0.56    0.21
  -9  -1   3    0.35    0.14
   9  -1  -3    0.58    0.17
   9   1  -3    0.34    0.17
  -9   1   3    0.67    0.14
   8  -1  -3    3.03    0.30
  -8  -1   3    2.51    0.29
  -8  -1   3    2.97    0.36
   8   1  -3    3.15    0.32
  -8   1   3    3.56    0.30
  -8   1   3    3.56    0.43
   7  -1  -3    7.83    0.42
  -7  -1   3    7.29    0.41
  -7   1   3    6.49    0.51
   7   1  -3    7.04    0.42
  -7   1   3    7.17    0.41
  -6  -1   3    0.11    0.21
   6  -1  -3    0.13    0.12
  -6  -1   3   -0.13    0.16
   6   1  -3    0.17    0.13
  -6   1   3   -0.37    0.25
  -6   1   3   -0.02    0.14
   5  -1  -3    5.95    0.40
   5  -1  -3    5.64    0.32
   5  -1  -3    5.75    0.34
   5   1  -3    5.97    0.34
   5   1  -3    6.04    0.43
   4  -1  -3    1.20    0.16
   4  -1  -3    1.35    0.13
   4   1  -3    1.12    0.17
   3  -1  -3    7.66    0.31
   3  -1  -3    7.16    0.31
   3   1  -3    7.12    0.31
   2  -1  -3   22.65    0.84
   2   1  -3   22.65    0.84
   1  -1  -3   83.10    3.07
   1   1  -3   87.61    3.07
   0  -1  -3   84.38    3.36
   0   1  -3   99.28    3.37
   0   1   3   97.75    3.37
  -1  -1  -3   47.69    1.74
   1   1   3   51.06    1.74
  -1   1  -3   46.55    1.73
  -1   1  -3   47.93    1.73
  -2  -1  -3  514.38   19.28
   2   1   3  562.82   19.28
  -3  -1  -3   17.61    0.64
   4  -1   3    8.83    0.41
   5  -1   3   37.95    1.46
   5   1   3   38.92    1.46
   6  -1   3    0.42    0.26
   6  -1   3    0.75    0.26
   6  -1   3    0.51    0.16
   6   1   3    0.50    0.23
   6   1   3    0.33    0.17
   7  -1   3    3.34    0.42
  -7  -1  -3    3.75    0.31
   7  -1   3    3.39    0.34
  -7   1  -3    4.19    0.33
   7   1   3    3.00    0.40
   7   1   3    3.21    0.37
  -8  -1  -3    6.78    0.40
   8  -1   3    5.76    0.44
   8   1   3    6.12    0.49
  -8   1  -3    6.58    0.39
  -9  -1  -3    3.22    0.27
  -9   1  -3    3.84    0.27
 -10  -1  -3    0.07    0.09
 -10   1  -3   -0.03    0.09
  10  -2  -3    1.23    0.28
 -10  -2   3    1.22    0.17
 -10   2   3    1.48    0.17
  -9  -2   3    0.82    0.19
   9  -2  -3    1.29    0.24
   9   2  -3    1.11    0.28
  -8  -2   3   28.39    1.12
   8  -2  -3   25.40    1.11
  -8  -2   3   27.68    1.11
  -8   2   3   27.95    1.11
   8   2  -3   26.82    1.12
  -7  -2   3    0.21    0.20
  -7  -2   3    0.41    0.16
   7  -2  -3   -0.08    0.15
  -7   2   3    0.64    0.28
   7   2  -3    0.23    0.15
  -7   2   3    0.14    0.14
   6  -2  -3    1.95    0.23
  -6  -2   3    1.53    0.33
  -6  -2   3    1.45    0.27
  -6   2   3    1.92    0.25
  -6   2   3    1.51    0.30
   5  -2  -3   56.17    2.02
   5  -2  -3   47.94    2.08
   5   2  -3   58.96    2.04
   4  -2  -3    2.66    0.18
   4  -2  -3    2.68    0.20
  -4  -2   3    2.50    0.23
   4   2  -3    2.31    0.21
   3  -2  -3   17.87    0.69
   3  -2  -3   18.00    0.68
   3   2  -3   18.16    0.69
   2  -2  -3    1.05    0.08
  -2  -2   3    1.04    0.08
   2   2  -3    1.00    0.12
   1  -2  -3    0.11    0.03
   1   2  -3    0.21    0.05
  -1   2   3    0.16    0.03
   0  -2   3    4.44    0.19
   0  -2  -3    4.90    0.19
   0   2   3    4.83    0.19
   0   2  -3    4.76    0.19
  -1  -2  -3    0.35    0.04
   1  -2   3    0.41    0.04
  -1   2  -3    0.31    0.03
   1   2   3    0.40    0.04
  -2  -2  -3    9.15    0.37
   2   2   3   10.43    0.37
  -3  -2  -3    7.01    0.28
   3   2   3    7.24    0.28
   4  -2   3   54.39    2.10
   4   2   3   59.35    2.05
   5  -2   3   73.28    2.82
   5   2   3   80.57    2.90
   6  -2   3   16.36    0.68
   6  -2   3   15.78    0.75
   6  -2   3   16.14    0.74
  -6  -2  -3   13.98    0.77
   6   2   3   16.10    0.74
  -6   2  -3   16.09    0.71
   7  -2   3    0.07    0.25
  -7  -2  -3    0.40    0.28
   7  -2   3    0.26    0.18
   7   2   3    0.53    0.23
  -7   2  -3    0.34    0.19
  -8  -2  -3    7.75    0.42
   8  -2   3    7.03    0.45
  -8   2  -3    7.21    0.42
   8   2   3    7.13    0.50
  -9  -2  -3    2.53    0.24
  -9   2  -3    2.42    0.23
 -10  -2  -3    0.05    0.08
 -10   2  -3   -0.16    0.09
  10  -3  -3    0.58    0.17
 -10  -3   3    0.77    0.15
 -10  -3   3    0.54    0.26
 -10   3   3    0.38    0.11
  -9  -3   3    0.13    0.12
  -9  -3   3    0.40    0.16
   9  -3  -3   -0.02    0.14
  -9   3   3    0.29    0.13
   9   3  -3    0.43    0.21
   8  -3  -3    1.23    0.25
  -8  -3   3    1.08    0.24
  -8  -3   3    1.94    0.34
   8   3  -3    1.82    0.30
  -8   3   3    1.53    0.24
  -7  -3   3    0.18    0.18
  -7  -3   3    0.24    0.15
   7  -3  -3    0.03    0.14
  -7   3   3   -0.03    0.15
   7   3  -3   -0.03    0.16
  -6  -3   3   15.37    0.73
   6  -3  -3   17.38    0.71
  -6  -3   3   16.46    0.72
  -6   3   3   16.14    0.72
   5  -3  -3    0.99    0.18
   5  -3  -3    0.98    0.24
  -5   3   3    1.39    0.35
   4  -3  -3    1.14    0.16
  -4  -3   3    1.39    0.21
   4  -3  -3    1.20    0.14
   4  -3  -3    0.99    0.19
   4   3  -3    1.42    0.20
   3  -3  -3  109.10    4.13
  -3  -3   3  118.07    4.12
   3  -3  -3  111.74    4.11
   3   3  -3  117.38    4.12
  -2  -3   3   11.01    0.47
   2  -3  -3   12.09    0.47
   2   3  -3   12.69    0.48
  -2   3   3   13.19    0.48
   1  -3  -3    5.99    0.25
  -1  -3   3    5.93    0.25
  -1   3   3    6.01    0.25
   1   3  -3    6.17    0.25
   0  -3  -3   41.51    1.54
   0  -3   3   43.26    1.54
   0   3  -3   43.39    1.54
   0   3   3   41.47    1.54
   1  -3   3   30.83    1.16
  -1  -3  -3   32.27    1.16
   1   3   3   31.67    1.16
  -1   3  -3   32.81    1.16
   2  -3   3   30.28    1.07
  -2  -3  -3   29.37    1.08
  -2   3  -3   30.63    1.06
   2   3   3   27.65    1.08
   3  -3   3   13.16    0.56
  -3  -3  -3   13.93    0.52
   3   3   3   14.11    0.52
  -4  -3  -3   29.11    1.09
   4  -3   3   29.36    1.13
   4   3   3   29.96    1.09
   5  -3   3   13.09    0.57
   5   3   3   13.22    0.65
   6  -3   3    5.19    0.32
   6  -3   3    4.30    0.46
   6  -3   3    4.54    0.41
  -6  -3  -3    4.36    0.45
   6   3   3    4.88    0.39
  -6   3  -3    4.99    0.37
   7  -3   3    7.74    0.42
  -7  -3  -3    6.69    0.50
   7  -3   3    6.49    0.48
   7   3   3    6.97    0.47
  -7   3  -3    7.10    0.43
   8  -3   3   32.31    1.32
  -8  -3  -3   31.41    1.34
  -8  -3  -3   35.17    1.32
  -8   3  -3   33.71    1.32
   8   3   3   33.82    1.34
  -9  -3  -3    0.58    0.14
   9  -3   3    0.87    0.32
  -9   3  -3    0.93    0.20
 -10  -3  -3    0.12    0.09
 -10   3  -3    0.06    0.11
 -10  -4   3    6.91    0.34
 -10  -4   3    5.98    0.39
  10  -4  -3    6.91    0.40
 -10   4   3    7.06    0.34
   9  -4  -3    0.00    0.13
  -9  -4   3    0.07    0.12
  -9  -4   3    0.16    0.15
  -9   4   3   -0.07    0.11
   9   4  -3   -0.09    0.23
  -8  -4   3    1.48    0.25
  -8  -4   3    1.22    0.29
   8  -4  -3    1.13    0.23
   8   4  -3    1.47    0.32
  -8   4   3    1.79    0.25
  -7  -4   3    4.61    0.38
   7  -4  -3    5.16    0.35
  -7  -4   3    4.93    0.35
   7   4  -3    4.86    0.37
  -7   4   3    4.87    0.35
   6  -4  -3    5.57    0.34
  -6  -4   3    5.25    0.38
  -6  -4   3    5.07    0.38
  -6   4   3    4.79    0.36
  -5  -4   3   18.30    0.80
   5  -4  -3   18.53    0.77
   5  -4  -3   19.21    0.77
  -5   4   3   18.27    0.79
   4  -4  -3   13.26    0.53
   4  -4  -3   13.65    0.55
  -4  -4   3   12.27    0.54
   4  -4  -3   12.80    0.56
  -4  -4   3   13.57    0.57
   4   4  -3   11.69    0.57
  -3  -4   3    0.16    0.14
  -3  -4   3    0.31    0.07
   3  -4  -3    0.37    0.07
   3  -4  -3    0.22    0.10
   3   4  -3    0.30    0.07
   2  -4  -3    2.55    0.14
  -2  -4   3    2.45    0.14
   2   4  -3    2.68    0.15
  -2   4   3    2.46    0.14
  -1  -4   3    3.05    0.15
   1  -4  -3    3.19    0.15
   1   4  -3    3.31    0.16
  -1   4   3    3.63    0.16
   0  -4   3    0.39    0.06
   0  -4  -3    0.40    0.06
   0   4   3    0.44    0.06
   0   4  -3    0.38    0.06
   1  -4   3   47.25    1.80
  -1  -4  -3   50.26    1.81
  -1   4  -3   48.21    1.80
   1   4   3   53.53    1.81
  -2  -4  -3    0.07    0.04
   2  -4   3    0.13    0.03
  -2   4  -3    0.08    0.03
   2   4   3    0.13    0.04
   3  -4   3    0.28    0.12
  -3  -4  -3    0.27    0.06
   3   4   3    0.24    0.07
   4  -4   3    1.14    0.18
  -4  -4  -3    1.45    0.15
   4   4   3    1.21    0.17
   5  -4   3   24.27    0.92
   5  -4   3   22.05    0.95
  -5  -4  -3   22.18    0.96
   5   4   3   23.68    0.95
   5   4   3   21.99    0.96
   6  -4   3   32.37    1.30
   6  -4   3   33.29    1.32
  -6  -4  -3   33.93    1.33
   6  -4   3   34.24    1.35
  -6   4  -3   33.03    1.31
   6   4   3   33.03    1.33
  -7  -4  -3    2.93    0.40
   7  -4   3    3.12    0.31
   7  -4   3    3.48    0.38
   7   4   3    3.64    0.36
  -7   4  -3    2.97    0.32
  -8  -4  -3    1.03    0.24
  -8  -4  -3    1.84    0.39
   8  -4   3    1.31    0.29
  -8   4  -3    1.54    0.26
   8   4   3    1.48    0.33
   9  -4   3    1.77    0.33
  -9  -4  -3    1.97    0.22
  -9   4  -3    2.42    0.24
 -10  -4  -3    1.34    0.16
 -10   4  -3    1.32    0.19
 -10  -5   3    0.00    0.15
  10  -5  -3    0.03    0.16
 -10  -5   3    0.11    0.10
 -10   5   3    0.23    0.10
  -9  -5   3    1.02    0.17
   9  -5  -3    1.06    0.24
  -9  -5   3    0.94    0.20
  -9   5   3    0.94    0.20
  -8  -5   3    2.30    0.30
   8  -5  -3    1.70    0.25
  -8  -5   3    1.85    0.26
   8   5  -3    1.69    0.34
  -8   5   3    1.64    0.26
  -7  -5   3    1.75    0.29
   7  -5  -3    1.23    0.24
  -7  -5   3    1.81    0.26
  -7   5   3    1.44    0.26
   7   5  -3    1.89    0.31
  -6  -5   3    4.83    0.36
   6  -5  -3    4.51    0.30
  -6  -5   3    4.18    0.34
  -6   5   3    3.91    0.34
   5  -5  -3    1.25    0.20
  -5  -5   3    1.33    0.24
  -5  -5   3    1.38    0.22
  -5  -5   3    1.71    0.25
  -5   5   3    1.65    0.31
  -4  -5   3   20.78    0.83
   4  -5  -3   20.56    0.83
   4  -5  -3   20.76    0.82
  -4  -5   3   20.56    0.84
  -3  -5   3    3.52    0.20
  -3  -5   3    3.42    0.26
   3  -5  -3    3.77    0.25
   3  -5  -3    3.37    0.22
   3   5  -3    3.42    0.22
  -3   5   3    3.32    0.21
  -2  -5   3   16.42    0.64
   2  -5  -3   17.11    0.64
   2   5  -3   16.30    0.65
  -2   5   3   16.45    0.64
  -1  -5   3    0.06    0.04
   1  -5  -3   -0.03    0.04
   1   5  -3    0.05    0.04
  -1   5   3    0.00    0.04
   0  -5   3    0.03    0.04
   0  -5  -3    0.02    0.03
   0   5  -3   -0.01    0.04
   0   5   3   -0.01    0.04
   1  -5   3    1.06    0.08
  -1  -5  -3    1.04    0.09
  -1   5  -3    1.05    0.09
   1   5   3    0.97    0.10
   2  -5   3   44.28    1.72
   2  -5   3   48.19    1.69
  -2  -5  -3   44.03    1.71
   2   5   3   47.03    1.71
  -2   5  -3   49.77    1.69
   3  -5   3    6.35    0.32
  -3  -5  -3    6.12    0.29
   3  -5   3    6.52    0.25
   3   5   3    6.07    0.30
  -3   5  -3    6.62    0.25
  -4  -5  -3    0.14    0.10
   4  -5   3   -0.01    0.11
   5  -5   3    1.46    0.29
  -5  -5  -3    1.97    0.33
   5  -5   3    1.59    0.30
   5  -5   3    1.91    0.21
   5   5   3    1.34    0.21
  -5   5  -3    2.02    0.31
   5   5   3    1.73    0.30
  -6  -5  -3    5.47    0.42
   6  -5   3    5.34    0.45
   6  -5   3    5.52    0.34
   6  -5   3    5.35    0.38
   6   5   3    5.68    0.40
  -6   5  -3    5.42    0.41
   7  -5   3   16.50    0.75
   7  -5   3   16.69    0.73
  -7  -5  -3   16.42    0.76
  -7   5  -3   16.10    0.73
   7   5   3   16.51    0.76
   8  -5   3    0.56    0.19
  -8  -5  -3    0.48    0.15
  -8  -5  -3    0.70    0.21
  -8   5  -3    0.61    0.18
   8   5   3    1.09    0.22
  -9  -5  -3    2.01    0.37
   9  -5   3    0.62    0.20
  -9  -5  -3    0.68    0.14
  -9   5  -3    0.84    0.15
 -10  -5  -3    0.03    0.08
 -10   5  -3    0.32    0.17
 -10  -6   3    0.10    0.12
  10  -6  -3   -0.13    0.17
 -10  -6   3    0.09    0.14
 -10   6   3   -0.04    0.13
   9  -6  -3    3.37    0.29
  -9  -6   3    3.49    0.26
  -9  -6   3    3.57    0.29
  -9   6   3    3.72    0.27
  -8  -6   3    0.27    0.15
  -8  -6   3    0.24    0.17
   8  -6  -3    0.14    0.14
  -8   6   3    0.03    0.14
   8   6  -3    0.00    0.22
   7  -6  -3    1.03    0.24
  -7  -6   3    1.11    0.21
  -7  -6   3    1.27    0.28
   7   6  -3    1.28    0.24
  -7   6   3    1.17    0.20
  -6  -6   3    4.55    0.35
   6  -6  -3    4.07    0.30
  -6  -6   3    3.81    0.37
  -6   6   3    4.19    0.34
  -5  -6   3   10.14    0.49
  -5  -6   3    9.12    0.50
  -5  -6   3    8.92    0.55
   5  -6  -3   10.19    0.47
  -5   6   3    9.40    0.50
  -4  -6   3    1.56    0.25
  -4  -6   3    1.14    0.23
   4  -6  -3    1.63    0.23
   4  -6  -3    1.51    0.20
  -3  -6   3   51.90    1.88
  -3  -6   3   48.27    1.88
   3  -6  -3   51.66    1.87
   3  -6  -3   52.20    1.88
  -3   6   3   47.53    1.87
   3   6  -3   52.39    1.90
   2  -6  -3    0.49    0.10
  -2  -6   3    0.24    0.13
  -2  -6   3    0.23    0.06
   2   6  -3    0.40    0.08
  -2   6   3    0.32    0.07
  -1  -6   3    8.10    0.34
   1  -6  -3    7.85    0.34
  -1   6   3    7.59    0.34
   1   6  -3    9.11    0.35
   0  -6   3   73.30    2.69
   0  -6  -3   73.16    2.70
   0   6   3   76.05    2.70
   0   6  -3   74.70    2.70
   1  -6   3    2.36    0.14
  -1  -6  -3    2.46    0.15
   1  -6   3    2.48    0.20
   1   6   3    2.50    0.15
  -1   6  -3    2.74    0.15
  -2  -6  -3    0.04    0.05
   2  -6   3    0.09    0.11
   2  -6   3    0.04    0.05
  -2   6  -3    0.07    0.05
   2   6   3    0.02    0.06
   3  -6   3    0.07    0.05
  -3  -6  -3   -0.01    0.08
   3  -6   3   -0.09    0.10
   3   6   3   -0.12    0.10
  -3   6  -3    0.07    0.06
   4  -6   3    7.34    0.37
  -4  -6  -3    7.17    0.40
  -5  -6  -3    0.41    0.18
   5  -6   3    0.33    0.24
   5  -6   3    0.07    0.16
   5  -6   3    0.15    0.12
   5   6   3    0.23    0.20
   5   6   3    0.38    0.18
   6  -6   3   11.43    0.52
   6  -6   3   10.35    0.53
   6  -6   3    9.97    0.60
  -6   6  -3    9.21    0.56
   7  -6   3    9.55    0.50
   7  -6   3    9.60    0.53
  -7  -6  -3   10.33    0.54
   7   6   3   10.03    0.53
  -7   6  -3    9.69    0.52
  -8  -6  -3   -0.33    0.13
   8  -6   3    0.13    0.17
  -8  -6  -3    0.32    0.19
   8   6   3    0.34    0.19
  -8   6  -3    0.19    0.18
  -9  -6  -3    4.59    0.37
  -9  -6  -3    4.72    0.30
   9  -6   3    4.89    0.35
  -9   6  -3    4.71    0.33
 -10  -6  -3    1.93    0.17
 -10  -7   3    0.28    0.17
 -10  -7   3   -0.05    0.12
 -10   7   3    0.22    0.14
  -9  -7   3    0.37    0.14
   9  -7  -3    0.51    0.15
  -9  -7   3    0.54    0.13
  -9   7   3    0.64    0.14
  -8  -7   3    2.03    0.29
  -8  -7   3    2.64    0.29
   8  -7  -3    2.42    0.27
  -8   7   3    2.19    0.28
  -7  -7   3    5.20    0.37
  -7  -7   3    4.61    0.36
   7  -7  -3    4.55    0.33
  -7   7   3    5.05    0.35
   7   7  -3    4.45    0.44
  -6  -7   3    1.04    0.23
   6  -7  -3    0.67    0.16
  -6  -7   3    0.94    0.19
  -6   7   3    0.59    0.21
  -5  -7   3    9.64    0.48
  -5  -7   3    9.09    0.49
   5  -7  -3    9.27    0.45
  -5  -7   3    8.39    0.55
  -5   7   3    8.53    0.50
   5   7  -3    8.49    0.57
   4  -7  -3   22.86    0.91
  -4  -7   3   21.91    0.94
  -4  -7   3   20.53    0.92
  -4  -7   3   23.27    0.91
   4  -7  -3   22.54    0.89
  -3  -7   3    8.34    0.40
   3  -7  -3    8.50    0.40
  -3  -7   3    8.09    0.41
   3  -7  -3    8.71    0.40
  -3   7   3    7.68    0.42
   2  -7  -3    6.70    0.30
   2  -7  -3    5.65    0.33
  -2  -7   3    6.16    0.34
  -2  -7   3    6.29    0.30
  -2   7   3    6.25    0.32
   2   7  -3    5.73    0.32
   1  -7  -3   14.85    0.60
  -1  -7   3   16.08    0.61
  -1  -7   3   14.95    0.63
   1   7  -3   15.51    0.61
  -1   7   3   14.80    0.61
   0  -7   3    4.26    0.21
   0  -7   3    3.68    0.24
   0  -7  -3    3.92    0.21
   0   7   3    3.86    0.22
   0   7  -3    3.91    0.21
  -1  -7  -3   57.33    2.07
   1  -7   3   56.99    2.06
   1  -7   3   55.14    2.08
   1   7   3   55.41    2.08
  -1   7  -3   57.31    2.06
   2  -7   3   18.27    0.70
   2  -7   3   18.45    0.73
  -2  -7  -3   16.48    0.71
  -2   7  -3   19.43    0.71
   2   7   3   18.58    0.73
  -3  -7  -3    6.57    0.34
   3  -7   3    7.00    0.34
   3  -7   3    6.26    0.29
   3   7   3    5.76    0.38
   4  -7   3    3.47    0.30
   4  -7   3    3.30    0.24
  -4  -7  -3    3.08    0.36
   4   7   3    2.75    0.37
   4   7   3    2.98    0.33
   5  -7   3    3.23    0.26
   5  -7   3    3.21    0.30
  -5  -7  -3    3.21    0.31
   5  -7   3    2.37    0.40
   5   7   3    3.00    0.32
   5   7   3    3.32    0.33
   6  -7   3    0.62    0.18
   6  -7   3    0.60    0.29
   6  -7   3    0.55    0.16
  -6  -7  -3    0.62    0.18
   6   7   3    0.73    0.19
  -7  -7  -3    0.60    0.19
   7  -7   3    0.42    0.16
   7  -7   3    0.59    0.20
  -7   7  -3    1.23    0.25
   7   7   3    0.37    0.19
  -8  -7  -3    0.57    0.16
   8  -7   3    0.58    0.18
  -8   7  -3    0.51    0.20
   8   7   3    0.52    0.22
  -9  -7  -3   -0.16    0.15
  -9  -7  -3   -0.10    0.10
   9  -7   3    0.10    0.18
 -10  -7  -3    2.44    0.19
 -10  -8   3    3.08    0.22
  -9  -8   3   14.01    0.60
  -9  -8   3   14.12    0.60
   9  -8  -3   13.87    0.63
  -9   8   3   14.30    0.61
  -8  -8   3    1.85    0.29
  -8  -8   3    1.93    0.27
   8  -8  -3    2.00    0.25
   7  -8  -3    3.41    0.29
  -7  -8   3    2.83    0.32
  -7  -8   3    3.26    0.36
  -7   8   3    3.14    0.33
   7   8  -3    3.16    0.42
   6  -8  -3    7.06    0.40
  -6  -8   3    6.45    0.42
  -6  -8   3    7.15    0.48
  -6   8   3    7.10    0.45
   6   8  -3    6.75    0.56
  -5  -8   3   19.28    0.81
  -5  -8   3   19.09    0.80
   5  -8  -3   18.09    0.78
  -5   8   3   17.66    0.81
   5   8  -3   17.75    0.83
   4  -8  -3   35.75    1.30
   4  -8  -3   31.55    1.34
  -4  -8   3   35.23    1.33
  -4  -8   3   32.58    1.32
   4   8  -3   32.82    1.35
   3  -8  -3   53.00    1.95
  -3  -8   3   53.58    1.97
   3  -8  -3   51.60    1.94
  -3  -8   3   50.48    1.95
   2  -8  -3    2.97    0.27
   2  -8  -3    3.45    0.23
  -2  -8   3    3.73    0.24
  -2  -8   3    3.40    0.28
  -1  -8   3   92.83    3.14
  -1  -8   3   87.77    3.14
   1  -8  -3   86.11    3.14
  -1   8   3   84.12    3.14
   1   8  -3   79.16    3.14
   0  -8   3  131.95    4.92
   0  -8   3  136.67    4.93
   0  -8  -3  147.23    4.93
   0   8  -3  141.26    4.93
   0   8   3  123.40    4.92
  -1  -8  -3    5.20    0.27
   1  -8   3    5.32    0.26
   1  -8   3    4.89    0.29
  -1   8  -3    4.74    0.28
   1   8   3    4.37    0.29
   2  -8   3    8.04    0.43
  -2  -8  -3    9.70    0.43
   2  -8   3    9.50    0.42
  -2   8  -3    9.75    0.43
   3  -8   3    8.99    0.43
  -3  -8  -3    8.79    0.46
   4  -8   3    0.30    0.24
  -4  -8  -3    0.16    0.24
   4  -8   3    0.20    0.15
   4  -8   3    0.33    0.12
   4   8   3    0.09    0.23
   4   8   3    0.22    0.24
   4   8   3    0.40    0.20
   5  -8   3    0.35    0.25
  -5  -8  -3   -0.03    0.16
   5  -8   3   -0.04    0.16
   5  -8   3    0.23    0.14
   5   8   3    0.21    0.16
   6  -8   3    4.47    0.33
   6  -8   3    4.54    0.34
  -6  -8  -3    4.20    0.36
   6   8   3    3.80    0.35
   7  -8   3   17.75    0.76
   7  -8   3   16.64    0.76
  -7  -8  -3   17.71    0.78
  -7  -8  -3   17.26    0.76
   7   8   3   17.56    0.79
  -8  -8  -3    0.05    0.14
  -8  -8  -3   -0.17    0.13
   8  -8   3    0.16    0.15
   8   8   3    0.15    0.16
   9  -8   3    2.83    0.31
  -9  -8  -3    2.40    0.25
  -9  -8  -3    2.55    0.21
 -10  -9   3   -0.08    0.12
   9  -9  -3    0.40    0.15
  -9  -9   3    0.68    0.13
  -9   9   3    0.38    0.25
  -8  -9   3    1.23    0.22
   8  -9  -3    0.97    0.23
  -8  -9   3    1.15    0.22
  -8   9   3    1.17    0.26
  -7  -9   3    0.91    0.19
   7  -9  -3    0.51    0.16
  -7   9   3    1.14    0.21
  -6  -9   3    3.83    0.33
   6  -9  -3    4.20    0.31
  -6   9   3    3.57    0.38
   6   9  -3    3.60    0.41
  -5  -9   3   10.56    0.53
  -5  -9   3   10.54    0.56
   5  -9  -3   10.58    0.50
  -5   9   3    9.05    0.56
  -5   9   3    9.43    0.54
   5   9  -3   10.72    0.56
  -4  -9   3    0.91    0.20
  -4  -9   3    1.42    0.29
   4  -9  -3    1.22    0.22
   4   9  -3    1.59    0.32
  -4   9   3    1.00    0.28
   3  -9  -3    4.49    0.38
   3  -9  -3    4.65    0.30
  -3  -9   3    5.17    0.48
  -3  -9   3    4.21    0.33
  -3   9   3    4.51    0.35
   2  -9  -3    1.12    0.22
  -2  -9   3    1.19    0.24
   2  -9  -3    1.21    0.22
  -2  -9   3    1.26    0.24
  -1  -9   3    0.03    0.12
  -1  -9   3    0.15    0.11
   1  -9  -3    0.13    0.09
   0  -9   3    4.37    0.28
   0  -9   3    4.96    0.28
   0  -9  -3    4.26    0.27
   1  -9   3   51.23    1.85
   1  -9   3   50.45    1.84
  -1  -9  -3   50.14    1.86
  -1   9  -3   46.25    1.85
   2  -9   3    6.18    0.34
   2  -9   3    6.02    0.33
  -2  -9  -3    6.51    0.37
  -2   9  -3    6.00    0.39
   3  -9   3   10.46    0.48
   3  -9   3   10.67    0.50
   3  -9   3   10.19    0.55
   3   9   3   10.14    0.52
   4  -9   3   35.59    1.32
   4  -9   3   34.82    1.32
   4  -9   3   33.25    1.35
   4   9   3   33.60    1.34
   4   9   3   32.27    1.35
   4   9   3   32.88    1.34
  -5  -9  -3    1.79    0.29
   5  -9   3    2.27    0.26
   5  -9   3    1.95    0.31
   5  -9   3    2.32    0.37
   5   9   3    2.33    0.28
  -6  -9  -3   12.68    0.60
   6  -9   3   12.36    0.57
   6  -9   3   10.75    0.67
   6   9   3   12.15    0.60
  -7  -9  -3    2.38    0.30
   7  -9   3    2.19    0.27
  -7  -9  -3    2.54    0.29
   7   9   3    2.65    0.30
  -8  -9  -3    1.63    0.22
   8  -9   3    1.64    0.24
  -8  -9  -3    1.58    0.24
   8   9   3    1.47    0.24
  -9  -9  -3    3.69    0.25
   9  -9   3    3.84    0.34
  -9 -10   3   -0.01    0.10
   9 -10  -3    0.07    0.14
  -8 -10   3    0.33    0.13
   8 -10  -3    0.29    0.15
  -8  10   3    0.40    0.20
   7 -10  -3    6.41    0.41
  -7 -10   3    7.34    0.43
  -7  10   3    7.45    0.47
   7  10  -3    7.77    0.50
  -6 -10   3    1.04    0.19
  -6  10   3    0.33    0.24
  -6  10   3    0.79    0.25
   6  10  -3    0.80    0.25
  -5 -10   3   -0.24    0.23
  -5 -10   3    0.06    0.16
   5 -10  -3   -0.10    0.14
   5  10  -3    0.03    0.20
  -5  10   3   -0.03    0.26
  -5  10   3   -0.27    0.19
  -4 -10   3    6.99    0.45
   4 -10  -3    7.72    0.42
  -4 -10   3    8.21    0.47
   4  10  -3    8.18    0.47
  -4  10   3    7.88    0.45
  -3 -10   3    1.11    0.27
   3 -10  -3    1.22    0.22
  -3 -10   3    1.23    0.23
  -3  10   3    1.69    0.26
  -2 -10   3    0.16    0.15
   2 -10  -3    0.08    0.16
  -2  10   3   -0.08    0.16
  -1 -10   3   28.49    1.12
  -1 -10   3   29.08    1.10
   1 -10  -3   26.76    1.11
   0 -10   3    2.50    0.23
   0 -10   3    2.59    0.29
   0 -10  -3    2.28    0.26
   1 -10   3    1.66    0.28
   1 -10   3    1.38    0.30
  -1 -10  -3    2.04    0.41
   2 -10   3    0.64    0.17
   2 -10   3    0.48    0.19
   2 -10   3    0.38    0.19
   2 -10   3    1.01    0.20
   2  10   3    0.92    0.20
   2  10   3    0.48    0.19
   3 -10   3    3.83    0.30
   3 -10   3    3.43    0.35
   3 -10   3    3.77    0.27
   3  10   3    2.89    0.54
   3  10   3    3.73    0.31
   3  10   3    2.71    0.34
   4 -10   3   11.65    0.54
   4 -10   3   11.25    0.58
   4 -10   3   11.19    0.53
   4  10   3   10.35    0.61
   4  10   3   11.18    0.60
   4  10   3   11.39    0.57
   5 -10   3    4.16    0.31
  -5 -10  -3    3.48    0.32
   5 -10   3    4.14    0.31
   5 -10   3    4.17    0.40
   5  10   3    3.97    0.34
   6 -10   3    3.23    0.30
  -6 -10  -3    4.13    0.34
   6  10   3    3.55    0.32
  -7 -10  -3    1.79    0.27
  -7 -10  -3    1.42    0.26
   7 -10   3    1.51    0.25
   7  10   3    1.48    0.26
   8 -10   3    3.86    0.30
  -8 -10  -3    3.21    0.28
  -8 -10  -3    3.94    0.28
   8  10   3    3.69    0.29
  -9 -10  -3    2.84    0.23
  -9 -10  -3    2.59    0.25
  -9 -11   3    0.69    0.16
  -8 -11   3    0.59    0.14
   8 -11  -3    0.65    0.20
   7 -11  -3    1.00    0.24
  -7 -11   3    0.52    0.16
   7  11  -3    0.36    0.23
   6 -11  -3    0.31    0.15
  -6 -11   3    0.21    0.16
   6  11  -3    0.20    0.21
  -6  11   3    0.67    0.22
  -5 -11   3    0.83    0.18
  -5 -11   3    1.30    0.29
   5 -11  -3    1.21    0.26
  -5  11   3    1.40    0.30
   5  11  -3    1.74    0.30
  -4 -11   3    0.27    0.20
   4 -11  -3    0.26    0.16
  -4 -11   3    0.99    0.25
  -4  11   3    0.28    0.17
   4  11  -3    0.39    0.18
  -3 -11   3   21.48    0.92
  -3 -11   3   21.31    0.91
   3 -11  -3   22.39    0.90
  -3  11   3   22.05    0.90
  -2 -11   3   10.14    0.62
  -2 -11   3   11.86    0.54
   2 -11  -3   11.31    0.56
  -2  11   3   11.32    0.54
  -1 -11   3    0.16    0.17
  -1 -11   3    0.21    0.16
  -1  11   3    0.24    0.15
   0 -11   3    4.31    0.29
   0 -11   3    4.13    0.33
   0  11   3    3.19    0.31
   1 -11   3   21.14    0.86
   1 -11   3   21.23    0.89
   1  11   3   21.35    0.87
   1  11   3   20.93    0.90
   1  11   3   21.01    0.91
   2 -11   3    1.37    0.22
   2 -11   3    0.90    0.20
   2  11   3    1.37    0.22
   2  11   3    1.23    0.28
   3 -11   3    0.50    0.16
   3 -11   3    0.27    0.14
   3 -11   3    0.70    0.22
   3  11   3    0.64    0.20
   3  11   3    0.52    0.16
   4 -11   3    5.97    0.36
   4 -11   3    6.16    0.37
   4 -11   3    5.69    0.43
   4  11   3    5.00    0.44
   4  11   3    5.63    0.49
   4  11   3    6.14    0.39
   5 -11   3   11.25    0.53
  -5 -11  -3   10.51    0.53
   5 -11   3   10.03    0.58
   5  11   3   10.37    0.55
   6 -11   3    1.25    0.24
  -6 -11  -3    1.83    0.27
   6  11   3    1.66    0.26
  -7 -11  -3    0.90    0.19
   7 -11   3    0.92    0.23
   7  11   3    1.15    0.25
  -8 -11  -3    0.41    0.16
  -8 -11  -3    0.84    0.18
   8 -11   3    0.41    0.15
  -8  11  -3    1.01    0.24
   8  11   3    0.54    0.14
  -9 -11  -3    0.11    0.12
  -8 -12   3   -0.04    0.10
   8 -12  -3   -0.10    0.14
   7 -12  -3    1.27    0.24
  -7 -12   3    1.27    0.23
   7  12  -3    1.22    0.31
  -6 -12   3   11.43    0.55
   6 -12  -3   10.59    0.55
   6  12  -3   11.56    0.58
  -6  12   3   11.13    0.56
  -5 -12   3    0.54    0.16
   5  12  -3    0.95    0.21
  -5  12   3    0.46    0.18
   4 -12  -3   -0.03    0.17
  -4 -12   3    0.04    0.19
  -4 -12   3   -0.06    0.25
  -4  12   3   -0.02    0.17
   4  12  -3   -0.21    0.17
  -3 -12   3    0.25    0.20
   3 -12  -3    0.32    0.18
  -3 -12   3    0.07    0.21
  -3  12   3    0.05    0.17
  -2 -12   3    1.13    0.20
   2 -12  -3    1.46    0.31
  -2  12   3    1.12    0.19
  -1 -12   3    0.11    0.16
  -1 -12   3    0.07    0.14
  -1  12   3    0.13    0.16
   1  12  -3   -0.20    0.22
   0 -12   3    4.87    0.35
   0 -12   3    4.95    0.33
   0  12   3    4.88    0.33
   0  12   3    4.94    0.40
   0  12   3    3.80    0.47
   1 -12   3    0.53    0.15
   1 -12   3    0.44    0.17
   1  12   3    0.49    0.20
   1  12   3    0.34    0.17
   2 -12   3    0.04    0.17
   2 -12   3   -0.22    0.12
   2  12   3    0.04    0.16
   2  12   3   -0.21    0.17
   3 -12   3    5.95    0.36
   3 -12   3    5.16    0.38
   3  12   3    4.92    0.40
   3  12   3    5.34    0.39
   4 -12   3   19.14    0.83
  -4 -12  -3   19.15    0.82
   4 -12   3   18.90    0.81
   4  12   3   17.74    0.84
   4  12   3   18.71    0.83
  -5 -12  -3    7.25    0.42
   5 -12   3    6.02    0.40
   5 -12   3    7.33    0.47
   5  12   3    7.43    0.43
   6 -12   3    2.74    0.28
  -6 -12  -3    2.88    0.30
   6  12   3    2.80    0.29
  -7 -12  -3    1.33    0.22
   7 -12   3    0.97    0.24
   7  12   3    1.34    0.21
   8 -12   3    1.44    0.22
  -8 -12  -3    0.89    0.18
   8  12   3    0.87    0.19
  -8  12  -3    0.69    0.17
   8 -13  -3    0.51    0.19
  -8 -13   3    0.53    0.12
  -7 -13   3    0.45    0.13
   7 -13  -3    0.28    0.16
   7  13  -3    0.31    0.19
  -6 -13   3    2.93    0.29
   6 -13  -3    2.40    0.28
   6  13  -3    2.36    0.29
  -6  13   3    1.69    0.32
   5 -13  -3    7.08    0.44
  -5 -13   3    7.44    0.44
  -5  13   3    7.96    0.43
   5  13  -3    8.18    0.47
  -4 -13   3    0.65    0.20
   4 -13  -3    0.34    0.18
  -4  13   3    0.51    0.17
   4  13  -3    0.33    0.17
  -3 -13   3    4.21    0.43
  -3 -13   3    4.61    0.45
   3 -13  -3    4.47    0.38
  -3  13   3    4.92    0.33
  -2 -13   3    6.28    0.42
   2 -13  -3    5.26    0.55
  -2  13   3    5.63    0.38
  -1 -13   3    0.20    0.18
   1  13  -3    0.14    0.20
  -1  13   3    0.23    0.16
   0 -13   3    0.19    0.15
   0 -13   3   -0.10    0.16
   0  13  -3    0.10    0.18
   0  13   3   -0.01    0.21
   0  13   3   -0.15    0.14
   1 -13   3    0.26    0.17
   1 -13   3   -0.06    0.13
   1  13   3   -0.01    0.16
   1  13   3    0.09    0.15
   2 -13   3    7.81    0.43
   2  13   3    8.03    0.45
   2  13   3    7.07    0.46
   3 -13   3    0.75    0.20
   3 -13   3    0.34    0.15
   3  13   3    0.48    0.18
   3  13   3    0.34    0.16
   4 -13   3    7.97    0.48
  -4 -13  -3    7.41    0.45
   4  13   3    8.12    0.46
   4  13   3    8.47    0.50
   5 -13   3    2.68    0.36
  -5 -13  -3    2.29    0.29
   5 -13   3    2.00    0.26
   5  13   3    1.96    0.27
   6 -13   3    3.62    0.30
  -6 -13  -3    4.14    0.32
   6  13   3    3.13    0.28
  -7 -13  -3    0.10    0.11
  -7  13  -3    0.11    0.11
   7  13   3   -0.05    0.12
  -8 -13  -3    0.69    0.16
   8 -13   3    0.63    0.16
   8  13   3    0.37    0.12
  -8 -14   3    0.07    0.10
  -7 -14   3    0.81    0.19
   7 -14  -3    1.36    0.28
   7  14  -3    0.90    0.18
  -6 -14   3    8.17    0.43
   6 -14  -3    7.79    0.45
  -6  14   3    7.84    0.42
   6  14  -3    7.71    0.44
  -5 -14   3    1.00    0.19
   5 -14  -3    1.16    0.28
  -5  14   3    1.14    0.25
   5  14  -3    0.83    0.20
  -4 -14   3    3.65    0.36
   4 -14  -3    3.45    0.36
  -4  14   3    4.00    0.31
   4  14  -3    4.35    0.34
  -3 -14   3    8.93    0.55
   3 -14  -3    9.71    0.55
  -3  14   3    9.76    0.49
   3  14  -3    9.54    0.51
  -2 -14   3    1.68    0.37
  -2  14   3    2.33    0.25
   2  14  -3    2.61    0.55
  -1 -14   3   32.23    1.28
   1  14  -3   30.15    1.30
  -1  14   3   32.54    1.27
  -1  14   3   32.30    1.30
   0 -14   3   39.89    1.54
   0 -14   3   40.68    1.53
   0  14  -3   38.42    1.52
   0  14   3   38.19    1.52
   0  14   3   38.67    1.53
   1 -14   3    3.35    0.32
   1 -14   3    3.08    0.30
   1  14   3    3.39    0.29
   1  14   3    3.23    0.32
   2 -14   3    2.32    0.31
   2 -14   3    2.53    0.28
   2  14   3    2.47    0.29
   2  14   3    3.04    0.29
   3 -14   3   14.14    0.67
   3 -14   3   16.66    0.78
  -3 -14  -3   13.38    0.65
   3  14   3   13.07    0.66
   3  14   3   13.99    0.66
   4 -14   3   28.83    1.22
   4 -14   3   32.57    1.23
  -4 -14  -3   29.62    1.22
   4  14   3   30.73    1.24
   4  14   3   30.60    1.22
   5 -14   3    1.08    0.24
  -5 -14  -3    0.87    0.19
   5  14   3    0.59    0.17
  -6 -14  -3    5.16    0.32
   6 -14   3    5.43    0.34
   6  14   3    4.57    0.32
   7 -14   3   -0.01    0.14
  -7 -14  -3    0.17    0.10
   7  14   3    0.23    0.12
  -7  14  -3    0.19    0.11
  -8 -14  -3   -0.01    0.09
   8  14   3   -0.08    0.12
  -8 -15   3    0.15    0.10
  -7 -15   3    1.15    0.18
   7 -15  -3    1.13    0.34
   7  15  -3    1.39    0.27
  -6 -15   3    2.02    0.24
   6 -15  -3    1.45    0.33
   6  15  -3    1.91    0.25
  -6  15   3    2.40    0.24
   5 -15  -3    0.57    0.22
  -5 -15   3    0.47    0.16
  -5  15   3    0.52    0.14
   4 -15  -3    1.77    0.37
  -4 -15   3    1.77    0.31
  -4  15   3    1.81    0.24
   4  15  -3    1.53    0.26
  -3 -15   3    2.32    0.38
  -3  15   3    2.74    0.27
   3  15  -3    3.04    0.30
  -2 -15   3    0.52    0.28
   2  15  -3    0.67    0.28
  -2  15   3    0.66    0.16
  -1 -15   3   10.40    0.56
   1  15  -3    9.63    0.53
  -1  15   3    9.62    0.50
  -1  15   3    9.98    0.54
   0 -15   3   18.87    0.81
   0  15  -3   18.39    0.79
   0  15   3   18.50    0.81
   0  15   3   17.51    0.79
   1 -15   3    0.89    0.18
   1 -15   3    1.22    0.28
   1  15   3    1.11    0.27
  -1  15  -3    0.88    0.19
   1  15   3    0.72    0.17
   2 -15   3    0.88    0.19
   2 -15   3    1.33    0.33
  -2 -15  -3    1.29    0.29
   2  15   3    1.34    0.25
  -2  15  -3    1.55    0.24
   2  15   3    1.42    0.26
  -3 -15  -3    6.60    0.41
   3 -15   3    7.22    0.42
   3 -15   3    6.51    0.41
   3  15   3    6.58    0.42
   3  15   3    6.78    0.42
   4 -15   3   14.59    0.65
  -4 -15  -3   13.31    0.64
   4 -15   3   12.77    0.64
   4  15   3   14.55    0.66
   4  15   3   14.04    0.65
   5 -15   3    0.11    0.15
  -5 -15  -3   -0.22    0.13
  -5  15  -3   -0.04    0.12
   5  15   3   -0.09    0.12
  -6 -15  -3    8.60    0.41
   6 -15   3    6.41    0.48
  -6  15  -3    7.87    0.38
   6  15   3    8.08    0.40
  -7 -15  -3    0.64    0.15
   7 -15   3    0.53    0.17
  -7  15  -3    1.05    0.16
   7  15   3    0.86    0.16
  -7 -16   3    0.16    0.11
  -6 -16   3    1.76    0.22
   6  16  -3    1.76    0.21
  -6  16   3    1.49    0.21
  -5 -16   3    0.59    0.17
   5  16  -3    0.66    0.15
  -5  16   3    0.63    0.14
  -4 -16   3    1.66    0.33
  -4  16   3    1.62    0.25
   4  16  -3    2.48    0.26
  -3  16   3    0.04    0.14
   3  16  -3   -0.11    0.14
  -2  16   3    0.32    0.15
  -1 -16   3    1.38    0.28
   1  16  -3    1.53    0.30
  -1  16   3    1.68    0.24
  -1  16   3    1.59    0.33
   0 -16   3   31.91    1.32
   0  16   3   34.07    1.31
   0  16  -3   33.24    1.31
   0  16   3   33.54    1.33
  -1 -16  -3    0.26    0.22
   1 -16   3   -0.40    0.18
  -1  16  -3    0.03    0.15
   1  16   3   -0.17    0.16
   1  16   3   -0.07    0.14
   2 -16   3    0.91    0.20
  -2 -16  -3    0.72    0.20
   2  16   3    0.77    0.17
  -2  16  -3    0.69    0.16
   2  16   3    0.99    0.25
  -3 -16  -3    0.40    0.18
   3 -16   3    0.14    0.16
  -3  16  -3    0.02    0.13
   3  16   3    0.12    0.17
   3  16   3    0.40    0.16
   4 -16   3    0.21    0.15
  -4 -16  -3    0.20    0.14
   4  16   3    0.16    0.20
  -5 -16  -3    0.27    0.13
   5 -16   3    0.10    0.15
   5  16   3    0.31    0.12
  -5  16  -3    0.28    0.11
   6 -16   3   -0.16    0.15
  -6 -16  -3    0.03    0.10
   6  16   3    0.03    0.10
  -6  16  -3   -0.03    0.09
   7  16   3    3.39    0.22
  -7  16  -3    3.76    0.22
  -6 -17   3    1.88    0.23
  -6  17   3    1.75    0.21
   6  17  -3    1.22    0.24
  -5 -17   3    0.10    0.16
  -5  17   3   -0.09    0.11
   5  17  -3    0.00    0.12
  -4  17   3   -0.06    0.11
   4  17  -3    0.20    0.13
   3  17  -3   -0.01    0.15
  -2  17   3    0.10    0.13
   2  17  -3    0.03    0.14
  -1  17   3    1.69    0.33
   1  17  -3    2.00    0.30
  -1  17   3    2.06    0.24
   0 -17   3    2.05    0.39
   0  17   3    1.80    0.29
   0  17  -3    2.35    0.28
   0  17   3    1.68    0.24
   1 -17   3    6.03    0.43
  -1  17  -3    6.36    0.38
   1  17   3    6.42    0.37
   1  17   3    5.98    0.39
  -2 -17  -3    1.71    0.38
   2 -17   3    1.93    0.32
  -2  17  -3    2.09    0.25
   2  17   3    2.06    0.26
   2  17   3    2.46    0.26
   3 -17   3    2.96    0.33
  -3 -17  -3    3.23    0.31
   3  17   3    2.61    0.26
   3  17   3    3.04    0.28
  -4 -17  -3    2.85    0.27
   4 -17   3    2.62    0.30
   4  17   3    3.03    0.25
  -4  17  -3    2.92    0.24
   5 -17   3    2.73    0.30
  -5 -17  -3    2.83    0.24
  -5  17  -3    3.04    0.21
   5  17   3    3.13    0.23
   6  17   3    0.48    0.11
   6  18  -3    2.26    0.21
  -5  18   3    0.16    0.10
   5  18  -3   -0.02    0.10
  -4  18   3    1.72    0.18
   4  18  -3    1.80    0.21
   3  18  -3    0.28    0.12
  -3  18   3    0.41    0.11
  -2  18   3    8.94    0.43
   2  18  -3    8.63    0.45
  -1  18   3   10.81    0.56
   1  18  -3   10.55    0.67
   1  18  -3   11.36    0.52
   0  18   3   -0.24    0.16
   0  18  -3    0.08    0.14
   1 -18   3    1.68    0.41
   1  18   3    2.09    0.24
  -1  18  -3    2.13    0.24
   1  18   3    2.06    0.22
  -2 -18  -3   -0.30    0.25
   2 -18   3    0.10    0.22
   2  18   3    0.06    0.12
  -2  18  -3   -0.04    0.10
   2  18   3   -0.15    0.12
   3 -18   3    0.65    0.21
  -3 -18  -3    1.24    0.27
   3  18   3    0.67    0.15
   3  18   3    0.82    0.15
  -3  18  -3    1.29    0.18
   4 -18   3    0.39    0.21
  -4 -18  -3    0.55    0.14
   4  18   3    0.49    0.12
  -4  18  -3    0.65    0.11
  -5 -18  -3    3.95    0.28
  -5  18  -3    4.18    0.24
   5  18   3    3.92    0.24
  -6 -18  -3   -0.07    0.12
   6  18   3    0.12    0.09
  -6  18  -3    0.07    0.09
   5  19  -3    2.59    0.19
  -5  19   3    2.30    0.18
  -4  19   3    0.77    0.14
   4  19  -3    0.80    0.15
  -3  19   3    0.13    0.10
   3  19  -3    0.06    0.10
   2  19  -3    0.24    0.11
  -2  19   3    0.15    0.11
   1  19  -3    0.10    0.11
   1  19  -3    0.34    0.17
  -1  19   3    0.47    0.11
   0  19  -3   -0.08    0.12
   0  19   3    0.08    0.15
   0  19  -3    0.06    0.12
   0  19   3    0.09    0.11
  -1  19  -3    3.79    0.26
   1  19   3    3.77    0.28
   1  19   3    3.89    0.26
   2  19   3    0.47    0.13
  -2  19  -3    0.15    0.11
   2  19   3    0.36    0.12
   3  19   3    1.61    0.38
   3  19   3    1.73    0.19
  -3  19  -3    1.87    0.18
  -3  19  -3    1.22    0.31
  -4 -19  -3    1.79    0.26
  -4  19  -3    1.53    0.15
   4  19   3    1.62    0.17
   5  19   3    0.98    0.13
  -5  19  -3    0.97    0.13
  -4  20   3    3.00    0.18
   4  20  -3    2.90    0.19
  -3  20   3    0.00    0.08
   3  20  -3    0.04    0.09
   2  20  -3    0.72    0.15
  -2  20   3    0.59    0.13
   1  20  -3    0.03    0.10
  -1  20   3   -0.03    0.09
   0  20  -3    2.23    0.21
   0  20  -3    2.77    0.23
   0  20   3    2.66    0.20
   0  20   3    2.09    0.28
  -1  20  -3    2.99    0.23
   1  20   3    3.28    0.22
   1  20   3    3.54    0.26
  -1  20  -3    3.32    0.23
  -2  20  -3    0.16    0.10
   2  20   3    0.04    0.13
  -2  20  -3    0.34    0.13
   2  20   3    0.15    0.11
  -3  20  -3   -0.03    0.08
   3  20   3   -0.03    0.16
   4  20   3    2.74    0.18
  -4  20  -3    3.07    0.18
  -3  21   3    0.05    0.07
   3  21  -3    0.11    0.09
  -2  21   3    0.66    0.12
   2  21  -3    0.82    0.14
   1  21  -3    1.09    0.23
  -1  21   3    1.29    0.15
   0  21  -3    0.45    0.11
   0  21  -3    0.61    0.17
   0  21   3    0.60    0.16
  -1  21  -3    0.94    0.18
   1  21   3    1.08    0.23
  -1  21  -3    0.81    0.16
   1  21   3    0.81    0.16
   2  21   3    6.59    0.32
  -2  21  -3    6.40    0.30
  -3  21  -3    0.21    0.09
  10   0  -4    2.08    0.31
 -10   0   4    1.93    0.19
   9   0  -4   12.52    0.60
  -9   0   4   12.70    0.63
  -8   0   4    4.52    0.32
   8   0  -4    4.01    0.33
  -8   0   4    4.25    0.40
  -7   0   4    1.49    0.25
   7   0  -4    1.64    0.26
  -7   0   4    1.45    0.26
  -6   0   4   12.55    0.64
  -6   0   4   12.22    0.58
   6   0  -4   12.75    0.57
   5   0  -4    0.48    0.14
   4   0  -4   63.18    2.36
   4   0  -4   64.79    2.35
   3   0  -4    5.41    0.26
   3   0  -4    5.99    0.26
  -3   0   4    5.39    0.30
   2   0  -4   31.87    1.22
   2   0  -4   34.68    1.23
   1   0  -4  130.53    5.12
   1   0  -4  154.73    5.12
   0   0  -4  158.44    5.68
  -1   0  -4  123.52    4.42
  -2   0  -4   10.04    0.37
   4   0   4   12.89    0.56
   5   0   4    0.31    0.24
   5   0   4    0.52    0.16
   6   0   4    6.01    0.39
   6   0   4    5.75    0.46
   6   0   4    5.31    0.41
   7   0   4    0.14    0.21
  -7   0  -4    0.17    0.16
   7   0   4   -0.17    0.24
  -8   0  -4    0.11    0.14
  -9   0  -4    0.17    0.12
 -10   0  -4    2.25    0.19
  10  -1  -4    1.39    0.28
 -10  -1   4    1.09    0.16
  10   1  -4    1.70    0.34
 -10   1   4    1.26    0.16
  -9  -1   4    1.28    0.29
   9  -1  -4    0.49    0.16
   9   1  -4    0.69    0.19
  -8  -1   4    2.63    0.28
  -8  -1   4    3.11    0.36
   8  -1  -4    3.22    0.30
   8   1  -4    2.50    0.30
  -8   1   4    2.58    0.27
  -8   1   4    2.77    0.40
   7  -1  -4    0.64    0.18
  -7  -1   4    0.38    0.17
  -7  -1   4    0.50    0.21
  -7   1   4    0.37    0.15
  -7   1   4    0.70    0.26
   7   1  -4    0.34    0.15
   6  -1  -4    0.38    0.14
  -6  -1   4    0.43    0.19
  -6  -1   4    0.53    0.17
  -6   1   4    0.56    0.25
  -6   1   4    0.46    0.16
   5  -1  -4    0.20    0.12
   5   1  -4    0.11    0.14
  -5   1   4    0.24    0.26
   4  -1  -4   11.38    0.53
   4  -1  -4   12.93    0.52
  -4  -1   4   12.66    0.54
   4   1  -4   13.34    0.52
   4   1  -4   12.41    0.54
   3  -1  -4   16.93    0.69
   3  -1  -4   17.40    0.68
  -3  -1   4   17.51    0.71
   3   1  -4   18.99    0.69
   2  -1  -4    0.33    0.06
   2   1  -4    0.32    0.05
   1  -1  -4   21.00    0.78
   1   1  -4   20.86    0.78
   0  -1  -4   71.15    2.62
   0   1  -4   74.63    2.63
  -1  -1  -4  205.62    7.62
  -1   1  -4  206.25    7.65
  -1   1  -4  216.10    7.64
   1   1   4  224.28    7.65
  -2  -1  -4   48.64    1.80
   2   1   4   51.57    1.80
   4  -1   4    7.38    0.37
   5  -1   4   10.22    0.48
   5   1   4   10.27    0.54
   5   1   4   10.01    0.53
   6  -1   4    3.60    0.37
   6  -1   4    2.76    0.29
   6  -1   4    3.08    0.38
   6   1   4    2.67    0.41
   6   1   4    2.80    0.34
   7  -1   4    7.13    0.49
   7  -1   4    7.36    0.46
   7  -1   4    6.97    0.47
   7   1   4    7.49    0.46
  -7   1  -4    6.66    0.42
  -8  -1  -4   -0.13    0.14
   8  -1   4   -0.13    0.23
  -8   1  -4    0.42    0.15
   8   1   4   -0.24    0.21
  -9  -1  -4    4.64    0.30
  -9   1  -4    4.94    0.31
 -10  -1  -4    0.04    0.09
 -10   1  -4   -0.14    0.10
  10  -2  -4    2.11    0.29
 -10  -2   4    2.09    0.19
  10   2  -4    2.17    0.43
 -10   2   4    2.01    0.19
  -9  -2   4    1.18    0.27
  -9  -2   4    1.16    0.20
   9  -2  -4    1.41    0.24
  -9   2   4    1.04    0.23
   9   2  -4    0.82    0.20
   8  -2  -4    0.32    0.16
  -8  -2   4    1.00    0.23
  -8  -2   4    0.57    0.20
  -8   2   4    0.55    0.27
  -8   2   4    0.51    0.15
   8   2  -4    0.70    0.19
  -7  -2   4    1.10    0.19
   7  -2  -4    1.28    0.24
  -7  -2   4    1.78    0.32
   7   2  -4    0.85    0.19
  -7   2   4    0.57    0.30
  -7   2   4    0.59    0.18
   6  -2  -4    0.93    0.21
  -6  -2   4    1.48    0.26
  -6  -2   4    1.44    0.32
  -6   2   4    0.85    0.19
  -6   2   4    0.91    0.25
   5  -2  -4   16.90    0.68
   5  -2  -4   15.64    0.69
  -5   2   4   15.99    0.71
   5   2  -4   16.00    0.70
  -4  -2   4    0.28    0.12
   4  -2  -4   -0.01    0.10
   4  -2  -4    0.09    0.08
   4   2  -4    0.00    0.11
   3  -2  -4   27.04    1.08
  -3  -2   4   27.80    1.10
   3  -2  -4   30.77    1.09
   3   2  -4   29.73    1.09
   2  -2  -4   10.96    0.43
   2   2  -4   11.12    0.44
   1  -2  -4   13.95    0.50
  -1  -2   4   11.86    0.50
   1   2  -4   14.03    0.51
  -1   2   4   12.82    0.50
   0  -2   4    2.58    0.12
   0  -2  -4    2.59    0.12
   0   2  -4    2.85    0.13
   0   2   4    2.78    0.13
  -1  -2  -4    0.86    0.06
  -1   2  -4    0.78    0.05
   1   2   4    0.76    0.06
  -2  -2  -4   52.12    1.94
   2   2   4   55.39    1.94
  -3  -2  -4   13.87    0.52
   3   2   4   14.29    0.52
   4  -2   4  233.31    8.40
   5  -2   4   49.10    1.92
   5  -2   4   55.52    1.97
   5   2   4   48.69    1.89
   5   2   4   46.84    1.91
   6  -2   4    4.79    0.33
  -6  -2  -4    4.47    0.51
   6  -2   4    5.05    0.41
   6  -2   4    4.91    0.41
   6   2   4    4.67    0.48
   6   2   4    4.39    0.37
   7  -2   4   48.77    1.88
   7  -2   4   49.01    1.89
   7  -2   4   50.32    1.87
   7   2   4   47.11    1.89
  -7   2  -4   49.20    1.87
   8  -2   4    0.35    0.22
  -8  -2  -4    0.00    0.13
  -8   2  -4    0.08    0.15
   8   2   4   -0.21    0.20
  -9  -2  -4    0.94    0.20
  -9   2  -4    0.74    0.14
 -10  -2  -4    0.73    0.14
 -10   2  -4    0.73    0.15
 -10  -3   4    0.08    0.10
  10  -3  -4    0.13    0.17
 -10  -3   4   -0.25    0.19
 -10   3   4    0.13    0.10
   9  -3  -4    1.40    0.23
  -9  -3   4    1.27    0.21
  -9  -3   4    1.15    0.25
   9   3  -4    0.68    0.21
  -9   3   4    1.35    0.21
   8  -3  -4    8.61    0.48
  -8  -3   4    9.78    0.51
  -8  -3   4    9.35    0.48
  -8   3   4    9.08    0.47
   8   3  -4    8.75    0.50
   7  -3  -4    0.07    0.14
  -7  -3   4    0.20    0.16
  -7  -3   4    0.07    0.17
  -7   3   4    0.04    0.15
  -7   3   4    0.21    0.29
   7   3  -4    0.27    0.16
  -6  -3   4   24.93    1.02
  -6  -3   4   24.56    1.03
   6  -3  -4   26.79    1.02
  -6   3   4   23.27    1.06
  -6   3   4   25.44    1.02
  -5  -3   4    5.60    0.40
   5  -3  -4    6.08    0.33
   5  -3  -4    5.70    0.40
  -5   3   4    5.79    0.38
   4  -3  -4    6.66    0.32
   4  -3  -4    6.24    0.36
  -4  -3   4    6.48    0.35
   4  -3  -4    6.53    0.33
   4   3  -4    6.56    0.37
  -3  -3   4    0.86    0.14
   3  -3  -4    1.06    0.11
  -3  -3   4    0.77    0.11
   3   3  -4    1.04    0.14
   2  -3  -4  127.00    4.70
  -2  -3   4  130.93    4.70
   2   3  -4  133.56    4.70
   1  -3  -4    1.29    0.09
  -1  -3   4    1.37    0.09
   1   3  -4    1.13    0.11
  -1   3   4    1.59    0.10
   0  -3   4  127.36    4.87
   0  -3  -4  125.67    4.88
   0   3   4  147.86    4.88
   0   3  -4  142.42    4.88
   1  -3   4  218.03    7.78
  -1  -3  -4  207.10    7.77
   1   3   4  216.36    7.77
  -1   3  -4  225.84    7.76
  -2  -3  -4   17.52    0.68
   2   3   4   17.97    0.68
  -2   3  -4   19.16    0.66
   3  -3   4   27.51    1.06
  -3  -3  -4   27.84    1.02
   3   3   4   27.61    1.02
  -4  -3  -4   27.90    1.05
   4  -3   4   29.31    1.11
   5  -3   4    3.29    0.37
   5  -3   4    3.72    0.36
   5  -3   4    3.71    0.27
   5   3   4    4.43    0.35
   5   3   4    3.66    0.33
  -6  -3  -4    0.15    0.25
   6  -3   4    0.42    0.23
   6  -3   4    0.11    0.15
   6  -3   4    0.55    0.21
   6   3   4    0.17    0.29
  -6   3  -4    0.19    0.19
   6   3   4    0.50    0.20
   7  -3   4   46.13    1.78
  -7  -3  -4   43.47    1.78
   7  -3   4   48.14    1.78
   7  -3   4   46.89    1.79
  -7   3  -4   46.05    1.77
   7   3   4   45.65    1.79
  -8  -3  -4    4.48    0.33
   8  -3   4    3.71    0.37
  -8   3  -4    4.47    0.35
   8   3   4    4.65    0.38
  -9  -3  -4    2.02    0.21
  -9   3  -4    1.99    0.22
 -10  -3  -4    0.77    0.14
 -10   3  -4    1.11    0.18
 -10  -4   4   -0.08    0.10
  10  -4  -4    0.04    0.16
 -10  -4   4   -0.03    0.16
 -10   4   4   -0.11    0.09
  -9  -4   4    2.07    0.23
  -9  -4   4    2.45    0.26
   9  -4  -4    1.97    0.26
   9   4  -4    1.88    0.33
  -9   4   4    2.28    0.23
  -8  -4   4    0.27    0.15
   8  -4  -4   -0.03    0.13
  -8  -4   4    0.07    0.17
   8   4  -4    0.06    0.18
  -8   4   4    0.21    0.15
   7  -4  -4    3.84    0.31
  -7  -4   4    3.86    0.32
  -7  -4   4    3.69    0.34
   7   4  -4    4.01    0.33
  -7   4   4    3.82    0.31
  -6  -4   4    9.50    0.51
   6  -4  -4    9.97    0.49
  -6  -4   4    9.62    0.51
  -6   4   4    9.57    0.49
  -6   4   4    9.41    0.63
   5  -4  -4    3.04    0.36
  -5  -4   4    3.25    0.37
  -5  -4   4    3.09    0.28
  -5  -4   4    2.92    0.33
   5  -4  -4    3.16    0.25
  -5   4   4    3.03    0.30
  -4  -4   4   34.63    1.30
   4  -4  -4   32.90    1.31
   4  -4  -4   33.84    1.28
   4  -4  -4   34.20    1.29
  -3  -4   4   16.92    0.69
   3  -4  -4   17.40    0.69
   3  -4  -4   16.75    0.66
  -3  -4   4   16.67    0.67
   3   4  -4   17.05    0.68
   2  -4  -4    1.05    0.10
  -2  -4   4    1.23    0.11
  -2   4   4    1.17    0.11
   2   4  -4    1.26    0.12
  -1  -4   4    0.09    0.03
   1  -4  -4    0.06    0.04
   1   4  -4    0.13    0.04
  -1   4   4    0.07    0.04
   0  -4  -4   26.67    1.03
   0  -4   4   28.18    1.03
   0   4   4   27.22    1.03
   0   4  -4   29.64    1.03
  -1  -4  -4    2.84    0.15
   1  -4   4    2.87    0.14
   1   4   4    3.19    0.15
  -1   4  -4    2.76    0.14
   2  -4   4    0.56    0.06
  -2  -4  -4    0.51    0.08
   2   4   4    0.54    0.09
  -2   4  -4    0.52    0.06
   3  -4   4   27.33    1.00
  -3  -4  -4   24.77    0.96
   3   4   4   25.40    0.96
  -4  -4  -4    3.57    0.22
   4  -4   4    3.54    0.25
   5  -4   4    1.59    0.21
   5  -4   4    1.66    0.31
   5  -4   4    1.91    0.34
  -5  -4  -4    1.56    0.26
   5   4   4    1.89    0.31
   5   4   4    1.07    0.33
   5   4   4    1.49    0.29
   6  -4   4    3.16    0.34
   6  -4   4    2.54    0.38
  -6  -4  -4    2.72    0.39
   6  -4   4    3.14    0.28
  -6   4  -4    3.23    0.33
   6   4   4    2.93    0.33
   7  -4   4   57.34    2.13
   7  -4   4   58.78    2.13
  -7  -4  -4   54.18    2.13
   7  -4   4   53.49    2.14
   7   4   4   55.52    2.14
  -7   4  -4   57.06    2.13
  -8  -4  -4    0.77    0.24
  -8  -4  -4    0.48    0.15
   8  -4   4    0.32    0.20
   8   4   4    0.38    0.19
  -8   4  -4    0.58    0.17
  -9  -4  -4    9.41    0.46
  -9   4  -4    9.79    0.46
 -10  -4  -4    1.14    0.14
 -10   4  -4    0.60    0.15
 -10  -5   4    1.00    0.22
 -10  -5   4    1.01    0.21
  10  -5  -4    0.94    0.18
 -10   5   4    1.17    0.16
   9  -5  -4    2.21    0.26
  -9  -5   4    2.26    0.25
  -9  -5   4    2.17    0.23
  -9   5   4    2.54    0.23
   9   5  -4    2.44    0.38
  -8  -5   4    4.29    0.32
   8  -5  -4    3.47    0.32
  -8  -5   4    4.72    0.36
   8   5  -4    4.05    0.37
  -8   5   4    4.07    0.32
   7  -5  -4    7.08    0.41
  -7  -5   4    6.91    0.42
  -7  -5   4    6.28    0.42
  -7   5   4    6.73    0.41
   7   5  -4    7.08    0.44
  -6  -5   4    2.82    0.31
  -6  -5   4    1.77    0.31
   6  -5  -4    2.63    0.26
  -6   5   4    2.95    0.29
  -5  -5   4    0.04    0.24
  -5  -5   4    0.58    0.19
   5  -5  -4    0.48    0.14
  -5  -5   4    0.77    0.17
  -5   5   4    1.17    0.26
   4  -5  -4    8.99    0.42
   4  -5  -4    8.28    0.41
  -4  -5   4    8.81    0.43
  -4  -5   4    8.08    0.42
   3  -5  -4   24.77    0.99
   3  -5  -4   26.41    0.99
  -3  -5   4   27.53    1.00
  -3  -5   4   25.68    1.00
   3   5  -4   24.37    1.00
  -2  -5   4   13.43    0.61
  -2  -5   4   15.13    0.59
   2   5  -4   15.18    0.59
  -2   5   4   15.46    0.59
  -1  -5   4    0.04    0.04
   1  -5  -4    0.02    0.04
  -1   5   4    0.03    0.05
   1   5  -4    0.02    0.05
   0  -5  -4  106.83    4.14
   0  -5   4  112.93    4.13
   0   5   4  121.11    4.14
   0   5  -4  118.17    4.14
  -1  -5  -4    2.41    0.14
   1  -5   4    2.34    0.13
   1   5   4    2.59    0.15
  -1   5  -4    2.44    0.13
   2  -5   4   78.60    2.92
   2  -5   4   79.32    2.96
  -2  -5  -4   85.60    2.94
   2   5   4   83.52    2.94
  -2   5  -4   78.66    2.92
   3  -5   4   18.73    0.74
  -3  -5  -4   18.42    0.72
   3   5   4   18.61    0.73
  -4  -5  -4    0.08    0.12
   4  -5   4    0.18    0.12
   5  -5   4    4.55    0.40
   5  -5   4    4.48    0.30
   5  -5   4    4.99    0.35
  -5  -5  -4    4.63    0.39
   5   5   4    5.21    0.37
   5   5   4    4.40    0.44
  -5   5  -4    4.95    0.45
   5   5   4    5.08    0.37
  -6  -5  -4    1.71    0.35
   6  -5   4    1.74    0.35
   6  -5   4    1.80    0.24
   6  -5   4    1.19    0.22
  -6   5  -4    1.71    0.32
   7  -5   4    3.34    0.33
  -7  -5  -4    2.89    0.38
   7  -5   4    3.17    0.42
   7  -5   4    3.23    0.32
   7   5   4    3.08    0.33
  -7   5  -4    3.81    0.36
   8  -5   4    4.95    0.38
  -8  -5  -4    5.77    0.36
  -8  -5  -4    5.38    0.43
   8  -5   4    7.65    0.69
   8   5   4    6.21    0.39
  -8   5  -4    5.74    0.38
  -9  -5  -4    0.00    0.11
   9  -5   4   -0.08    0.24
   9   5   4    0.18    0.20
  -9   5  -4    0.29    0.15
 -10  -5  -4    0.11    0.09
  10  -6  -4    1.00    0.20
 -10  -6   4    1.24    0.20
 -10  -6   4    0.69    0.14
 -10   6   4    0.98    0.18
   9  -6  -4    0.65    0.16
  -9  -6   4    0.97    0.21
  -9  -6   4    0.68    0.15
  -9   6   4    0.73    0.14
  -8  -6   4    3.37    0.31
  -8  -6   4    2.52    0.30
   8  -6  -4    2.50    0.27
  -8   6   4    3.04    0.29
   8   6  -4    2.98    0.36
  -7  -6   4   12.93    0.63
  -7  -6   4   12.91    0.63
  -7   6   4   13.26    0.62
   7   6  -4   14.08    0.79
  -6  -6   4    3.89    0.37
   6  -6  -4    4.45    0.31
  -6   6   4    4.17    0.34
  -5  -6   4    0.33    0.26
  -5  -6   4    0.15    0.15
  -5  -6   4   -0.07    0.15
   5  -6  -4    0.10    0.13
  -5   6   4   -0.13    0.18
  -4  -6   4   -0.29    0.13
   4  -6  -4   -0.16    0.13
   4  -6  -4   -0.01    0.12
  -4  -6   4    0.03    0.15
   3  -6  -4   53.77    1.95
  -3  -6   4   53.38    1.97
   3  -6  -4   54.69    1.96
  -3  -6   4   50.73    1.96
  -3   6   4   50.97    1.96
   2  -6  -4    0.58    0.12
  -2  -6   4    0.77    0.17
  -2  -6   4    0.64    0.12
  -2   6   4    0.73    0.14
   2   6  -4    0.65    0.15
  -1  -6   4   15.31    0.68
   1  -6  -4   17.78    0.66
  -1  -6   4   16.79    0.68
  -1   6   4   17.77    0.67
   1   6  -4   16.89    0.66
   0  -6   4    1.05    0.10
   0  -6   4    1.28    0.17
   0  -6  -4    0.77    0.12
   0   6   4    0.96    0.12
   0   6  -4    1.17    0.12
   1  -6   4    1.03    0.10
   1  -6   4    1.05    0.18
  -1  -6  -4    0.88    0.11
  -1   6  -4    0.98    0.11
   1   6   4    1.20    0.14
   2  -6   4   28.93    1.04
  -2  -6  -4   27.84    1.07
   2  -6   4   27.75    1.08
  -2   6  -4   27.75    1.04
   2   6   4   28.41    1.07
  -3  -6  -4    0.11    0.09
   3  -6   4    0.26    0.11
   3  -6   4    0.11    0.08
   3   6   4    0.06    0.12
  -3   6  -4    0.04    0.06
   4  -6   4   25.05    0.95
  -4  -6  -4   22.96    0.96
   4  -6   4   23.69    0.97
   4   6   4   23.87    0.98
   4   6   4   23.97    0.99
   5  -6   4    4.46    0.30
  -5  -6  -4    3.95    0.35
   5  -6   4    4.28    0.38
   5  -6   4    4.40    0.33
   5   6   4    3.93    0.43
   5   6   4    4.51    0.36
   5   6   4    4.25    0.34
   6  -6   4    0.99    0.26
   6  -6   4    0.70    0.17
  -6  -6  -4    0.77    0.21
   6  -6   4    0.62    0.16
   6   6   4    0.67    0.19
  -6   6  -4    0.76    0.25
  -7  -6  -4    2.28    0.33
   7  -6   4    2.14    0.30
   7  -6   4    1.99    0.40
   7  -6   4    2.28    0.29
  -7   6  -4    1.90    0.34
   7   6   4    2.19    0.31
   8  -6   4    0.59    0.18
   8  -6   4    1.01    0.21
  -8  -6  -4    0.69    0.15
  -8   6  -4    0.89    0.20
  -9  -6  -4    8.39    0.40
  -9  -6  -4    9.81    0.57
   9  -6   4    7.43    0.50
  -9   6  -4    8.22    0.45
   9   6   4    8.42    0.46
 -10  -6  -4    2.09    0.17
 -10  -7   4    2.67    0.22
 -10   7   4    2.64    0.22
  -9  -7   4    4.20    0.29
  -9  -7   4    4.10    0.29
   9  -7  -4    3.81    0.37
  -9   7   4    4.44    0.28
   8  -7  -4    7.55    0.43
  -8  -7   4    8.05    0.44
   8   7  -4    7.04    0.50
  -8   7   4    8.60    0.44
  -7  -7   4   22.50    0.97
   7  -7  -4   22.25    0.97
  -7  -7   4   24.01    0.97
  -7   7   4   24.40    0.98
   6  -7  -4    7.73    0.43
  -6  -7   4    7.66    0.44
  -6  -7   4    7.67    0.53
  -6   7   4    7.81    0.44
  -5  -7   4    6.23    0.39
   5  -7  -4    6.33    0.37
  -5  -7   4    6.58    0.41
   5   7  -4    5.99    0.54
  -5   7   4    6.05    0.40
  -4  -7   4    6.49    0.37
   4  -7  -4    6.31    0.35
  -4  -7   4    5.73    0.41
   4  -7  -4    6.01    0.43
   3  -7  -4   20.08    0.79
   3  -7  -4   19.38    0.79
  -3  -7   4   18.97    0.80
  -3  -7   4   19.81    0.80
  -2  -7   4   19.14    0.82
  -2  -7   4   21.42    0.81
   2  -7  -4   19.76    0.81
   2  -7  -4   21.84    0.81
  -2   7   4   20.15    0.82
   1  -7  -4  163.29    5.75
  -1  -7   4  160.04    5.76
  -1  -7   4  162.04    5.75
  -1   7   4  152.81    5.75
   1   7  -4  158.40    5.75
   0  -7   4   24.35    0.94
   0  -7   4   25.21    0.93
   0  -7  -4   24.22    0.93
   0   7   4   24.87    0.94
   0   7  -4   22.97    0.93
   1  -7   4    0.66    0.12
  -1  -7  -4    0.95    0.13
   1  -7   4    0.68    0.12
   1   7   4    0.79    0.16
  -1   7  -4    0.82    0.15
  -2  -7  -4   74.73    2.71
   2  -7   4   71.48    2.68
   2  -7   4   75.89    2.71
   2   7   4   74.06    2.71
  -2   7  -4   73.46    2.69
  -3  -7  -4    5.16    0.32
   3  -7   4    5.55    0.30
   4  -7   4    0.09    0.22
   4  -7   4    0.24    0.12
   4  -7   4    0.02    0.16
   4   7   4    0.52    0.23
   4   7   4    0.11    0.19
   4   7   4    0.73    0.19
   5  -7   4    1.73    0.34
  -5  -7  -4    1.84    0.30
   5  -7   4    2.35    0.24
   5  -7   4    2.20    0.26
   5   7   4    1.94    0.39
   5   7   4    2.26    0.30
   5   7   4    2.12    0.31
   6  -7   4   -0.12    0.23
   6  -7   4   -0.06    0.14
   6  -7   4    0.02    0.16
  -6  -7  -4   -0.05    0.18
   6   7   4   -0.10    0.16
   7  -7   4    0.14    0.16
  -7  -7  -4    0.29    0.19
   7  -7   4    0.34    0.17
   7   7   4    0.45    0.17
   8  -7   4    3.80    0.31
  -8  -7  -4    3.50    0.31
  -8  -7  -4    3.54    0.29
   8   7   4    3.04    0.30
  -9  -7  -4    1.12    0.19
  -9  -7  -4    1.41    0.29
   9  -7   4    1.51    0.33
   9   7   4    1.72    0.28
 -10  -7  -4   -0.10    0.10
 -10  -8   4    0.04    0.12
  -9  -8   4    1.12    0.30
  -9  -8   4    1.57    0.20
   9  -8  -4    1.63    0.24
  -9   8   4    1.82    0.22
   8  -8  -4    4.35    0.32
  -8  -8   4    3.97    0.35
  -8  -8   4    4.84    0.37
  -8   8   4    4.27    0.32
  -7  -8   4    0.07    0.16
   7  -8  -4    0.07    0.14
  -7  -8   4    0.22    0.23
   7   8  -4   -0.23    0.22
  -7   8   4    0.34    0.17
   6  -8  -4    9.83    0.49
  -6  -8   4    9.55    0.50
  -6   8   4    8.88    0.51
  -5  -8   4    0.01    0.18
  -5  -8   4   -0.16    0.16
   5  -8  -4    0.04    0.14
  -5   8   4    0.10    0.20
   5   8  -4    0.33    0.26
  -4  -8   4    1.29    0.30
  -4  -8   4    1.69    0.27
   4  -8  -4    1.51    0.22
   4   8  -4    1.55    0.29
  -4   8   4    1.66    0.37
  -4   8   4    1.93    0.27
   3  -8  -4    4.03    0.33
   3  -8  -4    4.12    0.28
  -3  -8   4    3.73    0.29
   2  -8  -4    3.83    0.26
   2  -8  -4    3.30    0.29
  -2  -8   4    3.85    0.26
  -2  -8   4    3.56    0.28
   1  -8  -4    0.68    0.12
  -1  -8   4    0.92    0.18
  -1  -8   4    0.73    0.16
   0  -8  -4    0.07    0.07
   0  -8   4   -0.01    0.08
   0  -8   4    0.15    0.11
   0   8  -4    0.17    0.10
   1  -8   4   82.52    2.99
  -1  -8  -4   84.26    3.00
   1  -8   4   83.63    3.00
  -1   8  -4   77.22    2.99
   2  -8   4   26.98    1.14
   2  -8   4   31.86    1.16
  -2  -8  -4   32.18    1.16
  -2   8  -4   28.81    1.14
   3  -8   4    0.17    0.10
   3  -8   4    0.38    0.16
  -3  -8  -4    0.30    0.16
   3   8   4    0.19    0.19
   4  -8   4   22.06    0.87
   4  -8   4   20.02    0.89
   4  -8   4   21.55    0.86
   4   8   4   19.94    0.89
   4   8   4   20.74    0.89
   4   8   4   20.24    0.88
  -5  -8  -4   28.62    1.19
   5  -8   4   30.52    1.21
   5  -8   4   28.81    1.18
   5  -8   4   30.18    1.19
   5   8   4   30.13    1.21
   5   8   4   29.28    1.22
   5   8   4   29.84    1.19
   6  -8   4    9.22    0.54
   6  -8   4    9.54    0.48
   6  -8   4    8.82    0.47
  -6  -8  -4    8.84    0.50
   6   8   4    8.46    0.49
   7  -8   4    0.97    0.25
  -7  -8  -4    1.75    0.30
   7  -8   4    1.55    0.27
   7   8   4    0.89    0.20
   8  -8   4    0.20    0.16
  -8  -8  -4    0.27    0.14
  -8  -8  -4    0.15    0.14
   8   8   4    0.40    0.15
  -9  -8  -4   -0.03    0.10
   9  -8   4    0.15    0.21
   9   8   4   -0.30    0.17
  -9  -9   4    0.08    0.11
   9  -9  -4   -0.13    0.15
  -9   9   4    0.28    0.19
  -8  -9   4    0.19    0.13
   8  -9  -4    0.03    0.14
  -8   9   4    0.02    0.16
   7  -9  -4    5.70    0.37
  -7  -9   4    6.24    0.39
   7   9  -4    4.87    0.46
  -7   9   4    5.77    0.39
   6  -9  -4   12.91    0.59
  -6  -9   4   11.75    0.59
  -6   9   4   11.46    0.60
   6   9  -4   12.84    0.68
  -5  -9   4    6.96    0.52
  -5  -9   4    5.57    0.41
   5  -9  -4    5.94    0.37
  -5   9   4    5.91    0.42
  -5   9   4    5.59    0.46
   5   9  -4    5.16    0.45
   4  -9  -4    3.66    0.29
  -4  -9   4    3.59    0.35
  -4  -9   4    3.43    0.32
   4   9  -4    3.13    0.38
  -4   9   4    3.49    0.42
  -4   9   4    3.62    0.37
   3  -9  -4    4.97    0.32
  -3  -9   4    4.66    0.43
  -3  -9   4    4.84    0.33
  -3   9   4    4.42    0.38
   2  -9  -4   13.84    0.64
   2  -9  -4   15.01    0.67
  -2  -9   4   15.53    0.65
  -2  -9   4   16.32    0.70
  -1  -9   4   24.61    0.96
  -1  -9   4   23.84    0.97
   1  -9  -4   24.55    0.97
   0  -9   4    7.99    0.40
   0  -9  -4    7.71    0.39
   0  -9   4    7.72    0.38
   1  -9   4   16.62    0.69
   1  -9   4   16.71    0.68
  -1  -9  -4   15.86    0.69
  -2  -9  -4   20.08    0.87
   2  -9   4   20.53    0.84
   2  -9   4   20.22    0.86
   2  -9   4   20.72    0.84
   2   9   4   24.01    0.98
   2   9   4   20.36    0.89
   3  -9   4    6.52    0.42
   3  -9   4    6.58    0.35
   3  -9   4    6.16    0.37
   3   9   4    6.13    0.49
   3   9   4    6.26    0.42
   3   9   4    6.23    0.40
   4  -9   4    2.99    0.28
   4  -9   4    3.11    0.27
   4  -9   4    3.57    0.35
   4   9   4    3.22    0.29
   4   9   4    3.01    0.35
   4   9   4    3.14    0.38
   5  -9   4    0.24    0.14
  -5  -9  -4    0.19    0.15
   5  -9   4   -0.03    0.13
   5   9   4    0.14    0.16
   5   9   4    0.50    0.18
   5   9   4    0.24    0.26
   6  -9   4    2.07    0.27
   6  -9   4    2.45    0.26
   6  -9   4    1.72    0.36
  -6  -9  -4    1.95    0.30
   6   9   4    2.45    0.28
   7  -9   4    0.41    0.15
  -7  -9  -4    0.24    0.16
   7   9   4    0.32    0.16
   8  -9   4    5.27    0.35
  -8  -9  -4    5.27    0.33
  -8  -9  -4    4.86    0.32
   8   9   4    5.80    0.34
  -9  -9  -4    0.16    0.14
  -9  -9  -4    0.05    0.13
   9   9   4    0.14    0.18
   9 -10  -4   -0.07    0.15
  -9 -10   4   -0.04    0.09
   8 -10  -4    2.94    0.28
  -8 -10   4    3.25    0.26
  -8  10   4    3.41    0.32
   7 -10  -4    0.03    0.14
  -7 -10   4   -0.29    0.14
  -7  10   4    0.68    0.21
   6 -10  -4    0.10    0.14
  -6 -10   4    0.02    0.15
  -6  10   4    0.02    0.22
   6  10  -4   -0.11    0.24
  -5 -10   4   -0.04    0.15
   5 -10  -4   -0.04    0.14
  -5 -10   4    0.22    0.21
   5  10  -4   -0.18    0.20
  -5  10   4    0.09    0.26
  -5  10   4   -0.03    0.21
  -4 -10   4    4.46    0.37
  -4 -10   4    4.57    0.37
   4 -10  -4    4.46    0.33
  -4  10   4    3.89    0.47
  -4  10   4    4.53    0.38
   4  10  -4    4.60    0.39
  -3 -10   4    2.85    0.30
  -3 -10   4    2.87    0.40
   3 -10  -4    3.42    0.28
  -3  10   4    2.67    0.31
   2 -10  -4    4.70    0.36
  -2 -10   4    4.91    0.32
  -2 -10   4    5.02    0.35
  -2  10   4    5.31    0.35
  -1 -10   4    6.15    0.40
  -1  10   4    6.52    0.38
   0 -10   4    0.10    0.17
   0 -10   4    0.15    0.16
   0 -10   4   -0.18    0.16
   0  10   4   -0.01    0.17
   1 -10   4    3.46    0.26
   1 -10   4    3.80    0.33
   1 -10   4    2.76    0.32
   1 -10   4    3.72    0.35
   1  10   4    3.74    0.31
   1  10   4    4.54    0.46
   2 -10   4    1.81    0.21
   2 -10   4    1.80    0.29
   2 -10   4    1.82    0.26
   2  10   4    1.48    0.27
   2  10   4    1.53    0.32
   2  10   4    1.62    0.28
   3 -10   4    4.12    0.28
   3 -10   4    3.66    0.29
   3 -10   4    3.95    0.34
   3  10   4    3.66    0.33
   3  10   4    2.66    0.44
   3  10   4    3.80    0.34
   4 -10   4    0.17    0.14
   4 -10   4    0.26    0.20
   4 -10   4    0.42    0.15
   4  10   4    0.35    0.19
   4  10   4    0.19    0.23
   4  10   4    0.42    0.17
  -5 -10  -4   24.91    0.99
   5 -10   4   23.00    0.98
   5 -10   4   22.99    0.99
   5 -10   4   24.04    0.97
   5  10   4   23.14    1.00
   5  10   4   22.99    1.01
   6 -10   4    0.15    0.13
   6 -10   4    0.58    0.24
   6 -10   4    0.11    0.15
  -6 -10  -4    0.01    0.15
   6  10   4    0.19    0.16
   7 -10   4    6.56    0.40
  -7 -10  -4    7.08    0.41
  -7 -10  -4    6.58    0.48
   7  10   4    7.28    0.41
   8 -10   4    0.10    0.16
  -8 -10  -4    0.04    0.11
  -8 -10  -4    0.23    0.13
   8  10   4   -0.03    0.13
  -9 -10  -4    0.26    0.14
  -9 -10  -4    0.08    0.14
   9  10   4    0.17    0.27
  -9 -11   4   -0.05    0.13
   8 -11  -4    2.26    0.26
  -8 -11   4    2.64    0.23
   7 -11  -4    8.93    0.49
  -7 -11   4    9.63    0.48
  -7  11   4   10.05    0.53
   6 -11  -4    0.33    0.16
  -6 -11   4    0.25    0.17
  -6  11   4    0.67    0.25
  -6  11   4    0.34    0.29
   6  11  -4    0.46    0.23
  -5 -11   4    0.06    0.17
   5 -11  -4    0.47    0.16
  -5 -11   4    0.15    0.24
  -5  11   4    0.12    0.19
   5  11  -4    0.45    0.21
  -5  11   4    0.42    0.34
  -4 -11   4    8.10    0.50
   4 -11  -4    8.85    0.47
  -3 -11   4    1.29    0.22
   3 -11  -4    1.15    0.28
  -3 -11   4    1.55    0.26
  -3  11   4    1.57    0.26
   2 -11  -4    6.86    0.46
  -2 -11   4    7.47    0.41
  -2  11   4    8.13    0.42
  -1 -11   4    0.13    0.15
  -1 -11   4    0.45    0.17
  -1  11   4    0.34    0.17
   0 -11   4    0.18    0.16
   0 -11   4    0.57    0.15
   0  11   4    0.47    0.24
   0  11   4    0.25    0.15
   0  11   4    0.29    0.25
   1 -11   4    4.86    0.35
   1 -11   4    5.05    0.31
   1  11   4    5.08    0.42
   1  11   4    5.39    0.35
   1  11   4    5.13    0.38
   2 -11   4    0.30    0.15
   2 -11   4    0.13    0.12
   2 -11   4    0.42    0.18
   2  11   4    0.32    0.17
   2  11   4    0.21    0.16
   3 -11   4    1.22    0.27
   3 -11   4    1.18    0.24
   3 -11   4    0.95    0.22
   3  11   4    0.65    0.19
   3  11   4    1.04    0.27
   3  11   4    1.21    0.28
   4 -11   4    2.60    0.33
   4 -11   4    3.02    0.28
   4 -11   4    3.31    0.28
   4  11   4    2.31    0.29
   4  11   4    2.78    0.49
   4  11   4    2.03    0.36
  -5 -11  -4    3.82    0.33
   5 -11   4    4.43    0.31
   5 -11   4    3.86    0.38
   5  11   4    4.24    0.44
   5  11   4    3.82    0.33
   6 -11   4    0.31    0.15
  -6 -11  -4    0.60    0.17
   6 -11   4    0.84    0.24
   6  11   4    0.46    0.17
   7 -11   4    1.97    0.26
  -7 -11  -4    1.45    0.26
  -7 -11  -4    1.87    0.24
   7  11   4    1.50    0.23
   8 -11   4    2.02    0.25
  -8 -11  -4    1.26    0.20
  -8 -11  -4    1.34    0.23
   8  11   4    1.64    0.20
  -9 -11  -4    0.90    0.21
  -9 -12   4   -0.04    0.09
   8 -12  -4    1.57    0.25
  -8 -12   4    1.52    0.19
  -7 -12   4   17.00    0.70
   7 -12  -4   15.35    0.71
   6 -12  -4    1.21    0.28
  -6 -12   4    1.22    0.26
   6  12  -4    1.66    0.33
  -6  12   4    1.26    0.23
   5 -12  -4   12.77    0.62
  -5 -12   4   10.76    0.84
  -5 -12   4   13.83    0.62
  -5  12   4   13.88    0.62
   5  12  -4   12.19    0.63
   4 -12  -4   34.24    1.27
  -4 -12   4   32.56    1.29
  -4 -12   4   29.82    1.26
  -4  12   4   30.05    1.25
   4  12  -4   31.33    1.28
  -3 -12   4   -0.04    0.20
  -3 -12   4    0.34    0.23
   3 -12  -4    0.15    0.21
  -2 -12   4   31.08    1.20
  -2  12   4   29.04    1.19
  -1 -12   4   10.59    0.51
  -1 -12   4   10.18    0.50
   1  12  -4    9.47    0.56
  -1  12   4   10.59    0.50
  -1  12   4    9.15    0.64
   0 -12   4    4.26    0.31
   0 -12   4    3.97    0.31
   0  12   4    3.57    0.29
   0  12   4    3.63    0.37
   0  12   4    4.08    0.44
   1 -12   4   13.65    0.63
   1 -12   4   13.89    0.61
   1  12   4   13.02    0.64
   1  12   4   13.40    0.61
   1  12   4   13.44    0.65
   2 -12   4   16.48    0.74
   2 -12   4   16.33    0.72
   2  12   4   16.43    0.74
   2  12   4   16.40    0.72
   3 -12   4    2.82    0.31
   3 -12   4    2.99    0.27
   3  12   4    2.97    0.30
   4 -12   4   27.35    1.10
   4 -12   4   28.28    1.09
   4  12   4   25.85    1.10
   4  12   4   26.30    1.08
   4  12   4   24.33    1.10
   5 -12   4    4.70    0.38
  -5 -12  -4    4.52    0.34
   5 -12   4    4.02    0.33
   5  12   4    4.19    0.34
   5  12   4    4.07    0.44
   6 -12   4    0.00    0.14
  -6 -12  -4    0.13    0.15
   6  12   4    0.05    0.13
   7 -12   4    3.71    0.29
  -7 -12  -4    3.80    0.32
  -7 -12  -4    3.76    0.28
   7  12   4    3.26    0.28
  -8 -12  -4    0.39    0.11
   8 -12   4    0.69    0.16
  -8  12  -4    0.58    0.14
   8  12   4    0.93    0.17
   8 -13  -4    4.83    0.37
  -8 -13   4    4.41    0.26
  -7 -13   4    3.86    0.28
   7 -13  -4    4.23    0.51
   7  13  -4    4.45    0.40
   6 -13  -4    0.65    0.18
  -6 -13   4    1.05    0.25
  -6  13   4    0.62    0.18
   6  13  -4    0.54    0.31
  -5 -13   4    1.67    0.29
   5 -13  -4    1.04    0.22
  -5  13   4    1.14    0.20
   5  13  -4    1.61    0.29
  -4 -13   4    1.92    0.31
   4 -13  -4    2.50    0.33
  -4 -13   4    1.76    0.40
  -4  13   4    1.43    0.25
   4  13  -4    2.09    0.29
   3 -13  -4    7.70    0.48
  -3 -13   4    6.54    0.49
  -3 -13   4    7.37    0.48
  -3  13   4    7.61    0.42
  -2 -13   4   11.20    0.56
  -2  13   4   11.16    0.54
  -1 -13   4   69.83    2.90
  -1 -13   4   79.06    2.81
  -1  13   4   77.83    2.82
   1  13  -4   77.69    2.81
  -1  13   4   71.11    2.87
   0 -13   4    3.16    0.30
   0 -13   4    2.58    0.29
   0  13   4    3.09    0.34
   0  13   4    3.10    0.42
   0  13   4    3.27    0.29
   1 -13   4    0.87    0.24
   1 -13   4    0.97    0.24
   1  13   4    0.79    0.21
   1  13   4    0.62    0.19
   2 -13   4   15.93    0.72
   2 -13   4   15.44    0.70
   2  13   4   15.92    0.72
   2  13   4   15.78    0.70
   3 -13   4    1.14    0.26
   3 -13   4    1.37    0.25
   3  13   4    0.70    0.18
   3  13   4    0.68    0.18
   4 -13   4    0.01    0.18
   4 -13   4    0.22    0.15
  -4 -13  -4    0.06    0.15
   4  13   4    0.10    0.17
   4  13   4    0.16    0.16
  -5 -13  -4    5.05    0.36
   5 -13   4    4.94    0.39
   5 -13   4    4.62    0.34
   5  13   4    5.23    0.36
   5  13   4    5.88    0.52
   6 -13   4    7.85    0.43
  -6 -13  -4    7.06    0.45
   6  13   4    7.39    0.41
   7 -13   4    0.27    0.15
  -7 -13  -4    0.15    0.11
   7  13   4    0.33    0.12
  -8  13  -4    2.13    0.32
   8  13   4    1.89    0.19
  -8 -14   4    0.05    0.09
   7 -14  -4    0.25    0.22
  -7 -14   4    0.24    0.12
   6 -14  -4    2.31    0.31
  -6 -14   4    2.70    0.26
   6  14  -4    2.00    0.28
  -6  14   4    2.00    0.27
   5 -14  -4    3.62    0.36
  -5 -14   4    3.99    0.33
  -5  14   4    3.39    0.30
   5  14  -4    4.27    0.33
   4 -14  -4    4.88    0.43
  -4 -14   4    4.36    0.39
  -4  14   4    4.82    0.34
   4  14  -4    5.03    0.36
  -3 -14   4    3.54    0.42
  -3 -14   4    3.74    0.43
  -3  14   4    3.73    0.31
  -2 -14   4   -0.17    0.20
  -2  14   4    0.22    0.16
  -1 -14   4    3.00    0.33
  -1  14   4    3.64    0.40
  -1  14   4    3.22    0.28
   1  14  -4    2.47    0.34
   0 -14   4   11.57    0.57
   0 -14   4   12.11    0.58
   0  14   4   11.05    0.59
   0  14  -4   11.98    0.57
   0  14   4   11.89    0.56
   1 -14   4   27.26    1.06
   1 -14   4   25.61    1.06
   1  14   4   25.03    1.06
   1  14   4   25.02    1.05
   2 -14   4    6.63    0.40
   2 -14   4    6.29    0.40
   2  14   4    6.22    0.41
   2  14   4    6.08    0.39
   3 -14   4   15.85    0.74
   3 -14   4   16.78    0.74
   3  14   4   16.40    0.74
   3  14   4   16.51    0.73
  -4 -14  -4    0.11    0.15
   4 -14   4    1.13    0.28
   4 -14   4    0.37    0.17
   4  14   4    0.54    0.17
   4  14   4    0.85    0.19
   5 -14   4    0.04    0.15
   5 -14   4    0.10    0.22
  -5 -14  -4    0.07    0.14
   5  14   4   -0.21    0.14
   6 -14   4    1.44    0.23
  -6 -14  -4    1.09    0.21
   6  14   4    1.46    0.20
   7 -14   4    0.45    0.16
  -7 -14  -4    0.45    0.11
   7  14   4    0.35    0.12
  -7  14  -4    0.12    0.10
  -8 -14  -4    2.01    0.17
   8  14   4    1.50    0.19
  -7 -15   4    4.25    0.26
   6 -15  -4    0.53    0.26
  -6 -15   4    0.17    0.13
   6  15  -4    0.06    0.15
  -6  15   4    0.17    0.14
   5 -15  -4    0.21    0.25
  -5 -15   4    0.07    0.17
  -5  15   4    0.29    0.14
   5  15  -4    0.33    0.16
  -4 -15   4    4.28    0.41
   4  15  -4    4.67    0.35
  -4  15   4    4.64    0.32
   3  15  -4    1.41    0.26
  -3  15   4    1.33    0.25
  -2 -15   4   15.64    0.87
  -2  15   4   17.57    0.74
  -1 -15   4    1.39    0.32
   1  15  -4    1.84    0.32
  -1  15   4    1.50    0.24
  -1  15   4    1.71    0.36
   0 -15   4    0.11    0.18
   0  15   4    0.29    0.20
   0  15   4   -0.11    0.14
   0  15  -4    0.04    0.18
   1 -15   4    1.71    0.26
   1  15   4    2.53    0.29
   1  15   4    1.54    0.24
  -1  15  -4    1.95    0.26
   2 -15   4   22.93    1.01
   2 -15   4   25.55    1.02
   2  15   4   24.84    1.00
   2  15   4   23.93    1.02
   3 -15   4    0.65    0.18
  -3 -15  -4    0.47    0.17
   3 -15   4    0.45    0.16
   3  15   4    0.13    0.17
   3  15   4    0.05    0.17
   4 -15   4    1.22    0.27
  -4 -15  -4    1.05    0.24
   4 -15   4    1.28    0.25
   4  15   4    0.67    0.19
   4  15   4    1.53    0.24
   5 -15   4    2.15    0.30
  -5 -15  -4    1.92    0.24
   5 -15   4    1.76    0.25
   5  15   4    1.70    0.22
   6 -15   4    3.15    0.29
  -6 -15  -4    3.72    0.26
  -6  15  -4    4.03    0.25
   6  15   4    3.43    0.25
   7 -15   4   -0.02    0.18
  -7 -15  -4    0.18    0.09
  -7  15  -4    0.11    0.10
   7  15   4    0.10    0.09
  -7 -16   4    1.51    0.20
  -6 -16   4    0.15    0.14
  -6  16   4    0.23    0.18
   6  16  -4    0.28    0.14
  -5 -16   4    0.20    0.16
   5  16  -4    0.07    0.13
  -5  16   4    0.06    0.12
  -4 -16   4    0.17    0.21
  -4  16   4    0.14    0.15
   3  16  -4    8.66    0.48
  -3  16   4    9.27    0.46
  -2 -16   4   18.04    0.85
  -2  16   4   18.58    0.79
  -1 -16   4    1.74    0.34
  -1  16   4    1.27    0.23
  -1  16   4    2.04    0.37
   1  16  -4    1.69    0.25
   0 -16   4    0.12    0.19
   0  16  -4    0.24    0.16
   0  16   4   -0.15    0.19
   0  16   4    0.18    0.15
   1 -16   4   29.54    1.23
   1  16   4   30.23    1.22
   1  16   4   31.45    1.24
  -1  16  -4   31.07    1.22
  -2 -16  -4    8.08    0.44
   2 -16   4    6.41    0.43
   2 -16   4    6.95    0.42
   2  16   4    7.15    0.41
   2  16   4    7.13    0.42
  -2  16  -4    6.88    0.41
  -3 -16  -4    0.67    0.17
   3 -16   4    0.19    0.17
   3 -16   4    0.30    0.16
  -3  16  -4    0.63    0.15
   3  16   4    0.60    0.17
   3  16   4    0.22    0.16
   4 -16   4    1.47    0.25
  -4 -16  -4    1.35    0.25
   4  16   4    1.84    0.28
   4  16   4    1.73    0.21
  -4  16  -4    1.80    0.21
  -5 -16  -4    0.01    0.12
   5 -16   4   -0.06    0.19
  -5  16  -4    0.15    0.10
   5  16   4    0.11    0.11
  -6 -16  -4    3.66    0.24
   6 -16   4    3.57    0.29
   6  16   4    3.77    0.25
  -6  16  -4    3.28    0.22
  -7 -16  -4    2.34    0.18
   7  16   4    2.16    0.17
  -7  16  -4    1.94    0.18
  -6 -17   4    0.64    0.17
   6  17  -4    0.13    0.13
  -6  17   4    0.54    0.16
   5  17  -4   -0.01    0.12
  -5  17   4   -0.09    0.11
   4  17  -4    2.66    0.25
  -4  17   4    2.59    0.23
   3  17  -4    2.62    0.27
  -3  17   4    2.62    0.23
  -2  17   4   -0.14    0.12
   2  17  -4    0.11    0.13
  -1 -17   4    0.16    0.27
   1  17  -4    0.46    0.18
  -1  17   4    0.23    0.13
   0 -17   4    0.77    0.21
   0  17   4    0.59    0.14
   0  17  -4    0.32    0.16
   0  17   4    0.48    0.20
   1 -17   4    0.88    0.21
  -1  17  -4    0.99    0.23
   1  17   4    0.44    0.18
   1  17   4    1.11    0.21
   2 -17   4    5.97    0.42
  -2 -17  -4    6.73    0.41
   2  17   4    7.01    0.47
  -2  17  -4    7.17    0.39
   2  17   4    7.02    0.38
   3 -17   4    5.99    0.39
  -3 -17  -4    5.61    0.37
   3  17   4    6.32    0.36
   3  17   4    5.90    0.36
  -3  17  -4    5.37    0.33
  -4 -17  -4    1.49    0.23
   4  17   4    1.04    0.21
   4  17   4    1.47    0.20
  -4  17  -4    1.69    0.20
   5 -17   4   -0.13    0.15
  -5 -17  -4   -0.07    0.11
   5  17   4   -0.12    0.09
  -5  17  -4   -0.06    0.09
  -6 -17  -4    0.19    0.09
  -6  17  -4    0.01    0.08
   6  17   4    0.16    0.11
  -5  18   4   -0.08    0.12
   5  18  -4    0.10    0.11
   4  18  -4    4.11    0.27
  -4  18   4    4.21    0.25
   3  18  -4    0.09    0.11
  -3  18   4    0.05    0.11
   2  18  -4    3.37    0.27
  -2  18   4    3.52    0.26
   1  18  -4    0.78    0.19
   0 -18   4    0.73    0.32
   0  18  -4    1.15    0.23
   0  18   4    0.85    0.19
   0  18   4    1.21    0.18
   1 -18   4    0.19    0.23
   1  18   4    0.36    0.13
  -1  18  -4    0.36    0.13
   1  18   4    0.38    0.15
  -2 -18  -4   15.80    0.69
   2 -18   4   15.58    0.72
   2  18   4   15.79    0.69
  -2  18  -4   15.47    0.67
   2  18   4   16.62    0.68
   3 -18   4    0.51    0.19
  -3 -18  -4   -0.20    0.14
  -3  18  -4    0.16    0.10
   3  18   4    0.16    0.12
   3  18   4    0.07    0.12
   4 -18   4    0.29    0.18
  -4 -18  -4    0.29    0.13
   4  18   4    0.03    0.10
  -4  18  -4    0.21    0.09
  -5 -18  -4    3.71    0.24
  -5  18  -4    3.52    0.21
   5  18   4    3.46    0.22
  -5  19   4    0.08    0.11
   5  19  -4    0.05    0.10
  -4  19   4    0.38    0.09
   4  19  -4    0.61    0.14
   3  19  -4   -0.16    0.09
  -3  19   4    0.22    0.09
   2  19  -4    3.26    0.24
  -2  19   4    3.68    0.23
   1  19  -4    4.72    0.29
  -1  19   4    4.41    0.27
   0  19   4    3.78    0.25
   0  19  -4    3.65    0.27
   0  19  -4    3.57    0.27
   0  19   4    4.03    0.32
   1  19   4    0.63    0.16
   1  19   4    0.62    0.12
  -1  19  -4    0.58    0.13
   2 -19   4    1.02    0.30
   2  19   4    1.07    0.18
   2  19   4    0.91    0.19
  -2  19  -4    0.87    0.18
  -3 -19  -4    5.78    0.37
   3 -19   4    5.83    0.48
   3  19   4    6.19    0.32
  -3  19  -4    5.98    0.31
   3  19   4    6.02    0.40
  -4 -19  -4    0.24    0.16
   4  19   4    0.16    0.09
  -4  19  -4    0.16    0.09
  -5  19  -4    1.41    0.13
   5  19   4    1.28    0.15
  -4  20   4    0.24    0.09
   4  20  -4    0.32    0.10
   3  20  -4    2.28    0.19
  -3  20   4    3.09    0.19
  -2  20   4   -0.11    0.08
   2  20  -4    0.05    0.09
   1  20  -4    0.09    0.10
  -1  20   4   -0.07    0.08
   0  20  -4    0.91    0.27
   0  20   4    0.71    0.15
   0  20  -4    0.76    0.16
  -1  20  -4    0.91    0.16
   1  20   4    0.47    0.11
  -1  20  -4    0.71    0.16
   1  20   4    0.95    0.16
  -2  20  -4    1.55    0.17
  -2  20  -4    1.63    0.20
   2  20   4    1.76    0.19
   2  20   4    2.28    0.20
  -3  20  -4    1.29    0.14
   3  20   4    1.25    0.16
  -4  20  -4    3.94    0.21
   4  20   4    3.72    0.22
  -3  21   4    0.04    0.08
   3  21  -4    0.15    0.09
   2  21  -4    1.81    0.15
  -2  21   4    1.55    0.14
  -1  21   4    0.00    0.08
   1  21  -4   -0.07    0.09
   0  21  -4    0.66    0.15
   0  21   4    0.63    0.12
  -1  21  -4    0.70    0.14
  -1  21  -4    1.10    0.17
   1  21   4    0.88    0.14
  -2  21  -4    0.72    0.15
 -10   0   5   -0.12    0.08
  10   0  -5    0.01    0.18
  -9   0   5   -0.11    0.18
  -9   0   5   -0.21    0.11
   9   0  -5   -0.15    0.15
  -8   0   5   -0.03    0.18
   8   0  -5    0.14    0.16
  -8   0   5    0.37    0.15
   7   0  -5    0.03    0.15
  -7   0   5   -0.31    0.18
  -7   0   5    0.29    0.15
  -6   0   5    0.14    0.16
   6   0  -5    0.19    0.13
  -6   0   5    0.23    0.21
   5   0  -5    0.13    0.16
  -5   0   5    0.09    0.17
  -5   0   5    0.09    0.25
   4   0  -5    0.15    0.13
   4   0  -5   -0.01    0.08
  -3   0   5   -0.25    0.11
   3   0  -5    0.05    0.07
   3   0  -5   -0.08    0.04
   2   0  -5   -0.03    0.04
   2   0  -5   -0.03    0.04
   1   0  -5    0.03    0.03
   1   0  -5    0.01    0.03
   0   0  -5    0.02    0.02
   0   0  -5    0.08    0.03
  -1   0  -5    0.04    0.02
  -1   0  -5   -0.01    0.03
  -2   0  -5   -0.01    0.02
  -2   0  -5   -0.02    0.02
   4   0   5    0.04    0.18
   5   0   5   -0.29    0.18
   5   0   5   -0.33    0.18
   5   0   5    0.14    0.20
   6   0   5    0.39    0.21
   6   0   5   -0.25    0.18
   7   0   5    0.27    0.23
   7   0   5   -0.02    0.20
   8   0   5   -0.11    0.20
  -8   0  -5    0.17    0.15
  -9   0  -5   -0.08    0.11
 -10   0  -5   -0.09    0.09
  10  -1  -5    4.88    0.34
 -10  -1   5    5.22    0.28
  10   1  -5    4.70    0.38
 -10   1   5    4.97    0.28
  -9  -1   5    0.95    0.19
  -9  -1   5    1.11    0.20
   9  -1  -5    0.99    0.24
  -9   1   5    1.21    0.20
  -9   1   5    1.14    0.25
   9   1  -5    1.27    0.26
  -8  -1   5   15.53    0.68
   8  -1  -5   14.15    0.68
  -8  -1   5   16.26    0.70
  -8   1   5   14.79    0.72
  -8   1   5   14.60    0.67
   8   1  -5   14.83    0.69
  -7  -1   5    0.45    0.16
   7  -1  -5    0.40    0.16
  -7  -1   5    0.38    0.20
  -7   1   5    0.43    0.22
   7   1  -5    0.26    0.16
  -7   1   5    0.59    0.17
   6  -1  -5    1.71    0.22
  -6  -1   5    1.31    0.32
  -6  -1   5    2.45    0.28
  -6   1   5    2.57    0.35
  -6   1   5    1.74    0.26
  -5  -1   5    2.25    0.33
   5  -1  -5    2.10    0.30
  -5  -1   5    1.71    0.29
  -5   1   5    1.61    0.27
   5   1  -5    1.78    0.32
   4  -1  -5   45.33    1.58
  -4  -1   5   44.04    1.59
   4  -1  -5   36.02    1.58
   4   1  -5   42.16    1.57
   3  -1  -5    8.25    0.37
   3  -1  -5    9.16    0.39
  -3  -1   5    8.88    0.42
   3   1  -5    8.96    0.39
  -3   1   5    8.51    0.41
   2  -1  -5   46.20    1.65
   2  -1  -5   43.80    1.65
   2   1  -5   44.56    1.65
   1  -1  -5   31.02    1.18
   1   1  -5   33.04    1.18
   0  -1  -5   12.18    0.48
   0   1  -5   12.78    0.48
  -1  -1  -5  119.92    4.24
  -1   1  -5  119.59    4.24
  -1   1  -5  114.77    4.23
  -2  -1  -5   11.96    0.46
  -2   1  -5   12.90    0.45
   4  -1   5    0.46    0.16
   5  -1   5   17.21    0.78
   5  -1   5   17.24    0.74
   5  -1   5   18.01    0.78
   5   1   5   18.34    0.77
   5   1   5   16.79    0.77
   5   1   5   18.17    0.78
   6  -1   5    0.45    0.21
   6  -1   5    1.31    0.29
   6   1   5    0.68    0.21
   6   1   5    0.75    0.23
   7  -1   5    3.91    0.40
   7  -1   5    3.94    0.37
  -7   1  -5    3.70    0.33
   7   1   5    3.61    0.36
   7   1   5    4.05    0.42
  -8  -1  -5    2.68    0.28
   8  -1   5    3.20    0.36
  -8   1  -5    3.49    0.30
   8   1   5    3.67    0.35
  -9  -1  -5   -0.13    0.11
  -9   1  -5   -0.14    0.12
 -10  -1  -5    0.58    0.13
 -10   1  -5    0.49    0.12
 -10  -2   5   -0.16    0.19
 -10  -2   5    0.05    0.09
  10  -2  -5    0.10    0.16
  10   2  -5   -0.15    0.23
 -10   2   5    0.00    0.09
  -9  -2   5    0.41    0.16
  -9  -2   5    0.50    0.14
   9  -2  -5    0.23    0.15
   9   2  -5    0.64    0.18
  -9   2   5    0.20    0.13
  -8  -2   5    0.26    0.14
   8  -2  -5    0.35    0.16
  -8  -2   5    0.51    0.19
  -8   2   5    0.31    0.14
  -8   2   5   -0.28    0.23
   8   2  -5    0.22    0.17
  -7  -2   5    1.92    0.30
  -7  -2   5    1.49    0.26
   7  -2  -5    1.47    0.26
  -7   2   5    1.77    0.25
   7   2  -5    1.59    0.26
  -7   2   5    2.02    0.37
   6  -2  -5    0.99    0.17
  -6  -2   5    1.23    0.26
  -6  -2   5    0.71    0.20
  -6   2   5    0.79    0.18
  -6   2   5    1.55    0.37
   5  -2  -5    8.74    0.51
  -5  -2   5    8.87    0.49
  -5  -2   5    8.65    0.49
   5  -2  -5    9.85    0.45
  -5   2   5    9.25    0.47
   5   2  -5    9.03    0.52
   4  -2  -5    4.23    0.26
  -4  -2   5    3.89    0.27
   3  -2  -5    3.19    0.19
  -3  -2   5    3.35    0.25
   3  -2  -5    3.39    0.21
   3   2  -5    3.38    0.22
   2  -2  -5   68.01    2.57
   2   2  -5   73.72    2.58
   1  -2  -5   29.35    1.08
   1   2  -5   28.80    1.08
   0  -2  -5  147.84    5.41
   0   2  -5  155.36    5.41
   0   2   5  149.21    5.42
  -1  -2  -5    0.01    0.03
   1   2   5    0.05    0.03
  -1   2  -5    0.01    0.03
  -2  -2  -5    6.69    0.27
   2   2   5    6.70    0.27
  -3  -2  -5   20.84    0.75
   3  -2   5   20.05    0.81
   4  -2   5   44.62    1.67
   5  -2   5    1.27    0.29
   5  -2   5    0.87    0.24
   5  -2   5    1.04    0.24
   5   2   5    1.28    0.22
   5   2   5    1.18    0.24
   5   2   5    1.43    0.29
   6  -2   5    0.54    0.19
   6  -2   5    0.71    0.21
   6  -2   5    0.68    0.21
   6   2   5    0.39    0.17
   6   2   5    0.54    0.24
   7  -2   5   26.83    1.11
   7  -2   5   26.51    1.11
   7  -2   5   27.82    1.11
  -7   2  -5   26.78    1.10
   7   2   5   26.57    1.13
   7   2   5   27.11    1.11
  -8  -2  -5    0.27    0.14
   8  -2   5    0.41    0.21
   8   2   5    0.71    0.20
  -8   2  -5   -0.22    0.14
  -9  -2  -5    0.47    0.12
  -9   2  -5    0.33    0.12
   9   2   5    0.69    0.22
 -10  -2  -5    0.80    0.14
 -10   2  -5    0.72    0.16
 -10  -3   5    0.17    0.10
 -10  -3   5   -0.13    0.17
  10  -3  -5    0.06    0.16
 -10   3   5   -0.04    0.09
  -9  -3   5    0.37    0.15
   9  -3  -5    0.40    0.15
  -9  -3   5    0.68    0.14
   9   3  -5    0.70    0.20
  -9   3   5    0.55    0.13
  -8  -3   5    2.86    0.31
  -8  -3   5    2.70    0.27
   8  -3  -5    2.25    0.27
   8   3  -5    2.27    0.31
  -8   3   5    2.00    0.31
  -8   3   5    2.41    0.27
  -7  -3   5    1.59    0.27
   7  -3  -5    1.53    0.25
  -7  -3   5    1.67    0.32
   7   3  -5    2.17    0.29
  -7   3   5    1.78    0.40
  -7   3   5    2.11    0.26
  -6  -3   5    6.51    0.42
  -6  -3   5    6.74    0.42
   6  -3  -5    7.49    0.40
  -6   3   5    6.76    0.40
  -6   3   5    6.41    0.50
  -5  -3   5    7.05    0.45
   5  -3  -5    7.87    0.49
   5  -3  -5    8.88    0.41
  -5  -3   5    8.44    0.48
  -5  -3   5    7.60    0.41
  -5   3   5    7.51    0.43
   4  -3  -5    5.29    0.30
  -4  -3   5    5.50    0.31
   3  -3  -5    5.66    0.26
  -3  -3   5    5.17    0.29
   3   3  -5    4.94    0.28
   2  -3  -5    5.39    0.25
  -2  -3   5    5.40    0.30
  -2  -3   5    5.41    0.25
   2   3  -5    5.31    0.26
  -1  -3   5   29.63    1.11
   1  -3  -5   28.79    1.10
   1   3  -5   30.48    1.11
  -1   3   5   30.19    1.11
   0  -3  -5    0.05    0.04
   0  -3   5    0.00    0.03
   0   3   5   -0.04    0.03
   0   3  -5    0.03    0.04
  -1  -3  -5   66.22    2.41
  -1   3  -5   66.58    2.40
   1   3   5   66.85    2.43
  -2  -3  -5    3.00    0.15
  -2   3  -5    2.90    0.12
  -2   3  -5    3.02    0.12
   2   3   5    2.88    0.15
  -3  -3  -5   17.37    0.65
   3  -3   5   17.38    0.70
   3   3   5   17.31    0.65
   4  -3   5    3.04    0.25
   5  -3   5    4.68    0.31
   5  -3   5    4.38    0.36
  -5  -3  -5    3.97    0.46
   5  -3   5    4.40    0.38
   5   3   5    4.48    0.36
   5   3   5    4.80    0.35
   5   3   5    4.90    0.39
   6  -3   5    3.86    0.32
   6  -3   5    3.50    0.36
  -6  -3  -5    3.92    0.46
   6  -3   5    3.51    0.35
   6   3   5    4.31    0.34
   6   3   5    3.48    0.41
   7  -3   5    5.96    0.44
  -7  -3  -5    5.13    0.51
   7  -3   5    5.84    0.42
   7   3   5    6.93    0.43
  -7   3  -5    5.70    0.40
  -8  -3  -5    3.07    0.29
   8  -3   5    3.32    0.37
   8  -3   5    3.31    0.37
   8  -3   5    2.86    0.38
   8   3   5    3.49    0.33
  -8   3  -5    2.83    0.30
  -9  -3  -5    5.99    0.33
   9   3   5    5.81    0.40
  -9   3  -5    6.19    0.33
 -10  -3  -5    1.47    0.18
 -10   3  -5    1.98    0.21
 -10  -4   5    1.27    0.23
 -10  -4   5    1.42    0.18
  10  -4  -5    1.26    0.25
 -10   4   5    1.47    0.16
   9  -4  -5    0.38    0.15
  -9  -4   5    0.25    0.14
  -9  -4   5    0.17    0.13
  -9   4   5    0.29    0.12
   9   4  -5    0.60    0.21
   8  -4  -5    0.34    0.15
  -8  -4   5    0.71    0.17
  -8  -4   5    0.40    0.17
   8   4  -5    0.58    0.19
  -8   4   5    0.52    0.15
   7  -4  -5    1.34    0.24
  -7  -4   5    0.93    0.19
  -7  -4   5    1.32    0.27
  -7   4   5    1.07    0.31
  -7   4   5    1.18    0.25
   6  -4  -5    0.21    0.14
  -6  -4   5    0.32    0.20
  -6  -4   5    0.35    0.18
  -6   4   5    0.35    0.28
  -6   4   5    0.18    0.14
  -5  -4   5   24.00    1.00
  -5  -4   5   23.83    1.01
  -5  -4   5   23.90    1.02
   5  -4  -5   24.48    0.99
  -5   4   5   27.62    1.13
  -5   4   5   25.68    1.01
   4  -4  -5   22.97    0.91
   4  -4  -5   22.35    0.90
  -4  -4   5   23.01    0.92
  -3  -4   5   60.43    2.30
  -3  -4   5   64.93    2.30
   3  -4  -5   61.23    2.29
   3  -4  -5   65.10    2.29
   3   4  -5   60.03    2.30
  -2  -4   5    2.56    0.16
   2  -4  -5    2.62    0.16
  -2  -4   5    2.65    0.20
  -2   4   5    2.63    0.17
   2   4  -5    2.59    0.18
   1  -4  -5    8.72    0.38
  -1  -4   5    8.71    0.38
  -1   4   5    9.21    0.38
   1   4  -5   10.38    0.39
   0  -4   5   15.40    0.59
   0  -4  -5   16.22    0.60
   0   4   5   15.08    0.60
   0   4  -5   15.45    0.60
  -1  -4  -5    2.71    0.15
   1  -4   5    2.74    0.14
  -1   4  -5    2.63    0.14
   1   4   5    2.99    0.16
   2  -4   5  166.44    5.91
  -2  -4  -5  153.04    5.89
  -2   4  -5  166.90    5.87
   2   4   5  169.37    5.89
  -3  -4  -5   20.60    0.79
   3  -4   5   20.89    0.83
   3   4   5   21.34    0.80
   4  -4   5    9.52    0.47
   4   4   5   10.10    0.61
   4   4   5   11.05    0.62
   5  -4   5    1.15    0.29
   5  -4   5    1.07    0.20
   5  -4   5    1.18    0.22
   5   4   5    1.08    0.21
   5   4   5    1.64    0.34
   5   4   5    1.60    0.23
   6  -4   5    5.32    0.41
   6  -4   5    5.69    0.37
  -6  -4  -5    5.06    0.45
   6  -4   5    5.14    0.41
  -6   4  -5    5.52    0.41
   6   4   5    4.71    0.44
   6   4   5    5.35    0.38
  -7  -4  -5   12.58    0.69
   7  -4   5   14.36    0.65
   7  -4   5   13.88    0.66
   7  -4   5   13.40    0.64
   7   4   5   13.83    0.66
  -7   4  -5   14.04    0.64
   8  -4   5    0.89    0.22
  -8  -4  -5    1.18    0.24
   8   4   5    1.43    0.27
  -8   4  -5    1.12    0.26
  -9  -4  -5    2.44    0.22
  -9   4  -5    2.66    0.25
   9   4   5    2.73    0.31
 -10  -4  -5    1.15    0.14
 -10  -5   5    1.93    0.21
  10  -5  -5    2.72    0.28
 -10  -5   5    2.14    0.22
 -10   5   5    2.37    0.19
   9  -5  -5    3.04    0.28
  -9  -5   5    3.41    0.26
  -9  -5   5    2.80    0.26
   9   5  -5    3.65    0.37
  -9   5   5    3.48    0.25
  -8  -5   5    3.67    0.32
  -8  -5   5    3.85    0.31
   8  -5  -5    3.30    0.29
   8   5  -5    3.66    0.34
  -8   5   5    3.09    0.30
  -7  -5   5    0.10    0.16
   7  -5  -5    0.42    0.15
  -7  -5   5   -0.17    0.17
  -7   5   5    0.23    0.15
  -6  -5   5    0.27    0.26
  -6  -5   5    0.67    0.20
   6  -5  -5    0.27    0.14
  -6   5   5    0.52    0.18
  -6   5   5    0.80    0.30
  -5  -5   5   27.33    1.12
   5  -5  -5   28.19    1.11
  -5  -5   5   29.37    1.12
  -5  -5   5   28.25    1.14
  -5   5   5   28.65    1.12
  -5   5   5   24.90    1.17
   4  -5  -5   32.08    1.24
  -4  -5   5   31.69    1.25
   4  -5  -5   32.65    1.25
  -3  -5   5   16.77    0.72
   3  -5  -5   17.70    0.71
   3  -5  -5   17.71    0.71
  -3  -5   5   18.01    0.72
  -2  -5   5   48.18    1.81
  -2  -5   5   48.56    1.82
   2  -5  -5   50.23    1.81
  -2   5   5   47.92    1.81
   2   5  -5   49.65    1.82
  -1  -5   5   34.02    1.23
   1  -5  -5   34.49    1.24
  -1  -5   5   31.70    1.25
   1   5  -5   32.03    1.23
  -1   5   5   32.90    1.24
   0  -5   5   11.36    0.44
   0  -5  -5   10.86    0.44
   0  -5   5   10.16    0.47
   0   5  -5   11.03    0.44
   0   5   5   10.65    0.44
  -1  -5  -5   47.13    1.69
   1  -5   5   45.49    1.67
   1  -5   5   44.74    1.70
   1   5   5   46.12    1.69
   2  -5   5   53.87    1.97
   2  -5   5   53.51    2.01
  -2  -5  -5   51.26    1.99
   2   5   5   57.96    2.00
  -2   5  -5   55.73    1.97
  -3  -5  -5   23.56    0.91
   3  -5   5   24.36    0.94
   3   5   5   23.92    0.92
   4  -5   5    8.70    0.46
   4  -5   5    8.39    0.49
   4  -5   5    9.17    0.43
   4   5   5    9.29    0.48
   4   5   5    9.11    0.48
   5  -5   5    9.57    0.50
   5  -5   5    8.90    0.48
   5  -5   5    9.44    0.46
  -5   5  -5    7.39    0.57
   5   5   5    8.65    0.52
   5   5   5    9.17    0.50
   5   5   5    9.55    0.49
   6  -5   5    0.15    0.19
   6  -5   5    0.00    0.16
   6  -5   5    0.12    0.17
  -6  -5  -5    0.74    0.22
   6   5   5    0.24    0.23
  -6   5  -5   -0.12    0.20
   6   5   5   -0.11    0.17
   7  -5   5    0.61    0.18
  -7  -5  -5    0.56    0.22
   7  -5   5    0.42    0.18
   7  -5   5    0.20    0.21
  -7   5  -5    0.38    0.20
   7   5   5    0.48    0.18
  -8  -5  -5    0.03    0.21
   8  -5   5    0.01    0.18
  -8  -5  -5    0.07    0.13
   8  -5   5   -0.03    0.18
  -8   5  -5    0.21    0.20
  -9  -5  -5   14.28    0.60
  -9   5  -5   14.04    0.61
   9   5   5   13.92    0.62
 -10  -5  -5    1.05    0.13
 -10  -6   5    0.20    0.16
 -10  -6   5    0.37    0.12
 -10   6   5    0.23    0.11
  -9  -6   5    0.10    0.11
   9  -6  -5    0.39    0.15
  -9  -6   5    0.09    0.13
  -9   6   5   -0.10    0.11
   9   6  -5    0.36    0.26
  -8  -6   5    0.03    0.16
  -8  -6   5    0.20    0.16
   8  -6  -5    0.00    0.14
  -8   6   5    0.26    0.15
   8   6  -5    0.04    0.19
   7  -6  -5    0.35    0.14
  -7  -6   5    0.73    0.19
  -7  -6   5    0.89    0.20
  -7   6   5    0.29    0.15
  -6  -6   5   19.31    0.84
   6  -6  -5   19.82    0.83
  -6  -6   5   19.07    0.85
  -6   6   5   19.63    0.83
  -5  -6   5   48.38    1.85
  -5  -6   5   47.12    1.83
  -5  -6   5   49.97    1.84
   5  -6  -5   50.10    1.83
  -5   6   5   46.51    1.88
  -5   6   5   46.69    1.83
   4  -6  -5    0.60    0.18
  -4  -6   5    0.98    0.22
   4  -6  -5    0.72    0.16
  -4  -6   5    0.82    0.20
  -4   6   5    0.84    0.20
  -3  -6   5    1.05    0.20
   3  -6  -5    1.35    0.20
   3  -6  -5    0.85    0.22
  -3  -6   5    1.27    0.21
  -2  -6   5   16.31    0.62
  -2  -6   5   15.09    0.63
   2  -6  -5   15.29    0.61
  -2   6   5   13.38    0.62
   2   6  -5   15.45    0.64
  -1  -6   5    8.00    0.34
   1  -6  -5    6.99    0.33
  -1  -6   5    7.40    0.37
   1   6  -5    7.78    0.35
  -1   6   5    7.52    0.35
   0  -6   5   12.09    0.48
   0  -6  -5   12.34    0.49
   0  -6   5   11.80    0.51
   0   6   5   11.72    0.50
   0   6  -5   11.81    0.49
   1  -6   5    1.12    0.12
  -1  -6  -5    1.10    0.13
   1  -6   5    0.73    0.16
   1   6   5    1.02    0.16
  -1   6  -5    1.18    0.13
   2  -6   5    0.10    0.06
  -2  -6  -5    0.09    0.08
   2  -6   5    0.15    0.10
  -2   6  -5    0.09    0.07
   2   6   5    0.24    0.10
  -3  -6  -5    0.15    0.11
   3  -6   5    0.18    0.11
   3   6   5    0.31    0.14
   4  -6   5    9.22    0.50
   4  -6   5    9.43    0.45
   4  -6   5    9.75    0.49
   4   6   5    9.74    0.50
   4   6   5    9.25    0.50
   4   6   5    9.39    0.52
   5  -6   5    1.05    0.22
   5  -6   5    0.89    0.18
   5  -6   5    0.41    0.19
   5   6   5    0.51    0.18
   5   6   5    0.42    0.19
   5   6   5    0.18    0.22
   6  -6   5    2.55    0.32
   6  -6   5    2.24    0.27
   6  -6   5    2.32    0.28
  -6  -6  -5    2.31    0.33
   6   6   5    1.84    0.40
  -6   6  -5    3.00    0.41
   6   6   5    2.21    0.29
   7  -6   5    0.14    0.16
   7  -6   5   -0.34    0.21
  -7  -6  -5   -0.21    0.19
   7  -6   5    0.34    0.17
   7   6   5    0.10    0.15
  -7   6  -5   -0.02    0.21
   8  -6   5    0.46    0.18
  -8  -6  -5    0.38    0.18
   8  -6   5    0.50    0.17
   8   6   5    0.53    0.17
  -8   6  -5    0.77    0.21
  -9  -6  -5    4.91    0.29
   9   6   5    5.04    0.33
 -10  -6  -5    0.04    0.08
 -10  -7   5    1.58    0.19
 -10   7   5    1.38    0.18
  -9  -7   5    0.70    0.16
   9  -7  -5    0.71    0.16
  -9  -7   5    0.88    0.19
  -9   7   5    0.78    0.14
   8  -7  -5    0.74    0.17
  -8  -7   5    0.80    0.18
  -8  -7   5    0.69    0.16
   8   7  -5    0.80    0.22
  -8   7   5    0.36    0.15
  -7  -7   5    3.34    0.31
   7  -7  -5    3.31    0.30
  -7  -7   5    3.41    0.36
  -7   7   5    3.63    0.32
   6  -7  -5    0.29    0.15
  -6  -7   5    0.28    0.15
  -6  -7   5    0.23    0.24
  -6   7   5    0.20    0.16
  -5  -7   5    1.03    0.19
   5  -7  -5    1.24    0.23
  -5  -7   5    1.23    0.28
  -5   7   5    1.25    0.20
  -4  -7   5   18.71    0.81
   4  -7  -5   20.19    0.80
  -4  -7   5   19.69    0.83
  -4   7   5   18.90    0.83
   3  -7  -5   12.07    0.56
  -3  -7   5   12.16    0.57
   3  -7  -5   11.63    0.54
  -3  -7   5   12.52    0.55
   2  -7  -5   36.16    1.36
  -2  -7   5   36.79    1.37
   2  -7  -5   34.82    1.36
  -1  -7   5   55.19    2.02
  -1  -7   5   53.68    2.03
   1  -7  -5   59.18    2.03
   1   7  -5   50.45    2.02
   0  -7   5    0.18    0.11
   0  -7   5    0.13    0.07
   0  -7  -5    0.04    0.07
   0   7  -5    0.15    0.10
   0   7   5    0.35    0.11
  -1  -7  -5   33.24    1.29
   1  -7   5   35.12    1.28
   1  -7   5   34.81    1.30
  -1   7  -5   35.90    1.29
   1   7   5   32.21    1.30
  -2  -7  -5   15.28    0.67
   2  -7   5   17.95    0.69
   2  -7   5   16.43    0.65
  -2   7  -5   16.78    0.66
   3  -7   5   13.92    0.58
   3  -7   5   13.35    0.61
  -3  -7  -5   13.29    0.60
   3   7   5   13.31    0.64
   3   7   5   13.25    0.64
   4  -7   5   30.16    1.17
   4  -7   5   28.96    1.14
   4  -7   5   27.50    1.13
   4   7   5   27.96    1.16
   4   7   5   29.05    1.16
   4   7   5   29.08    1.16
   5  -7   5    6.51    0.37
   5  -7   5    7.19    0.40
   5  -7   5    6.22    0.42
   5   7   5    6.27    0.41
   5   7   5    6.11    0.40
   5   7   5    6.53    0.45
   6  -7   5   17.53    0.79
   6  -7   5   19.16    0.77
  -6  -7  -5   17.70    0.78
   6  -7   5   16.68    0.76
   6   7   5   17.29    0.78
   6   7   5   16.03    0.80
   7  -7   5    2.50    0.29
  -7  -7  -5    2.61    0.33
   7  -7   5    2.19    0.36
   7  -7   5    2.08    0.28
   7   7   5    3.14    0.30
  -8  -7  -5    0.72    0.17
   8  -7   5    0.92    0.20
  -8  -7  -5    1.31    0.20
   8   7   5    0.89    0.23
  -9  -7  -5    0.11    0.10
   9   7   5   -0.26    0.19
 -10  -8   5    1.74    0.19
  -9  -8   5    2.30    0.21
   9  -8  -5    1.91    0.26
  -9   8   5    2.36    0.22
  -8  -8   5    1.11    0.26
  -8  -8   5    1.05    0.24
   8  -8  -5    1.27    0.25
   8   8  -5    1.27    0.27
  -8   8   5    1.56    0.24
   7  -8  -5    1.65    0.25
  -7  -8   5    2.24    0.29
  -7   8   5    1.81    0.27
   6  -8  -5   35.11    1.39
  -6  -8   5   35.34    1.40
  -6   8   5   35.46    1.39
  -5  -8   5    0.32    0.17
  -5  -8   5    0.37    0.18
   5  -8  -5    0.14    0.13
   5   8  -5    0.54    0.28
  -5   8   5    0.25    0.17
  -4  -8   5    2.59    0.33
   4  -8  -5    3.05    0.27
  -4  -8   5    2.48    0.28
  -4   8   5    2.94    0.34
  -4   8   5    2.60    0.40
  -3  -8   5   30.26    1.16
   3  -8  -5   28.72    1.15
  -2  -8   5    3.64    0.27
   2  -8  -5    3.20    0.27
  -2  -8   5    3.61    0.28
   2  -8  -5    2.89    0.31
  -1  -8   5    0.03    0.11
   1  -8  -5    0.26    0.10
  -1  -8   5    0.01    0.12
   0  -8   5    2.39    0.21
   0  -8  -5    2.79    0.22
   0  -8   5    2.46    0.22
   0   8  -5    2.89    0.27
   1  -8   5   39.38    1.43
   1  -8   5   37.78    1.42
  -1  -8  -5   38.67    1.43
  -1   8  -5   34.87    1.42
   2  -8   5    1.06    0.21
  -2  -8  -5    1.29    0.26
   3  -8   5   22.20    0.89
  -3  -8  -5   20.54    0.92
   3  -8   5   21.85    0.91
   3  -8   5   22.69    0.88
   3   8   5   21.61    0.91
   3   8   5   21.02    0.89
   3   8   5   21.84    0.91
   3   8   5   20.11    0.91
   4  -8   5    3.76    0.34
   4  -8   5    3.17    0.27
   4  -8   5    3.46    0.27
   4   8   5    3.68    0.34
   4   8   5    3.28    0.31
   4   8   5    3.28    0.35
   5  -8   5    3.76    0.30
   5  -8   5    3.41    0.37
   5  -8   5    4.12    0.31
   5   8   5    3.62    0.32
   5   8   5    3.31    0.39
   5   8   5    3.54    0.34
   6  -8   5   16.93    0.74
  -6  -8  -5   16.43    0.75
   6  -8   5   16.70    0.77
   6   8   5   17.07    0.76
   6   8   5   16.40    0.79
   7  -8   5    2.97    0.37
   7  -8   5    2.49    0.28
   7  -8   5    3.07    0.29
  -7  -8  -5    3.21    0.33
   7   8   5    2.75    0.29
  -8  -8  -5    0.12    0.14
   8  -8   5   -0.01    0.17
  -8  -8  -5    0.16    0.12
   8   8   5    0.13    0.14
  -9  -8  -5   -0.05    0.10
  -9  -8  -5   -0.20    0.20
   9   8   5   -0.09    0.15
   9  -9  -5    3.55    0.29
  -9  -9   5    2.86    0.22
  -8  -9   5    2.15    0.24
   8  -9  -5    2.17    0.26
  -8   9   5    2.31    0.26
   7  -9  -5    6.95    0.42
  -7  -9   5    8.11    0.44
  -7   9   5    7.78    0.45
   6  -9  -5    0.01    0.18
  -6  -9   5    0.11    0.18
  -6   9   5    0.12    0.18
  -5  -9   5   18.21    0.81
  -5  -9   5   18.68    0.83
   5  -9  -5   20.35    0.81
  -5   9   5   18.47    0.88
   5   9  -5   18.34    0.87
   4  -9  -5   12.90    0.59
  -4  -9   5   12.54    0.61
  -4  -9   5   13.15    0.62
  -4   9   5   13.08    0.63
  -4   9   5   12.89    0.65
  -3  -9   5   42.78    1.68
  -3  -9   5   44.33    1.67
  -3   9   5   44.39    1.67
  -3   9   5   42.62    1.68
  -2  -9   5   12.19    0.53
   2  -9  -5   11.17    0.54
  -2  -9   5   10.91    0.57
  -2   9   5   10.91    0.54
  -1  -9   5    0.39    0.13
  -1  -9   5    1.02    0.19
   1  -9  -5    0.54    0.15
   0  -9   5   28.66    1.11
   0  -9   5   28.16    1.10
   0  -9  -5   27.66    1.11
   1  -9   5    3.80    0.26
  -1  -9  -5    3.42    0.31
   1  -9   5    3.85    0.31
   1  -9   5    4.53    0.44
   2  -9   5    3.93    0.33
   2  -9   5    3.96    0.27
   2  -9   5    4.22    0.32
   2   9   5    4.22    0.38
   2   9   5    3.96    0.31
   2   9   5    4.02    0.35
   3  -9   5    8.69    0.43
   3  -9   5    8.70    0.47
   3  -9   5    8.83    0.45
   3   9   5    8.00    0.50
   3   9   5    8.35    0.47
   3   9   5    8.20    0.47
   4  -9   5    2.01    0.24
   4  -9   5    1.44    0.23
   4  -9   5    1.67    0.22
   4   9   5    1.43    0.31
   4   9   5    1.37    0.27
   4   9   5    1.55    0.31
  -5  -9  -5    2.13    0.29
   5  -9   5    2.81    0.27
   5  -9   5    1.77    0.32
   5  -9   5    2.55    0.27
   5   9   5    2.28    0.37
   5   9   5    2.50    0.33
   5   9   5    2.64    0.29
   6  -9   5    0.83    0.22
   6  -9   5    0.96    0.18
  -6  -9  -5    0.70    0.19
   6  -9   5    0.94    0.22
   6   9   5    1.17    0.26
  -7  -9  -5    6.67    0.40
   7  -9   5    5.71    0.58
   7  -9   5    6.12    0.40
   7  -9   5    6.44    0.38
   7   9   5    6.78    0.40
  -8  -9  -5    1.32    0.23
   8  -9   5    1.10    0.20
  -8  -9  -5    1.38    0.20
   8   9   5    1.53    0.22
  -9  -9  -5    1.00    0.17
  -9  -9  -5    0.58    0.19
   9   9   5    1.14    0.23
  -9 -10   5    0.20    0.10
   9 -10  -5   -0.09    0.17
   8 -10  -5    3.62    0.30
  -8 -10   5    3.17    0.26
  -8  10   5    3.30    0.30
   7 -10  -5    0.80    0.17
  -7 -10   5    1.10    0.19
  -7  10   5    0.93    0.20
   6 -10  -5    1.75    0.27
  -6 -10   5    2.33    0.28
   6  10  -5    1.87    0.43
  -6  10   5    1.70    0.33
  -5 -10   5    0.15    0.20
   5 -10  -5    0.12    0.17
  -5 -10   5   -0.10    0.15
  -5  10   5    0.15    0.22
  -5  10   5   -0.04    0.21
   5  10  -5    0.06    0.24
  -4 -10   5    8.38    0.49
  -4 -10   5    9.11    0.50
   4 -10  -5    9.84    0.48
  -4  10   5    8.63    0.49
  -4  10   5    8.83    0.53
  -3 -10   5   -0.24    0.14
   3 -10  -5    0.33    0.18
  -3 -10   5    0.12    0.21
  -3  10   5    0.17    0.17
  -3  10   5    0.00    0.26
  -2 -10   5    4.58    0.36
  -2 -10   5    4.59    0.31
  -2  10   5    4.54    0.34
  -1 -10   5    0.82    0.20
  -1 -10   5    1.15    0.25
  -1  10   5    1.13    0.26
   0 -10   5    0.88    0.20
   0 -10   5    0.84    0.20
   0  10   5    0.73    0.18
   0  10   5    0.85    0.25
   1 -10   5    0.73    0.19
   1 -10   5    0.27    0.13
   1 -10   5    0.04    0.17
   1 -10   5    0.47    0.21
   1  10   5    0.62    0.18
   1  10   5    0.69    0.21
   1  10   5    0.69    0.22
   2 -10   5    4.70    0.30
   2 -10   5    4.66    0.33
   2 -10   5    4.38    0.34
   2  10   5    4.71    0.34
   2  10   5    3.91    0.45
   2  10   5    4.27    0.37
   2  10   5    4.67    0.36
   3 -10   5   -0.15    0.14
   3 -10   5   -0.08    0.12
   3 -10   5    0.33    0.18
   3  10   5    0.25    0.23
   3  10   5   -0.03    0.15
   3  10   5    0.25    0.17
   4 -10   5    3.41    0.29
   4 -10   5    3.26    0.28
   4  10   5    2.74    0.31
   4  10   5    3.70    0.38
   4  10   5    2.63    0.32
   5 -10   5    2.29    0.26
  -5 -10  -5    1.85    0.28
   5 -10   5    1.79    0.30
   5 -10   5    1.62    0.25
   5  10   5    1.95    0.27
   5  10   5    2.16    0.36
   5  10   5    2.12    0.31
   6 -10   5    0.09    0.20
   6 -10   5   -0.04    0.15
   6 -10   5    0.36    0.15
  -6 -10  -5    0.21    0.16
   6  10   5    0.09    0.16
   7 -10   5    3.54    0.31
  -7 -10  -5    3.41    0.34
   7  10   5    3.58    0.32
  -8 -10  -5    0.11    0.12
   8 -10   5   -0.02    0.16
  -8 -10  -5   -0.06    0.12
   8  10   5   -0.20    0.11
  -9 -10  -5    0.18    0.16
  -9 -11   5    5.58    0.28
  -8 -11   5   -0.01    0.11
   8 -11  -5    0.23    0.16
  -7 -11   5    7.39    0.53
   7 -11  -5    8.65    0.45
  -7  11   5    8.56    0.48
   6 -11  -5    8.28    0.48
  -6 -11   5    9.55    0.49
   6  11  -5    8.70    0.56
  -6  11   5    9.19    0.52
  -5 -11   5   10.05    0.54
   5 -11  -5   11.39    0.54
  -5 -11   5   10.71    0.58
  -5  11   5    9.63    0.58
   5  11  -5   10.63    0.57
  -5  11   5    9.87    0.54
  -4 -11   5    3.94    0.36
   4 -11  -5    3.45    0.33
  -4 -11   5    3.97    0.37
  -4  11   5    4.25    0.43
   4  11  -5    3.06    0.35
  -4  11   5    2.78    0.33
  -3 -11   5    1.36    0.27
   3 -11  -5    1.08    0.22
  -3 -11   5    0.95    0.24
  -3  11   5    0.86    0.19
  -2 -11   5    5.56    0.38
  -2 -11   5    5.58    0.36
  -2  11   5    5.89    0.36
  -2  11   5    5.01    0.51
  -1 -11   5    2.63    0.28
  -1 -11   5    2.69    0.26
  -1  11   5    2.19    0.40
  -1  11   5    2.41    0.26
   0 -11   5    8.21    0.45
   0 -11   5    8.86    0.43
   0  11   5    7.65    0.52
   0  11   5    8.18    0.52
   0  11   5    7.88    0.44
   1 -11   5    8.83    0.47
   1 -11   5    9.04    0.44
   1  11   5    9.40    0.47
   1  11   5    8.33    0.50
   1  11   5    8.88    0.50
   2 -11   5    2.21    0.27
   2 -11   5    2.37    0.24
   2 -11   5    2.40    0.28
   2  11   5    2.45    0.28
   2  11   5    2.50    0.33
   2  11   5    2.48    0.32
   2  11   5    2.46    0.31
   3 -11   5    8.28    0.54
   3 -11   5    9.22    0.50
   3 -11   5    9.79    0.47
   3  11   5    8.89    0.50
   3  11   5    8.39    0.54
   3  11   5    9.10    0.48
   4 -11   5    6.77    0.42
   4 -11   5    6.83    0.40
   4 -11   5    6.58    0.39
   4  11   5    6.79    0.47
   4  11   5    6.77    0.43
   4  11   5    6.45    0.42
   5 -11   5    1.61    0.24
   5 -11   5    1.78    0.31
   5 -11   5    1.13    0.25
  -5 -11  -5    1.06    0.26
   5  11   5    1.41    0.26
   5  11   5    1.94    0.35
  -6 -11  -5   28.81    1.14
   6 -11   5   28.13    1.13
   6 -11   5   25.80    1.13
   6  11   5   28.83    1.15
   7 -11   5    2.93    0.28
  -7 -11  -5    2.70    0.28
  -7 -11  -5    3.09    0.27
   7  11   5    2.97    0.26
   8 -11   5    3.34    0.30
  -8 -11  -5    3.66    0.32
  -8 -11  -5    3.53    0.25
   8  11   5    3.46    0.25
  -9 -12   5    0.08    0.09
  -8 -12   5    1.70    0.19
   8 -12  -5    1.63    0.28
   7 -12  -5    3.72    0.32
  -7 -12   5    3.50    0.27
  -6 -12   5    1.57    0.26
   6 -12  -5    1.61    0.30
   6  12  -5    1.49    0.35
  -5 -12   5    8.95    0.56
   5 -12  -5    9.49    0.52
  -5 -12   5    9.53    0.52
  -5  12   5   10.11    0.52
   5  12  -5   10.04    0.54
   4 -12  -5    0.17    0.22
  -4 -12   5    0.31    0.22
  -4 -12   5    0.74    0.21
  -4  12   5    0.08    0.17
   4  12  -5    0.65    0.22
   3 -12  -5    1.39    0.27
  -3 -12   5    1.29    0.27
  -3 -12   5    1.03    0.22
  -3  12   5    0.97    0.18
  -2 -12   5    0.61    0.23
  -2  12   5    0.41    0.17
  -1 -12   5    2.37    0.27
  -1 -12   5    2.03    0.27
  -1  12   5    1.76    0.43
   1  12  -5    1.60    0.28
  -1  12   5    1.86    0.25
   0 -12   5    1.18    0.25
   0 -12   5    1.51    0.26
   0  12   5    2.12    0.34
   0  12   5    1.73    0.24
   0  12   5    1.54    0.37
   1 -12   5   25.35    1.03
   1 -12   5   24.79    1.02
   1  12   5   25.51    1.04
   1  12   5   24.37    1.03
   1  12   5   25.46    1.02
   2 -12   5   -0.09    0.13
   2 -12   5    0.27    0.16
   2  12   5    0.20    0.17
   2  12   5    0.27    0.16
   3 -12   5   10.09    0.51
   3 -12   5    9.57    0.49
   3 -12   5    9.74    0.52
   3  12   5    9.95    0.52
   3  12   5    9.43    0.51
   4 -12   5    1.02    0.22
   4 -12   5    0.53    0.20
   4 -12   5    0.69    0.20
   4  12   5    0.85    0.19
   4  12   5    0.78    0.19
   4  12   5    0.68    0.25
   5 -12   5    1.26    0.24
   5 -12   5    1.28    0.29
  -5 -12  -5    1.25    0.26
   5  12   5    1.14    0.24
   5  12   5    0.80    0.24
   6 -12   5    2.00    0.32
  -6 -12  -5    2.82    0.29
   6 -12   5    2.61    0.26
   6  12   5    2.52    0.27
   7 -12   5    0.33    0.16
  -7 -12  -5    0.22    0.13
  -7 -12  -5    0.40    0.16
   7  12   5    0.25    0.12
  -8 -12  -5    0.17    0.11
   8 -12   5   -0.05    0.16
  -8  12  -5    0.14    0.13
   8  12   5    0.15    0.11
  -8 -13   5    0.09    0.09
  -7 -13   5    1.40    0.22
   7 -13  -5    1.40    0.29
  -6 -13   5    2.13    0.27
   6 -13  -5    1.57    0.30
   6  13  -5    2.06    0.32
  -5 -13   5    2.84    0.33
  -5 -13   5    2.48    0.44
   5 -13  -5    2.49    0.34
   5  13  -5    2.98    0.33
  -5  13   5    3.18    0.30
  -4 -13   5    1.99    0.35
  -4  13   5    1.81    0.28
   4  13  -5    1.98    0.29
  -3 -13   5    0.43    0.22
  -3 -13   5    0.57    0.26
  -3  13   5    0.48    0.17
  -2 -13   5    0.26    0.19
  -2  13   5    0.18    0.14
  -1 -13   5    0.22    0.15
  -1 -13   5    0.10    0.17
  -1  13   5   -0.02    0.25
  -1  13   5    0.05    0.15
   1  13  -5   -0.22    0.22
   0 -13   5    3.01    0.29
   0 -13   5    3.44    0.29
   0  13   5    2.86    0.39
   0  13   5    2.06    0.35
   0  13   5    2.42    0.26
   1 -13   5    0.19    0.15
   1 -13   5   -0.10    0.14
   1  13   5    0.23    0.15
   1  13   5    0.25    0.18
   2 -13   5    3.87    0.32
   2 -13   5    3.90    0.31
   2  13   5    3.42    0.33
   2  13   5    4.12    0.31
   3 -13   5    2.29    0.27
   3 -13   5    2.22    0.28
   3  13   5    2.23    0.28
   3  13   5    1.78    0.27
   4 -13   5    2.72    0.28
   4 -13   5    2.75    0.30
  -4 -13  -5    2.64    0.28
   4  13   5    2.61    0.32
   4  13   5    2.82    0.30
  -5 -13  -5   12.13    0.57
   5 -13   5   11.85    0.57
   5 -13   5   11.10    0.56
   5  13   5   11.58    0.60
   5  13   5   11.28    0.57
  -6 -13  -5    5.48    0.33
   6 -13   5    5.25    0.35
   6 -13   5    4.73    0.38
   6  13   5    5.08    0.33
   7 -13   5   -0.02    0.14
  -7 -13  -5    0.10    0.10
   7  13   5    0.12    0.10
  -8 -13  -5    0.00    0.10
   8  13   5    0.33    0.11
  -8 -14   5    5.44    0.28
  -7 -14   5    3.15    0.24
   7 -14  -5    3.59    0.43
  -6 -14   5    0.39    0.15
  -6  14   5    0.51    0.18
   6  14  -5    0.51    0.19
  -5 -14   5    1.00    0.21
   5 -14  -5    0.89    0.25
   5  14  -5    1.20    0.27
  -4 -14   5    4.36    0.40
  -4 -14   5    3.52    0.45
  -4  14   5    3.51    0.31
   4  14  -5    4.03    0.33
  -3 -14   5    3.91    0.52
  -3  14   5    3.66    0.30
  -2 -14   5    0.88    0.22
  -2  14   5    1.28    0.23
  -1 -14   5    6.77    0.43
   1  14  -5    6.20    0.45
  -1  14   5    6.57    0.39
  -1  14   5    6.36    0.52
   0 -14   5   38.75    1.55
   0 -14   5   41.66    1.55
   0  14   5   38.54    1.55
   0  14  -5   39.41    1.53
   0  14   5   38.80    1.53
   1 -14   5    9.11    0.49
   1 -14   5    9.16    0.49
   1  14   5    8.91    0.47
   1  14   5    8.62    0.50
   2 -14   5   -0.03    0.14
   2 -14   5    0.03    0.16
   2  14   5   -0.02    0.16
   2  14   5    0.35    0.15
   3 -14   5    6.62    0.39
   3 -14   5    5.82    0.39
   3  14   5    6.06    0.41
   3  14   5    6.29    0.40
   4 -14   5    3.34    0.31
  -4 -14  -5    3.26    0.30
   4 -14   5    3.01    0.31
   4  14   5    2.85    0.31
   4  14   5    3.28    0.29
   5 -14   5    2.42    0.28
   5 -14   5    2.40    0.28
   5  14   5    2.33    0.30
   5  14   5    3.21    0.35
  -6 -14  -5    0.55    0.13
   6 -14   5    0.61    0.15
   6  14   5    0.63    0.14
   7 -14   5    0.17    0.14
  -7 -14  -5    0.07    0.10
   7  14   5    0.25    0.10
  -7  14  -5    0.09    0.10
  -7 -15   5    0.15    0.17
  -6 -15   5    0.12    0.14
   6  15  -5    0.26    0.17
  -6  15   5    0.28    0.16
  -5 -15   5    0.00    0.16
   5  15  -5    0.17    0.15
  -5  15   5    0.08    0.14
  -4  15   5    7.30    0.40
   4  15  -5    6.65    0.42
  -3 -15   5    1.58    0.38
  -3  15   5    1.64    0.24
  -2 -15   5   -0.04    0.21
  -2  15   5   -0.05    0.14
  -1 -15   5    0.70    0.20
  -1  15   5    0.79    0.16
   1  15  -5    0.79    0.23
   0 -15   5    0.27    0.15
   0  15   5    0.57    0.22
   0  15   5    0.30    0.15
   0  15  -5    0.45    0.18
   1 -15   5   16.97    0.75
   1 -15   5   15.94    0.75
  -1  15  -5   17.21    0.74
   1  15   5   17.06    0.76
   1  15   5   16.66    0.73
   2 -15   5    0.07    0.16
   2 -15   5    0.27    0.16
   2  15   5    0.18    0.15
   2  15   5    0.37    0.16
   3 -15   5    8.54    0.46
  -3 -15  -5    8.27    0.45
   3 -15   5    7.45    0.44
   3  15   5    7.66    0.45
   3  15   5    7.93    0.44
   4 -15   5    8.03    0.58
  -4 -15  -5    8.82    0.44
   4 -15   5    7.24    0.43
   4  15   5    8.24    0.44
  -5 -15  -5    2.00    0.24
   5 -15   5    2.21    0.26
   5 -15   5    1.74    0.24
   5  15   5    1.71    0.22
  -6 -15  -5    0.85    0.17
   6 -15   5    0.50    0.15
  -6  15  -5    0.90    0.16
   6  15   5    1.03    0.17
  -7 -15  -5    0.77    0.16
   7  15   5    0.64    0.14
  -7  15  -5    0.46    0.10
  -7 -16   5    0.04    0.16
   6  16  -5    3.53    0.33
  -5 -16   5    2.61    0.31
   5  16  -5    2.68    0.25
  -5  16   5    2.34    0.24
  -4  16   5   -0.21    0.11
   4  16  -5    0.20    0.14
   3  16  -5    3.18    0.29
  -3  16   5    2.88    0.27
  -2 -16   5    7.86    0.51
  -2  16   5    8.38    0.43
  -1 -16   5    2.36    0.33
   1  16  -5    2.03    0.35
  -1  16   5    2.58    0.25
   0 -16   5   12.63    0.63
   0  16   5   13.42    0.63
   0  16  -5   12.91    0.61
   0  16   5   12.60    0.59
   1 -16   5    1.27    0.27
   1 -16   5    0.68    0.16
  -1  16  -5    1.12    0.24
   1  16   5    0.69    0.19
   1  16   5    1.16    0.22
  -2 -16  -5    7.59    0.43
   2 -16   5    6.43    0.40
   2 -16   5    6.35    0.41
   2  16   5    7.06    0.39
  -2  16  -5    7.34    0.39
   2  16   5    6.77    0.41
   3 -16   5    3.18    0.28
  -3 -16  -5    2.34    0.39
   3 -16   5    2.54    0.29
   3  16   5    2.71    0.33
   3  16   5    2.47    0.27
   4 -16   5    9.43    0.49
  -4 -16  -5    9.59    0.47
   4 -16   5    9.20    0.47
   4  16   5   10.32    0.48
   4  16   5    9.54    0.47
   5 -16   5    2.08    0.26
  -5 -16  -5    1.17    0.21
  -5  16  -5    1.65    0.18
   5  16   5    1.53    0.18
  -6 -16  -5    0.48    0.11
   6 -16   5    0.49    0.17
  -6  16  -5    0.47    0.11
   6  17  -5    0.40    0.16
  -5  17   5   -0.09    0.11
   5  17  -5   -0.07    0.12
   4  17  -5    4.35    0.29
  -4  17   5    4.67    0.29
  -3  17   5    3.03    0.24
   3  17  -5    3.02    0.25
  -2  17   5    3.04    0.26
  -1 -17   5   10.21    0.58
   1  17  -5   10.64    0.54
  -1  17   5   10.76    0.51
   0 -17   5   22.36    0.97
   0  17  -5   24.66    0.95
   0  17   5   22.22    0.98
   0  17   5   23.16    0.95
   1 -17   5    3.90    0.35
  -1 -17  -5    4.56    0.37
   1  17   5    4.47    0.31
  -1  17  -5    4.86    0.32
  -2 -17  -5    1.88    0.27
   2 -17   5    2.00    0.28
   2  17   5    1.64    0.25
  -2  17  -5    1.74    0.32
   2  17   5    1.91    0.24
  -3 -17  -5    0.20    0.15
   3 -17   5    0.21    0.17
  -3  17  -5    0.36    0.12
   3  17   5    0.25    0.12
   3  17   5    0.41    0.13
  -4 -17  -5   16.45    0.68
   4 -17   5   16.71    0.71
  -4  17  -5   15.59    0.67
   4  17   5   15.63    0.68
   4  17   5   15.99    0.68
  -5 -17  -5    1.77    0.19
   5 -17   5    2.37    0.28
   5  17   5    1.93    0.19
  -5  17  -5    1.41    0.17
  -6 -17  -5    0.62    0.14
   6  17   5    0.26    0.09
  -6  17  -5    0.42    0.09
  -5  18   5    3.90    0.24
   5  18  -5    3.54    0.25
  -4  18   5    0.28    0.10
   4  18  -5    0.42    0.12
   3  18  -5    1.12    0.19
  -3  18   5    1.22    0.17
   2  18  -5    5.67    0.34
  -2  18   5    5.81    0.32
  -1  18   5    0.31    0.12
   0 -18   5   -0.40    0.22
   0  18   5    0.21    0.20
   0  18  -5    0.20    0.14
   0  18   5   -0.18    0.11
   1 -18   5    4.02    0.37
   1  18   5    4.07    0.27
   1  18   5    4.47    0.32
  -1  18  -5    4.58    0.29
  -2 -18  -5    0.21    0.17
   2  18   5   -0.01    0.11
   2  18   5    0.18    0.13
  -2  18  -5    0.01    0.11
  -3 -18  -5    1.55    0.23
   3 -18   5    1.87    0.28
   3  18   5    1.56    0.21
   3  18   5    1.56    0.20
  -3  18  -5    1.57    0.18
  -4 -18  -5    0.83    0.19
   4 -18   5    0.76    0.19
  -4  18  -5    0.75    0.14
   4  18   5    1.08    0.17
  -5 -18  -5    0.15    0.11
   5  18   5    0.33    0.10
  -5  18  -5    0.20    0.09
   5  19  -5    0.97    0.18
   4  19  -5    0.20    0.10
  -4  19   5    0.07    0.10
  -3  19   5    0.93    0.14
   3  19  -5    0.97    0.16
  -2  19   5    2.37    0.20
   2  19  -5    2.21    0.20
   1  19  -5    2.67    0.22
  -1  19   5    2.72    0.21
   0  19   5   -0.10    0.09
   0  19  -5    0.14    0.15
   1 -19   5    1.19    0.31
   1  19   5    1.39    0.24
  -1  19  -5    1.53    0.20
   1  19   5    1.36    0.17
   2 -19   5    0.26    0.25
   2  19   5    0.41    0.12
   2  19   5    0.03    0.13
  -2  19  -5    0.35    0.11
  -3 -19  -5    0.26    0.17
   3  19   5    0.19    0.11
   3  19   5   -0.03    0.13
  -3  19  -5    0.15    0.09
  -4 -19  -5   -0.01    0.14
  -4  19  -5    0.26    0.11
   4  19   5    0.09    0.09
   4  20  -5    0.09    0.10
  -4  20   5    0.00    0.09
  -3  20   5    1.73    0.15
   3  20  -5    2.08    0.23
   2  20  -5    4.53    0.26
  -2  20   5    4.91    0.25
   1  20  -5    0.53    0.11
  -1  20   5    0.67    0.13
   0  20  -5    0.59    0.14
   0  20   5    0.87    0.13
  -1  20  -5    0.57    0.13
  -1  20  -5    0.67    0.12
   1  20   5    0.45    0.10
  -2  20  -5   -0.06    0.11
   2  20   5    0.03    0.10
   2  20   5   -0.27    0.13
  -2  20  -5   -0.04    0.10
  -3  20  -5    0.49    0.10
   3  20   5    0.58    0.13
  -2  21   5    0.07    0.07
   2  21  -5    0.10    0.09
   1  21  -5    1.58    0.15
  -1  21   5    1.46    0.14
   0  21   5    0.17    0.08
   0  21  -5    0.17    0.10
  -1  21  -5    0.03    0.11
   1  21   5    0.12    0.09
  10   0  -6   13.04    0.59
 -10   0   6   12.92    0.55
   9   0  -6    2.22    0.28
  -9   0   6    2.25    0.23
  -9   0   6    2.21    0.32
  -8   0   6    4.28    0.36
   8   0  -6    3.20    0.31
  -8   0   6    3.44    0.30
   7   0  -6    1.09    0.25
  -7   0   6    0.92    0.21
  -7   0   6    1.17    0.24
  -6   0   6    0.43    0.20
  -6   0   6    0.38    0.17
  -5   0   6   17.41    0.78
  -5   0   6   18.27    0.76
  -4   0   6    1.66    0.22
   4   0  -6    1.61    0.21
   3   0  -6    3.05    0.20
  -3   0   6    3.61    0.25
   3   0  -6    3.31    0.23
   2   0  -6  207.85    7.64
   2   0  -6  216.33    7.63
   1   0  -6    2.93    0.15
   1   0  -6    2.82    0.16
   0   0  -6   40.58    1.51
   0   0  -6   41.56    1.50
  -1   0  -6   16.43    0.62
  -1   0  -6   16.46    0.62
  -2   0  -6   17.26    0.62
  -2   0  -6   16.10    0.61
   5   0   6   13.90    0.66
   5   0   6   14.46    0.67
   5   0   6   14.79    0.66
   6   0   6    2.40    0.31
   7   0   6    0.84    0.21
   7   0   6    1.24    0.23
   8   0   6    0.11    0.17
  -8   0  -6    0.19    0.13
   9   0   6   10.47    0.61
  -9   0  -6   10.44    0.48
 -10   0  -6    3.26    0.21
  10  -1  -6    0.68    0.18
 -10  -1   6    0.35    0.10
 -10   1   6    0.21    0.09
  10   1  -6    0.09    0.19
  -9  -1   6    0.10    0.12
   9  -1  -6    0.13    0.15
  -9  -1   6    0.20    0.16
   9   1  -6    0.36    0.16
  -9   1   6    0.22    0.19
  -9   1   6    0.05    0.11
   8  -1  -6    0.82    0.18
  -8  -1   6    0.90    0.17
  -8  -1   6    0.66    0.19
  -8   1   6    0.69    0.22
  -8   1   6    0.73    0.16
   8   1  -6    0.54    0.17
  -7  -1   6   19.79    0.83
   7  -1  -6   19.22    0.84
  -7  -1   6   18.68    0.83
  -7   1   6   20.32    0.83
   7   1  -6   18.86    0.84
  -7   1   6   18.75    0.84
  -6  -1   6    4.92    0.39
   6  -1  -6    4.87    0.33
  -6  -1   6    4.85    0.35
  -6   1   6    4.97    0.40
  -6   1   6    4.47    0.34
  -5  -1   6    9.44    0.49
  -5  -1   6    9.36    0.51
  -5   1   6    9.59    0.52
  -5   1   6    9.80    0.48
   4  -1  -6    2.53    0.24
  -4  -1   6    3.11    0.25
   4   1  -6    2.78    0.24
   3  -1  -6    8.46    0.41
  -3  -1   6    9.00    0.42
   3  -1  -6    9.39    0.39
   3   1  -6    8.36    0.39
   3   1  -6    8.42    0.41
  -3   1   6    9.47    0.42
   2  -1  -6    7.93    0.35
  -2  -1   6    8.66    0.41
   2   1  -6    7.36    0.35
   1  -1  -6    0.91    0.09
   1   1  -6    0.99    0.10
   0  -1  -6    0.18    0.04
   0   1  -6    0.31    0.06
  -1  -1  -6   33.65    1.30
  -1   1  -6   37.21    1.30
  -1   1  -6   35.84    1.30
  -2  -1  -6    0.28    0.06
  -2   1  -6    0.20    0.05
  -2   1  -6    0.20    0.04
   3  -1   6    0.45    0.18
   4  -1   6    4.47    0.34
   5  -1   6    4.65    0.36
   5  -1   6    4.43    0.35
   5  -1   6    4.27    0.40
   5   1   6    5.54    0.37
   5   1   6    4.62    0.37
   5   1   6    4.80    0.36
   6  -1   6    0.34    0.18
   6   1   6    0.81    0.27
   6   1   6    0.34    0.21
   7  -1   6    0.06    0.19
   7  -1   6   -0.01    0.19
   7   1   6   -0.10    0.16
   7   1   6    0.08    0.21
  -8  -1  -6    0.11    0.14
   8  -1   6   -0.08    0.18
  -8   1  -6    0.06    0.14
   8   1   6   -0.19    0.17
  -9  -1  -6    0.27    0.11
  -9   1  -6    0.17    0.12
   9   1   6   -0.01    0.18
 -10  -1  -6    0.09    0.09
 -10   1  -6    0.06    0.11
 -10  -2   6    1.21    0.16
 -10  -2   6    0.86    0.18
  10  -2  -6    1.35    0.24
 -10   2   6    1.19    0.15
  10   2  -6    1.22    0.30
  -9  -2   6    0.12    0.12
  -9  -2   6    0.32    0.15
   9  -2  -6    0.08    0.13
  -9   2   6    0.27    0.11
   9   2  -6    0.27    0.17
  -9   2   6    0.49    0.31
  -8  -2   6    0.51    0.17
  -8  -2   6    1.00    0.23
   8  -2  -6    0.99    0.25
  -8   2   6    1.01    0.23
  -8   2   6    1.20    0.25
   8   2  -6    0.85    0.19
  -7  -2   6    3.69    0.31
  -7  -2   6    3.59    0.35
   7  -2  -6    4.23    0.33
   7   2  -6    4.32    0.33
  -7   2   6    3.55    0.31
  -7   2   6    4.05    0.39
  -6  -2   6   48.32    1.87
   6  -2  -6   49.79    1.87
  -6  -2   6   49.64    1.86
  -6   2   6   47.17    1.87
  -6   2   6   49.29    1.86
  -5  -2   6    2.00    0.31
  -5  -2   6    1.98    0.32
  -5   2   6    2.00    0.35
  -5   2   6    2.34    0.27
   4  -2  -6    4.73    0.31
  -4  -2   6    5.84    0.32
   3  -2  -6    4.19    0.23
  -3  -2   6    4.43    0.27
   3  -2  -6    3.79    0.27
   3   2  -6    3.85    0.26
  -2  -2   6    5.35    0.30
   2  -2  -6    5.94    0.26
   2   2  -6    4.88    0.26
   1  -2  -6    0.05    0.04
   1   2  -6    0.08    0.05
   0  -2  -6   42.99    1.61
   0   2  -6   44.87    1.61
  -1  -2  -6   24.35    0.92
  -1   2  -6   24.67    0.92
  -1   2  -6   25.64    0.92
  -2  -2  -6    2.77    0.15
  -2   2  -6    2.98    0.12
  -2   2  -6    2.82    0.12
  -3  -2  -6   90.19    3.14
   3  -2   6   84.25    3.18
   4  -2   6    4.63    0.32
   4   2   6    5.09    0.37
   4   2   6    5.23    0.38
   5  -2   6   20.81    0.89
   5  -2   6   20.08    0.86
   5  -2   6   21.19    0.87
   5   2   6   21.17    0.88
   5   2   6   20.79    0.89
   5   2   6   20.63    0.88
   6  -2   6    1.67    0.34
   6  -2   6    2.11    0.32
   6   2   6    1.57    0.28
   6   2   6    1.82    0.34
   7  -2   6    1.39    0.28
   7  -2   6    0.94    0.21
  -7   2  -6    1.56    0.28
   7   2   6    1.54    0.34
   7   2   6    1.51    0.27
  -8  -2  -6    1.08    0.22
   8  -2   6    0.46    0.29
   8  -2   6    0.65    0.26
   8   2   6    0.74    0.19
  -8   2  -6    0.60    0.16
  -9  -2  -6    0.91    0.17
   9   2   6    0.72    0.18
  -9   2  -6    0.83    0.18
 -10  -2  -6    0.13    0.09
 -10   2  -6    0.04    0.12
 -10  -3   6    0.20    0.16
 -10  -3   6    0.07    0.10
  10  -3  -6   -0.08    0.16
 -10   3   6   -0.02    0.08
  -9  -3   6    0.43    0.13
  -9  -3   6    0.39    0.15
   9  -3  -6    0.54    0.15
  -9   3   6    0.35    0.13
   9   3  -6    0.40    0.19
  -8  -3   6    1.08    0.24
  -8  -3   6    0.73    0.17
   8  -3  -6    0.66    0.18
  -8   3   6    0.97    0.25
  -8   3   6    0.57    0.15
   8   3  -6    0.50    0.18
  -7  -3   6    0.63    0.18
   7  -3  -6    0.77    0.18
  -7  -3   6    1.28    0.28
  -7   3   6    1.28    0.24
  -7   3   6    1.15    0.26
   6  -3  -6   25.05    1.01
  -6  -3   6   24.87    1.00
  -6  -3   6   24.10    1.01
  -6   3   6   24.10    1.03
  -6   3   6   23.79    1.00
  -5  -3   6    1.44    0.24
   5  -3  -6    1.26    0.20
  -5  -3   6    1.46    0.23
  -5  -3   6    1.36    0.23
  -5   3   6    1.24    0.19
  -5   3   6    1.42    0.26
   4  -3  -6    9.58    0.47
  -4  -3   6    9.95    0.47
   3  -3  -6  138.28    4.85
  -3  -3   6  129.41    4.86
  -2  -3   6   27.41    1.05
   2  -3  -6   27.40    1.04
   2   3  -6   27.18    1.04
   1  -3  -6    0.04    0.04
   1   3  -6   -0.05    0.05
   0  -3  -6    7.23    0.31
   0   3   6    7.51    0.32
   0   3  -6    7.67    0.32
  -1  -3  -6    9.25    0.38
   1   3   6    9.76    0.39
  -1   3  -6    9.27    0.37
   2  -3   6    6.00    0.34
  -2  -3  -6    5.91    0.27
  -2   3  -6    6.34    0.25
  -2   3  -6    6.96    0.25
   2   3   6    6.62    0.28
   3  -3   6    5.61    0.33
  -3  -3  -6    5.82    0.26
   3   3   6    5.93    0.27
   4  -3   6    1.27    0.29
   4  -3   6    1.53    0.23
   4  -3   6    1.29    0.27
   4   3   6    1.76    0.29
   4   3   6    1.77    0.28
   5  -3   6    0.66    0.20
   5  -3   6    0.82    0.20
   5  -3   6    0.69    0.18
   5   3   6    0.76    0.19
   5   3   6    0.71    0.20
   5   3   6    0.68    0.19
   6  -3   6   11.69    0.56
  -6  -3  -6   10.45    0.66
   6  -3   6   12.43    0.59
   6  -3   6   11.59    0.56
   6   3   6   10.94    0.57
   7  -3   6   16.21    0.71
   7  -3   6   14.14    0.71
   7  -3   6   15.83    0.72
   7   3   6   15.59    0.71
  -7   3  -6   15.31    0.69
   7   3   6   14.68    0.72
   8  -3   6    0.24    0.19
   8  -3   6    0.06    0.18
  -8  -3  -6   -0.01    0.13
  -8   3  -6    0.27    0.17
   8   3   6    0.12    0.19
  -9  -3  -6    3.43    0.24
   9   3   6    3.30    0.30
  -9   3  -6    3.53    0.26
 -10  -3  -6    0.61    0.13
 -10  -4   6    0.27    0.14
  10  -4  -6    0.53    0.17
 -10  -4   6    0.05    0.11
 -10   4   6    0.16    0.10
  -9  -4   6    1.09    0.22
  -9  -4   6    1.03    0.20
  -9   4   6    1.26    0.20
  -8  -4   6    0.33    0.16
  -8  -4   6    0.24    0.15
   8  -4  -6   -0.05    0.13
   8   4  -6    0.00    0.16
  -8   4   6   -0.13    0.12
  -7  -4   6    3.24    0.31
   7  -4  -6    3.79    0.32
  -7  -4   6    3.55    0.33
  -7   4   6    3.52    0.30
  -7   4   6    3.51    0.43
   6  -4  -6    1.03    0.18
  -6  -4   6    1.44    0.29
  -6   4   6    1.25    0.27
  -6   4   6    0.52    0.22
  -5  -4   6    5.47    0.43
  -5  -4   6    5.85    0.39
   5  -4  -6    5.43    0.34
  -5  -4   6    5.69    0.36
  -5   4   6    6.06    0.48
  -5   4   6    5.92    0.36
   4  -4  -6   31.48    1.23
   4  -4  -6   32.56    1.25
  -4  -4   6   31.42    1.24
   3  -4  -6   20.38    0.81
  -3  -4   6   20.35    0.82
  -2  -4   6    4.94    0.28
   2  -4  -6    5.18    0.25
   2   4  -6    4.55    0.27
  -1  -4   6    0.30    0.12
   1  -4  -6    0.20    0.05
  -1  -4   6    0.21    0.10
  -1   4   6    0.16    0.07
   1   4  -6    0.30    0.08
   0  -4  -6    3.73    0.19
   0  -4   6    3.80    0.19
   0  -4   6    3.42    0.23
   0   4  -6    3.80    0.20
   0   4   6    3.89    0.21
   1  -4   6    2.10    0.20
  -1  -4  -6    2.15    0.15
   1   4   6    2.37    0.16
  -1   4  -6    2.86    0.15
  -2  -4  -6    4.78    0.23
   2  -4   6    4.56    0.29
  -2   4  -6    4.79    0.20
   2   4   6    4.54    0.24
  -2   4  -6    4.85    0.20
  -3  -4  -6   31.24    1.16
   3  -4   6   30.98    1.19
   3   4   6   30.90    1.19
   4  -4   6   63.23    2.30
   4  -4   6   62.76    2.31
   4  -4   6   61.89    2.33
   4   4   6   61.46    2.33
   4   4   6   60.56    2.32
   4   4   6   60.72    2.32
   5  -4   6    9.91    0.51
   5  -4   6    9.45    0.49
   5  -4   6    9.55    0.47
   5   4   6    9.20    0.50
   5   4   6    9.93    0.52
   5   4   6    9.09    0.50
   6  -4   6    0.07    0.16
   6  -4   6    0.26    0.18
  -6  -4  -6   -0.14    0.24
   6  -4   6   -0.07    0.17
   6   4   6   -0.20    0.21
   6   4   6    0.09    0.16
  -6   4  -6    0.02    0.21
   7  -4   6    2.93    0.34
   7  -4   6    3.28    0.31
   7  -4   6    3.75    0.35
  -7  -4  -6    2.44    0.44
  -7   4  -6    3.40    0.34
   7   4   6    3.38    0.40
   7   4   6    3.49    0.33
  -8  -4  -6    0.42    0.14
   8  -4   6    0.29    0.20
   8  -4   6    0.36    0.18
   8   4   6   -0.16    0.19
  -8   4  -6    0.49    0.17
  -9  -4  -6    5.30    0.29
   9   4   6    4.78    0.32
  -9   4  -6    5.01    0.32
 -10  -4  -6    0.18    0.08
  10  -5  -6    2.54    0.45
 -10  -5   6    1.90    0.22
 -10  -5   6    2.48    0.22
 -10   5   6    2.09    0.21
   9  -5  -6    0.49    0.15
  -9  -5   6    0.55    0.14
  -9  -5   6    0.69    0.14
   9   5  -6    0.62    0.22
  -9   5   6    0.64    0.13
  -8  -5   6    1.06    0.26
  -8  -5   6    1.50    0.27
   8  -5  -6    1.00    0.23
  -8   5   6    1.41    0.24
   8   5  -6    1.12    0.21
  -7  -5   6    0.21    0.17
  -7  -5   6    0.11    0.17
   7  -5  -6   -0.24    0.15
  -7   5   6   -0.09    0.26
  -7   5   6    0.00    0.14
   6  -5  -6    2.96    0.28
  -6  -5   6    3.05    0.32
  -6  -5   6    3.20    0.35
  -6   5   6    3.02    0.29
  -6   5   6    3.15    0.44
  -5  -5   6    2.94    0.32
   5  -5  -6    3.55    0.28
  -5  -5   6    3.52    0.40
  -5  -5   6    3.55    0.29
  -5   5   6    3.03    0.30
  -5   5   6    3.67    0.44
  -4  -5   6    1.52    0.30
   4  -5  -6    1.20    0.22
  -4  -5   6    1.27    0.22
   4  -5  -6    1.17    0.24
  -4   5   6    1.21    0.27
   3  -5  -6   61.52    2.30
   3  -5  -6   61.58    2.29
  -3  -5   6   63.18    2.31
  -2  -5   6    6.80    0.36
  -2  -5   6    7.59    0.35
   2  -5  -6    7.41    0.35
  -2   5   6    7.35    0.38
   1  -5  -6   75.70    2.61
  -1  -5   6   73.78    2.61
  -1  -5   6   66.46    2.61
   1   5  -6   71.85    2.61
  -1   5   6   68.50    2.61
   0  -5   6   -0.09    0.11
   0  -5  -6    0.14    0.07
   0  -5   6   -0.04    0.06
   0   5  -6    0.20    0.08
   0   5   6    0.13    0.07
  -1  -5  -6    0.81    0.12
   1  -5   6    0.72    0.17
   1  -5   6    0.80    0.10
  -1   5  -6    0.85    0.13
   1   5   6    0.79    0.15
   2  -5   6    7.13    0.36
  -2   5  -6    7.02    0.30
   2   5   6    7.02    0.35
  -3  -5  -6    4.12    0.33
   3  -5   6    5.10    0.29
   4  -5   6    1.64    0.21
   4  -5   6    1.34    0.25
   4  -5   6    1.40    0.29
   4   5   6    1.54    0.30
   4   5   6    1.85    0.27
   4   5   6    1.76    0.30
   5  -5   6    3.55    0.28
   5  -5   6    3.14    0.32
   5  -5   6    3.15    0.30
   5   5   6    3.27    0.33
   5   5   6    3.33    0.31
   5   5   6    2.89    0.34
   6  -5   6    6.53    0.40
   6  -5   6    6.24    0.39
  -6  -5  -6    6.58    0.45
   6  -5   6    6.25    0.41
   6   5   6    6.14    0.44
   6   5   6    6.16    0.41
  -6   5  -6    5.93    0.46
   7  -5   6    0.31    0.19
  -7  -5  -6   -0.09    0.22
   7  -5   6   -0.05    0.14
   7  -5   6    0.22    0.19
  -7   5  -6    0.25    0.20
   7   5   6   -0.22    0.25
   7   5   6   -0.01    0.15
   8  -5   6    0.96    0.17
  -8  -5  -6    0.95    0.19
   8  -5   6    0.39    0.24
   8  -5   6    1.19    0.30
  -8   5  -6    0.91    0.19
   8   5   6    0.94    0.24
  -9  -5  -6    3.29    0.23
   9   5   6    3.54    0.28
 -10  -5  -6    0.05    0.08
 -10  -6   6    3.13    0.23
 -10   6   6    3.60    0.22
  -9  -6   6    8.86    0.43
  -9  -6   6    8.72    0.43
   9   6  -6    8.49    0.53
  -9   6   6    8.93    0.43
   8  -6  -6    4.08    0.32
  -8  -6   6    3.59    0.38
  -8  -6   6    4.39    0.33
   8   6  -6    4.13    0.37
  -8   6   6    4.83    0.32
  -7  -6   6    1.61    0.31
  -7  -6   6    1.17    0.21
   7  -6  -6    1.51    0.24
  -7   6   6    1.03    0.20
   6  -6  -6    7.76    0.43
  -6  -6   6    8.32    0.49
  -6  -6   6    7.61    0.44
  -6   6   6    6.08    0.61
  -6   6   6    7.74    0.43
   5  -6  -6    9.70    0.47
  -5  -6   6    9.00    0.48
  -5  -6   6    9.39    0.49
  -5   6   6    8.35    0.58
  -5   6   6    8.85    0.48
  -4  -6   6    1.86    0.24
   4  -6  -6    1.89    0.24
  -4  -6   6    1.31    0.31
  -4   6   6    1.56    0.28
   3  -6  -6    3.41    0.28
  -3  -6   6    3.32    0.29
  -3  -6   6    3.38    0.26
   3  -6  -6    3.02    0.28
  -2  -6   6   30.29    1.11
   2  -6  -6   29.45    1.10
   2  -6  -6   25.26    1.10
  -2  -6   6   29.08    1.11
  -1  -6   6   91.43    3.33
   1  -6  -6   94.85    3.33
  -1  -6   6   88.79    3.32
   1   6  -6   89.50    3.33
   0  -6   6   56.71    2.11
   0  -6   6   56.93    2.10
   0  -6  -6   61.91    2.11
   0   6   6   54.43    2.11
   0   6  -6   56.09    2.10
  -1  -6  -6    2.23    0.19
   1  -6   6    2.09    0.20
   1  -6   6    2.65    0.18
  -1   6  -6    2.34    0.19
   1   6   6    2.57    0.22
  -2  -6  -6    0.16    0.10
   2  -6   6    0.20    0.11
  -2   6  -6    0.02    0.11
   2   6   6    0.13    0.12
  -3  -6  -6    0.54    0.15
   3  -6   6    0.74    0.14
   3  -6   6    0.76    0.19
   3  -6   6    0.68    0.18
   3   6   6    0.41    0.23
   3   6   6    0.37    0.20
   3   6   6    0.94    0.24
   4  -6   6    7.96    0.40
   4  -6   6    7.51    0.44
   4  -6   6    7.53    0.42
   4   6   6    8.01    0.45
   4   6   6    7.30    0.44
   4   6   6    7.47    0.45
   5  -6   6    9.49    0.49
   5  -6   6    9.44    0.50
   5  -6   6   10.04    0.49
   5   6   6    9.09    0.50
   5   6   6    9.63    0.51
   5   6   6    9.79    0.52
  -6  -6  -6    3.67    0.36
   6  -6   6    3.58    0.34
   6  -6   6    3.68    0.32
   6  -6   6    3.61    0.31
   6   6   6    3.40    0.37
   6   6   6    3.85    0.34
   7  -6   6    2.61    0.28
   7  -6   6    2.30    0.30
  -7  -6  -6    2.81    0.37
   7  -6   6    2.60    0.33
   7   6   6    2.79    0.29
   8  -6   6    2.49    0.35
  -8  -6  -6    2.62    0.24
   8  -6   6    2.45    0.50
   8  -6   6    2.52    0.27
  -8  -6  -6    2.19    0.35
   8   6   6    2.60    0.26
  -9  -6  -6    0.75    0.16
   9   6   6    0.68    0.16
 -10  -7   6    0.10    0.11
 -10   7   6   -0.05    0.12
  -9  -7   6    0.16    0.11
   9  -7  -6    0.08    0.14
  -9   7   6    0.21    0.12
  -8  -7   6    7.19    0.42
   8  -7  -6    6.87    0.40
   8   7  -6    7.06    0.46
   7  -7  -6    0.20    0.14
  -7  -7   6    0.60    0.17
  -7  -7   6    0.69    0.23
  -7   7   6    0.25    0.16
   6  -7  -6    4.94    0.35
  -6  -7   6    4.93    0.37
  -6   7   6    5.09    0.36
  -5  -7   6    5.89    0.39
   5  -7  -6    6.30    0.37
  -5  -7   6    5.87    0.39
  -5   7   6    6.04    0.52
  -5   7   6    6.11    0.39
   4  -7  -6   12.65    0.56
  -4  -7   6   11.43    0.59
  -4  -7   6   13.27    0.58
  -4   7   6   10.69    0.67
  -4   7   6   12.17    0.58
  -3  -7   6    1.15    0.21
   3  -7  -6    0.82    0.17
  -2  -7   6    0.21    0.12
  -2  -7   6    0.17    0.13
   2  -7  -6   -0.01    0.11
   2  -7  -6    0.06    0.19
  -1  -7   6   38.62    1.50
  -1  -7   6   40.42    1.50
   1  -7  -6   39.74    1.50
   0  -7  -6    0.15    0.09
   0  -7   6    0.02    0.09
   0  -7   6    0.15    0.11
   0   7  -6    0.13    0.12
   1  -7   6    0.34    0.11
  -1  -7  -6    0.35    0.11
   1  -7   6    0.44    0.12
  -1   7  -6    0.31    0.11
   2  -7   6   19.91    0.82
  -2  -7  -6   19.62    0.81
   3  -7   6    2.23    0.30
   3  -7   6    1.84    0.22
  -3  -7  -6    1.45    0.35
   3  -7   6    1.86    0.26
   3   7   6    1.89    0.33
   3   7   6    2.20    0.28
   3   7   6    1.84    0.29
   3   7   6    1.73    0.32
   4  -7   6    0.55    0.17
   4  -7   6    0.54    0.14
   4  -7   6    0.81    0.20
   4   7   6    0.48    0.18
   4   7   6    0.46    0.19
   4   7   6    0.61    0.21
   5  -7   6    8.60    0.45
   5  -7   6    8.30    0.45
   5   7   6    8.56    0.48
   5   7   6    8.13    0.47
   5   7   6    8.48    0.47
   6  -7   6    0.84    0.17
  -6  -7  -6    0.94    0.20
   6  -7   6    1.64    0.30
   6   7   6    0.78    0.23
   6   7   6    0.70    0.17
   7  -7   6    0.48    0.16
  -7  -7  -6    0.98    0.21
   7  -7   6    0.41    0.18
   7  -7   6    1.00    0.21
   7   7   6    0.37    0.16
  -8  -7  -6    0.21    0.16
   8  -7   6    0.17    0.14
  -8  -7  -6    0.30    0.12
   8   7   6    0.25    0.13
  -9  -7  -6    0.28    0.10
   9   7   6    0.38    0.14
  -9  -8   6    1.34    0.18
   9  -8  -6    1.47    0.25
  -9   8   6    1.53    0.20
   8  -8  -6    5.71    0.36
  -8  -8   6    5.35    0.34
   8   8  -6    5.67    0.44
  -8   8   6    5.32    0.33
  -7  -8   6    0.26    0.17
   7  -8  -6    0.28    0.15
  -7   8   6    0.21    0.15
   6  -8  -6    3.89    0.33
  -6  -8   6    3.62    0.33
  -6   8   6    3.74    0.33
  -5  -8   6    5.41    0.39
   5  -8  -6    5.82    0.36
  -5  -8   6    5.78    0.38
  -5   8   6    4.94    0.37
  -4  -8   6    0.04    0.20
  -4  -8   6   -0.04    0.15
   4  -8  -6    0.07    0.15
  -4   8   6    0.22    0.28
  -4   8   6    0.21    0.20
   3  -8  -6    2.38    0.28
  -3  -8   6    2.81    0.26
  -3  -8   6    1.80    0.40
  -3   8   6    2.38    0.44
  -3   8   6    2.49    0.35
  -2  -8   6    0.14    0.13
   1  -8  -6   17.95    0.75
  -1  -8   6   17.45    0.75
  -1  -8   6   18.51    0.74
   0  -8   6   21.78    0.86
   0  -8  -6   20.92    0.86
   0  -8   6   21.08    0.85
   1  -8   6   19.95    0.81
  -1  -8  -6   22.02    0.84
  -1   8  -6   18.29    0.83
   2  -8   6    4.83    0.34
   2  -8   6    4.37    0.28
  -2  -8  -6    4.98    0.38
   2  -8   6    4.38    0.34
   2   8   6    5.25    0.39
   2   8   6    4.19    0.34
   2   8   6    4.55    0.38
   3  -8   6    5.98    0.38
   3  -8   6    5.92    0.36
   3  -8   6    5.16    0.33
  -3  -8  -6    5.53    0.61
   3   8   6    5.89    0.38
   3   8   6    5.88    0.41
   3   8   6    6.05    0.40
   3   8   6    5.63    0.42
   4  -8   6    7.26    0.43
   4  -8   6    7.29    0.40
   4  -8   6    7.15    0.41
   4   8   6    7.29    0.43
   4   8   6    7.32    0.43
   4   8   6    6.73    0.44
   5  -8   6    0.16    0.15
   5  -8   6    0.25    0.15
   5  -8   6    0.15    0.18
   5   8   6    0.21    0.17
   5   8   6    0.19    0.19
   5   8   6    0.33    0.16
   6  -8   6    1.23    0.25
   6  -8   6    1.07    0.23
   6  -8   6    0.88    0.21
  -6  -8  -6    1.07    0.20
   6   8   6    0.78    0.18
   6   8   6    0.67    0.23
   7  -8   6    0.20    0.21
  -7  -8  -6    0.10    0.17
   7  -8   6   -0.04    0.17
   7  -8   6    0.26    0.14
   7   8   6    0.06    0.15
  -8  -8  -6   -0.08    0.11
  -8  -8  -6    0.08    0.15
   8  -8   6    0.00    0.18
   8   8   6    0.00    0.12
   9   8   6   -0.22    0.14
  -9  -9   6    0.00    0.10
   9  -9  -6    0.26    0.16
  -9   9   6    0.21    0.14
  -8  -9   6    3.89    0.28
   8  -9  -6    3.91    0.30
  -8   9   6    4.36    0.30
   7  -9  -6   16.79    0.78
  -7  -9   6   18.04    0.78
  -7   9   6   18.93    0.78
   6  -9  -6    6.59    0.41
  -6  -9   6    7.14    0.42
  -6   9   6    6.79    0.43
  -5  -9   6    2.21    0.31
   5  -9  -6    1.83    0.28
  -5  -9   6    2.51    0.31
   5   9  -6    1.66    0.34
  -5   9   6    1.82    0.32
  -4  -9   6   10.54    0.53
  -4  -9   6    9.71    0.51
   4  -9  -6   10.20    0.50
  -4   9   6    8.92    0.63
  -4   9   6    9.92    0.56
  -4   9   6    9.37    0.53
  -3  -9   6   -0.13    0.24
   3  -9  -6   -0.07    0.18
  -3  -9   6    0.20    0.15
  -3   9   6    0.19    0.20
  -3   9   6    0.57    0.26
  -3   9   6    0.19    0.22
  -2  -9   6    0.21    0.13
  -2  -9   6    0.50    0.22
  -2   9   6   -0.09    0.27
  -2   9   6    0.29    0.18
  -2   9   6    0.23    0.26
  -1  -9   6    2.14    0.30
  -1  -9   6    2.47    0.23
  -1   9   6    2.16    0.29
   0  -9   6    1.98    0.22
   0  -9   6    1.93    0.28
   0  -9   6    1.85    0.31
   0   9   6    1.50    0.27
   0   9   6    1.94    0.35
   1  -9   6   29.34    1.20
   1  -9   6   30.14    1.20
   1  -9   6   29.72    1.19
   1   9   6   30.26    1.21
   1   9   6   31.76    1.20
   2  -9   6    8.40    0.45
   2  -9   6    8.43    0.42
   2  -9   6    7.92    0.44
   2   9   6    8.01    0.46
   2   9   6    8.24    0.48
   2   9   6    8.32    0.44
   2   9   6    8.27    0.50
   3  -9   6    1.59    0.28
   3  -9   6    1.04    0.23
   3  -9   6    0.93    0.21
   3   9   6    1.08    0.24
   3   9   6    0.82    0.19
   3   9   6    0.99    0.21
   3   9   6    1.02    0.19
   4  -9   6    1.25    0.25
   4  -9   6    1.85    0.29
   4  -9   6    1.58    0.24
   4   9   6    1.91    0.28
   4   9   6    1.46    0.23
   4   9   6    1.52    0.28
   5  -9   6    0.83    0.17
   5  -9   6    0.74    0.20
   5  -9   6    0.99    0.19
   5   9   6    0.75    0.20
   5   9   6    1.21    0.25
   5   9   6    1.26    0.23
   6  -9   6   20.54    0.84
  -6  -9  -6   18.67    0.82
   6  -9   6   19.32    0.81
   6  -9   6   17.53    0.81
   6   9   6   18.83    0.84
   6   9   6   18.25    0.83
   7  -9   6    1.04    0.25
   7  -9   6    1.07    0.22
   8  -9   6    0.20    0.18
  -8  -9  -6    0.25    0.11
  -8  -9  -6    0.30    0.13
   8   9   6    0.21    0.12
  -9  -9  -6   -0.02    0.10
   9   9   6   -0.35    0.14
  -9 -10   6    0.07    0.10
   8 -10  -6    0.22    0.16
  -8 -10   6    0.31    0.12
  -8  10   6    0.49    0.15
   7 -10  -6    5.26    0.37
  -7 -10   6    6.65    0.38
  -6 -10   6    6.62    0.41
   6 -10  -6    6.33    0.40
  -6  10   6    6.85    0.43
   5 -10  -6   22.83    0.96
  -5 -10   6   21.92    0.95
  -5 -10   6   25.57    0.99
  -5  10   6   21.73    0.96
   5  10  -6   22.53    1.01
  -4 -10   6    2.44    0.58
  -4 -10   6    3.17    0.34
   4 -10  -6    4.43    0.35
  -4  10   6    3.94    0.37
  -4  10   6    3.57    0.38
   3 -10  -6    6.05    0.41
  -3 -10   6    6.65    0.48
  -3 -10   6    6.15    0.39
  -3  10   6    6.60    0.41
  -3  10   6    6.18    0.46
  -3  10   6    6.58    0.54
  -2 -10   6    1.91    0.24
  -2 -10   6    1.67    0.29
  -2  10   6    1.92    0.28
  -2  10   6    1.80    0.28
  -2  10   6    2.27    0.39
  -1 -10   6   22.32    0.88
  -1 -10   6   21.43    0.90
  -1  10   6   22.27    0.89
  -1  10   6   19.54    0.91
  -1  10   6   20.80    0.90
   0 -10   6    0.33    0.17
   0 -10   6    0.35    0.21
   0 -10   6    0.38    0.13
   0  10   6    0.36    0.21
   0  10   6    0.13    0.25
   0  10   6    0.39    0.18
   1 -10   6    1.95    0.27
   1 -10   6    1.64    0.21
   1 -10   6    1.76    0.27
   1  10   6    1.50    0.25
   1  10   6    1.38    0.25
   1  10   6    1.90    0.29
   1  10   6    1.64    0.32
   2 -10   6   12.62    0.60
   2 -10   6   12.80    0.58
   2 -10   6   12.63    0.59
   2  10   6   12.52    0.62
   2  10   6   12.76    0.61
   2  10   6   13.30    0.64
   2  10   6   12.55    0.59
   3 -10   6   17.15    0.74
   3 -10   6   16.69    0.74
   3 -10   6   17.34    0.76
   3  10   6   17.12    0.77
   3  10   6   17.57    0.75
   3  10   6   16.79    0.77
   4 -10   6   19.40    0.84
   4 -10   6   19.49    0.83
   4 -10   6   19.88    0.83
   4  10   6   17.98    0.84
   4  10   6   19.48    0.84
   4  10   6   19.98    0.85
   5 -10   6    0.08    0.13
  -5 -10  -6    0.09    0.14
   5 -10   6   -0.03    0.14
   5 -10   6   -0.20    0.17
   5  10   6    0.08    0.15
   5  10   6    0.05    0.18
   5  10   6   -0.09    0.20
   6 -10   6    0.23    0.15
  -6 -10  -6    0.09    0.15
   6 -10   6   -0.22    0.15
   6 -10   6   -0.15    0.18
   6  10   6    0.09    0.14
   6  10   6    0.19    0.23
   7 -10   6    0.06    0.15
   7 -10   6   -0.07    0.20
  -7 -10  -6   -0.18    0.13
   7  10   6   -0.16    0.11
   8 -10   6    2.05    0.30
  -8 -10  -6    1.90    0.22
  -8 -10  -6    1.42    0.20
   8  10   6    1.54    0.20
  -9 -11   6    0.11    0.09
   8 -11  -6   -0.01    0.17
  -8 -11   6    0.25    0.11
  -8  11   6    0.05    0.22
  -7 -11   6    1.95    0.25
   7 -11  -6    2.24    0.28
  -7  11   6    2.07    0.29
   6 -11  -6    1.83    0.29
  -6 -11   6    1.76    0.27
  -6  11   6    1.91    0.32
  -5 -11   6    1.38    0.28
  -5  11   6    1.08    0.24
  -5  11   6    1.41    0.25
   5  11  -6    1.54    0.36
  -4 -11   6    4.56    0.39
   4 -11  -6    3.59    0.36
  -4 -11   6    4.52    0.37
  -4  11   6    3.63    0.40
  -4  11   6    3.51    0.34
  -3 -11   6    4.52    0.46
  -3 -11   6    5.37    0.37
  -3  11   6    5.24    0.36
  -3  11   6    4.72    0.50
  -3  11   6    4.41    0.42
  -2 -11   6    3.30    0.32
  -2 -11   6    3.61    0.30
  -2  11   6    3.73    0.31
  -2  11   6    2.87    0.40
  -2  11   6    3.05    0.41
  -1 -11   6   -0.06    0.14
  -1 -11   6    0.13    0.17
  -1  11   6    0.25    0.21
  -1  11   6   -0.20    0.26
  -1  11   6    0.17    0.16
   0 -11   6    9.04    0.47
   0 -11   6    8.42    0.44
   0  11   6    8.56    0.50
   0  11   6    8.28    0.54
   0  11   6    7.19    0.54
   0  11   6    8.60    0.45
   1 -11   6   20.12    0.84
   1 -11   6   21.06    0.86
   1 -11   6   20.15    0.84
   1  11   6   20.33    0.86
   1  11   6   19.96    0.84
   1  11   6   20.22    0.89
   1  11   6   19.02    0.87
   2 -11   6    2.28    0.27
   2 -11   6    2.32    0.28
   2 -11   6    2.77    0.27
   2  11   6    2.29    0.26
   2  11   6    2.58    0.37
   2  11   6    2.72    0.32
   2  11   6    2.13    0.31
   3 -11   6    2.07    0.25
   3 -11   6    1.95    0.27
   3 -11   6    1.70    0.25
   3  11   6    1.78    0.36
   3  11   6    1.34    0.27
   3  11   6    1.43    0.27
   4 -11   6    0.22    0.14
   4 -11   6    0.10    0.16
   4 -11   6    0.10    0.17
   4  11   6    0.62    0.22
   4  11   6    0.35    0.17
   4  11   6    0.29    0.16
   5 -11   6    5.79    0.37
   5 -11   6    6.58    0.41
  -5 -11  -6    7.10    0.41
   5 -11   6    6.56    0.38
   5  11   6    6.04    0.40
   5  11   6    5.85    0.43
   6 -11   6    1.61    0.24
  -6 -11  -6    1.91    0.28
   6 -11   6    2.25    0.31
   6 -11   6    1.60    0.26
   6  11   6    2.06    0.25
   6  11   6    1.65    0.39
  -7 -11  -6    0.00    0.12
  -7 -11  -6   -0.04    0.14
   7 -11   6   -0.22    0.13
   7  11   6    0.15    0.11
  -8 -11  -6    0.59    0.14
   8 -11   6    0.56    0.19
  -8 -11  -6    0.41    0.12
   8  11   6    0.37    0.11
   8 -12  -6    1.41    0.24
  -8 -12   6    1.52    0.18
  -7 -12   6   -0.01    0.12
  -6 -12   6   -0.25    0.13
   6 -12  -6   -0.01    0.19
  -6  12   6   -0.15    0.22
   6  12  -6    0.03    0.26
   5 -12  -6    7.41    0.48
  -5 -12   6    8.26    0.50
  -5 -12   6    8.67    0.48
  -5  12   6    9.02    0.52
  -5  12   6    8.66    0.48
   5  12  -6    8.19    0.51
   4 -12  -6    0.08    0.23
  -4 -12   6   -0.28    0.20
  -4 -12   6    0.17    0.20
  -4  12   6    0.00    0.18
  -4  12   6    0.13    0.23
   4  12  -6    0.30    0.19
  -3 -12   6   15.52    0.71
  -3 -12   6   14.78    0.76
  -3  12   6   16.09    0.70
  -2 -12   6    5.43    0.37
  -2  12   6    5.89    0.36
  -2  12   6    4.92    0.48
  -1 -12   6    0.06    0.16
  -1 -12   6    0.09    0.15
  -1  12   6    0.23    0.15
  -1  12   6    0.52    0.22
   0 -12   6    5.33    0.36
   0 -12   6    5.54    0.36
   0  12   6    5.76    0.36
   0  12   6    4.86    0.45
   0  12   6    6.14    0.41
   1 -12   6   26.59    1.01
   1 -12   6   22.72    1.04
   1  12   6   24.16    1.02
   1  12   6   23.38    1.04
   1  12   6   24.05    1.00
   1  12   6   24.95    1.01
   2 -12   6    7.85    0.45
   2 -12   6    8.30    0.44
   2 -12   6    8.01    0.44
   2  12   6    6.90    0.52
   2  12   6    8.29    0.47
   2  12   6    8.09    0.44
   3 -12   6   11.75    0.57
   3 -12   6   10.84    0.56
   3 -12   6   11.13    0.54
   3  12   6   11.35    0.57
   3  12   6   11.36    0.61
   3  12   6   11.64    0.56
   4 -12   6    7.53    0.46
   4 -12   6    9.17    0.46
   4 -12   6    9.13    0.49
   4  12   6    7.59    0.50
   4  12   6    8.97    0.48
   4  12   6    9.82    0.49
  -5 -12  -6   -0.08    0.14
   5 -12   6    0.25    0.17
   5 -12   6    0.08    0.17
   5  12   6   -0.04    0.19
   5  12   6    0.03    0.15
   6 -12   6   10.05    0.49
   6 -12   6    9.79    0.49
  -6 -12  -6    9.43    0.49
   6  12   6    9.39    0.50
  -7 -12  -6    2.17    0.22
   7 -12   6    2.49    0.27
  -7 -12  -6    2.08    0.24
   7  12   6    2.24    0.22
  -8 -12  -6    3.07    0.22
  -8  12  -6    2.91    0.22
   8  12   6    2.92    0.20
  -8 -13   6    2.82    0.27
  -7 -13   6   15.74    0.64
   7 -13  -6   14.50    0.70
   6 -13  -6    0.20    0.21
  -6 -13   6    0.49    0.15
   6  13  -6    0.52    0.23
  -5 -13   6    0.10    0.23
   5 -13  -6    0.28    0.24
  -5 -13   6    0.15    0.17
   5  13  -6   -0.26    0.18
  -5  13   6    0.58    0.18
  -4 -13   6   -0.04    0.21
  -4 -13   6    0.26    0.21
   4  13  -6    0.00    0.18
  -4  13   6   -0.03    0.16
  -3 -13   6   17.11    0.77
  -3  13   6   16.85    0.75
  -2 -13   6   32.54    1.27
  -2  13   6   32.25    1.26
  -2  13   6   29.83    1.29
  -1 -13   6    0.13    0.15
  -1 -13   6    0.25    0.16
  -1  13   6    0.17    0.23
  -1  13   6    0.04    0.14
   1  13  -6    0.60    0.28
   0 -13   6   13.23    0.62
   0 -13   6   13.82    0.63
   0  13   6   12.72    0.60
   0  13   6   12.71    0.65
   1 -13   6   14.61    0.69
   1 -13   6   15.45    0.69
   1  13   6   15.96    0.72
   1  13   6   15.55    0.71
   1  13   6   14.72    0.68
   2 -13   6   32.21    1.29
   2 -13   6   33.40    1.29
   2  13   6   31.35    1.29
   2  13   6   31.58    1.28
   3 -13   6    3.92    0.33
   3 -13   6    4.17    0.34
   3  13   6    3.79    0.34
   3  13   6    4.73    0.34
   3  13   6    4.72    0.44
   4 -13   6    0.08    0.16
   4 -13   6    0.39    0.16
   4  13   6   -0.12    0.14
   4  13   6    0.37    0.17
   4  13   6    0.19    0.22
   5 -13   6    7.07    0.42
   5 -13   6    7.22    0.42
  -5 -13  -6    7.43    0.42
   5  13   6    7.10    0.42
   6 -13   6    2.60    0.28
   6 -13   6    2.84    0.29
  -6 -13  -6    2.71    0.24
   6  13   6    2.09    0.23
   7 -13   6    0.17    0.14
  -7 -13  -6    0.26    0.11
   7  13   6    0.16    0.10
  -8 -13  -6    0.20    0.12
   8  13   6    0.17    0.10
  -8 -14   6   -0.01    0.10
  -7 -14   6    0.00    0.11
  -6 -14   6    0.06    0.14
   6  14  -6    0.06    0.20
  -5 -14   6    0.67    0.29
  -5 -14   6    1.09    0.19
  -5  14   6    1.12    0.26
   5  14  -6    1.35    0.29
  -4 -14   6    2.26    0.37
  -4 -14   6    2.54    0.36
  -4  14   6    1.60    0.25
   4  14  -6    1.97    0.29
  -3 -14   6    7.80    0.49
  -3  14   6    8.06    0.43
  -2  14   6    0.77    0.16
  -1 -14   6   -0.31    0.17
  -1 -14   6    0.16    0.15
  -1  14   6    0.25    0.24
  -1  14   6   -0.21    0.13
   1  14  -6    0.07    0.24
   0 -14   6    0.97    0.24
   0 -14   6    0.62    0.19
   0  14   6    0.58    0.22
   0  14   6    0.65    0.25
   0  14   6    0.33    0.15
   0  14  -6    0.95    0.21
   1 -14   6   16.94    0.76
   1 -14   6   18.20    0.77
   1  14   6   16.85    0.75
   1  14   6   16.44    0.77
   2 -14   6   14.24    0.66
   2 -14   6   13.29    0.65
   2  14   6   14.01    0.66
   2  14   6   14.30    0.64
   3 -14   6    1.70    0.25
   3 -14   6    1.13    0.24
   3  14   6    1.28    0.26
   3  14   6    1.26    0.25
   4 -14   6    2.03    0.26
  -4 -14  -6    2.71    0.28
   4 -14   6    2.63    0.28
   4  14   6    2.51    0.29
   4  14   6    2.22    0.27
   5 -14   6    0.06    0.13
   5 -14   6    0.04    0.15
  -5 -14  -6   -0.03    0.12
   5  14   6    0.13    0.12
   5  14   6    0.15    0.16
   6 -14   6    0.77    0.19
   6 -14   6    1.57    0.23
  -6 -14  -6    1.10    0.19
   6  14   6    0.88    0.18
   7 -14   6    0.26    0.16
  -7 -14  -6    0.14    0.09
   7  14   6   -0.03    0.09
  -7  14  -6    0.13    0.14
  -7 -15   6    3.87    0.25
  -6 -15   6    1.97    0.24
   6  15  -6    1.67    0.29
  -5 -15   6    0.47    0.18
   5  15  -6    0.52    0.17
  -5  15   6    0.71    0.15
  -4 -15   6   13.58    0.74
  -4  15   6   16.27    0.74
   4  15  -6   14.99    0.68
  -3 -15   6    1.29    0.25
  -3  15   6    1.18    0.22
  -2 -15   6    2.23    0.33
  -2  15   6    2.23    0.25
  -1 -15   6    0.61    0.19
  -1  15   6    0.60    0.15
   1  15  -6    0.74    0.28
   0 -15   6    2.65    0.31
   0 -15   6    3.14    0.29
   0  15  -6    3.28    0.32
   0  15   6    3.09    0.39
   0  15   6    3.02    0.27
   1 -15   6    2.30    0.28
   1 -15   6    2.36    0.27
   1  15   6    2.65    0.33
   2 -15   6   25.96    1.06
   2 -15   6   24.36    1.05
   2  15   6   25.45    1.04
   2  15   6   26.77    1.07
   3 -15   6    8.22    0.45
   3 -15   6    7.47    0.45
   3  15   6    8.08    0.45
   3  15   6    8.79    0.44
   4 -15   6    2.34    0.28
   4 -15   6    2.57    0.27
  -4 -15  -6    2.50    0.34
   4  15   6    2.90    0.29
   4  15   6    3.06    0.27
   5 -15   6    3.93    0.29
  -5 -15  -6    4.13    0.29
   5 -15   6    3.88    0.30
   5  15   6    4.01    0.28
   5  15   6    4.13    0.34
   6 -15   6    0.23    0.15
  -6 -15  -6    0.08    0.10
   6  15   6    0.07    0.10
  -6  15  -6    0.26    0.09
  -7 -15  -6   -0.04    0.09
   7  15   6    0.01    0.08
  -7  15  -6    0.03    0.10
  -6 -16   6    5.81    0.36
   6  16  -6    5.82    0.37
  -5  16   6    4.34    0.27
   5  16  -6    4.02    0.30
  -4  16   6    0.07    0.12
   4  16  -6    0.21    0.14
  -3 -16   6    0.08    0.25
  -3  16   6    0.02    0.13
  -2 -16   6    6.09    0.43
  -2  16   6    5.95    0.36
  -1 -16   6    1.08    0.22
  -1  16   6    1.62    0.23
   0 -16   6    4.46    0.36
   0  16   6    4.75    0.33
   0  16  -6    4.99    0.36
   0  16   6    5.25    0.42
   1 -16   6    0.18    0.14
   1 -16   6    0.13    0.16
  -1  16  -6    0.11    0.15
   1  16   6   -0.14    0.12
   1  16   6    0.21    0.19
   2 -16   6    0.02    0.16
   2 -16   6    0.34    0.15
   2  16   6    0.33    0.16
  -2  16  -6    0.49    0.15
   2  16   6   -0.06    0.12
   3 -16   6    3.79    0.29
  -3 -16  -6    3.48    0.28
   3 -16   6    3.67    0.30
   3  16   6    3.45    0.29
   3  16   6    3.64    0.28
  -4 -16  -6    6.17    0.35
   4 -16   6    6.56    0.35
   4 -16   6    5.84    0.37
   4  16   6    5.92    0.35
   4  16   6    6.00    0.35
  -5 -16  -6    2.39    0.22
   5 -16   6    2.45    0.26
   5  16   6    2.03    0.20
  -5  16  -6    2.24    0.20
  -6 -16  -6   -0.04    0.09
   6 -16   6    0.00    0.31
   6  16   6    0.09    0.09
  -6  16  -6   -0.10    0.08
   5  17  -6    1.48    0.21
   4  17  -6    1.52    0.20
  -4  17   6    1.17    0.18
   3  17  -6   -0.05    0.11
  -3  17   6    0.10    0.11
  -2 -17   6    1.43    0.28
  -2  17   6    0.99    0.19
  -1 -17   6    0.49    0.21
  -1  17   6    0.38    0.12
   0 -17   6    0.14    0.18
   0  17   6    0.04    0.12
   0  17  -6    0.32    0.16
   1 -17   6    0.62    0.18
   1  17   6    0.67    0.19
  -1  17  -6    0.68    0.15
  -2 -17  -6    5.53    0.35
   2 -17   6    5.67    0.36
   2  17   6    4.98    0.32
   2  17   6    5.23    0.34
  -2  17  -6    5.22    0.32
  -3 -17  -6    0.20    0.13
   3 -17   6    0.08    0.16
   3  17   6    0.25    0.13
   3  17   6    0.30    0.12
  -3  17  -6    0.14    0.11
  -4 -17  -6    1.51    0.20
   4 -17   6    1.06    0.25
   4  17   6    1.60    0.23
   4  17   6    1.27    0.18
  -4  17  -6    1.12    0.17
  -5 -17  -6    0.77    0.17
   5 -17   6    0.65    0.17
   5  17   6    0.61    0.15
  -5  17  -6    0.89    0.14
  -6 -17  -6    2.24    0.18
  -6  17  -6    2.33    0.16
   6  17   6    2.26    0.16
   5  18  -6    0.77    0.19
  -5  18   6    0.91    0.20
  -4  18   6    0.85    0.16
   4  18  -6    0.94    0.18
  -3  18   6    0.30    0.10
   3  18  -6    0.50    0.12
  -2  18   6    0.45    0.11
   2  18  -6    0.64    0.14
  -1 -18   6    7.66    0.51
  -1  18   6    6.45    0.36
   0  18   6    0.10    0.10
   0  18  -6   -0.07    0.16
  -1 -18  -6    1.07    0.20
   1  18   6    1.08    0.18
  -1  18  -6    1.14    0.21
   1  18   6    1.01    0.25
   2 -18   6   -0.02    0.17
  -2 -18  -6    0.18    0.15
  -2  18  -6    0.11    0.11
   2  18   6    0.06    0.11
   2  18   6   -0.09    0.13
  -3 -18  -6   -0.04    0.13
   3 -18   6    0.24    0.18
   3  18   6    0.02    0.11
  -3  18  -6    0.06    0.10
   3  18   6    0.04    0.11
  -4 -18  -6    0.54    0.12
   4 -18   6   -0.02    0.17
   4  18   6    0.46    0.18
   4  18   6    0.42    0.11
  -4  18  -6    0.34    0.10
  -5 -18  -6    0.87    0.17
   5  18   6    0.81    0.14
  -5  18  -6    0.66    0.12
  -4  19   6    4.55    0.24
   4  19  -6    4.32    0.25
  -3  19   6    4.24    0.24
   3  19  -6    4.36    0.25
  -2  19   6    3.39    0.22
   2  19  -6    3.62    0.24
   1  19  -6   -0.04    0.10
  -1  19   6    0.15    0.09
   0  19   6    2.27    0.19
   1 -19   6    1.91    0.39
   1  19   6    2.39    0.20
  -1  19  -6    2.47    0.22
  -2 -19  -6    0.19    0.31
   2 -19   6   -0.18    0.22
   2  19   6   -0.12    0.15
  -2  19  -6    0.09    0.11
   2  19   6    0.11    0.09
  -3 -19  -6    0.41    0.16
   3  19   6    0.03    0.12
  -3  19  -6    0.18    0.09
   3  19   6    0.15    0.11
  -4 -19  -6    2.91    0.27
   4  19   6    3.12    0.20
  -4  19  -6    2.56    0.18
  -3  20   6    0.37    0.09
   3  20  -6    0.29    0.10
   2  20  -6    0.70    0.13
  -2  20   6    0.38    0.09
  -1  20   6    1.27    0.14
   1  20  -6    1.18    0.15
   0  20  -6    3.88    0.24
   0  20   6    3.70    0.22
   1  20   6    0.05    0.08
  -1  20  -6    0.14    0.15
  -1  20  -6    0.06    0.10
  -2  20  -6   -0.09    0.11
   2  20   6    0.28    0.10
  -2  20  -6    0.10    0.11
  -3  20  -6    2.63    0.19
   1  21  -6    0.04    0.08
  -1  21   6    0.09    0.08
   0  21  -6    5.55    0.28
   1  21   6    3.31    0.20
  -1  21  -6    3.45    0.21
 -10   0   7    0.17    0.09
  10   0  -7   -0.43    0.16
   9   0  -7    0.02    0.15
  -9   0   7    0.05    0.11
  -9   0   7   -0.10    0.16
   8   0  -7    0.23    0.15
  -8   0   7    0.05    0.18
  -8   0   7    0.18    0.14
   7   0  -7    0.41    0.16
  -7   0   7   -0.08    0.17
  -7   0   7   -0.09    0.15
  -6   0   7    0.16    0.15
  -6   0   7    0.30    0.18
  -5   0   7    0.17    0.18
  -5   0   7   -0.10    0.16
   4   0  -7    0.14    0.13
   3   0  -7   -0.08    0.08
  -3   0   7   -0.04    0.12
  -2   0   7    0.33    0.15
   2   0  -7   -0.08    0.05
   2   0  -7    0.05    0.08
   1   0  -7    0.00    0.06
   1   0  -7    0.03    0.05
   0   0  -7    0.06    0.06
   0   0  -7    0.00    0.04
  -1   0  -7    0.00    0.04
  -2   0  -7    0.11    0.05
  -2   0  -7    0.01    0.04
   4   0   7    0.17    0.20
   4   0   7    0.18    0.17
   4   0   7   -0.10    0.17
   5   0   7    0.10    0.16
   5   0   7    0.19    0.19
   5   0   7   -0.25    0.16
   6   0   7    0.06    0.17
   6   0   7    0.12    0.17
   7   0   7    0.21    0.17
   7   0   7   -0.21    0.18
   8   0   7   -0.36    0.19
   8   0   7   -0.02    0.15
  -9   0  -7   -0.07    0.11
   9   0   7   -0.05    0.17
 -10   0  -7   -0.15    0.11
 -10  -1   7    8.03    0.37
 -10  -1   7    7.90    0.45
  10  -1  -7    8.42    0.43
  10   1  -7    7.88    0.45
 -10   1   7    7.97    0.37
  -9  -1   7    0.02    0.15
  -9  -1   7    0.05    0.11
   9  -1  -7    0.08    0.15
  -9   1   7    0.33    0.17
  -9   1   7    0.11    0.11
   9   1  -7    0.15    0.17
  -8  -1   7    1.92    0.30
  -8  -1   7    2.42    0.26
   8  -1  -7    1.60    0.27
  -8   1   7    1.66    0.33
  -8   1   7    1.99    0.24
   8   1  -7    1.81    0.27
  -7  -1   7   16.56    0.75
  -7  -1   7   16.50    0.76
   7  -1  -7   17.26    0.76
   7   1  -7   17.49    0.76
  -7   1   7   17.27    0.75
  -7   1   7   16.12    0.76
   6  -1  -7    0.67    0.17
  -6  -1   7    0.45    0.17
  -6  -1   7    0.55    0.19
  -6   1   7    0.55    0.18
  -6   1   7    0.56    0.17
  -5  -1   7    0.99    0.19
  -5  -1   7    0.91    0.19
  -5   1   7    0.67    0.18
  -5   1   7    1.79    0.31
   4  -1  -7    9.96    0.48
  -4  -1   7    8.39    0.47
   4   1  -7    9.81    0.48
   3  -1  -7    6.31    0.32
  -3  -1   7    6.40    0.34
  -3   1   7    6.07    0.35
   3   1  -7    6.46    0.32
   2  -1  -7   55.82    1.99
   2  -1  -7   54.32    2.00
  -2  -1   7   53.73    2.00
   2   1  -7   56.30    2.00
  -2   1   7   49.88    2.00
   2   1  -7   53.23    1.99
   1  -1  -7   24.90    0.97
   1   1  -7   25.22    0.97
   1   1  -7   26.04    0.96
   0  -1  -7   22.33    0.82
   0   1  -7   21.07    0.82
   0   1  -7   21.92    0.83
  -1  -1  -7   37.92    1.42
  -1   1  -7   39.90    1.42
  -1   1  -7   38.60    1.42
  -2  -1  -7   45.92    1.63
  -2  -1  -7   44.92    1.63
  -2   1  -7   45.47    1.62
  -2   1  -7   42.73    1.62
   3  -1   7    1.61    0.29
   4  -1   7    6.35    0.38
   4  -1   7    6.43    0.44
   4  -1   7    6.25    0.40
   4   1   7    5.93    0.42
   4   1   7    5.65    0.39
   4   1   7    6.36    0.39
   5  -1   7    0.64    0.20
   5  -1   7    0.91    0.20
   5  -1   7    0.90    0.20
   5   1   7    0.45    0.19
   5   1   7    0.80    0.21
   5   1   7    0.55    0.19
   6  -1   7    7.53    0.45
   6  -1   7    8.03    0.45
   6   1   7    7.60    0.45
   6   1   7    7.97    0.46
   7  -1   7    4.76    0.37
   7  -1   7    5.13    0.37
   7   1   7    5.32    0.40
   7   1   7    4.98    0.37
   8  -1   7    0.26    0.16
  -8  -1  -7    0.31    0.19
   8  -1   7    0.46    0.19
   8   1   7    0.54    0.17
   8   1   7    0.24    0.21
   9  -1   7    0.56    0.21
  -9  -1  -7   -0.07    0.10
  -9   1  -7    0.23    0.12
   9   1   7    0.08    0.15
 -10  -1  -7   -0.01    0.09
  10  -2  -7    2.24    0.27
 -10  -2   7    1.87    0.19
 -10  -2   7    1.67    0.26
 -10   2   7    1.87    0.17
  -9  -2   7    0.44    0.12
  -9  -2   7    0.49    0.15
   9  -2  -7    0.16    0.14
  -9   2   7   -0.10    0.20
  -9   2   7    0.30    0.12
   9   2  -7    0.22    0.17
  -8  -2   7    8.66    0.46
  -8  -2   7    9.58    0.48
   8  -2  -7    8.62    0.47
   8   2  -7    8.13    0.48
  -8   2   7    8.70    0.46
  -8   2   7    8.47    0.51
   7  -2  -7    0.45    0.18
  -7  -2   7    0.59    0.19
  -7  -2   7    0.74    0.17
  -7   2   7    0.78    0.21
  -7   2   7    0.69    0.17
   7   2  -7    0.42    0.24
   6  -2  -7    0.13    0.14
  -6  -2   7    0.19    0.17
  -6   2   7    0.23    0.20
  -5  -2   7   13.28    0.59
  -5  -2   7   11.68    0.60
  -5  -2   7   11.93    0.59
  -5   2   7   13.02    0.58
  -5   2   7   12.41    0.62
  -4  -2   7   30.09    1.17
  -4  -2   7   35.83    1.35
   4  -2  -7   26.54    1.17
   4   2  -7   28.12    1.19
  -3  -2   7    0.09    0.12
   3  -2  -7    0.07    0.09
  -2  -2   7   30.37    1.17
   2  -2  -7   32.45    1.16
   2   2  -7   30.18    1.17
  -2   2   7   29.07    1.18
  -1  -2   7    8.12    0.41
   1  -2  -7    9.20    0.38
   1   2  -7    9.38    0.39
   0  -2  -7   25.66    1.01
   0   2  -7   27.64    1.01
   0   2  -7   27.63    1.02
  -1  -2  -7    7.94    0.35
  -1   2  -7    8.69    0.34
  -1   2  -7    8.72    0.35
  -2  -2  -7    6.33    0.27
   2  -2   7    5.39    0.34
  -2   2  -7    6.10    0.24
  -2   2  -7    6.28    0.25
  -3  -2  -7   25.79    0.93
   3  -2   7   24.59    0.99
   4  -2   7    1.45    0.24
   4  -2   7    1.23    0.20
   4  -2   7    1.12    0.46
   4  -2   7    0.90    0.20
   4   2   7    1.30    0.26
   4   2   7    1.25    0.27
   4   2   7    1.02    0.21
   5  -2   7    3.77    0.33
   5  -2   7    4.39    0.33
   5  -2   7    4.56    0.35
   5   2   7    4.15    0.35
   5   2   7    4.26    0.34
   5   2   7    3.74    0.34
   6  -2   7    5.57    0.37
   6  -2   7    4.91    0.37
   6   2   7    4.88    0.37
   6   2   7    5.54    0.39
   7  -2   7    4.11    0.35
   7  -2   7    3.83    0.35
   7   2   7    3.82    0.34
   7   2   7    4.53    0.37
  -7   2  -7    4.10    0.34
   8  -2   7    1.29    0.26
   8  -2   7    1.19    0.25
   8   2   7    1.43    0.24
  -8   2  -7    1.33    0.24
  -9  -2  -7    5.32    0.29
   9   2   7    5.57    0.33
  -9   2  -7    5.38    0.30
 -10  -2  -7    0.15    0.09
 -10  -3   7    0.54    0.15
 -10  -3   7    0.48    0.12
  10  -3  -7    0.21    0.16
 -10   3   7    0.36    0.10
  -9  -3   7   -0.12    0.12
  -9  -3   7    0.12    0.14
   9  -3  -7    0.01    0.14
   9   3  -7    0.09    0.17
  -9   3   7   -0.01    0.10
  -8  -3   7    0.15    0.15
   8  -3  -7    0.25    0.15
  -8  -3   7    0.09    0.15
  -8   3   7    0.05    0.20
  -8   3   7    0.23    0.14
   8   3  -7    0.28    0.18
  -7  -3   7    9.47    0.51
  -7  -3   7   10.08    0.51
  -7   3   7    9.73    0.50
  -7   3   7    9.97    0.56
   6  -3  -7    3.91    0.30
  -6  -3   7    3.85    0.43
  -6  -3   7    3.47    0.33
  -6   3   7    3.54    0.37
  -6   3   7    3.82    0.31
  -5  -3   7    1.56    0.33
  -5  -3   7    1.69    0.24
  -5  -3   7    1.94    0.29
   5  -3  -7    1.80    0.22
  -5   3   7    1.77    0.25
  -5   3   7    1.61    0.34
  -4  -3   7   34.89    1.44
  -4  -3   7   39.60    1.44
  -4   3   7   36.74    1.43
  -3  -3   7    9.42    0.44
   3  -3  -7    9.19    0.43
   2  -3  -7   65.80    2.28
  -2  -3   7   62.20    2.28
   2   3  -7   57.64    2.28
   1  -3  -7   25.38    0.94
  -1  -3   7   23.57    0.95
   1   3  -7   24.61    0.94
   0  -3  -7    3.87    0.22
   0  -3   7    4.22    0.27
   0   3  -7    4.27    0.22
  -1  -3  -7    4.39    0.21
   1  -3   7    3.87    0.27
  -1   3  -7    4.02    0.20
  -1   3  -7    4.10    0.22
  -2  -3  -7   14.64    0.55
   2  -3   7   13.27    0.59
  -2   3  -7   14.07    0.52
  -2   3  -7   13.62    0.52
  -3  -3  -7    0.99    0.15
   3  -3   7    1.24    0.24
   4  -3   7    2.39    0.27
   4  -3   7    1.78    0.28
   4  -3   7    1.44    0.30
   4   3   7    1.72    0.30
   4   3   7    1.78    0.27
   4   3   7    2.02    0.29
   5  -3   7    0.87    0.18
   5  -3   7    0.63    0.19
   5  -3   7    1.12    0.27
   5   3   7    0.90    0.21
   5   3   7    1.03    0.20
   5   3   7    1.03    0.25
  -6  -3  -7    0.63    0.51
   6  -3   7    1.06    0.27
   6  -3   7    1.42    0.33
   6  -3   7    1.00    0.20
   6   3   7    1.28    0.23
   6   3   7    1.21    0.26
   7  -3   7    0.06    0.17
   7  -3   7    0.34    0.17
   7   3   7    0.19    0.16
  -7   3  -7    0.39    0.18
   7   3   7    0.21    0.21
   8  -3   7    3.67    0.31
  -8  -3  -7    4.41    0.32
   8  -3   7    3.63    0.31
  -8   3  -7    3.80    0.30
   8   3   7    3.95    0.30
  -9  -3  -7    0.73    0.15
   9   3   7    0.93    0.22
  -9   3  -7    1.00    0.21
 -10  -3  -7    0.66    0.13
 -10  -4   7    0.24    0.13
 -10  -4   7    0.28    0.13
 -10   4   7    0.19    0.10
  -9  -4   7    1.95    0.23
  -9  -4   7    1.89    0.23
   9  -4  -7    2.01    0.25
  -9   4   7    2.07    0.20
   9   4  -7    2.38    0.31
   8  -4  -7    9.37    0.51
  -8  -4   7   10.46    0.51
  -8  -4   7    9.87    0.51
   8   4  -7    9.34    0.53
  -8   4   7   12.79    0.83
  -8   4   7   10.52    0.51
  -7  -4   7    4.46    0.36
   7  -4  -7    3.89    0.33
  -7  -4   7    4.33    0.35
  -7   4   7    4.13    0.32
  -7   4   7    4.47    0.42
  -6  -4   7    6.75    0.46
   6  -4  -7    7.71    0.42
  -6  -4   7    7.21    0.43
  -6   4   7    6.54    0.41
   5  -4  -7    9.03    0.44
  -5  -4   7    8.44    0.51
  -5  -4   7    8.50    0.48
  -5  -4   7    8.97    0.46
  -5   4   7    8.97    0.46
  -5   4   7    7.44    0.52
  -4  -4   7   33.92    1.32
  -4  -4   7   32.90    1.32
   4  -4  -7   34.20    1.31
  -4   4   7   33.63    1.35
  -4   4   7   34.78    1.32
  -3  -4   7    5.39    0.31
   3  -4  -7    5.05    0.31
   2  -4  -7   56.22    2.03
  -2  -4   7   53.07    2.03
   1  -4  -7  101.48    3.54
  -1  -4   7   95.12    3.54
   1   4  -7   95.05    3.53
   0  -4  -7   56.01    2.00
   0  -4   7   53.90    2.01
   0   4  -7   53.23    2.00
   0   4   7   54.44    2.01
   1  -4   7    3.86    0.25
  -1  -4  -7    3.28    0.22
   1   4   7    4.01    0.23
  -1   4  -7    3.88    0.21
  -2  -4  -7   11.60    0.48
   2  -4   7   11.14    0.51
  -2   4  -7   12.03    0.45
   2   4   7   11.23    0.49
  -2   4  -7   11.78    0.45
  -3  -4  -7   17.28    0.70
   3  -4   7   17.97    0.73
   4  -4   7   12.48    0.58
   4  -4   7   11.54    0.54
   4  -4   7   11.94    0.56
   4   4   7   11.21    0.56
   4   4   7   11.33    0.58
   4   4   7   11.70    0.57
   5  -4   7    6.42    0.41
   5  -4   7    5.82    0.38
   5  -4   7    5.66    0.37
   5   4   7    6.22    0.39
   5   4   7    5.92    0.39
   5   4   7    5.59    0.40
  -6  -4  -7    3.13    0.42
   6  -4   7    3.37    0.34
   6  -4   7    2.94    0.31
   6  -4   7    3.11    0.30
  -6   4  -7    3.25    0.37
   6   4   7    2.53    0.29
   6   4   7    2.49    0.33
   7  -4   7    3.35    0.41
   7  -4   7    4.60    0.33
   7  -4   7    4.49    0.33
  -7   4  -7    3.97    0.37
   7   4   7    3.90    0.32
   7   4   7    4.49    0.39
   8  -4   7    1.29    0.26
  -8  -4  -7    1.74    0.22
   8  -4   7    1.49    0.25
   8   4   7    1.49    0.23
  -8   4  -7    1.62    0.26
  -9  -4  -7    4.05    0.24
  -9   4  -7    3.74    0.32
   9   4   7    3.61    0.28
 -10  -5   7    1.13    0.19
 -10   5   7    1.42    0.16
  -9  -5   7    0.01    0.14
   9  -5  -7    0.00    0.18
  -9  -5   7    0.00    0.11
  -9   5   7    0.12    0.10
   9   5  -7    0.00    0.19
  -8  -5   7    1.19    0.23
   8  -5  -7    1.32    0.24
   8   5  -7    1.44    0.28
  -8   5   7    1.72    0.24
  -7  -5   7    1.89    0.30
   7  -5  -7    1.74    0.25
  -7  -5   7    1.90    0.28
  -7   5   7    1.26    0.24
  -7   5   7    1.74    0.40
  -6  -5   7   11.00    0.57
  -6  -5   7   10.23    0.54
   6  -5  -7   10.51    0.53
  -6   5   7   10.18    0.53
  -6   5   7   10.40    0.58
   5  -5  -7    3.92    0.30
  -5  -5   7    3.86    0.43
  -5  -5   7    3.07    0.32
  -5  -5   7    3.62    0.30
  -5   5   7    3.39    0.41
  -5   5   7    3.29    0.30
  -4  -5   7    6.73    0.44
  -4  -5   7    7.62    0.40
   4  -5  -7    7.55    0.39
  -4   5   7    7.48    0.49
  -4   5   7    7.25    0.42
   3  -5  -7   22.18    0.90
   3  -5  -7   21.67    0.88
  -2  -5   7   30.95    1.19
   2  -5  -7   32.80    1.19
   2  -5  -7   28.93    1.19
   1  -5  -7   43.28    1.63
  -1  -5   7   44.52    1.64
   1   5  -7   43.17    1.64
   0  -5  -7    6.17    0.30
   0  -5   7    5.89    0.32
   0   5  -7    5.97    0.31
   0   5   7    5.35    0.31
   1  -5   7   33.44    1.26
  -1  -5  -7   32.47    1.24
   1   5   7   31.88    1.25
  -1   5  -7   34.03    1.24
  -2  -5  -7   42.77    1.58
   2  -5   7   43.60    1.60
   2   5   7   40.02    1.59
  -2   5  -7   43.14    1.55
  -2   5  -7   42.55    1.56
   3  -5   7    1.10    0.19
   3  -5   7    0.61    0.18
   3  -5   7    0.95    0.22
   3   5   7    0.57    0.19
   3   5   7    0.80    0.19
   3   5   7    1.02    0.28
   3   5   7    0.68    0.19
   4  -5   7    0.58    0.16
   4  -5   7    0.68    0.17
   4  -5   7    0.73    0.16
   4   5   7    0.51    0.17
   4   5   7    0.75    0.21
   4   5   7    0.74    0.20
   5  -5   7   11.00    0.53
   5  -5   7   10.95    0.55
   5  -5   7   10.60    0.56
   5   5   7   10.63    0.54
   6  -5   7    1.10    0.19
  -6  -5  -7    1.46    0.36
   6  -5   7    1.75    0.29
   6  -5   7    1.08    0.21
  -6   5  -7    0.80    0.26
   6   5   7    1.05    0.21
   6   5   7    1.59    0.26
   7  -5   7    3.47    0.31
  -7  -5  -7    3.24    0.43
   7  -5   7    3.62    0.36
   7  -5   7    3.50    0.32
  -7   5  -7    3.47    0.38
   7   5   7    3.93    0.32
   7   5   7    3.80    0.38
   8  -5   7    0.14    0.16
  -8  -5  -7    0.36    0.13
   8  -5   7    0.15    0.14
   8   5   7    0.22    0.14
  -8   5  -7    0.37    0.19
  -9  -5  -7    3.72    0.23
   9   5   7    4.01    0.36
 -10  -6   7    1.07    0.19
 -10   6   7    0.96    0.15
  -9  -6   7    1.39    0.20
  -9  -6   7    1.63    0.24
   9  -6  -7    1.43    0.24
   9   6  -7    1.74    0.36
  -9   6   7    1.44    0.18
  -8  -6   7    0.14    0.17
   8  -6  -7   -0.21    0.14
   8   6  -7    0.24    0.17
   7  -6  -7    5.59    0.37
  -7  -6   7    5.56    0.37
  -7  -6   7    5.34    0.41
  -7   6   7    5.57    0.36
  -7   6   7    4.86    0.49
  -6  -6   7    0.90    0.25
   6  -6  -7    0.88    0.18
  -6  -6   7    0.46    0.17
  -6   6   7    0.47    0.25
  -6   6   7    0.32    0.15
  -5  -6   7   13.22    0.60
   5  -6  -7   12.46    0.58
  -5  -6   7   11.78    0.59
  -5   6   7   11.78    0.58
  -5   6   7   12.10    0.64
  -4  -6   7    4.78    0.37
   4  -6  -7    5.08    0.33
  -4  -6   7    4.73    0.33
  -4   6   7    5.05    0.43
  -4   6   7    5.24    0.36
  -3  -6   7   20.37    0.84
   3  -6  -7   20.95    0.84
  -3   6   7   20.12    0.87
   2  -6  -7    2.87    0.25
  -2  -6   7    2.41    0.23
  -2  -6   7    2.79    0.26
   2  -6  -7    2.46    0.33
  -1  -6   7    6.26    0.33
   1  -6  -7    6.48    0.34
  -1  -6   7    6.75    0.34
   0  -6   7   32.49    1.24
   0  -6  -7   34.14    1.24
   0  -6   7   32.76    1.23
   0   6  -7   30.36    1.23
   1  -6   7   88.94    3.24
  -1  -6  -7   90.30    3.24
  -1   6  -7   86.07    3.22
  -2  -6  -7    1.36    0.24
   2  -6   7    1.61    0.20
   3  -6   7   17.64    0.75
   3  -6   7   17.42    0.74
   3  -6   7   17.23    0.72
   3   6   7   15.62    0.77
   3   6   7   17.11    0.74
   3   6   7   17.20    0.76
   3   6   7   17.61    0.76
   4  -6   7    6.81    0.40
   4  -6   7    8.00    0.41
   4  -6   7    7.60    0.43
   4   6   7    7.19    0.44
   4   6   7    6.76    0.43
   4   6   7    6.79    0.43
   5  -6   7    0.22    0.15
   5  -6   7    0.27    0.16
   5  -6   7    0.26    0.16
   5   6   7    0.38    0.17
   5   6   7    0.40    0.20
   5   6   7    0.40    0.17
  -6  -6  -7    6.23    0.44
   6  -6   7    6.74    0.43
   6  -6   7    5.59    0.51
   6  -6   7    7.05    0.40
   6   6   7    7.42    0.43
   6   6   7    6.98    0.44
   7  -6   7    0.13    0.19
  -7  -6  -7    0.37    0.21
   7  -6   7    0.16    0.17
   7  -6   7    0.13    0.14
   7   6   7    0.39    0.16
   7   6   7   -0.36    0.21
   8  -6   7    2.21    0.30
  -8  -6  -7    2.08    0.23
   8  -6   7    2.08    0.24
   8   6   7    2.19    0.24
  -9  -6  -7    2.00    0.18
   9   6   7    2.23    0.22
 -10  -7   7    0.21    0.11
 -10   7   7    0.14    0.12
  -9  -7   7   -0.03    0.10
   9  -7  -7   -0.05    0.14
  -9   7   7    0.05    0.11
   9   7  -7    0.47    0.34
   8  -7  -7    0.61    0.17
  -8  -7   7    0.32    0.13
   8   7  -7    0.63    0.19
  -8   7   7    0.58    0.14
  -7  -7   7    4.43    0.33
   7  -7  -7    3.88    0.32
  -7   7   7    4.68    0.33
  -6  -7   7    0.70    0.19
   6  -7  -7    0.71    0.18
  -6   7   7    0.13    0.25
  -6   7   7    0.60    0.17
  -5  -7   7   11.52    0.70
   5  -7  -7   10.49    0.54
  -5  -7   7   12.06    0.57
  -5   7   7   10.61    0.61
  -5   7   7   10.26    0.64
   4  -7  -7    0.04    0.16
  -4  -7   7    0.12    0.15
  -4  -7   7   -0.07    0.19
  -4   7   7    0.22    0.23
  -4   7   7    0.09    0.19
  -3  -7   7    0.30    0.14
   3  -7  -7   -0.11    0.17
  -3  -7   7   -0.25    0.22
  -3   7   7    0.05    0.23
  -3   7   7    0.05    0.19
  -2  -7   7   -0.06    0.19
  -2  -7   7   -0.24    0.12
  -1  -7   7   43.68    1.64
   1  -7  -7   42.09    1.63
  -1  -7   7   43.47    1.63
   0  -7   7    2.54    0.22
   0  -7  -7    2.33    0.25
   0  -7   7    2.49    0.25
   1  -7   7    0.00    0.11
   1  -7   7    0.24    0.19
  -1  -7  -7   -0.04    0.12
  -1   7  -7    0.24    0.15
   2  -7   7   35.22    1.37
   2  -7   7   36.88    1.36
   2  -7   7   34.63    1.39
  -2  -7  -7   36.53    1.38
   2   7   7   35.35    1.39
   2   7   7   33.22    1.39
   2   7   7   35.84    1.39
   2   7   7   35.80    1.38
   3  -7   7    2.77    0.28
   3  -7   7    3.33    0.31
   3  -7   7    2.90    0.25
   3   7   7    3.31    0.31
   3   7   7    2.86    0.33
   3   7   7    2.76    0.34
   3   7   7    2.71    0.28
   4  -7   7    0.84    0.18
   4  -7   7    0.53    0.16
   4  -7   7    0.78    0.19
   4   7   7    0.68    0.18
   4   7   7    1.28    0.28
   4   7   7    0.41    0.18
   5  -7   7    0.31    0.17
   5  -7   7    0.43    0.18
   5  -7   7    0.21    0.15
   5   7   7    0.32    0.18
   5   7   7    0.25    0.18
   5   7   7    0.24    0.15
   6  -7   7    6.05    0.39
  -6  -7  -7    6.06    0.41
   6  -7   7    5.36    0.39
   6  -7   7    6.05    0.37
   6   7   7    5.14    0.38
   6   7   7    6.27    0.42
  -7  -7  -7    2.32    0.32
   7  -7   7    1.51    0.24
   7  -7   7    1.33    0.28
   7  -7   7    1.81    0.27
   7   7   7    1.72    0.25
   7   7   7    1.83    0.37
   8  -7   7    2.92    0.32
  -8  -7  -7    2.88    0.24
   8  -7   7    2.77    0.38
   8  -7   7    2.71    0.25
  -8  -7  -7    2.75    0.33
   8   7   7    2.59    0.24
  -9  -7  -7    0.19    0.09
   9   7   7    0.05    0.13
  -9  -8   7    1.29    0.18
   9  -8  -7    1.65    0.26
  -9   8   7    1.38    0.19
  -8  -8   7    0.25    0.12
   8  -8  -7    0.30    0.16
  -8   8   7    0.16    0.13
   7  -8  -7    1.57    0.26
  -7  -8   7    1.37    0.26
  -7   8   7    1.65    0.27
  -6  -8   7   -0.03    0.15
  -6  -8   7    0.38    0.30
  -6   8   7    0.15    0.16
  -5  -8   7    0.07    0.17
   5  -8  -7   -0.08    0.16
  -5  -8   7    0.00    0.16
  -5   8   7    0.49    0.28
  -5   8   7    0.25    0.18
  -4  -8   7    3.07    0.35
   4  -8  -7    2.71    0.31
  -4  -8   7    2.78    0.29
  -4   8   7    3.19    0.32
  -4   8   7    3.66    0.40
  -3  -8   7   48.93    1.83
   3  -8  -7   47.39    1.84
  -3  -8   7   46.55    1.84
  -3   8   7   46.69    1.84
  -3   8   7   50.74    1.84
  -3   8   7   47.72    1.84
  -2  -8   7   13.97    0.68
  -2  -8   7   14.58    0.63
  -2   8   7   14.77    0.67
  -2   8   7   14.09    0.66
  -2   8   7   14.16    0.69
  -1  -8   7    2.68    0.23
  -1  -8   7    2.79    0.35
  -1   8   7    2.58    0.54
  -1   8   7    2.54    0.34
   0  -8   7    3.59    0.34
   0  -8   7    3.87    0.35
   0  -8   7    4.04    0.27
   0   8   7    3.04    0.35
   0   8   7    3.61    0.29
   1  -8   7   75.46    2.81
   1  -8   7   73.03    2.79
  -1  -8  -7   80.93    2.85
   1  -8   7   74.05    2.79
   1   8   7   76.27    2.80
   1   8   7   75.15    2.81
   1   8   7   74.94    2.81
   2  -8   7   12.06    0.53
   2  -8   7   11.80    0.56
   2  -8   7   11.49    0.56
   2   8   7   11.49    0.58
   2   8   7   11.80    0.58
   2   8   7   11.67    0.59
   2   8   7   11.21    0.54
   3  -8   7    0.42    0.16
   3  -8   7    0.57    0.14
   3  -8   7    0.74    0.19
   3   8   7    0.52    0.20
   3   8   7    0.74    0.20
   3   8   7    0.70    0.20
   4  -8   7   10.93    0.52
   4  -8   7    9.98    0.53
   4   8   7   10.56    0.53
   4   8   7   10.78    0.55
   5  -8   7    0.67    0.16
   5  -8   7    0.59    0.18
   5  -8   7    1.04    0.24
   5   8   7    0.27    0.16
   5   8   7    0.76    0.19
   5   8   7    0.88    0.21
   6  -8   7   11.44    0.58
   6  -8   7   11.89    0.55
   6  -8   7   11.13    0.56
  -6  -8  -7   11.28    0.58
   6   8   7   11.37    0.58
   6   8   7   12.06    0.59
  -7  -8  -7   -0.11    0.16
   7  -8   7   -0.03    0.16
   7  -8   7    0.20    0.17
   7   8   7   -0.07    0.16
  -8  -8  -7    3.12    0.28
  -8  -8  -7    2.96    0.23
   8  -8   7    2.57    0.40
   8   8   7    2.83    0.24
   9   8   7    0.76    0.19
   9  -9  -7    0.14    0.20
  -9  -9   7   -0.13    0.09
  -9   9   7   -0.12    0.12
  -8  -9   7    0.78    0.19
  -8   9   7    0.37    0.13
   8   9  -7    0.33    0.26
   7  -9  -7    5.36    0.38
  -7  -9   7    6.29    0.38
  -7   9   7    6.44    0.39
  -6  -9   7    9.78    0.54
   6  -9  -7   10.11    0.51
  -6  -9   7    9.56    0.52
  -6   9   7   10.42    0.53
   5  -9  -7   -0.05    0.17
  -5  -9   7   -0.07    0.17
  -5  -9   7   -0.04    0.16
  -5   9   7   -0.06    0.17
  -5   9   7   -0.08    0.27
  -4  -9   7    8.77    0.47
   4  -9  -7    8.65    0.47
  -4  -9   7    8.44    0.49
  -4   9   7    7.74    0.46
  -4   9   7    8.07    0.54
  -4   9   7    8.19    0.52
  -3  -9   7    6.86    0.39
   3  -9  -7    6.08    0.43
  -3  -9   7    6.46    0.49
  -3   9   7    6.89    0.42
  -3   9   7    6.41    0.44
  -3   9   7    5.85    0.47
  -2  -9   7    1.06    0.21
  -2  -9   7    1.15    0.24
  -2   9   7    1.26    0.29
  -2   9   7    0.91    0.23
  -2   9   7    1.07    0.23
  -1  -9   7    1.84    0.29
  -1  -9   7    1.93    0.22
  -1   9   7    1.78    0.25
  -1   9   7    1.54    0.27
  -1   9   7    1.58    0.32
   0  -9   7   18.69    0.81
   0  -9   7   18.69    0.78
   0   9   7   18.44    0.81
   0   9   7   18.78    0.82
   0   9   7   19.34    0.80
   1  -9   7    0.25    0.19
   1  -9   7   -0.07    0.15
   1  -9   7    0.12    0.11
   1   9   7    0.15    0.17
   1   9   7   -0.14    0.24
   1   9   7   -0.04    0.21
   1   9   7    0.00    0.15
   2  -9   7    5.45    0.37
   2  -9   7    5.76    0.34
   2  -9   7    5.77    0.37
   2   9   7    5.28    0.40
   2   9   7    5.91    0.36
   2   9   7    5.90    0.41
   2   9   7    5.50    0.41
   3  -9   7   11.45    0.55
   3  -9   7   11.71    0.55
   3  -9   7   11.67    0.57
   3   9   7   11.73    0.56
   3   9   7   11.85    0.60
   3   9   7   12.31    0.59
   3   9   7   11.42    0.58
   4  -9   7    1.86    0.27
   4  -9   7    1.50    0.24
   4  -9   7    1.34    0.24
   4   9   7    1.77    0.29
   4   9   7    1.74    0.27
   4   9   7    1.56    0.27
   5  -9   7    9.77    0.49
   5  -9   7    8.88    0.50
   5   9   7    9.66    0.51
   5   9   7    9.89    0.51
   5   9   7    9.88    0.51
   6  -9   7    0.55    0.15
  -6  -9  -7    0.42    0.17
   6  -9   7    0.63    0.18
   6  -9   7    0.55    0.17
   6   9   7    0.75    0.21
   6   9   7    0.53    0.18
  -7  -9  -7   -0.21    0.14
   7  -9   7    0.27    0.17
   7  -9   7   -0.02    0.12
   7  -9   7    0.00    0.16
   7   9   7    0.25    0.13
   8  -9   7    1.52    0.35
  -8  -9  -7    1.34    0.18
  -8  -9  -7    1.47    0.23
   8   9   7    1.13    0.19
  -9  -9  -7    0.42    0.11
  -9 -10   7    0.08    0.09
  -8 -10   7    1.09    0.18
   8 -10  -7    0.61    0.18
  -8  10   7    0.98    0.16
  -7 -10   7    4.75    0.34
   7 -10  -7    5.46    0.37
  -7  10   7    5.34    0.35
  -6 -10   7    0.70    0.18
   6 -10  -7    0.49    0.18
  -6  10   7    0.48    0.18
  -5 -10   7    3.06    0.33
   5 -10  -7    2.49    0.34
  -5 -10   7    3.35    0.33
   5  10  -7    2.97    0.44
  -5  10   7    2.39    0.33
  -4 -10   7    4.48    0.36
  -4 -10   7    4.52    0.40
   4 -10  -7    4.53    0.39
  -4  10   7    4.79    0.38
  -4  10   7    4.28    0.38
  -4  10   7    4.90    0.58
  -3 -10   7    1.58    0.38
  -3 -10   7    2.09    0.27
  -3  10   7    1.57    0.33
  -3  10   7    2.55    0.31
  -3  10   7    2.05    0.40
  -2 -10   7    2.19    0.30
  -2 -10   7    2.37    0.26
  -2  10   7    2.50    0.35
  -2  10   7    2.40    0.29
  -2  10   7    2.60    0.38
  -1 -10   7    3.79    0.32
  -1 -10   7    3.78    0.28
  -1  10   7    3.38    0.36
  -1  10   7    2.61    0.37
  -1  10   7    2.90    0.30
   0 -10   7    6.25    0.40
   0 -10   7    6.30    0.44
   0 -10   7    6.04    0.36
   0  10   7    6.19    0.42
   0  10   7    6.58    0.45
   0  10   7    6.84    0.38
   1 -10   7   13.79    0.66
   1 -10   7   14.71    0.67
   1 -10   7   15.87    0.66
   1  10   7   15.14    0.66
   1  10   7   14.84    0.68
   1  10   7   15.05    0.71
   1  10   7   14.08    0.70
   2 -10   7    4.11    0.32
   2 -10   7    4.09    0.33
   2 -10   7    4.43    0.31
   2  10   7    4.30    0.37
   2  10   7    4.26    0.38
   2  10   7    4.67    0.36
   2  10   7    4.21    0.32
   3 -10   7    5.51    0.34
   3 -10   7    4.72    0.33
   3 -10   7    4.84    0.35
   3  10   7    4.38    0.38
   3  10   7    4.89    0.37
   3  10   7    4.45    0.38
   4 -10   7    7.66    0.45
   4 -10   7    8.59    0.45
   4 -10   7    7.78    0.43
   4  10   7    7.70    0.44
   4  10   7    8.12    0.46
   4  10   7    7.80    0.46
   5 -10   7    0.89    0.20
   5 -10   7    1.01    0.24
   5 -10   7    0.45    0.15
   5  10   7    0.78    0.21
   5  10   7    0.91    0.19
   5  10   7    0.50    0.18
   6 -10   7    1.05    0.21
   6 -10   7    0.31    0.16
  -6 -10  -7    0.49    0.16
   6 -10   7    0.20    0.18
   6  10   7    0.57    0.20
   6  10   7    0.29    0.17
   7 -10   7    1.35    0.26
   7 -10   7    1.70    0.26
  -7 -10  -7    1.00    0.24
   7  10   7    1.15    0.20
  -8 -10  -7    0.08    0.11
   8  10   7    0.22    0.11
  -9 -11   7    0.28    0.10
  -8 -11   7    1.06    0.18
   8 -11  -7    1.28    0.23
  -8  11   7    1.05    0.25
   7 -11  -7    0.79    0.19
  -7 -11   7    0.86    0.21
  -7  11   7    0.53    0.16
   6 -11  -7    3.03    0.34
  -6 -11   7    4.18    0.33
  -6  11   7    3.68    0.34
  -5 -11   7    6.79    0.41
  -5 -11   7    6.04    0.43
   5 -11  -7    6.25    0.43
   5  11  -7    6.02    0.49
  -5  11   7    6.37    0.43
  -4 -11   7    2.70    0.33
  -4 -11   7    2.99    0.35
   4 -11  -7    2.35    0.37
  -4  11   7    2.47    0.35
  -4  11   7    2.72    0.33
  -3 -11   7    9.80    0.53
  -3 -11   7    9.31    0.59
  -3  11   7    9.81    0.58
  -3  11   7   10.57    0.52
  -3  11   7   10.29    0.57
  -2 -11   7   62.71    2.37
  -2 -11   7   63.67    2.37
  -2  11   7   60.60    2.35
  -2  11   7   63.75    2.35
  -2  11   7   62.57    2.36
  -1 -11   7    1.27    0.25
  -1 -11   7    0.97    0.22
  -1  11   7    1.61    0.35
  -1  11   7    1.23    0.23
  -1  11   7    1.30    0.25
   0 -11   7   15.22    0.69
   0 -11   7   15.41    0.68
   0  11   7   15.49    0.72
   0  11   7   15.53    0.68
   0  11   7   14.61    0.70
   1 -11   7   13.39    0.63
   1 -11   7   13.98    0.63
   1 -11   7   13.31    0.63
   1  11   7   13.77    0.66
   1  11   7   14.02    0.64
   1  11   7   13.49    0.62
   1  11   7   13.13    0.67
   2 -11   7    0.45    0.20
   2 -11   7    0.22    0.15
   2 -11   7    0.27    0.13
   2  11   7    0.21    0.21
   2  11   7    0.42    0.15
   2  11   7    0.16    0.17
   2  11   7    0.37    0.20
   3 -11   7   16.68    0.72
   3 -11   7   15.60    0.73
   3 -11   7   17.18    0.73
   3  11   7   15.95    0.74
   3  11   7   16.09    0.74
   3  11   7   16.07    0.72
   4 -11   7    5.60    0.36
   4 -11   7    6.09    0.39
   4 -11   7    5.27    0.40
   4  11   7    5.72    0.39
   4  11   7    5.64    0.38
   4  11   7    5.85    0.39
   5 -11   7    0.33    0.17
   5 -11   7    0.32    0.15
   5 -11   7    0.22    0.14
  -5 -11  -7    0.26    0.16
   5  11   7    0.10    0.16
   5  11   7    0.30    0.16
   5  11   7    0.36    0.18
   6 -11   7    4.04    0.32
   6 -11   7    4.06    0.31
   6  11   7    4.04    0.35
   7 -11   7    5.25    0.36
   7 -11   7    5.85    0.37
  -7 -11  -7    6.27    0.34
  -7 -11  -7    5.95    0.33
   7  11   7    5.96    0.33
  -8 -11  -7    0.18    0.12
  -8 -11  -7    0.09    0.12
  -8 -12   7    5.18    0.28
  -7 -12   7    6.77    0.37
   7 -12  -7    7.18    0.47
  -7  12   7    7.11    0.41
  -6 -12   7    0.10    0.18
   6 -12  -7   -0.13    0.21
  -6  12   7    0.18    0.19
   5 -12  -7   28.14    1.20
  -5 -12   7   30.19    1.18
  -5 -12   7   28.20    1.20
  -5  12   7   28.81    1.17
  -5  12   7   29.32    1.17
   5  12  -7   30.24    1.21
  -4 -12   7    1.04    0.22
  -4 -12   7    1.74    0.35
  -4  12   7    1.69    0.34
   4  12  -7    1.31    0.24
  -4  12   7    1.28    0.28
  -3 -12   7    0.69    0.20
  -3  12   7    0.03    0.21
  -3  12   7    0.18    0.24
  -3  12   7    0.17    0.16
  -2 -12   7    0.23    0.16
  -2 -12   7   -0.12    0.16
  -2  12   7    0.31    0.29
  -2  12   7    0.06    0.15
  -2  12   7   -0.31    0.21
  -1 -12   7    1.92    0.26
  -1 -12   7    1.77    0.27
  -1  12   7    1.78    0.26
  -1  12   7    1.99    0.37
  -1  12   7    1.92    0.40
   0 -12   7    9.62    0.50
   0 -12   7    9.70    0.49
   0  12   7    8.85    0.55
   0  12   7    9.12    0.48
   1 -12   7    8.32    0.44
   1 -12   7    8.00    0.45
   1  12   7    7.86    0.68
   1  12   7    7.98    0.44
   1  12   7    8.07    0.52
   1  12   7    8.31    0.47
   2 -12   7    1.32    0.24
   2 -12   7    1.12    0.25
   2 -12   7    0.98    0.23
   2  12   7    1.06    0.20
   2  12   7    1.37    0.23
   2  12   7    1.82    0.36
   2  12   7    0.85    0.17
   3 -12   7    1.60    0.24
   3 -12   7    1.04    0.21
   3 -12   7    1.79    0.25
   3  12   7    0.97    0.21
   3  12   7    1.28    0.25
   3  12   7    1.10    0.24
   4 -12   7    6.90    0.42
   4 -12   7    6.49    0.39
   4 -12   7    7.48    0.43
   4  12   7    7.32    0.43
   4  12   7    7.28    0.42
   4  12   7    7.34    0.46
   5 -12   7    5.57    0.37
   5 -12   7    5.88    0.35
   5 -12   7    6.22    0.38
  -5 -12  -7    5.42    0.37
   5  12   7    5.66    0.37
   5  12   7    5.48    0.38
   6 -12   7   -0.15    0.13
   6 -12   7    0.44    0.15
  -6 -12  -7    0.12    0.12
   6  12   7    0.43    0.13
   6  12   7    0.14    0.19
  -7 -12  -7    0.03    0.14
  -7 -12  -7    0.28    0.11
   7 -12   7    0.17    0.16
   7  12   7   -0.02    0.10
  -8 -12  -7    1.72    0.20
   8  12   7    1.53    0.15
  -8  12  -7    1.30    0.25
  -8 -13   7    0.02    0.09
  -7 -13   7    0.84    0.19
  -6 -13   7    3.83    0.29
  -5 -13   7    2.82    0.36
  -5 -13   7    2.08    0.31
   5  13  -7    2.90    0.34
  -4 -13   7    1.72    0.31
  -4 -13   7    2.24    0.38
   4  13  -7    2.02    0.30
  -4  13   7    1.49    0.27
  -4  13   7    2.04    0.42
  -3 -13   7    0.38    0.21
  -3  13   7    0.22    0.16
  -2 -13   7    0.07    0.17
  -2  13   7    0.51    0.24
  -2  13   7   -0.19    0.14
  -1 -13   7    3.81    0.32
  -1 -13   7    3.87    0.33
  -1  13   7    4.00    0.31
  -1  13   7    3.82    0.39
   0 -13   7    5.66    0.38
   0 -13   7    5.79    0.37
   0  13   7    6.07    0.36
   0  13   7    5.79    0.42
   0  13   7    5.79    0.48
   1 -13   7    0.44    0.17
   1 -13   7    0.42    0.17
   1  13   7    0.47    0.18
   1  13   7    0.54    0.22
   1  13   7    0.51    0.26
   1  13   7    0.61    0.16
   2 -13   7   -0.14    0.14
   2 -13   7   -0.19    0.21
   2  13   7    0.27    0.24
   2  13   7   -0.22    0.17
   2  13   7    0.06    0.14
   3 -13   7   -0.07    0.14
   3 -13   7    0.12    0.15
   3  13   7   -0.05    0.15
   3  13   7   -0.26    0.20
   3  13   7   -0.02    0.15
   4 -13   7    0.06    0.14
   4 -13   7   -0.11    0.15
   4  13   7    0.20    0.21
   4  13   7    0.23    0.15
   4  13   7    0.24    0.15
   5 -13   7    0.05    0.14
   5 -13   7   -0.02    0.14
   5  13   7    0.15    0.16
   6 -13   7    0.12    0.14
  -6 -13  -7    0.05    0.12
   6  13   7    0.11    0.13
  -7 -13  -7    0.07    0.10
   7 -13   7    0.18    0.17
   7  13   7    0.08    0.09
  -7 -14   7    6.01    0.34
  -6 -14   7    1.41    0.23
  -5 -14   7   18.92    0.80
  -5 -14   7   18.58    0.85
   5  14  -7   19.78    0.82
  -5  14   7   18.82    0.79
  -4 -14   7   -0.15    0.37
  -4 -14   7    0.22    0.21
   4  14  -7   -0.05    0.17
  -4  14   7    0.42    0.17
  -3 -14   7    2.06    0.32
  -3  14   7    2.36    0.26
  -2 -14   7   -0.10    0.18
  -2  14   7   -0.11    0.14
  -2  14   7   -0.30    0.25
  -1 -14   7    0.34    0.23
  -1 -14   7    0.51    0.17
  -1  14   7    0.95    0.24
  -1  14   7    0.45    0.14
   0 -14   7   -0.03    0.16
   0  14   7    0.33    0.19
   0  14   7    0.57    0.15
   1 -14   7    2.13    0.26
   1 -14   7    2.08    0.26
   1  14   7    1.75    0.34
   1  14   7    1.97    0.25
   2 -14   7    1.09    0.24
   2 -14   7    0.73    0.19
   2  14   7    1.00    0.23
   2  14   7    1.09    0.28
   3 -14   7    2.71    0.28
   3 -14   7    2.13    0.27
   3  14   7    2.20    0.26
   3  14   7    2.12    0.27
  -4 -14  -7    7.55    0.42
   4 -14   7    7.52    0.42
   4 -14   7    6.70    0.42
   4  14   7    7.56    0.42
   4  14   7    7.52    0.42
   5 -14   7    3.46    0.29
  -5 -14  -7    3.73    0.28
   5 -14   7    3.77    0.28
   5  14   7    3.97    0.30
   5  14   7    3.66    0.27
  -6 -14  -7    1.41    0.19
   6 -14   7    1.47    0.24
   6 -14   7    1.22    0.26
   6  14   7    1.40    0.18
  -7 -14  -7    0.03    0.09
  -7  14  -7    0.17    0.09
   7  14   7    0.19    0.09
  -7 -15   7    2.81    0.25
  -6 -15   7    0.20    0.15
  -5 -15   7    0.04    0.18
   5  15  -7    0.24    0.17
  -5  15   7   -0.02    0.15
  -4 -15   7    0.80    0.24
  -4  15   7    0.53    0.14
   4  15  -7    0.68    0.16
  -3 -15   7    2.20    0.33
  -3  15   7    2.10    0.24
  -2 -15   7    1.19    0.29
  -2  15   7    0.96    0.22
  -1 -15   7   10.98    0.55
  -1  15   7   10.10    0.58
  -1  15   7   11.08    0.53
   0 -15   7   -0.21    0.14
   0 -15   7    0.23    0.14
   0  15   7   -0.08    0.14
   0  15  -7    0.04    0.19
   1 -15   7    0.33    0.16
   1 -15   7    0.54    0.17
   1  15   7    0.46    0.15
   1  15   7    0.41    0.21
   2 -15   7   10.50    0.53
   2 -15   7    9.67    0.53
   2  15   7   10.80    0.51
   2  15   7   10.96    0.54
   3 -15   7    6.52    0.41
   3 -15   7    7.51    0.41
   3  15   7    7.35    0.41
   3  15   7    7.41    0.40
   4 -15   7    2.39    0.24
   4 -15   7    2.88    0.28
  -4 -15  -7    2.90    0.25
   4  15   7    2.35    0.25
   4  15   7    2.42    0.24
  -5 -15  -7    0.18    0.11
   5 -15   7    0.26    0.13
   5 -15   7    0.16    0.14
   5  15   7    0.16    0.11
   5  15   7    0.20    0.15
  -6 -15  -7    2.64    0.20
   6 -15   7    2.41    0.27
  -6  15  -7    2.31    0.18
   6  15   7    2.26    0.18
  -7  15  -7    0.28    0.10
   5  16  -7    0.31    0.15
  -5  16   7    0.31    0.14
   4  16  -7    2.64    0.25
  -4  16   7    2.76    0.24
  -3 -16   7    1.61    0.35
   3  16  -7    1.73    0.24
  -3  16   7    1.79    0.22
  -2 -16   7    0.67    0.21
  -2  16   7    0.30    0.12
  -1 -16   7    1.30    0.27
  -1  16   7    1.70    0.23
   0 -16   7    1.56    0.28
   0  16  -7    2.09    0.30
   0  16   7    1.45    0.22
   1 -16   7    1.54    0.24
   1 -16   7    1.29    0.26
   1  16   7    1.42    0.21
  -1  16  -7    1.60    0.26
   2 -16   7    0.29    0.13
   2 -16   7    0.39    0.16
   2  16   7    0.97    0.22
   2  16   7    0.52    0.17
  -3 -16  -7    1.25    0.22
   3 -16   7    1.38    0.24
   3 -16   7    1.47    0.20
   3  16   7    1.19    0.22
   3  16   7    1.57    0.21
   4 -16   7    1.85    0.31
  -4 -16  -7    2.52    0.23
   4 -16   7    2.48    0.23
   4  16   7    2.44    0.23
   4  16   7    2.21    0.24
  -5 -16  -7    1.46    0.19
   5 -16   7    1.44    0.24
   5  16   7    1.55    0.18
  -5  16  -7    1.15    0.16
  -6 -16  -7   -0.01    0.09
   6  16   7   -0.06    0.08
  -6  16  -7    0.08    0.08
   5  17  -7    0.60    0.16
  -5  17   7    0.51    0.16
   4  17  -7    0.79    0.18
  -4  17   7    0.46    0.12
  -3  17   7    0.86    0.18
   3  17  -7    0.88    0.19
  -2 -17   7    1.30    0.26
  -2  17   7    1.15    0.19
  -1 -17   7    3.11    0.35
  -1  17   7    3.96    0.27
   0 -17   7    1.67    0.27
   0  17   7    1.60    0.20
   0  17  -7    1.65    0.29
   1 -17   7    1.23    0.27
   1  17   7    1.40    0.28
  -1  17  -7    1.01    0.22
   1  17   7    1.23    0.19
  -2 -17  -7    0.09    0.13
   2 -17   7    0.23    0.16
  -2  17  -7    0.10    0.12
   2  17   7    0.01    0.11
   2  17   7   -0.08    0.14
   3 -17   7    3.67    0.37
  -3 -17  -7    4.64    0.30
  -3  17  -7    4.77    0.28
   3  17   7    4.96    0.29
   3  17   7    4.84    0.29
  -4 -17  -7    3.11    0.25
   4 -17   7    4.01    0.30
  -4  17  -7    3.52    0.22
   4  17   7    3.24    0.24
   4  17   7    3.20    0.25
  -5 -17  -7   -0.03    0.13
  -5  17  -7    0.09    0.08
   5  17   7    0.15    0.10
   4  18  -7    3.13    0.23
  -3  18   7    1.08    0.17
   3  18  -7    1.15    0.18
   2  18  -7    0.25    0.11
  -2  18   7    0.50    0.11
  -1 -18   7    0.53    0.24
  -1  18   7    0.24    0.11
   0 -18   7    1.96    0.32
   0  18   7    1.29    0.18
  -1 -18  -7    4.35    0.33
   1 -18   7    4.77    0.35
   1  18   7    4.42    0.28
  -1  18  -7    4.59    0.29
  -2 -18  -7    5.50    0.32
   2 -18   7    5.32    0.37
   2  18   7    5.44    0.32
   2  18   7    4.95    0.29
  -2  18  -7    5.39    0.30
  -3 -18  -7    0.14    0.12
   3 -18   7    0.06    0.17
   3  18   7    0.18    0.11
  -3  18  -7   -0.01    0.10
   3  18   7    0.10    0.12
  -4 -18  -7    2.38    0.20
   4  18   7    1.87    0.19
  -4  18  -7    2.12    0.16
   4  18   7    2.06    0.24
  -5 -18  -7    0.00    0.11
   5  18   7    0.08    0.09
  -5  18  -7    0.04    0.07
  -4  19   7    0.12    0.11
   4  19  -7    0.04    0.11
  -3  19   7    0.27    0.10
   3  19  -7    0.10    0.10
  -2  19   7    2.20    0.18
   2  19  -7    2.15    0.19
  -1  19   7    0.23    0.09
   1  19  -7    0.43    0.11
   0 -19   7    0.17    0.28
   0  19   7   -0.05    0.08
   1 -19   7    0.55    0.25
   1  19   7    0.27    0.10
  -1  19  -7    0.11    0.15
  -2 -19  -7    0.42    0.19
   2  19   7    0.98    0.25
   2  19   7    0.26    0.10
  -3 -19  -7    0.29    0.15
   3  19   7   -0.09    0.12
  -3  19  -7    0.16    0.10
   3  19   7   -0.03    0.15
  -4  19  -7    0.92    0.14
  -3  20   7    1.64    0.16
   3  20  -7    2.33    0.17
  -2  20   7   -0.07    0.07
   2  20  -7    0.14    0.09
  -1  20   7    0.53    0.12
   1  20  -7    0.73    0.13
   0  20  -7    2.89    0.20
   0  20   7    3.09    0.19
  -1  20  -7    0.76    0.14
   1  20   7    0.78    0.13
  -2  20  -7   -0.06    0.10
   2  20   7   -0.09    0.10
  -9   0   8    0.73    0.13
  -9   0   8    1.02    0.17
   9   0  -8    1.30    0.24
  -8   0   8   47.11    1.81
  -8   0   8   49.69    1.82
   8   0  -8   45.42    1.83
  -7   0   8    9.45    0.50
   7   0  -8    9.51    0.52
  -7   0   8    9.82    0.52
  -6   0   8   32.04    1.28
  -6   0   8   32.07    1.27
  -5   0   8    5.75    0.39
  -5   0   8    5.99    0.38
  -4   0   8   18.40    0.81
  -4   0   8   20.59    0.79
  -4   0   8   17.36    0.80
  -3   0   8    5.15    0.32
   3   0  -8    5.13    0.31
   2   0  -8    0.16    0.07
  -2   0   8    0.37    0.15
   1   0  -8    1.30    0.19
  -1   0   8    0.88    0.18
   1   0  -8    1.10    0.14
   0   0  -8   44.77    1.69
   0   0  -8   46.33    1.68
  -1   0  -8   40.79    1.50
  -1   0  -8   40.05    1.49
  -2   0  -8   -0.01    0.07
  -2   0  -8    0.00    0.07
   3   0   8    0.01    0.28
   3   0   8    0.44    0.19
   4   0   8    4.01    0.33
   4   0   8    3.96    0.37
   4   0   8    4.02    0.31
   5   0   8    3.68    0.34
   5   0   8    3.76    0.32
   5   0   8    3.12    0.31
   6   0   8    3.26    0.30
   6   0   8    2.88    0.30
   7   0   8    7.05    0.43
   7   0   8    7.14    0.43
  -8   0  -8    1.79    0.23
   8   0   8    2.13    0.25
   8   0   8    1.36    0.27
   9   0   8    0.54    0.20
  -9   0  -8    0.74    0.12
 -10  -1   8   -0.01    0.10
 -10  -1   8   -0.12    0.19
 -10   1   8    0.34    0.10
  -9  -1   8    0.27    0.15
  -9  -1   8    0.34    0.12
   9  -1  -8    0.13    0.14
   9   1  -8    0.15    0.16
  -9   1   8    0.02    0.10
  -9   1   8    0.03    0.15
  -8  -1   8    0.44    0.14
   8  -1  -8    0.42    0.18
  -8  -1   8    0.57    0.17
  -8   1   8    0.98    0.20
   8   1  -8    0.43    0.16
  -8   1   8    0.42    0.15
  -7  -1   8    3.12    0.29
   7  -1  -8    3.31    0.31
  -7  -1   8    4.12    0.33
   7   1  -8    3.11    0.31
  -7   1   8    3.25    0.30
  -7   1   8    3.75    0.34
  -6  -1   8    1.49    0.29
  -6  -1   8    1.78    0.27
  -6   1   8    1.82    0.26
  -6   1   8    1.51    0.31
  -5  -1   8    5.78    0.38
  -5  -1   8    4.83    0.38
  -5   1   8    5.52    0.37
  -5   1   8    5.66    0.39
  -4  -1   8    1.72    0.30
  -4  -1   8    1.08    0.22
  -4  -1   8    1.27    0.23
  -4   1   8    1.27    0.31
  -4   1   8    1.63    0.28
   3  -1  -8    0.02    0.10
  -3  -1   8    0.12    0.13
   3   1  -8    0.22    0.12
  -3   1   8    0.30    0.16
   2  -1  -8  118.69    4.24
  -2  -1   8  116.63    4.24
  -2   1   8  114.95    4.24
   2   1  -8  116.53    4.24
  -1  -1   8    2.25    0.24
   1  -1  -8    2.21    0.21
   1  -1  -8    2.33    0.17
   1   1  -8    2.22    0.17
   1   1  -8    2.39    0.21
   0  -1  -8   21.43    0.98
   0  -1  -8   26.08    0.98
   0   1  -8   26.91    0.97
   0   1  -8   27.46    0.98
  -1  -1  -8    0.91    0.16
  -1  -1  -8    1.14    0.13
  -1   1  -8    1.27    0.12
  -1   1  -8    1.03    0.15
   2  -1   8    0.13    0.19
  -2  -1  -8    0.03    0.07
  -2   1  -8    0.10    0.06
  -2   1  -8    0.10    0.07
   3  -1   8    0.49    0.18
   3  -1   8    0.29    0.16
   3   1   8    0.33    0.19
   3   1   8    0.65    0.19
   4  -1   8    6.90    0.45
   4  -1   8    6.79    0.41
   4  -1   8    7.20    0.40
   4   1   8    7.16    0.42
   4   1   8    7.13    0.40
   4   1   8    6.63    0.43
   5  -1   8    0.36    0.18
   5  -1   8    0.45    0.16
   5  -1   8    0.48    0.19
   5   1   8    0.63    0.18
   5   1   8    0.21    0.17
   5   1   8    0.46    0.18
   6  -1   8    0.65    0.17
   6  -1   8    1.09    0.20
   6   1   8    1.15    0.26
   6   1   8    1.29    0.27
   7  -1   8   11.28    0.56
   7  -1   8   11.57    0.57
   7   1   8   11.54    0.57
   7   1   8   11.08    0.57
   8  -1   8    0.05    0.14
  -8  -1  -8    0.22    0.12
   8  -1   8   -0.07    0.15
  -8   1  -8    0.03    0.13
   8   1   8    0.17    0.14
   8   1   8    0.14    0.17
   9  -1   8    1.88    0.27
  -9  -1  -8    1.71    0.18
  -9   1  -8    1.76    0.19
   9   1   8    2.14    0.28
 -10  -2   8    2.57    0.20
 -10  -2   8    2.73    0.26
 -10   2   8    2.62    0.20
  -9  -2   8    0.24    0.14
   9  -2  -8    0.31    0.14
  -9  -2   8    0.15    0.12
  -9   2   8    0.28    0.11
  -9   2   8    0.35    0.18
   8  -2  -8    3.82    0.31
  -8  -2   8    4.07    0.30
  -8  -2   8    3.61    0.31
  -8   2   8    3.54    0.35
   8   2  -8    3.06    0.31
  -8   2   8    3.80    0.29
  -7  -2   8    0.53    0.16
   7  -2  -8    0.44    0.16
  -7  -2   8    0.37    0.17
  -7   2   8    0.57    0.21
  -7   2   8    0.19    0.14
  -6  -2   8    6.71    0.44
  -6  -2   8    7.48    0.44
   6  -2  -8    7.85    0.44
  -6   2   8    8.00    0.46
  -6   2   8    8.07    0.43
  -5  -2   8   27.02    1.07
  -5  -2   8   25.39    1.07
  -5  -2   8   27.44    1.07
  -5   2   8   25.42    1.07
  -5   2   8   26.18    1.06
  -4  -2   8    2.32    0.31
  -4  -2   8    2.40    0.25
  -4  -2   8    2.22    0.36
  -4   2   8    2.26    0.33
  -4   2   8    2.30    0.27
   3  -2  -8   15.41    0.66
  -3  -2   8   15.23    0.66
   3   2  -8   15.88    0.67
   2  -2  -8   51.53    1.86
  -2  -2   8   49.23    1.87
   2   2  -8   51.67    1.86
  -2   2   8   47.46    1.87
  -1  -2   8    0.33    0.15
   1   2  -8    0.50    0.11
   1   2  -8    0.38    0.09
   0  -2   8  142.58    5.19
   0  -2  -8  147.88    5.18
   0   2  -8  141.50    5.18
   0   2  -8  142.33    5.18
   1  -2   8    2.21    0.27
  -1  -2  -8    2.97    0.18
  -1   2  -8    2.38    0.16
  -1   2  -8    2.45    0.18
  -2  -2  -8   13.22    0.51
   2  -2   8   11.82    0.55
  -2   2  -8   12.68    0.48
  -2   2  -8   12.31    0.49
   3  -2   8   52.63    1.93
   3  -2   8   51.16    1.96
   3  -2   8   51.22    1.94
   3   2   8   52.03    1.96
   3   2   8   50.53    1.95
   3   2   8   52.13    1.96
   4  -2   8    0.84    0.24
   4  -2   8    0.76    0.19
   4  -2   8    0.65    0.18
   4   2   8    0.97    0.19
   4   2   8    1.02    0.22
   4   2   8    0.63    0.17
   5  -2   8    0.50    0.18
   5  -2   8    0.46    0.17
   5   2   8    0.57    0.20
   5   2   8    0.07    0.15
   5   2   8    0.35    0.17
   6  -2   8    3.22    0.32
   6  -2   8    3.99    0.32
   6   2   8    4.02    0.34
   6   2   8    3.53    0.32
   7  -2   8    0.63    0.19
   7  -2   8    0.59    0.18
   7   2   8    0.58    0.19
   7   2   8    0.69    0.19
  -7   2  -8    0.64    0.18
   8  -2   8   -0.01    0.13
   8  -2   8   -0.06    0.13
  -8  -2  -8   -0.08    0.11
   8   2   8    0.22    0.15
   8   2   8   -0.09    0.19
  -8   2  -8   -0.18    0.13
  -9  -2  -8    1.02    0.16
   9  -2   8    1.04    0.20
  -9   2  -8    1.47    0.24
   9   2   8    1.16    0.27
 -10  -3   8    1.70    0.21
 -10  -3   8    1.68    0.20
 -10   3   8    1.76    0.18
  -9  -3   8    4.25    0.28
  -9  -3   8    4.21    0.29
   9   3  -8    4.19    0.33
  -9   3   8    4.11    0.27
  -9   3   8    3.83    0.39
  -8  -3   8    0.01    0.15
  -8  -3   8   -0.18    0.14
   8  -3  -8   -0.08    0.15
   8   3  -8    0.05    0.15
  -8   3   8    0.14    0.13
  -8   3   8   -0.20    0.26
  -7  -3   8    2.40    0.29
   7  -3  -8    2.05    0.28
  -7  -3   8    2.36    0.28
  -7   3   8    2.62    0.27
  -7   3   8    2.13    0.33
   6  -3  -8   12.82    0.59
  -6  -3   8   12.89    0.60
  -6  -3   8   12.08    0.59
  -6   3   8   11.93    0.59
  -6   3   8   11.56    0.62
  -5  -3   8   14.56    0.66
  -5  -3   8   14.11    0.67
   5  -3  -8   14.16    0.65
  -5  -3   8   14.41    0.67
  -5   3   8   14.59    0.68
  -5   3   8   15.04    0.66
  -4  -3   8    0.89    0.20
  -4  -3   8    0.38    0.14
  -4   3   8    0.59    0.17
  -4   3   8    0.54    0.22
   3  -3  -8   43.85    1.63
  -3  -3   8   41.69    1.66
   2  -3  -8    6.46    0.33
  -2  -3   8    6.14    0.34
   1  -3  -8    0.32    0.08
  -1  -3   8    0.17    0.13
   1   3  -8    0.20    0.11
   0  -3  -8   84.90    3.12
   0  -3   8   85.72    3.13
   0   3  -8   88.12    3.12
   0   3  -8   84.18    3.12
   1  -3   8    2.71    0.25
  -1  -3  -8    3.34    0.21
  -1   3  -8    2.76    0.21
  -1   3  -8    2.88    0.18
   2  -3   8   35.81    1.38
  -2  -3  -8   37.15    1.35
  -2   3  -8   35.52    1.32
   3  -3   8    3.85    0.31
   3  -3   8    3.98    0.34
   3  -3   8    4.30    0.33
   3   3   8    4.37    0.35
   3   3   8    4.76    0.33
   3   3   8    4.01    0.36
   4  -3   8   33.41    1.28
   4  -3   8   31.48    1.32
   4  -3   8   34.47    1.30
   4  -3   8   32.50    1.31
   4   3   8   32.44    1.29
   4   3   8   32.19    1.30
   4   3   8   33.56    1.31
   5  -3   8    9.75    0.52
   5   3   8    9.39    0.55
   5   3   8    9.59    0.53
   5   3   8    9.68    0.50
   6  -3   8   17.91    0.82
   6  -3   8   18.96    0.80
   6   3   8   18.80    0.81
   6   3   8   17.65    0.81
   7  -3   8    0.01    0.15
   7  -3   8   -0.33    0.14
   7   3   8    0.13    0.18
  -7   3  -8    0.14    0.18
   7   3   8    0.13    0.16
   8  -3   8    1.93    0.24
  -8  -3  -8    1.13    0.21
   8  -3   8    1.37    0.23
   8   3   8    1.39    0.22
  -8   3  -8    1.15    0.25
   8   3   8    1.26    0.23
  -9  -3  -8    7.09    0.33
   9   3   8    5.67    0.39
  -9   3  -8    7.65    0.37
 -10  -4   8    0.81    0.19
 -10   4   8    0.57    0.13
  -9  -4   8    3.61    0.27
  -9  -4   8    3.98    0.27
   9   4  -8    3.55    0.32
  -9   4   8    4.09    0.26
  -8  -4   8    6.20    0.37
   8  -4  -8    6.14    0.38
  -8  -4   8    6.66    0.38
  -8   4   8    5.17    0.41
   8   4  -8    5.85    0.40
  -8   4   8    6.11    0.36
  -7  -4   8    3.22    0.33
   7  -4  -8    3.59    0.31
  -7  -4   8    4.29    0.33
  -7   4   8    4.00    0.31
  -7   4   8    3.17    0.38
  -6  -4   8    0.65    0.18
   6  -4  -8    0.44    0.16
  -6  -4   8    0.97    0.21
  -6   4   8    0.81    0.17
  -6   4   8    0.91    0.21
   5  -4  -8    0.47    0.14
  -5  -4   8    0.63    0.19
  -5  -4   8    0.73    0.18
  -5  -4   8    1.26    0.23
  -5   4   8    0.76    0.16
  -5   4   8    0.90    0.22
  -4  -4   8    6.48    0.37
  -4  -4   8    5.98    0.40
   4  -4  -8    6.21    0.36
  -4   4   8    5.85    0.43
  -4   4   8    5.70    0.38
  -3  -4   8    7.44    0.39
  -3   4   8    7.08    0.43
  -2  -4   8    4.84    0.30
   2  -4  -8    5.07    0.30
  -1  -4   8   77.65    2.84
   1  -4  -8   74.40    2.83
   1   4  -8   80.15    2.96
   0  -4  -8   61.36    2.28
   0  -4   8   64.70    2.29
   0   4  -8   59.46    2.28
   1  -4   8    2.10    0.22
  -1  -4  -8    2.11    0.20
  -1   4  -8    1.70    0.21
  -1   4  -8    2.25    0.17
  -2  -4  -8    3.59    0.26
   2  -4   8    3.94    0.27
   3  -4   8    0.49    0.18
   3  -4   8    0.26    0.16
   3  -4   8    0.25    0.18
   3   4   8    0.76    0.21
   3   4   8    0.62    0.19
   3   4   8    0.62    0.19
   3   4   8    0.43    0.27
   4  -4   8    0.48    0.17
   4  -4   8    0.33    0.17
   4  -4   8    0.27    0.15
   4   4   8    0.14    0.17
   4   4   8    0.24    0.18
   4   4   8    0.53    0.20
   5  -4   8    0.64    0.16
   5  -4   8    0.14    0.19
   5  -4   8    0.37    0.18
   5   4   8    0.22    0.17
   5   4   8   -0.02    0.18
   5   4   8    0.39    0.18
   6  -4   8    0.24    0.16
   6  -4   8    0.33    0.16
  -6  -4  -8    0.66    0.25
   6   4   8   -0.01    0.15
   6   4   8    0.25    0.17
  -6   4  -8    0.44    0.22
   6   4   8    0.26    0.17
   7  -4   8   -0.14    0.13
   7  -4   8    0.00    0.15
  -7   4  -8    0.30    0.20
   7   4   8    0.04    0.17
   7   4   8    0.18    0.16
   8  -4   8   -0.18    0.14
  -8  -4  -8    0.04    0.11
   8  -4   8   -0.07    0.13
   8   4   8   -0.07    0.12
  -8   4  -8   -0.04    0.17
  -9  -4  -8    0.16    0.09
   9   4   8    0.14    0.13
 -10  -5   8    0.14    0.12
 -10   5   8   -0.16    0.09
  -9  -5   8   18.88    0.76
  -9  -5   8   17.10    0.75
   9  -5  -8   18.48    0.78
  -9   5   8   19.04    0.76
   9   5  -8   19.59    0.80
   8  -5  -8    1.31    0.25
  -8  -5   8    1.36    0.26
  -8   5   8    1.86    0.36
   8   5  -8    1.47    0.28
  -7  -5   8    8.04    0.48
  -7  -5   8    8.27    0.46
   7  -5  -8    7.62    0.45
  -7   5   8    8.57    0.51
  -7   5   8    8.77    0.46
  -6  -5   8    5.90    0.43
  -6  -5   8    5.38    0.38
   6  -5  -8    6.09    0.39
  -6   5   8    5.65    0.37
  -6   5   8    5.13    0.43
  -5  -5   8    7.11    0.52
  -5  -5   8    7.54    0.45
  -5  -5   8    8.04    0.45
   5  -5  -8    8.25    0.44
  -5   5   8    7.97    0.44
  -5   5   8    8.16    0.50
  -4  -5   8   19.48    0.86
   4  -5  -8   20.23    0.84
  -4  -5   8   20.57    0.86
  -4   5   8   20.68    0.85
  -4   5   8   20.57    0.88
  -3  -5   8   10.56    0.58
   3  -5  -8   11.77    0.53
  -3  -5   8   12.13    0.54
  -3   5   8   11.15    0.55
  -3   5   8   11.45    0.58
   2  -5  -8   14.93    0.64
   2  -5  -8   13.45    0.64
  -2  -5   8   15.04    0.63
   1  -5  -8   15.33    0.66
  -1  -5   8   16.12    0.66
   0  -5  -8   41.04    1.61
   0  -5   8   45.09    1.62
   0   5  -8   42.76    1.62
  -1  -5  -8    0.33    0.12
   1  -5   8    0.25    0.12
  -1   5  -8    0.30    0.13
   2  -5   8    0.41    0.19
   2  -5   8    0.45    0.14
  -2  -5  -8    0.33    0.14
   2   5   8    0.69    0.20
   2   5   8    0.43    0.17
   3  -5   8    1.55    0.27
   3  -5   8    1.15    0.25
   3  -5   8    1.16    0.21
   3   5   8    1.31    0.29
   3   5   8    1.53    0.37
   3   5   8    1.63    0.28
   3   5   8    1.25    0.26
   4  -5   8    1.97    0.26
   4  -5   8    1.60    0.25
   4  -5   8    1.92    0.27
   4   5   8    1.77    0.28
   4   5   8    1.37    0.28
   4   5   8    1.78    0.27
   5  -5   8    3.09    0.32
   5  -5   8    3.43    0.29
   5  -5   8    2.98    0.31
   5   5   8    2.69    0.30
   5   5   8    3.18    0.30
   5   5   8    2.96    0.31
   6  -5   8    0.56    0.20
   6  -5   8    0.93    0.18
   6  -5   8    0.50    0.16
  -6  -5  -8    0.40    0.23
   6   5   8    0.47    0.15
   6   5   8    1.20    0.25
   6   5   8    0.09    0.18
   7  -5   8    0.34    0.17
   7  -5   8    0.36    0.24
   7  -5   8   -0.16    0.12
   7   5   8   -0.20    0.13
   7   5   8   -0.03    0.18
   8  -5   8    7.41    0.38
   8  -5   8    7.10    0.39
  -8  -5  -8    7.24    0.38
   8   5   8    6.72    0.38
  -9  -5  -8    0.44    0.10
   9   5   8    0.94    0.18
 -10  -6   8    1.04    0.18
 -10   6   8    0.81    0.14
   9  -6  -8    0.11    0.15
  -9  -6   8    0.07    0.11
   9   6  -8    0.02    0.21
  -9   6   8    0.17    0.11
   8  -6  -8    1.52    0.26
  -8  -6   8    1.88    0.29
  -8  -6   8    2.22    0.25
   8   6  -8    2.21    0.30
  -8   6   8    1.38    0.23
   7  -6  -8   -0.03    0.15
  -7  -6   8    0.23    0.22
  -7  -6   8   -0.13    0.15
  -7   6   8    0.17    0.15
  -7   6   8   -0.16    0.22
   6  -6  -8    0.26    0.16
  -6  -6   8   -0.14    0.16
  -6   6   8    0.11    0.22
  -6   6   8   -0.01    0.14
  -5  -6   8    1.80    0.27
   5  -6  -8    1.66    0.27
  -5  -6   8    1.68    0.28
  -5   6   8    1.31    0.24
  -5   6   8    1.57    0.27
   4  -6  -8    3.65    0.31
  -4  -6   8    4.02    0.36
  -4  -6   8    3.75    0.30
  -4   6   8    3.94    0.39
  -4   6   8    3.13    0.33
  -3  -6   8    5.22    0.33
   3  -6  -8    4.57    0.36
  -3  -6   8    4.82    0.42
  -3   6   8    5.29    0.37
  -3   6   8    5.61    0.42
  -2  -6   8   50.26    1.93
  -2   6   8   46.74    1.93
  -2   6   8   57.81    2.09
  -1  -6   8    5.16    0.32
   1  -6  -8    5.06    0.34
   0  -6  -8    0.15    0.12
   0  -6   8    0.36    0.12
  -1  -6  -8   10.96    0.52
  -2  -6  -8    6.95    0.45
   2  -6   8    7.74    0.44
   2  -6   8    7.15    0.43
   2  -6   8    7.47    0.38
   2   6   8    7.71    0.44
   2   6   8    8.08    0.46
   2   6   8    7.98    0.42
   2   6   8    6.87    0.47
   3  -6   8    0.79    0.17
   3  -6   8    0.54    0.15
   3  -6   8    0.74    0.17
   3   6   8    0.88    0.19
   3   6   8    1.26    0.24
   3   6   8    0.75    0.20
   3   6   8    0.73    0.18
   4  -6   8    0.19    0.16
   4  -6   8   -0.20    0.14
   4  -6   8    0.07    0.14
   4   6   8    0.08    0.17
   4   6   8   -0.05    0.15
   4   6   8    0.13    0.17
   5  -6   8    6.14    0.40
   5  -6   8    6.03    0.38
   5  -6   8    6.13    0.40
   5   6   8    6.52    0.41
   5   6   8    6.14    0.40
   5   6   8    6.71    0.40
   6  -6   8    1.06    0.23
   6  -6   8    0.98    0.21
   6  -6   8    0.87    0.20
  -6  -6  -8    1.04    0.22
   6   6   8    0.88    0.20
   6   6   8    0.71    0.17
   6   6   8    0.90    0.18
   7  -6   8    0.03    0.20
   7  -6   8    0.17    0.13
  -7  -6  -8    0.44    0.23
   7  -6   8   -0.19    0.15
   7   6   8   -0.06    0.14
   7   6   8    0.13    0.21
  -8  -6  -8    0.81    0.17
   8  -6   8    0.94    0.20
   8  -6   8    1.30    0.23
   8   6   8    1.04    0.19
  -9  -6  -8    1.17    0.19
   9   6   8    1.09    0.18
  -9  -7   8    0.29    0.11
   9  -7  -8    0.34    0.16
  -9   7   8    0.24    0.10
  -8  -7   8    9.67    0.48
   8  -7  -8   10.16    0.50
  -8   7   8    9.88    0.48
   8   7  -8   10.09    0.53
   7  -7  -8    1.57    0.25
  -7  -7   8    1.41    0.26
  -7   7   8    1.28    0.26
  -7   7   8    2.07    0.38
  -6  -7   8    0.91    0.22
  -6  -7   8    1.48    0.27
  -6   7   8    1.68    0.27
  -6   7   8    1.46    0.27
  -5  -7   8    7.72    0.46
  -5  -7   8    7.69    0.45
   5  -7  -8    7.44    0.44
  -5   7   8    7.65    0.45
  -5   7   8    7.63    0.48
  -4  -7   8   14.18    0.64
   4  -7  -8   12.61    0.62
  -4  -7   8   13.95    0.65
  -4   7   8   13.84    0.63
  -4   7   8   13.36    0.66
  -3  -7   8    4.51    0.32
   3  -7  -8    4.22    0.37
  -3  -7   8    4.34    0.42
  -3   7   8    4.30    0.35
  -3   7   8    4.84    0.38
  -2  -7   8   45.24    1.64
  -2   7   8   43.33    1.64
  -2   7   8   39.64    1.64
  -1  -7   8   58.42    2.11
  -1   7   8   54.62    2.11
  -1   7   8   55.40    2.11
   0  -7   8   23.69    1.04
   0  -7   8   23.61    0.92
   0  -7  -8   23.78    0.97
   0   7   8   23.35    0.95
   0   7   8   21.36    0.93
   0   7   8   21.09    0.94
  -1  -7  -8   23.86    1.01
   1  -7   8   23.83    0.98
   1  -7   8   25.24    1.01
   1   7   8   24.32    1.01
   1   7   8   25.26    1.01
   1   7   8   25.46    1.00
  -2  -7  -8   10.05    0.62
   2  -7   8   11.12    0.54
   2  -7   8   10.50    0.53
   2  -7   8   11.81    0.51
   2   7   8   11.34    0.57
   2   7   8   11.23    0.53
   2   7   8   10.39    0.56
   2   7   8   10.42    0.55
   3  -7   8   24.48    1.03
   3  -7   8   23.90    1.00
   3  -7   8   24.92    1.01
   3   7   8   24.62    1.02
   3   7   8   24.85    1.03
   3   7   8   25.50    1.02
   3   7   8   25.26    1.03
   4  -7   8    1.83    0.25
   4  -7   8    1.82    0.25
   4  -7   8    1.99    0.36
   4   7   8    1.51    0.26
   4   7   8    1.68    0.38
   5  -7   8   -0.07    0.16
   5  -7   8    0.05    0.14
   5  -7   8   -0.32    0.15
   5   7   8    0.31    0.17
   5   7   8    0.26    0.17
   5   7   8   -0.06    0.15
   6  -7   8    1.18    0.26
  -6  -7  -8    0.51    0.19
   6  -7   8    0.64    0.19
   6  -7   8    0.96    0.22
   6   7   8    1.22    0.27
   6   7   8    0.67    0.18
   7  -7   8    0.06    0.15
   7  -7   8    0.07    0.14
   7  -7   8    0.24    0.19
  -7  -7  -8    0.01    0.18
   7   7   8   -0.16    0.19
  -8  -7  -8    4.81    0.30
   8  -7   8    5.84    0.35
   8  -7   8    5.51    0.31
   8   7   8    5.44    0.31
  -9  -7  -8    0.35    0.09
   9   7   8    0.16    0.13
  -9  -8   8    0.72    0.15
   9  -8  -8    0.57    0.19
  -9   8   8    0.56    0.12
   8  -8  -8    2.69    0.28
  -8  -8   8    2.87    0.25
   8   8  -8    2.99    0.34
  -8   8   8    2.86    0.24
  -7  -8   8    0.03    0.13
   7  -8  -8    0.07    0.15
  -7   8   8    0.01    0.15
   6  -8  -8    0.35    0.16
  -6  -8   8    0.07    0.17
  -6  -8   8    0.29    0.16
  -6   8   8   -0.05    0.16
  -6   8   8   -0.05    0.24
  -5  -8   8    7.06    0.44
  -5  -8   8    7.27    0.44
   5  -8  -8    6.98    0.43
  -5   8   8    7.17    0.43
  -5   8   8    6.59    0.55
   4  -8  -8    4.00    0.36
  -4  -8   8    4.00    0.39
  -4  -8   8    4.09    0.33
  -4   8   8    4.51    0.40
  -4   8   8    4.55    0.35
  -3  -8   8    0.97    0.25
   3  -8  -8    0.81    0.24
  -3  -8   8    1.06    0.19
  -3   8   8    1.01    0.24
  -3   8   8    0.76    0.22
  -3   8   8    1.30    0.28
  -2  -8   8    0.38    0.24
  -2  -8   8    0.49    0.15
  -2   8   8    0.57    0.19
  -2   8   8    0.61    0.20
  -2   8   8    0.18    0.21
  -1  -8   8    1.04    0.20
  -1  -8   8    1.45    0.24
  -1   8   8    0.90    0.22
  -1   8   8    1.51    0.23
  -1   8   8    1.52    0.27
   0  -8   8    6.20    0.49
   0  -8   8    6.83    0.42
   0  -8   8    6.63    0.36
   0   8   8    6.53    0.38
   0   8   8    6.10    0.41
   0   8   8    6.37    0.42
   1  -8   8   57.91    2.19
   1  -8   8   60.23    2.18
   1  -8   8   59.54    2.20
   1   8   8   56.61    2.21
   1   8   8   58.22    2.19
   1   8   8   57.88    2.20
   1   8   8   57.10    2.18
   2  -8   8    3.54    0.27
   2  -8   8    2.95    0.30
   2  -8   8    2.88    0.31
   2   8   8    3.27    0.33
   2   8   8    3.79    0.34
   2   8   8    3.22    0.29
   2   8   8    3.00    0.32
   3  -8   8    0.15    0.15
   3  -8   8   -0.01    0.13
   3  -8   8    0.00    0.15
   3   8   8    0.15    0.20
   3   8   8    0.33    0.18
   3   8   8    0.35    0.16
   3   8   8    0.10    0.16
   4  -8   8    1.56    0.25
   4  -8   8    1.54    0.25
   4  -8   8    1.75    0.26
   4   8   8    1.61    0.29
   4   8   8    2.18    0.29
   4   8   8    1.69    0.27
   5  -8   8    2.57    0.29
   5  -8   8    2.97    0.27
   5   8   8    2.53    0.31
   5   8   8    2.03    0.29
   5   8   8    2.34    0.29
  -6  -8  -8    0.02    0.17
   6  -8   8    0.01    0.17
   6  -8   8    0.09    0.16
   6  -8   8    0.22    0.13
   6   8   8    0.06    0.14
   6   8   8    0.38    0.18
   7  -8   8    2.73    0.34
  -7  -8  -8    1.93    0.29
   7  -8   8    2.15    0.26
   7  -8   8    2.60    0.23
   7   8   8    2.40    0.25
   7   8   8    2.57    0.33
  -8  -8  -8    0.12    0.10
   8  -8   8    0.38    0.28
  -8  -8  -8    0.32    0.19
   8   8   8    0.05    0.10
  -9  -8  -8    0.19    0.09
  -9   9   8    0.02    0.12
  -8  -9   8    1.38    0.20
   8  -9  -8    1.09    0.27
   8   9  -8    1.16    0.27
  -8   9   8    1.16    0.20
   7  -9  -8    4.56    0.35
  -7   9   8    4.45    0.43
  -6  -9   8    4.92    0.38
  -6  -9   8    5.27    0.36
   6  -9  -8    4.44    0.36
  -6   9   8    4.99    0.36
   5  -9  -8   15.60    0.73
  -5  -9   8   15.96    0.74
  -5  -9   8   16.96    0.75
  -5   9   8   16.53    0.77
  -5   9   8   15.84    0.72
   4  -9  -8   44.23    1.72
  -4  -9   8   45.91    1.75
  -4  -9   8   44.40    1.73
  -4   9   8   44.67    1.73
  -3  -9   8   17.93    0.81
  -3  -9   8   18.84    0.78
  -3   9   8   17.01    0.79
  -3   9   8   17.27    0.77
  -3   9   8   17.37    0.78
  -2  -9   8    0.07    0.20
  -2  -9   8   -0.15    0.12
  -2   9   8    0.06    0.20
  -2   9   8   -0.02    0.16
  -2   9   8   -0.08    0.18
  -1  -9   8   45.23    1.68
  -1  -9   8   44.29    1.69
  -1   9   8   42.88    1.68
  -1   9   8   43.13    1.68
  -1   9   8   43.29    1.67
   0  -9   8   14.51    0.70
   0  -9   8   15.84    0.69
   0  -9   8   15.46    0.66
   0   9   8   15.10    0.69
   0   9   8   14.85    0.67
   0   9   8   14.71    0.68
   1  -9   8    4.51    0.34
   1  -9   8    4.99    0.31
   1  -9   8    4.50    0.36
   1   9   8    3.70    0.42
   1   9   8    4.66    0.32
   1   9   8    4.62    0.36
   1   9   8    4.65    0.37
   2  -9   8   10.77    0.53
   2  -9   8   10.61    0.52
   2  -9   8   11.45    0.54
   2   9   8   10.80    0.53
   2   9   8   10.38    0.55
   2   9   8   11.18    0.55
   2   9   8   10.35    0.56
   3  -9   8   20.44    0.83
   3  -9   8   19.28    0.82
   3  -9   8   20.25    0.84
   3   9   8   18.52    0.86
   3   9   8   17.40    0.92
   3   9   8   19.75    0.85
   4  -9   8    7.82    0.43
   4  -9   8    7.56    0.42
   4  -9   8    7.15    0.43
   4   9   8    7.56    0.44
   4   9   8    7.15    0.43
   4   9   8    7.50    0.45
   5  -9   8    7.07    0.42
   5  -9   8    7.18    0.42
   5  -9   8    6.93    0.39
   5   9   8    7.24    0.42
   5   9   8    6.46    0.42
   5   9   8    6.77    0.42
  -6  -9  -8    0.16    0.16
   6  -9   8    0.49    0.18
   6  -9   8    0.36    0.16
   6  -9   8    0.40    0.14
   6   9   8    0.11    0.17
   6   9   8    0.36    0.15
  -7  -9  -8    0.10    0.15
   7  -9   8    0.10    0.11
   7  -9   8   -0.05    0.15
   7   9   8   -0.06    0.11
  -8  -9  -8    2.48    0.19
  -8  -9  -8    1.87    0.26
   8   9   8    2.16    0.20
  -9 -10   8    0.66    0.14
  -8 -10   8    0.03    0.10
   8 -10  -8   -0.02    0.19
  -8  10   8   -0.16    0.12
   7 -10  -8    5.20    0.39
  -7 -10   8    6.27    0.35
  -7  10   8    5.74    0.34
  -6 -10   8    0.23    0.18
  -6 -10   8    0.14    0.16
   6 -10  -8    0.14    0.18
  -6  10   8   -0.03    0.15
  -5 -10   8   45.06    1.87
   5 -10  -8   48.00    1.85
  -5 -10   8   50.52    1.86
  -5  10   8   47.59    1.87
  -5  10   8   50.69    1.86
  -4 -10   8   16.10    0.74
  -4 -10   8   16.52    0.75
   4 -10  -8   16.40    0.78
  -4  10   8   16.26    0.73
  -4  10   8   16.10    0.74
  -4  10   8   16.16    0.76
  -3 -10   8   35.68    1.35
  -3 -10   8   33.41    1.35
  -3  10   8   32.87    1.33
  -3  10   8   32.59    1.33
  -3  10   8   32.86    1.42
  -2 -10   8   33.05    1.30
  -2 -10   8   31.98    1.31
  -2  10   8   31.99    1.29
  -2  10   8   32.98    1.30
  -2  10   8   33.35    1.30
  -1 -10   8    0.39    0.14
  -1 -10   8    0.56    0.19
  -1  10   8    0.01    0.19
  -1  10   8    0.26    0.16
  -1  10   8    0.32    0.18
   0 -10   8   32.21    1.28
   0 -10   8   32.95    1.29
   0 -10   8   31.72    1.29
   0  10   8   32.68    1.29
   0  10   8   32.94    1.28
   0  10   8   31.85    1.28
   1 -10   8    1.45    0.21
   1 -10   8    1.83    0.27
   1 -10   8    1.47    0.23
   1  10   8    1.47    0.31
   1  10   8    1.71    0.28
   1  10   8    1.36    0.23
   1  10   8    1.78    0.30
   2 -10   8   20.54    0.85
   2 -10   8   19.41    0.84
   2  10   8   18.99    0.85
   2  10   8   19.87    0.86
   3 -10   8    0.02    0.16
   3 -10   8    0.05    0.14
   3 -10   8    0.31    0.15
   3  10   8    0.19    0.14
   3  10   8    0.18    0.18
   3  10   8    0.06    0.16
   3  10   8    0.08    0.16
   4 -10   8    2.02    0.27
   4 -10   8    1.78    0.26
   4  10   8    2.10    0.28
   4  10   8    1.75    0.29
   4  10   8    2.24    0.27
   5 -10   8    0.42    0.14
   5 -10   8    0.66    0.17
   5 -10   8    0.88    0.19
   5  10   8    1.06    0.25
   5  10   8    1.29    0.27
   5  10   8    0.56    0.17
   6 -10   8    4.38    0.36
   6 -10   8    4.17    0.30
   6 -10   8    4.04    0.33
   6  10   8    4.40    0.32
   6  10   8    4.66    0.34
   7 -10   8    1.10    0.21
   7 -10   8    1.10    0.27
  -7 -10  -8    0.75    0.15
   7  10   8    0.59    0.13
  -8 -10  -8    1.87    0.25
  -8 -10  -8    1.89    0.18
   8  10   8    1.86    0.18
  -8 -11   8    0.43    0.11
  -8  11   8    0.73    0.15
   7 -11  -8   -0.20    0.21
  -7 -11   8   -0.14    0.12
  -7  11   8    0.20    0.14
   6 -11  -8    5.61    0.43
  -6 -11   8    6.63    0.39
  -5 -11   8    1.60    0.29
  -5 -11   8    2.06    0.31
   5 -11  -8    1.61    0.37
  -5  11   8    2.04    0.30
  -4 -11   8    4.37    0.41
  -4  11   8    4.89    0.38
  -4  11   8    4.96    0.44
  -4  11   8    4.71    0.37
  -3 -11   8   14.82    0.68
  -3 -11   8   14.49    0.74
  -3  11   8   14.63    0.67
  -3  11   8   14.03    0.65
  -3  11   8   14.08    0.69
  -2 -11   8    6.90    0.40
  -2 -11   8    5.94    0.41
  -2  11   8    6.15    0.39
  -2  11   8    6.18    0.49
  -1 -11   8    8.87    0.46
  -1  11   8    8.05    0.47
  -1  11   8    8.49    0.48
   0 -11   8    0.15    0.14
   0  11   8    0.40    0.19
   0  11   8    0.41    0.20
   1 -11   8    7.28    0.47
   1 -11   8    7.61    0.44
   1 -11   8    8.13    0.44
   1  11   8    7.51    0.42
   1  11   8    7.31    0.46
   1  11   8    7.36    0.50
   1  11   8    8.31    0.45
   2 -11   8    3.48    0.30
   2 -11   8    2.76    0.28
   2 -11   8    3.06    0.29
   2  11   8    3.17    0.32
   2  11   8    3.04    0.34
   2  11   8    3.27    0.28
   2  11   8    2.52    0.35
   3 -11   8    8.58    0.45
   3 -11   8    9.04    0.48
   3 -11   8    8.56    0.47
   3  11   8    8.71    0.46
   3  11   8    8.63    0.49
   3  11   8    8.29    0.47
   4 -11   8    1.46    0.23
   4 -11   8    1.15    0.24
   4 -11   8    1.00    0.20
   4  11   8    0.92    0.20
   4  11   8    1.47    0.26
   4  11   8    1.15    0.24
   5 -11   8    3.28    0.29
   5 -11   8    2.54    0.29
  -5 -11  -8    2.96    0.30
   5 -11   8    2.77    0.26
   5  11   8    3.03    0.29
   5  11   8    3.12    0.29
   5  11   8    3.13    0.30
   6 -11   8    0.42    0.16
   6 -11   8    0.41    0.12
   6 -11   8    0.46    0.14
  -6 -11  -8    0.51    0.15
   6  11   8    0.53    0.16
   6  11   8    0.41    0.14
  -7 -11  -8    1.15    0.21
   7 -11   8    0.70    0.18
   7 -11   8    0.79    0.16
   7  11   8    1.06    0.17
  -8 -11  -8    0.31    0.16
  -8 -11  -8    0.18    0.13
   8  11   8    0.00    0.09
  -8 -12   8   -0.03    0.10
  -7 -12   8    1.47    0.20
  -7  12   8    1.49    0.27
  -6 -12   8    0.01    0.14
  -6  12   8    0.08    0.16
  -5 -12   8   23.05    0.97
  -5 -12   8   23.18    1.00
   5  12  -8   24.22    1.01
  -5  12   8   23.84    0.97
  -4 -12   8   10.18    0.56
  -4 -12   8   10.56    0.57
  -4  12   8   11.03    0.56
   4  12  -8   10.74    0.59
  -4  12   8   10.96    0.54
  -4  12   8   11.11    0.61
  -3 -12   8   20.52    0.88
  -3  12   8   19.54    0.86
  -3  12   8   20.09    0.84
  -3  12   8   18.48    0.84
  -2 -12   8    0.47    0.18
  -2 -12   8    0.68    0.20
  -2  12   8    0.60    0.19
  -2  12   8    0.64    0.16
  -2  12   8    0.54    0.23
  -1 -12   8    8.12    0.46
  -1 -12   8    7.99    0.45
  -1  12   8    8.44    0.44
  -1  12   8    7.28    0.49
  -1  12   8    8.68    0.47
   0 -12   8    5.77    0.37
   0 -12   8    5.70    0.37
   0  12   8    5.41    0.44
   0  12   8    5.54    0.40
   0  12   8    5.76    0.36
   1 -12   8    0.04    0.14
   1 -12   8    0.47    0.16
   1  12   8    0.21    0.20
   1  12   8   -0.05    0.17
   1  12   8    0.21    0.15
   1  12   8    0.24    0.22
   2 -12   8    0.73    0.18
   2 -12   8    0.45    0.15
   2 -12   8    0.21    0.15
   2  12   8    0.53    0.16
   2  12   8    0.41    0.20
   2  12   8    0.52    0.21
   2  12   8    0.91    0.19
   3 -12   8    0.31    0.15
   3 -12   8    0.30    0.15
   3 -12   8    0.22    0.14
   3  12   8    0.37    0.20
   3  12   8    0.06    0.17
   3  12   8    0.02    0.13
   4 -12   8    0.35    0.14
   4 -12   8    0.23    0.15
   4 -12   8    0.05    0.14
   4  12   8    0.13    0.19
   4  12   8    0.36    0.16
   4  12   8    0.33    0.15
   5 -12   8    3.52    0.34
   5 -12   8    3.14    0.26
   5 -12   8    3.46    0.29
  -5 -12  -8    3.21    0.29
   5  12   8    3.03    0.28
   5  12   8    3.06    0.41
  -6 -12  -8    3.83    0.28
   6 -12   8    3.93    0.30
   6 -12   8    3.96    0.28
   6  12   8    4.00    0.28
   6  12   8    4.15    0.33
  -7 -12  -8    3.03    0.24
   7 -12   8    3.05    0.32
  -7 -12  -8    3.24    0.24
   7  12   8    2.61    0.21
  -8 -13   8    0.42    0.12
  -7 -13   8    0.16    0.12
  -6 -13   8    0.24    0.14
  -6  13   8    0.50    0.26
  -5 -13   8   10.97    0.54
  -5 -13   8   11.28    0.58
  -5  13   8   11.11    0.55
   5  13  -8   10.95    0.58
  -4 -13   8    0.55    0.24
  -4 -13   8    0.38    0.20
  -4  13   8    0.69    0.18
   4  13  -8    0.65    0.21
  -4  13   8    0.50    0.21
  -3 -13   8    4.27    0.37
  -3  13   8    4.22    0.33
  -3  13   8    5.10    0.44
  -3  13   8    5.54    0.41
  -2 -13   8    0.11    0.26
  -2  13   8    0.23    0.22
  -2  13   8    0.22    0.21
  -2  13   8    0.22    0.15
  -1 -13   8   16.50    0.71
  -1 -13   8   14.98    0.70
  -1  13   8   15.61    0.68
  -1  13   8   15.33    0.71
  -1  13   8   13.94    0.72
   0 -13   8    0.19    0.17
   0 -13   8    0.19    0.15
   0  13   8    0.10    0.18
   0  13   8    0.21    0.23
   0  13   8    0.29    0.14
   1 -13   8    6.39    0.40
   1  13   8    7.36    0.46
   1  13   8    6.74    0.39
   1  13   8    6.74    0.43
   1  13   8    6.57    0.46
   2 -13   8    1.96    0.26
   2 -13   8    1.78    0.25
   2  13   8    2.04    0.35
   2  13   8    1.85    0.25
   2  13   8    1.83    0.30
   3 -13   8    0.53    0.15
   3 -13   8    0.49    0.16
   3  13   8    0.84    0.21
   3  13   8    0.57    0.16
   3  13   8    0.49    0.18
   4 -13   8   -0.11    0.13
   4 -13   8    0.03    0.14
   4  13   8   -0.03    0.14
   4  13   8   -0.10    0.18
   4  13   8    0.01    0.15
  -5 -13  -8    5.97    0.36
   5 -13   8    5.96    0.37
   5 -13   8    6.37    0.36
   5  13   8    6.64    0.37
   5  13   8    6.25    0.36
   6 -13   8   -0.08    0.15
   6 -13   8    0.16    0.13
  -6 -13  -8    0.25    0.11
   6  13   8   -0.08    0.18
   6  13   8    0.11    0.10
  -7 -13  -8    0.33    0.11
   7  13   8    0.45    0.10
  -7 -14   8    0.88    0.20
  -6 -14   8   -0.04    0.15
  -5 -14   8    2.94    0.32
  -5 -14   8    2.90    0.37
   5  14  -8    2.93    0.32
  -5  14   8    3.28    0.34
  -4 -14   8    1.32    0.31
   4  14  -8    1.79    0.33
  -4  14   8    1.42    0.31
  -3 -14   8    4.70    0.38
  -3  14   8    4.78    0.33
  -2 -14   8    0.22    0.19
  -2  14   8    0.47    0.22
  -2  14   8    0.48    0.14
  -1 -14   8    0.15    0.15
  -1 -14   8    0.28    0.16
  -1  14   8   -0.17    0.19
  -1  14   8   -0.09    0.13
   0 -14   8    9.25    0.49
   0 -14   8    8.85    0.49
   0  14   8    9.04    0.47
   0  14   8    9.13    0.50
   1 -14   8    0.65    0.18
   1 -14   8    0.43    0.16
   1  14   8    0.57    0.22
   1  14   8    0.79    0.25
   1  14   8    0.63    0.16
   2 -14   8    2.17    0.26
   2 -14   8    1.86    0.27
   2  14   8    2.18    0.37
   2  14   8    1.91    0.28
   2  14   8    2.04    0.25
   3 -14   8    3.23    0.31
   3 -14   8    3.58    0.29
   3  14   8    3.81    0.29
   3  14   8    3.65    0.31
   3  14   8    3.81    0.38
   4 -14   8    0.83    0.21
  -4 -14  -8    0.61    0.15
   4 -14   8    0.83    0.17
   4  14   8    0.45    0.14
   4  14   8    0.46    0.14
   5 -14   8    0.21    0.13
   5 -14   8    0.06    0.15
  -5 -14  -8    0.14    0.11
   5  14   8   -0.19    0.13
   5  14   8   -0.15    0.11
   6 -14   8    0.55    0.17
   6 -14   8    0.90    0.16
  -6 -14  -8    0.92    0.17
   6  14   8    1.03    0.15
  -7 -14  -8   -0.03    0.09
  -7  14  -8   -0.05    0.08
   7  14   8    0.09    0.08
  -6 -15   8   10.84    0.51
  -5 -15   8    5.18    0.52
  -5  15   8    6.47    0.47
   5  15  -8    5.91    0.37
  -4 -15   8   10.24    0.56
  -4  15   8   10.14    0.50
   4  15  -8   11.50    0.53
  -3 -15   8   12.49    0.65
  -3  15   8   15.53    0.77
  -2 -15   8    2.11    0.30
  -2  15   8    2.42    0.26
  -2  15   8    2.82    0.41
  -1 -15   8    0.43    0.17
  -1  15   8    0.63    0.15
  -1  15   8    0.97    0.22
   0 -15   8    3.00    0.27
   0 -15   8    2.67    0.29
   0  15  -8    2.05    0.33
   0  15   8    2.65    0.26
   1 -15   8    0.02    0.14
   1 -15   8    0.30    0.16
   1  15   8    0.23    0.21
   1  15   8    0.02    0.13
   2 -15   8    1.06    0.22
   2 -15   8    0.79    0.18
   2  15   8    0.29    0.14
   2  15   8    0.26    0.19
   3 -15   8    6.70    0.41
   3 -15   8    7.38    0.40
   3  15   8    7.06    0.39
   3  15   8    7.28    0.39
   4 -15   8    0.88    0.17
  -4 -15  -8    1.12    0.20
   4 -15   8    0.95    0.20
   4  15   8    1.01    0.21
   4  15   8    0.83    0.19
   5 -15   8    6.78    0.34
   5 -15   8    6.83    0.38
  -5 -15  -8    6.14    0.33
   5  15   8    5.90    0.33
   5  15   8    6.45    0.34
  -6 -15  -8   -0.03    0.12
  -6  15  -8    0.00    0.08
   6  15   8   -0.02    0.09
   5  16  -8    2.45    0.38
  -4 -16   8    1.89    0.31
   4  16  -8    2.31    0.25
  -4  16   8    1.74    0.22
  -3 -16   8    0.41    0.21
   3  16  -8    0.67    0.16
  -3  16   8    0.35    0.13
  -2 -16   8   15.59    0.71
  -2  16   8   15.38    0.67
  -1 -16   8    1.17    0.28
  -1  16   8    1.15    0.20
   0 -16   8    0.65    0.18
   0  16   8    0.95    0.19
   0  16  -8    0.61    0.21
   1 -16   8    2.09    0.27
   1 -16   8    2.23    0.26
   1  16   8    1.81    0.31
   1  16   8    2.38    0.25
  -1  16  -8    2.38    0.27
   2 -16   8    0.31    0.13
   2 -16   8    0.16    0.15
   2  16   8    0.29    0.13
  -2  16  -8    0.35    0.13
   2  16   8    0.37    0.15
   3 -16   8    0.09    0.14
  -3 -16  -8    0.04    0.12
   3 -16   8    0.20    0.11
   3  16   8   -0.06    0.13
   3  16   8   -0.01    0.11
   4 -16   8    1.32    0.23
  -4 -16  -8    1.52    0.19
   4 -16   8    1.33    0.18
   4  16   8    1.22    0.19
   4  16   8    1.61    0.20
   5 -16   8    0.66    0.16
  -5 -16  -8    0.22    0.10
  -5  16  -8    0.23    0.09
   5  16   8    0.32    0.19
   5  16   8    0.24    0.10
  -6 -16  -8    5.69    0.26
  -6  16  -8    4.94    0.25
   5  17  -8    3.37    0.33
  -4  17   8    0.03    0.11
   4  17  -8    0.10    0.12
  -3 -17   8    2.44    0.43
  -3  17   8    1.86    0.20
   3  17  -8    2.16    0.22
  -2 -17   8    5.29    0.45
  -2  17   8    6.47    0.33
  -1 -17   8    0.87    0.20
  -1  17   8    0.52    0.11
   0 -17   8    2.73    0.29
   0  17   8    2.34    0.22
   1 -17   8    3.28    0.30
   1  17   8    2.82    0.23
  -1  17  -8    2.94    0.26
  -2 -17  -8    0.91    0.21
   2 -17   8    1.32    0.31
   2  17   8    0.64    0.16
   2  17   8    0.66    0.13
  -2  17  -8    0.56    0.13
   3 -17   8    2.23    0.26
  -3 -17  -8    2.03    0.22
  -3  17  -8    2.22    0.19
   3  17   8    1.84    0.22
   3  17   8    2.39    0.21
  -4 -17  -8    0.80    0.17
   4 -17   8    0.44    0.17
  -4  17  -8    0.66    0.13
   4  17   8    0.42    0.13
   4  17   8    0.56    0.12
  -5 -17  -8    0.21    0.10
   5  17   8    0.03    0.09
  -5  17  -8    0.12    0.08
  -4  18   8    1.52    0.19
   4  18  -8    1.89    0.19
  -3  18   8    0.25    0.10
   3  18  -8    0.33    0.11
  -2 -18   8   -0.02    0.28
   2  18  -8   -0.06    0.10
  -2  18   8   -0.03    0.09
  -1 -18   8    2.20    0.36
  -1  18   8    2.44    0.20
   0 -18   8    0.11    0.20
   0  18   8   -0.02    0.08
  -1 -18  -8    0.13    0.16
   1 -18   8   -0.05    0.17
   1  18   8   -0.12    0.09
  -1  18  -8    0.03    0.15
   2 -18   8    4.72    0.35
  -2 -18  -8    5.04    0.30
   2  18   8    4.48    0.27
  -2  18  -8    5.20    0.28
   2  18   8    4.66    0.33
   3 -18   8    0.62    0.19
  -3  18  -8    1.04    0.15
   3  18   8    0.92    0.16
   3  18   8    0.86    0.19
  -4 -18  -8    0.76    0.16
  -4  18  -8    0.93    0.13
   4  18   8    0.65    0.16
  -3  19   8    1.78    0.17
   3  19  -8    2.28    0.18
   2  19  -8    0.67    0.14
  -2  19   8    0.67    0.14
  -1  19   8    3.65    0.22
   1  19  -8    3.89    0.24
   0  19   8    4.40    0.25
   1  19   8    4.78    0.26
  -2 -19  -8    0.70    0.19
   2  19   8    0.75    0.18
  -2  19  -8    0.70    0.14
  -3  19  -8    0.42    0.12
   3  19   8    0.24    0.11
  -2  20   8    3.55    0.20
   2  20  -8    3.53    0.21
  -1  20   8    0.25    0.08
   1  20  -8    0.18    0.09
   0  20   8    0.65    0.12
   0  20  -8    0.45    0.10
  -1  20  -8    0.32    0.09
   1  20   8    0.15    0.08
  -2  20  -8    0.27    0.12
   2  20   8   -0.01    0.12
 -10   0   9   -0.01    0.09
   9   0  -9    0.16    0.15
  -9   0   9    0.13    0.13
  -9   0   9   -0.05    0.10
  -8   0   9   -0.17    0.12
   8   0  -9   -0.17    0.15
  -8   0   9    0.21    0.17
  -7   0   9    0.02    0.14
  -7   0   9    0.16    0.17
   7   0  -9   -0.11    0.14
  -6   0   9    0.17    0.15
  -6   0   9    0.03    0.17
  -5   0   9    0.14    0.16
  -5   0   9    0.09    0.17
  -4   0   9   -0.17    0.17
  -4   0   9    0.02    0.13
  -4   0   9   -0.02    0.17
  -3   0   9    0.02    0.16
  -3   0   9    0.21    0.20
   2   0  -9   -0.07    0.11
  -2   0   9    0.18    0.15
  -1   0   9    0.11    0.17
   1   0  -9    0.00    0.08
   0   0   9   -0.04    0.19
   0   0  -9    0.08    0.09
   0   0  -9   -0.03    0.11
  -1   0  -9   -0.14    0.08
  -1   0  -9    0.18    0.11
   3   0   9   -0.03    0.15
   3   0   9    0.00    0.23
   3   0   9    0.14    0.18
   4   0   9    0.05    0.16
   4   0   9    0.02    0.15
   4   0   9    0.09    0.19
   5   0   9   -0.10    0.14
   5   0   9    0.15    0.17
   5   0   9    0.23    0.18
   6   0   9    0.06    0.15
   6   0   9    0.19    0.16
   7   0   9   -0.32    0.14
   7   0   9   -0.07    0.15
   8   0   9    0.06    0.12
   8   0   9    0.04    0.14
  -8   0  -9    0.16    0.12
   9   0   9    0.24    0.14
  -9   0  -9   -0.10    0.11
 -10  -1   9    0.45    0.11
 -10   1   9    0.57    0.13
   9  -1  -9    0.12    0.14
  -9  -1   9    0.31    0.11
  -9  -1   9   -0.09    0.13
  -9   1   9    0.07    0.11
  -9   1   9    0.39    0.15
   9   1  -9    0.20    0.16
  -8  -1   9   32.57    1.27
   8  -1  -9   30.78    1.27
   8   1  -9   30.05    1.27
  -8   1   9   33.33    1.26
  -7  -1   9    0.23    0.18
  -7  -1   9    0.20    0.16
   7  -1  -9    0.22    0.14
   7   1  -9    0.33    0.16
  -7   1   9    0.31    0.19
  -7   1   9    0.06    0.14
  -6  -1   9   18.19    0.79
  -6  -1   9   17.88    0.79
  -6   1   9   18.06    0.79
  -6   1   9   18.03    0.78
  -5  -1   9   10.62    0.54
  -5  -1   9   10.23    0.53
  -5   1   9   10.84    0.54
  -5   1   9   10.59    0.53
  -4  -1   9   28.67    1.15
  -4  -1   9   29.38    1.15
  -4  -1   9   27.67    1.14
  -4   1   9   29.22    1.15
  -4   1   9   28.19    1.14
  -3  -1   9    0.89    0.22
  -3  -1   9    1.65    0.23
  -3   1   9    1.47    0.31
  -3   1   9    1.35    0.24
  -3   1   9    1.47    0.27
   2  -1  -9   38.82    1.59
  -2  -1   9   43.90    1.60
  -2   1   9   42.55    1.60
   2   1  -9   43.55    1.60
   1  -1  -9    1.43    0.20
  -1  -1   9    1.28    0.23
   1   1  -9    1.10    0.18
  -1   1   9    1.41    0.29
   0  -1   9    2.09    0.27
   0  -1  -9    1.60    0.25
   0  -1  -9    1.97    0.19
   0   1  -9    1.91    0.24
   0   1  -9    1.98    0.18
  -1  -1  -9    1.68    0.18
  -1  -1  -9    1.46    0.24
   1  -1   9    1.70    0.30
  -1   1  -9    1.77    0.18
  -1   1  -9    1.23    0.22
  -2  -1  -9  112.20    4.08
   3  -1   9    2.26    0.40
   3  -1   9    1.85    0.26
   3  -1   9    2.35    0.30
   3   1   9    2.68    0.30
   3   1   9    2.22    0.27
   3   1   9    2.49    0.34
   4  -1   9    6.01    0.39
   4  -1   9    6.53    0.39
   4  -1   9    6.26    0.43
   4   1   9    6.43    0.38
   4   1   9    6.41    0.39
   4   1   9    6.73    0.43
   5  -1   9    7.71    0.43
   5  -1   9    7.20    0.42
   5  -1   9    6.90    0.44
   5   1   9    7.18    0.42
   5   1   9    6.93    0.43
   5   1   9    7.51    0.44
   6  -1   9    0.12    0.16
   6  -1   9    0.25    0.16
   6   1   9    0.17    0.16
   6   1   9    0.30    0.16
   7  -1   9    0.01    0.14
   7  -1   9    0.35    0.16
   7   1   9   -0.11    0.15
   7   1   9    0.01    0.16
   8  -1   9    1.33    0.23
  -8  -1  -9    1.27    0.20
   8  -1   9    1.38    0.21
   8   1   9    1.15    0.21
   8   1   9    1.01    0.24
  -8   1  -9    1.01    0.21
  -9  -1  -9    0.35    0.12
   9  -1   9    0.29    0.15
   9   1   9    0.22    0.13
  -9   1  -9    0.32    0.12
 -10  -2   9    5.33    0.32
 -10  -2   9    5.26    0.28
 -10   2   9    5.34    0.26
  -9  -2   9   -0.02    0.12
  -9  -2   9   -0.20    0.13
   9  -2  -9   -0.02    0.14
  -9   2   9    0.20    0.11
  -9   2   9    0.02    0.16
   9   2  -9    0.00    0.16
  -8  -2   9    0.94    0.21
   8  -2  -9    0.93    0.24
  -8   2   9    0.50    0.15
   8   2  -9    0.42    0.16
  -8   2   9    0.73    0.25
   7  -2  -9    4.67    0.36
  -7  -2   9    5.49    0.37
  -7  -2   9    5.12    0.36
  -7   2   9    4.32    0.39
  -7   2   9    4.84    0.34
  -6  -2   9    0.58    0.18
   6  -2  -9    0.34    0.15
  -6  -2   9    0.54    0.17
  -6   2   9    0.76    0.20
  -6   2   9    0.68    0.17
  -5  -2   9    0.60    0.18
  -5  -2   9    0.42    0.17
  -5  -2   9    1.16    0.21
  -5   2   9    0.52    0.17
  -5   2   9    1.23    0.30
  -4  -2   9    0.80    0.17
  -4  -2   9    0.75    0.20
  -4  -2   9    0.39    0.21
  -4   2   9    0.24    0.15
  -4   2   9    0.94    0.20
  -3  -2   9    4.76    0.30
  -3  -2   9    3.39    0.35
  -3   2   9    3.71    0.36
  -3   2   9    3.88    0.36
  -2  -2   9    3.58    0.28
   2  -2  -9    3.54    0.27
  -2   2   9    2.95    0.31
   2   2  -9    3.63    0.27
   1  -2  -9   37.24    1.44
  -1  -2   9   37.49    1.45
   1   2  -9   39.55    1.44
   0  -2  -9   16.03    0.66
   0  -2   9   16.16    0.68
   0   2  -9   16.82    0.65
   0   2  -9   15.47    0.68
  -1  -2  -9    4.33    0.26
   1  -2   9    3.54    0.31
  -1  -2  -9    4.29    0.31
  -1   2  -9    4.02    0.28
  -1   2  -9    4.33    0.24
  -2  -2  -9   11.02    0.49
   2  -2   9   10.31    0.53
   2   2   9   12.14    0.57
   3  -2   9    1.11    0.40
   3  -2   9    0.84    0.18
   3  -2   9    0.93    0.22
   3  -2   9    0.89    0.18
   3   2   9    1.07    0.20
   3   2   9    0.63    0.17
   3   2   9    1.01    0.22
   4  -2   9    2.79    0.28
   4  -2   9    2.98    0.28
   4  -2   9    1.94    0.38
   4   2   9    3.36    0.30
   4   2   9    2.43    0.31
   4   2   9    2.86    0.30
   5  -2   9    2.01    0.26
   5  -2   9    2.29    0.28
   5   2   9    1.96    0.29
   5   2   9    1.65    0.26
   5   2   9    1.82    0.27
   6  -2   9    1.20    0.25
   6  -2   9    1.43    0.25
   6   2   9    0.83    0.18
   6   2   9    1.73    0.28
   7  -2   9    7.06    0.40
   7  -2   9    6.59    0.40
  -7   2  -9    7.23    0.41
   7   2   9    6.59    0.41
   7   2   9    6.74    0.41
   8  -2   9    0.17    0.12
  -8  -2  -9    0.30    0.12
   8  -2   9    0.05    0.12
   8   2   9    0.27    0.16
   8   2   9    0.33    0.12
  -8   2  -9    0.29    0.13
   9  -2   9   -0.19    0.16
  -9  -2  -9    0.06    0.09
  -9   2  -9   -0.15    0.16
   9   2   9    0.00    0.11
 -10  -3   9    4.79    0.30
 -10   3   9    5.19    0.25
  -9  -3   9    1.01    0.21
   9  -3  -9    1.07    0.22
  -9  -3   9    1.08    0.21
  -9   3   9    0.84    0.16
   9   3  -9    1.37    0.25
  -9   3   9    0.95    0.20
   8  -3  -9    0.94    0.20
  -8  -3   9    1.74    0.24
   8   3  -9    1.11    0.26
  -8   3   9    1.33    0.28
   7  -3  -9    5.86    0.39
  -7  -3   9    6.86    0.41
  -7  -3   9    6.00    0.40
  -7   3   9    6.12    0.39
  -7   3   9    6.76    0.43
  -6  -3   9    6.11    0.41
   6  -3  -9    7.04    0.41
  -6  -3   9    6.06    0.41
  -6   3   9    6.42    0.42
  -6   3   9    6.08    0.38
  -5  -3   9   30.21    1.26
  -5  -3   9   31.49    1.26
  -5  -3   9   33.01    1.28
   5  -3  -9   32.57    1.26
  -5   3   9   31.54    1.27
  -5   3   9   31.20    1.26
  -4  -3   9    2.56    0.38
  -4  -3   9    2.56    0.26
  -4  -3   9    2.04    0.30
  -4   3   9    2.35    0.32
  -4   3   9    2.41    0.29
  -3  -3   9   10.95    0.50
  -3  -3   9    9.77    0.54
  -3   3   9   10.03    0.54
  -3   3   9   10.27    0.52
   2  -3  -9   31.48    1.22
  -2  -3   9   32.57    1.21
   2   3  -9   29.22    1.21
   1  -3  -9   16.88    0.70
  -1  -3   9   17.53    0.71
   1   3  -9   16.41    0.70
   0  -3   9    0.73    0.15
   0  -3  -9    0.44    0.12
   0   3  -9    0.57    0.16
   0   3  -9    0.54    0.10
  -1  -3  -9    0.24    0.12
   1  -3   9    0.29    0.16
  -1   3  -9    0.29    0.15
  -1   3  -9    0.25    0.10
   2  -3   9    5.28    0.37
   2  -3   9    5.48    0.34
  -2  -3  -9    5.07    0.33
   2  -3   9    5.66    0.38
   2   3   9    5.04    0.39
   2   3   9    5.25    0.37
   3  -3   9    2.46    0.29
   3  -3   9    2.63    0.28
   3  -3   9    2.42    0.33
   3   3   9    2.93    0.32
   3   3   9    2.46    0.30
   3   3   9    1.95    0.47
   3   3   9    2.56    0.27
   4  -3   9    0.54    0.28
   4  -3   9    0.21    0.15
   4  -3   9    0.08    0.17
   4  -3   9   -0.04    0.19
   4   3   9    0.40    0.20
   4   3   9    0.15    0.16
   4   3   9    0.02    0.17
   5  -3   9    9.48    0.50
   5  -3   9    9.28    0.49
   5   3   9    9.39    0.50
   5   3   9    9.39    0.50
   5   3   9    9.56    0.49
   6  -3   9    0.13    0.14
   6  -3   9    0.25    0.15
   6   3   9    0.43    0.17
   6   3   9    0.11    0.15
   7  -3   9    0.00    0.13
   7  -3   9    0.06    0.14
   7   3   9   -0.02    0.15
   7   3   9    0.52    0.16
  -7   3  -9    0.29    0.18
  -8  -3  -9    2.31    0.22
   8  -3   9    2.30    0.23
   8  -3   9    2.25    0.24
   8   3   9    2.00    0.29
  -8   3  -9    1.88    0.27
   8   3   9    2.12    0.22
  -9  -3  -9    1.33    0.16
   9   3   9    1.41    0.19
 -10  -4   9    1.50    0.21
 -10   4   9    1.68    0.15
  -9  -4   9    3.33    0.26
   9  -4  -9    3.23    0.28
  -9  -4   9    3.12    0.24
   9   4  -9    3.45    0.32
  -9   4   9    2.92    0.22
   8  -4  -9    7.53    0.43
  -8  -4   9    7.91    0.42
  -8  -4   9    7.74    0.42
   8   4  -9    7.56    0.45
  -8   4   9    7.26    0.41
  -8   4   9    8.50    0.45
  -7  -4   9   15.78    0.72
  -7  -4   9   16.19    0.71
   7  -4  -9   15.35    0.71
  -7   4   9   16.94    0.73
  -7   4   9   14.92    0.70
   6  -4  -9    0.10    0.15
  -6  -4   9    0.23    0.15
  -6  -4   9    0.29    0.20
  -6   4   9    0.42    0.20
  -6   4   9    0.39    0.14
  -5  -4   9   35.58    1.48
  -5  -4   9   35.09    1.40
  -5  -4   9   36.05    1.41
   5  -4  -9   37.27    1.39
  -5   4   9   32.65    1.41
  -5   4   9   34.60    1.42
  -4  -4   9    0.54    0.16
  -4  -4   9    0.94    0.21
   4  -4  -9    0.72    0.16
  -4   4   9    0.70    0.21
  -4   4   9    1.14    0.26
  -3  -4   9    9.86    0.48
  -3  -4   9   10.39    0.53
  -3   4   9    9.92    0.51
  -3   4   9    9.36    0.52
  -2  -4   9   10.75    0.48
  -2   4   9    9.72    0.50
  -2   4   9    9.60    0.54
   1  -4  -9   49.32    1.96
  -1  -4   9   55.35    1.96
   0  -4  -9    0.45    0.14
   0  -4   9    0.40    0.14
   0   4  -9    0.47    0.18
   0   4  -9    0.38    0.11
  -1  -4  -9   65.21    2.45
   1  -4   9   67.11    2.46
  -1   4  -9   66.85    2.44
   2  -4   9   27.57    1.09
   2  -4   9   27.58    1.10
   2  -4   9   26.84    1.08
  -2  -4  -9   26.06    1.15
   2   4   9   26.87    1.12
   2   4   9   26.06    1.07
   2   4   9   26.04    1.10
   2   4   9   28.01    1.09
   3  -4   9   31.92    1.26
   3  -4   9   33.01    1.28
   3  -4   9   32.92    1.29
   3   4   9   32.38    1.30
   3   4   9   32.90    1.28
   3   4   9   30.57    1.30
   3   4   9   32.79    1.29
   4  -4   9    2.88    0.28
   4  -4   9    3.06    0.30
   4  -4   9    3.00    0.32
   4   4   9    3.37    0.29
   4   4   9    3.20    0.30
   4   4   9    3.42    0.32
   5  -4   9    0.40    0.21
   5  -4   9    0.60    0.17
   5  -4   9    0.73    0.17
   5   4   9    0.20    0.16
   5   4   9    0.66    0.18
   5   4   9    1.08    0.25
   6  -4   9    4.64    0.35
   6  -4   9    4.41    0.32
  -6  -4  -9    3.75    0.49
  -6   4  -9    4.32    0.42
   6   4   9    3.60    0.33
   6   4   9    4.28    0.33
   6   4   9    4.58    0.34
   7  -4   9   -0.19    0.13
   7  -4   9   -0.06    0.15
  -7   4  -9    0.11    0.20
   7   4   9   -0.03    0.13
   8  -4   9    6.14    0.34
   8  -4   9    5.53    0.33
  -8  -4  -9    5.94    0.32
   8   4   9    6.07    0.34
   8   4   9    5.60    0.38
  -9  -4  -9    0.52    0.15
   9   4   9    0.39    0.13
   9  -5  -9    0.15    0.15
  -9  -5   9    0.04    0.11
  -9  -5   9    0.12    0.18
  -9   5   9    0.01    0.09
   9   5  -9   -0.25    0.18
  -8  -5   9    1.30    0.27
  -8  -5   9    1.22    0.22
   8  -5  -9    0.81    0.17
  -8   5   9    0.80    0.15
   8   5  -9    0.82    0.18
  -8   5   9    1.09    0.21
   7  -5  -9    3.29    0.31
  -7  -5   9    3.50    0.32
  -7  -5   9    3.41    0.35
  -7   5   9    3.38    0.30
  -7   5   9    3.45    0.36
  -6  -5   9    7.02    0.48
   6  -5  -9    6.45    0.44
  -6  -5   9    6.94    0.42
  -6   5   9    7.43    0.46
  -6   5   9    7.42    0.42
  -5  -5   9    2.23    0.29
   5  -5  -9    2.37    0.28
  -5  -5   9    1.55    0.28
  -5   5   9    1.86    0.32
  -5   5   9    2.17    0.27
  -4  -5   9   15.56    0.70
   4  -5  -9   15.53    0.68
  -4  -5   9   15.72    0.70
  -4   5   9   15.04    0.70
  -4   5   9   15.07    0.69
  -3  -5   9    3.03    0.27
   3  -5  -9    3.16    0.31
  -3  -5   9    2.50    0.35
  -3   5   9    3.14    0.35
  -3   5   9    2.66    0.29
  -2  -5   9    3.48    0.27
  -2   5   9    3.23    0.35
  -2   5   9    3.20    0.33
  -1  -5   9    0.79    0.20
   1  -5  -9    0.63    0.17
  -1   5   9    0.71    0.20
  -1   5   9    0.46    0.19
   0  -5  -9    7.63    0.42
   0  -5   9    5.57    0.40
   0   5   9    7.73    0.46
  -1  -5  -9   22.36    0.92
   1  -5   9   23.81    0.93
   1  -5   9   21.48    0.93
   1   5   9   22.14    0.93
   1   5   9   21.63    0.91
  -1   5  -9   21.76    0.88
   1   5   9   22.74    0.93
   2  -5   9    0.76    0.16
   2  -5   9    1.03    0.26
   2  -5   9    0.96    0.21
   2   5   9    0.70    0.23
   2   5   9    0.61    0.16
   2   5   9    0.51    0.19
   2   5   9    0.58    0.23
   3  -5   9   43.60    1.68
   3  -5   9   43.75    1.69
   3  -5   9   43.85    1.70
   3   5   9   43.61    1.71
   3   5   9   44.42    1.69
   3   5   9   44.51    1.70
   3   5   9   45.19    1.72
   4  -5   9   -0.02    0.16
   4  -5   9    0.14    0.23
   4   5   9    0.20    0.24
   4   5   9    0.24    0.15
   5  -5   9   17.91    0.80
   5  -5   9   19.28    0.80
   5  -5   9   18.63    0.81
   5   5   9   17.91    0.80
   5   5   9   17.72    0.80
   5   5   9   18.41    0.81
   6  -5   9    9.83    0.58
  -6  -5  -9    9.08    0.58
   6  -5   9   11.11    0.53
   6  -5   9   10.72    0.54
   6   5   9   11.19    0.55
   6   5   9   10.91    0.53
   6   5   9   10.62    0.54
   7  -5   9    1.56    0.30
   7   5   9    1.54    0.31
   8  -5   9    0.39    0.12
   8  -5   9    0.50    0.14
  -8  -5  -9    0.47    0.12
   8   5   9    0.57    0.14
  -9  -5  -9    0.12    0.09
   9   5   9    0.08    0.11
  -9  -6   9    6.87    0.33
   9  -6  -9    6.84    0.38
  -9   6   9    6.08    0.32
   9   6  -9    6.59    0.44
  -8  -6   9    0.20    0.11
   8  -6  -9    0.28    0.16
   8   6  -9    0.29    0.17
  -8   6   9    0.02    0.12
  -7  -6   9    7.50    0.43
   7  -6  -9    6.82    0.43
  -7   6   9    8.15    0.44
  -7   6   9    8.06    0.48
   6  -6  -9   37.59    1.51
  -6  -6   9   38.59    1.50
  -6   6   9   38.49    1.51
  -6   6   9   38.86    1.51
  -5  -6   9   -0.05    0.16
  -5  -6   9   -0.34    0.16
   5  -6  -9   -0.20    0.17
  -5   6   9    0.13    0.20
  -5   6   9    0.16    0.15
  -4  -6   9    9.58    0.53
  -4  -6   9    9.93    0.51
   4  -6  -9   10.07    0.52
  -4   6   9   10.47    0.51
  -4   6   9    9.80    0.53
  -3  -6   9    0.36    0.21
  -3  -6   9    0.20    0.15
   3  -6  -9    0.26    0.22
  -3   6   9    0.55    0.18
  -3   6   9    0.49    0.20
  -2  -6   9    7.07    0.39
  -2   6   9    6.81    0.43
  -2   6   9    7.55    0.42
  -1  -6   9    0.19    0.14
  -1   6   9   -0.09    0.19
  -1   6   9   -0.07    0.18
   0  -6   9   14.46    0.69
   0  -6   9   15.88    0.65
   0   6   9   15.29    0.69
   0   6   9   15.17    0.68
   0   6   9   14.83    0.67
   1  -6   9    3.80    0.37
  -1  -6  -9    3.92    0.41
   1  -6   9    4.34    0.35
   1  -6   9    4.54    0.30
   1   6   9    4.36    0.36
   1   6   9    4.82    0.36
   1   6   9    4.20    0.33
   2  -6   9   17.73    0.77
   2  -6   9   17.96    0.78
   2  -6   9   17.98    0.75
   2   6   9   17.77    0.79
   2   6   9   17.61    0.80
   2   6   9   17.47    0.77
   2   6   9   18.14    0.77
   3  -6   9    8.57    0.44
   3  -6   9    8.49    0.45
   3  -6   9    9.04    0.47
   3   6   9    8.57    0.47
   3   6   9    8.40    0.48
   3   6   9    7.66    0.49
   3   6   9    8.52    0.45
   4  -6   9    0.24    0.16
   4  -6   9    0.05    0.16
   4  -6   9   -0.09    0.14
   4   6   9    0.37    0.20
   4   6   9   -0.02    0.14
   4   6   9    0.10    0.15
   5  -6   9    7.70    0.45
   5  -6   9    6.98    0.42
   5  -6   9    7.65    0.44
   5   6   9    7.38    0.44
   5   6   9    7.48    0.42
   5   6   9    6.97    0.44
   6  -6   9    0.09    0.13
   6  -6   9   -0.08    0.20
  -6  -6  -9    0.41    0.21
   6  -6   9    0.15    0.16
   6   6   9    0.24    0.17
   6   6   9    0.23    0.15
   6   6   9    0.36    0.16
  -7  -6  -9    1.61    0.36
   7  -6   9    1.32    0.21
   7  -6   9    1.09    0.23
   7   6   9    1.48    0.21
   7   6   9    1.09    0.19
  -8  -6  -9    0.32    0.11
   8  -6   9    0.15    0.11
   8  -6   9    0.32    0.14
   8   6   9    0.25    0.11
  -9  -6  -9    0.23    0.09
   9   6   9    0.15    0.12
   9  -7  -9    0.68    0.19
  -9  -7   9    0.67    0.15
  -9   7   9    0.48    0.11
  -8  -7   9    0.22    0.11
   8  -7  -9    0.31    0.17
  -8   7   9    0.41    0.12
   8   7  -9    0.39    0.25
  -7  -7   9    8.28    0.43
   7  -7  -9    6.66    0.43
  -7   7   9    7.82    0.43
  -6  -7   9    0.54    0.16
  -6  -7   9    0.30    0.17
   6  -7  -9    0.79    0.19
  -6   7   9    0.28    0.16
  -6   7   9    0.35    0.21
   5  -7  -9    4.07    0.35
  -5  -7   9    4.13    0.35
  -5  -7   9    3.98    0.35
  -5   7   9    3.89    0.33
  -5   7   9    4.19    0.38
  -4  -7   9    8.25    0.49
  -4  -7   9    9.29    0.48
   4  -7  -9    8.33    0.48
  -4   7   9    8.39    0.49
  -4   7   9    8.25    0.63
  -3  -7   9   18.28    0.79
  -3  -7   9   17.68    0.82
  -3   7   9   18.66    0.80
  -3   7   9   18.27    0.79
  -2  -7   9    4.60    0.31
  -2  -7   9    4.08    0.44
  -2   7   9    4.69    0.37
  -2   7   9    4.00    0.34
  -2   7   9    4.88    0.40
  -1  -7   9    1.29    0.25
  -1  -7   9    1.18    0.21
  -1   7   9    1.02    0.21
  -1   7   9    0.88    0.20
  -1   7   9    0.96    0.21
   0  -7   9    3.03    0.26
   0  -7   9    3.34    0.33
   0   7   9    3.09    0.32
   0   7   9    3.12    0.30
   0   7   9    3.42    0.33
   1  -7   9    0.01    0.17
   1  -7   9    0.32    0.20
   1  -7   9    0.37    0.14
   1   7   9    0.70    0.20
   1   7   9    0.51    0.17
   1   7   9    0.47    0.26
   1   7   9    0.50    0.18
   2  -7   9   29.34    1.21
   2  -7   9   29.78    1.20
   2  -7   9   31.00    1.19
   2   7   9   30.24    1.21
   2   7   9   29.75    1.21
   2   7   9   30.87    1.20
   2   7   9   30.26    1.22
   3  -7   9   10.22    0.50
   3  -7   9   10.02    0.52
   3  -7   9   10.06    0.50
   3   7   9    9.92    0.54
   3   7   9    9.52    0.52
   3   7   9    9.88    0.50
   3   7   9    9.98    0.52
   4  -7   9    0.16    0.15
   4  -7   9    0.32    0.15
   4  -7   9    0.11    0.15
   4   7   9   -0.09    0.15
   4   7   9    0.20    0.17
   4   7   9    0.04    0.17
   5  -7   9    1.65    0.29
   5  -7   9    1.65    0.26
   5  -7   9    1.46    0.24
   5   7   9    2.17    0.27
   5   7   9    1.38    0.26
   5   7   9    1.53    0.28
   6  -7   9    0.69    0.15
   6  -7   9    0.41    0.19
  -6  -7  -9    0.96    0.21
   6  -7   9    0.62    0.16
   6   7   9    1.21    0.26
   6   7   9    0.96    0.19
   7  -7   9    0.16    0.12
   7  -7   9    0.37    0.14
  -7  -7  -9    0.30    0.18
   7  -7   9    0.34    0.25
   7   7   9    0.19    0.12
   7   7   9    0.40    0.17
   8  -7   9    0.47    0.12
  -8  -7  -9    0.74    0.16
   8   7   9    0.83    0.16
  -9  -7  -9    0.29    0.09
  -9  -8   9    0.46    0.12
  -9   8   9    0.80    0.15
  -8  -8   9    0.13    0.11
   8  -8  -9   -0.01    0.17
   8   8  -9    0.02    0.18
  -8   8   9    0.00    0.11
   7  -8  -9    0.59    0.18
   6  -8  -9   40.07    1.56
  -6  -8   9   38.22    1.58
  -6  -8   9   41.34    1.56
  -6   8   9   39.79    1.56
  -6   8   9   40.39    1.56
  -5  -8   9   26.61    1.06
  -5  -8   9   25.34    1.08
   5  -8  -9   26.08    1.06
  -5   8   9   25.00    1.07
  -5   8   9   25.87    1.06
   4  -8  -9    0.79    0.23
  -4  -8   9    0.64    0.20
  -4  -8   9    0.41    0.17
  -4   8   9    0.52    0.20
  -4   8   9    0.72    0.18
  -3  -8   9    1.58    0.38
  -3  -8   9    1.78    0.26
  -3   8   9    1.98    0.31
  -3   8   9    1.61    0.28
  -3   8   9    2.08    0.38
  -2  -8   9   28.80    1.17
  -2  -8   9   28.57    1.14
  -2   8   9   28.11    1.14
  -2   8   9   28.87    1.15
  -2   8   9   27.69    1.14
  -1  -8   9    3.69    0.37
  -1  -8   9    4.52    0.30
  -1   8   9    4.33    0.35
  -1   8   9    3.55    0.32
  -1   8   9    3.91    0.34
   0  -8   9   17.06    0.75
   0  -8   9   17.08    0.73
   0   8   9   17.47    0.75
   0   8   9   17.98    0.76
   0   8   9   16.11    0.73
   1  -8   9    0.71    0.22
   1  -8   9    1.13    0.22
   1  -8   9    0.62    0.19
   1   8   9    0.64    0.16
   1   8   9    0.55    0.25
   1   8   9    0.81    0.19
   1   8   9    1.23    0.28
   2  -8   9   -0.09    0.13
   2  -8   9    0.04    0.15
   2  -8   9    0.01    0.17
   2   8   9    0.09    0.17
   2   8   9   -0.11    0.18
   2   8   9    0.12    0.19
   2   8   9    0.10    0.13
   3  -8   9    1.52    0.25
   3  -8   9    1.45    0.24
   3  -8   9    1.79    0.26
   3   8   9    1.58    0.28
   3   8   9    1.69    0.32
   3   8   9    1.74    0.28
   3   8   9    1.49    0.25
   4  -8   9   14.02    0.63
   4  -8   9   13.75    0.64
   4  -8   9   13.34    0.64
   4   8   9   13.52    0.65
   4   8   9   13.19    0.64
   4   8   9   13.22    0.64
   5  -8   9    0.14    0.18
   5  -8   9    0.32    0.15
   5  -8   9    0.01    0.15
   5   8   9    0.20    0.17
   5   8   9    0.38    0.16
   5   8   9    0.25    0.16
   6  -8   9    0.00    0.18
   6  -8   9    0.04    0.12
  -6  -8  -9    0.00    0.16
   6  -8   9   -0.03    0.14
   6   8   9    0.10    0.12
   6   8   9    0.05    0.15
   7  -8   9    4.55    0.29
  -7  -8  -9    4.98    0.35
   7  -8   9    5.58    0.32
   7  -8   9    3.87    0.42
   7   8   9    5.24    0.31
   7   8   9    5.12    0.35
   8  -8   9    2.03    0.26
  -8  -8  -9    1.82    0.17
   8   8   9    1.53    0.17
  -9  -9   9    0.14    0.09
  -9   9   9    0.19    0.12
   8  -9  -9    0.21    0.19
  -8  -9   9    0.05    0.11
   8   9  -9   -0.06    0.23
  -8   9   9   -0.20    0.11
  -7  -9   9    2.80    0.26
   7  -9  -9    2.50    0.31
  -7   9   9    2.69    0.26
  -6  -9   9    0.01    0.15
   6  -9  -9    0.18    0.18
  -6  -9   9   -0.31    0.17
  -6   9   9    0.48    0.16
  -6   9   9    0.26    0.22
  -5  -9   9    1.14    0.28
  -5  -9   9    1.18    0.29
   5  -9  -9    1.07    0.23
  -5   9   9    1.81    0.36
  -5   9   9    1.32    0.27
  -4  -9   9   17.64    0.79
  -4  -9   9   17.00    0.78
  -4   9   9   17.53    0.76
  -4   9   9   17.37    0.78
  -3  -9   9    8.84    0.56
  -3  -9   9    9.47    0.49
  -3   9   9    8.03    0.60
  -3   9   9    9.73    0.52
  -2  -9   9    5.30    0.41
  -2  -9   9    5.20    0.34
  -2   9   9    4.28    0.37
  -2   9   9    4.90    0.38
  -2   9   9    4.74    0.36
  -1  -9   9    3.58    0.35
  -1  -9   9    3.90    0.31
  -1   9   9    3.84    0.32
  -1   9   9    3.93    0.34
  -1   9   9    4.67    0.35
   0  -9   9   13.72    0.69
   0  -9   9   14.41    0.64
   0  -9   9   13.96    0.66
   0   9   9   14.62    0.64
   0   9   9   13.94    0.66
   0   9   9   14.61    0.65
   1  -9   9    2.06    0.25
   1  -9   9    2.55    0.31
   1  -9   9    2.51    0.28
   1   9   9    2.05    0.26
   1   9   9    2.39    0.31
   1   9   9    2.41    0.30
   1   9   9    2.15    0.37
   2  -9   9    7.80    0.43
   2  -9   9    8.02    0.57
   2  -9   9    8.52    0.44
   2   9   9    7.65    0.46
   2   9   9    6.63    0.65
   2   9   9    7.86    0.46
   3  -9   9   14.90    0.67
   3  -9   9   15.02    0.69
   3  -9   9   16.24    0.69
   3   9   9   14.80    0.68
   3   9   9   15.55    0.70
   3   9   9   14.40    0.69
   3   9   9   14.21    0.69
   4  -9   9    0.92    0.22
   4  -9   9    0.72    0.19
   4   9   9    0.82    0.19
   4   9   9    1.00    0.20
   4   9   9    0.61    0.17
   5  -9   9    5.46    0.38
   5  -9   9    5.70    0.37
   5  -9   9    5.51    0.35
   5   9   9    5.57    0.37
   5   9   9    5.88    0.37
   5   9   9    5.07    0.37
   6  -9   9    2.20    0.30
   6  -9   9    2.09    0.29
  -6  -9  -9    2.07    0.38
   6   9   9    2.61    0.27
   6   9   9    2.67    0.28
   7  -9   9    0.23    0.11
  -7  -9  -9    0.03    0.15
   7  -9   9   -0.03    0.22
   7  -9   9   -0.09    0.13
   7   9   9   -0.03    0.10
   7   9   9   -0.11    0.17
  -8  -9  -9    0.13    0.10
   8   9   9    0.08    0.09
  -8 -10   9    0.43    0.11
  -8  10   9    0.36    0.12
   7 -10  -9    0.16    0.21
  -7 -10   9   -0.01    0.12
  -7  10   9    0.02    0.13
  -6 -10   9   -0.15    0.19
   6 -10  -9   -0.11    0.21
  -6 -10   9    0.05    0.14
  -6  10   9    0.02    0.15
   5 -10  -9   10.29    0.61
  -5 -10   9   10.59    0.57
  -5 -10   9   11.89    0.56
  -5  10   9   12.17    0.55
  -5  10   9   10.16    0.58
  -4 -10   9    3.14    0.36
  -4 -10   9    2.44    0.37
  -4  10   9    2.36    0.30
  -4  10   9    2.19    0.36
  -3 -10   9   -0.07    0.17
  -3 -10   9    0.44    0.25
  -3  10   9   -0.01    0.19
  -3  10   9    0.14    0.19
  -3  10   9    0.12    0.17
  -2 -10   9   15.19    0.64
  -2  10   9   13.09    0.71
  -2  10   9   11.22    0.69
  -1 -10   9   45.65    1.77
  -1 -10   9   48.10    1.77
  -1  10   9   46.09    1.76
  -1  10   9   43.63    1.75
  -1  10   9   45.34    1.75
   0 -10   9   16.02    0.68
   0 -10   9   15.13    0.69
   0 -10   9   14.62    0.71
   0  10   9   14.73    0.67
   0  10   9   15.15    0.70
   0  10   9   15.35    0.71
   1 -10   9   49.50    1.88
   1 -10   9   53.16    1.90
   1 -10   9   47.52    1.89
   1  10   9   50.94    1.89
   1  10   9   47.39    1.91
   1  10   9   48.70    1.89
   1  10   9   48.39    1.90
   2 -10   9    1.72    0.25
   2 -10   9    1.22    0.26
   2 -10   9    1.63    0.25
   2  10   9    1.07    0.24
   2  10   9    1.79    0.30
   2  10   9    1.57    0.29
   2  10   9    1.04    0.20
   3 -10   9    2.07    0.26
   3 -10   9    1.79    0.26
   3 -10   9    1.85    0.26
   3  10   9    1.55    0.29
   3  10   9    1.96    0.27
   3  10   9    1.50    0.25
   3  10   9    1.94    0.28
   4 -10   9    1.31    0.25
   4 -10   9    1.67    0.25
   4 -10   9    1.64    0.25
   4  10   9    1.55    0.28
   4  10   9    1.57    0.26
   4  10   9    1.47    0.27
   5 -10   9    2.18    0.27
   5 -10   9    2.35    0.25
   5 -10   9    2.23    0.27
   5  10   9    2.37    0.27
   5  10   9    2.68    0.28
   5  10   9    2.31    0.27
   6 -10   9    6.04    0.35
  -6 -10  -9    5.27    0.35
   6 -10   9    5.40    0.37
   6 -10   9    5.38    0.32
   6  10   9    5.25    0.33
   6  10   9    5.48    0.35
   7 -10   9    3.68    0.27
   7 -10   9    4.31    0.38
  -7 -10  -9    4.18    0.29
   7  10   9    4.02    0.26
  -8 -10  -9    0.69    0.16
   8  10   9    0.88    0.14
  -8 -11   9    0.70    0.13
  -8  11   9    1.06    0.21
  -7 -11   9    0.30    0.12
  -7  11   9    0.19    0.13
  -6 -11   9    5.17    0.33
  -6  11   9    4.96    0.33
  -5 -11   9    0.11    0.17
  -5 -11   9   -0.11    0.17
  -5  11   9    0.39    0.23
  -5  11   9    0.31    0.16
  -4 -11   9    0.95    0.23
  -4 -11   9    1.19    0.27
  -4  11   9    1.54    0.28
  -4  11   9    1.04    0.23
  -4  11   9    1.26    0.23
  -3 -11   9  125.53    4.61
  -3  11   9  126.56    4.59
  -3  11   9  126.92    4.59
  -3  11   9  122.11    4.58
  -2 -11   9    0.46    0.19
  -2 -11   9    0.55    0.18
  -2  11   9    0.74    0.19
  -2  11   9    0.92    0.19
  -2  11   9    0.35    0.18
  -1 -11   9   30.60    1.23
  -1 -11   9   31.55    1.23
  -1  11   9   30.04    1.21
  -1  11   9   29.78    1.22
  -1  11   9   30.14    1.22
   0 -11   9    0.56    0.18
   0 -11   9    0.43    0.16
   0  11   9    0.53    0.17
   0  11   9    0.23    0.19
   0  11   9    0.51    0.16
   1 -11   9    2.12    0.31
   1 -11   9    2.22    0.27
   1 -11   9    2.80    0.28
   1  11   9    1.80    0.29
   1  11   9    2.53    0.30
   1  11   9    2.39    0.31
   1  11   9    2.06    0.26
   2 -11   9    1.26    0.24
   2 -11   9    0.96    0.18
   2 -11   9    1.24    0.25
   2  11   9    1.28    0.21
   2  11   9    1.36    0.30
   2  11   9    1.56    0.24
   2  11   9    2.11    0.30
   3 -11   9    2.62    0.28
   3 -11   9    2.96    0.29
   3 -11   9    3.09    0.28
   3  11   9    3.30    0.31
   3  11   9    3.02    0.32
   3  11   9    2.56    0.28
   4 -11   9    0.05    0.14
   4 -11   9    0.23    0.16
   4 -11   9    0.18    0.12
   4  11   9   -0.01    0.16
   4  11   9    0.03    0.15
   4  11   9    0.15    0.16
  -5 -11  -9    0.79    0.16
   5 -11   9    1.21    0.22
   5 -11   9    1.08    0.24
   5 -11   9    1.00    0.21
   5  11   9    1.37    0.23
   5  11   9    0.98    0.19
   5  11   9    0.66    0.16
   6 -11   9    7.66    0.39
   6 -11   9    6.74    0.36
  -6 -11  -9    7.85    0.40
   6  11   9    7.21    0.39
   6  11   9    7.14    0.39
  -7 -11  -9    4.65    0.29
  -7 -11  -9    4.66    0.27
   7 -11   9    4.26    0.28
   7  11   9    4.85    0.27
  -8 -12   9    0.10    0.10
  -7 -12   9    0.12    0.11
  -7  12   9    0.07    0.16
  -6 -12   9    2.30    0.26
  -6  12   9    1.97    0.25
  -5 -12   9    3.28    0.44
  -5 -12   9    3.62    0.34
  -4 -12   9    1.93    0.30
  -4 -12   9    2.26    0.38
  -4  12   9    2.56    0.37
  -4  12   9    2.21    0.29
  -4  12   9    2.45    0.31
   4  12  -9    1.76    0.35
  -3 -12   9    1.56    0.28
  -3  12   9    1.82    0.30
  -3  12   9    1.43    0.33
  -3  12   9    1.55    0.27
  -2 -12   9    5.97    0.39
  -2  12   9    6.16    0.41
  -2  12   9    5.70    0.41
  -2  12   9    5.76    0.37
  -1 -12   9    1.36    0.26
  -1 -12   9    1.26    0.25
  -1  12   9    1.52    0.30
  -1  12   9    1.56    0.31
  -1  12   9    1.01    0.23
   0 -12   9   10.49    0.54
   0 -12   9   10.72    0.54
   0  12   9   11.30    0.52
   0  12   9    9.76    0.54
   0  12   9   10.30    0.55
   1 -12   9    0.42    0.16
   1 -12   9    0.30    0.16
   1  12   9    0.46    0.17
   1  12   9    0.36    0.23
   1  12   9    0.40    0.19
   1  12   9    0.36    0.15
   2 -12   9    1.40    0.25
   2 -12   9    2.35    0.26
   2 -12   9    2.17    0.27
   2  12   9    2.08    0.25
   2  12   9    1.83    0.30
   2  12   9    2.03    0.29
   2  12   9    1.53    0.31
   3 -12   9    1.32    0.25
   3 -12   9    1.45    0.24
   3 -12   9    1.79    0.25
   3  12   9    1.59    0.24
   3  12   9    1.27    0.22
   3  12   9    1.18    0.27
   4 -12   9    4.59    0.35
   4 -12   9    5.25    0.34
   4 -12   9    5.25    0.35
   4  12   9    5.10    0.36
   4  12   9    5.35    0.36
   4  12   9    6.06    0.36
   5 -12   9    1.27    0.22
   5 -12   9    1.94    0.20
   5 -12   9    1.41    0.26
  -5 -12  -9    1.43    0.22
   5  12   9    1.47    0.22
   5  12   9    1.56    0.22
   6 -12   9   -0.03    0.17
   6 -12   9    0.20    0.12
  -6 -12  -9   -0.06    0.12
   6  12   9    0.08    0.14
   6  12   9   -0.06    0.11
  -7 -12  -9    2.25    0.21
  -7 -12  -9    3.00    0.22
   7 -12   9    2.75    0.36
   7  12   9    2.49    0.19
  -7 -13   9    0.83    0.20
  -6 -13   9   -0.17    0.13
  -6  13   9   -0.07    0.17
  -5 -13   9    0.32    0.18
  -5 -13   9    0.23    0.19
  -5  13   9   -0.05    0.16
  -4 -13   9    1.01    0.22
  -4  13   9    1.48    0.30
   4  13  -9    2.28    0.32
  -3 -13   9   13.99    0.67
  -3  13   9   14.13    0.64
  -3  13   9   13.09    0.67
  -3  13   9   14.90    0.66
  -2 -13   9    0.66    0.20
  -2  13   9    1.12    0.23
  -2  13   9    0.94    0.21
  -2  13   9    1.08    0.22
  -1 -13   9    3.12    0.30
  -1 -13   9    3.40    0.30
  -1  13   9    2.86    0.35
  -1  13   9    3.31    0.29
  -1  13   9    2.93    0.33
   0 -13   9   -0.05    0.13
   0 -13   9   -0.06    0.15
   0  13   9    0.10    0.17
   0  13   9    0.09    0.19
   0  13   9    0.27    0.13
   1 -13   9    2.33    0.27
   1 -13   9    2.20    0.26
   1  13   9    2.42    0.33
   1  13   9    2.17    0.30
   1  13   9    2.40    0.25
   1  13   9    1.55    0.35
   2 -13   9    6.13    0.39
   2 -13   9    5.75    0.39
   2  13   9    6.12    0.41
   2  13   9    5.61    0.39
   2  13   9    6.58    0.38
   3 -13   9    0.27    0.15
   3 -13   9    0.27    0.15
   3  13   9    0.07    0.13
   3  13   9   -0.09    0.16
   3  13   9    0.40    0.18
   4 -13   9    0.17    0.15
   4  13   9    0.04    0.14
   4  13   9    0.06    0.15
   4  13   9    0.31    0.25
   5 -13   9    1.29    0.20
  -5 -13  -9    1.18    0.20
   5 -13   9    0.98    0.25
   5  13   9    0.93    0.20
   5  13   9    1.37    0.20
  -6 -13  -9    0.28    0.10
   6 -13   9    0.08    0.12
   6 -13   9    0.61    0.19
   6  13   9    0.11    0.10
   6  13   9    0.25    0.17
  -7 -13  -9    0.12    0.11
   7  13   9    0.05    0.08
  -6 -14   9    1.99    0.33
  -5 -14   9    2.40    0.37
  -4 -14   9    1.26    0.29
  -4  14   9    1.39    0.25
   4  14  -9    1.46    0.27
  -4  14   9    1.80    0.37
  -3 -14   9    1.59    0.29
  -3  14   9    1.12    0.24
  -2 -14   9   20.28    0.92
  -2  14   9   21.59    0.92
  -2  14   9   22.73    0.92
  -2  14   9   22.03    0.90
  -1 -14   9    0.21    0.16
  -1 -14   9    0.31    0.16
  -1  14   9    0.17    0.14
  -1  14   9    0.29    0.19
  -1  14   9    0.22    0.22
   0 -14   9    2.70    0.29
   0 -14   9    2.78    0.28
   0  14   9    2.58    0.26
   0  14   9    2.78    0.36
   0  14   9    2.82    0.32
   1 -14   9   20.70    0.87
   1 -14   9   19.55    0.86
   1  14   9   20.19    0.87
   1  14   9   20.68    0.85
   1  14   9   19.60    0.88
   1  14   9   20.00    0.85
   2 -14   9    0.48    0.16
   2 -14   9    0.58    0.16
   2  14   9    0.89    0.20
   2  14   9    0.39    0.13
   2  14   9    0.60    0.21
   3 -14   9    3.81    0.31
   3 -14   9    4.11    0.29
   3  14   9    3.45    0.29
   3  14   9    3.74    0.29
   3  14   9    3.22    0.33
   4 -14   9    1.76    0.21
   4 -14   9    2.05    0.26
  -4 -14  -9    1.88    0.22
   4  14   9    2.12    0.23
   4  14   9    1.72    0.23
   5 -14   9    1.58    0.25
   5 -14   9    1.56    0.19
  -5 -14  -9    1.82    0.19
   5  14   9    1.73    0.21
   5  14   9    1.35    0.19
  -6 -14  -9    0.18    0.10
   6 -14   9    0.04    0.13
   6  14   9    0.24    0.09
  -5 -15   9    1.88    0.41
  -4 -15   9    4.32    0.45
   4  15  -9    4.86    0.33
  -4  15   9    4.28    0.30
  -3 -15   9    6.50    0.42
  -3  15   9    6.21    0.36
  -2 -15   9    0.22    0.18
  -2  15   9    0.25    0.20
  -2  15   9    0.20    0.13
  -1 -15   9    0.18    0.17
  -1  15   9    0.01    0.18
  -1  15   9    0.17    0.12
   0 -15   9    0.68    0.16
   0 -15   9    0.47    0.16
   0  15   9    0.77    0.15
   1 -15   9    0.39    0.15
   1 -15   9    0.43    0.15
   1  15   9    0.60    0.14
   2 -15   9    1.01    0.23
   2  15   9    1.09    0.19
   3 -15   9    0.81    0.17
   3 -15   9    0.61    0.13
   3  15   9    0.88    0.19
   3  15   9    1.03    0.22
   4 -15   9    0.38    0.15
  -4 -15  -9    0.39    0.12
   4 -15   9    0.39    0.12
   4  15   9    0.45    0.12
   4  15   9    0.47    0.13
  -5 -15  -9    0.03    0.10
   5 -15   9    0.10    0.11
   5 -15   9    0.09    0.15
   5  15   9    0.04    0.14
   5  15   9    0.05    0.10
  -6 -15  -9    1.30    0.16
  -6  15  -9    1.13    0.13
   6  15   9    1.53    0.14
  -4 -16   9   -0.11    0.25
  -4  16   9    0.21    0.13
   4  16  -9    0.06    0.14
  -3 -16   9    0.40    0.33
   3  16  -9    0.43    0.14
  -3  16   9    0.58    0.13
  -2 -16   9    7.30    0.44
  -2  16   9    7.29    0.38
  -1 -16   9    5.87    0.39
  -1  16   9    5.63    0.32
   0 -16   9    1.29    0.25
   0  16   9    1.23    0.19
   1 -16   9    9.21    0.45
   1 -16   9    9.34    0.48
   1  16   9    8.41    0.44
  -1  16  -9    9.60    0.45
   2 -16   9    0.54    0.16
   2 -16   9    0.46    0.12
   2  16   9    0.56    0.12
  -2  16  -9    0.41    0.13
   2  16   9    0.81    0.18
   3 -16   9    0.95    0.16
   3 -16   9    0.58    0.17
  -3 -16  -9    1.07    0.18
   3  16   9    1.28    0.21
   3  16   9    0.88    0.17
  -4 -16  -9    4.35    0.25
   4 -16   9    3.74    0.24
   4 -16   9    3.89    0.30
   4  16   9    3.85    0.26
   4  16   9    3.76    0.24
  -5 -16  -9    0.23    0.12
   5  16   9    0.17    0.10
  -5  16  -9    0.31    0.10
   4  17  -9    4.07    0.27
  -4  17   9    3.83    0.26
  -3 -17   9    2.13    0.42
  -3  17   9    2.65    0.21
   3  17  -9    3.00    0.23
  -2 -17   9    0.45    0.20
  -2  17   9    0.39    0.11
  -1 -17   9    0.09    0.21
  -1  17   9    0.17    0.10
   0 -17   9    6.65    0.50
   0  17   9    5.72    0.33
   1 -17   9    1.31    0.28
   1  17   9    1.42    0.18
  -1  17  -9    1.68    0.25
   2 -17   9    0.60    0.17
  -2 -17  -9    0.66    0.14
   2  17   9    0.56    0.11
  -2  17  -9    0.55    0.14
   2  17   9    0.92    0.23
   3 -17   9    2.25    0.26
  -3 -17  -9    2.42    0.21
   3  17   9    2.84    0.21
  -3  17  -9    2.88    0.21
   3  17   9    2.26    0.31
   4  17   9    1.01    0.17
  -4  17  -9    0.57    0.15
   4  17   9    0.81    0.17
   4  18  -9    0.32    0.18
  -3  18   9    2.65    0.20
   3  18  -9    2.04    0.22
   2  18  -9    0.96    0.17
  -2  18   9    0.91    0.15
  -1 -18   9    0.88    0.23
  -1  18   9    0.85    0.15
   0 -18  -9    0.15    0.20
   0 -18   9    0.13    0.19
   0  18   9    0.26    0.10
   1 -18   9    0.08    0.18
   1  18   9    0.18    0.09
   2 -18   9    1.56    0.27
  -2 -18  -9    2.07    0.28
  -2  18  -9    1.88    0.21
   2  18   9    1.89    0.17
  -3 -18  -9    1.67    0.19
   3  18   9    1.70    0.15
  -3  18  -9    1.24    0.17
  -4 -18  -9    0.28    0.11
  -4  18  -9    0.16    0.10
  -3  19   9    1.39    0.17
   3  19  -9    1.54    0.18
  -2  19   9    4.13    0.23
   2  19  -9    4.52    0.25
  -1  19   9    0.30    0.09
   1  19  -9    0.32    0.10
   0  19   9    2.27    0.17
   1  19   9    0.12    0.12
   2  19   9    0.31    0.09
   1  20  -9    7.52    0.33
  -1  20   9    7.24    0.32
   0  20  -9    1.81    0.15
   0  20   9    1.94    0.14
 -10   0  10    5.68    0.28
  -9   0  10    6.98    0.35
   9   0 -10    7.51    0.40
  -9   0  10    6.61    0.36
  -8   0  10   12.64    0.59
  -8   0  10   12.83    0.58
   8   0 -10   12.88    0.61
  -7   0  10    2.64    0.29
   7   0 -10    3.07    0.30
  -7   0  10    3.15    0.32
  -6   0  10   20.17    0.86
  -6   0  10   19.89    0.86
  -5   0  10    7.36    0.45
  -5   0  10    8.23    0.51
  -4   0  10    2.28    0.32
  -4   0  10    1.22    0.28
  -4   0  10    2.08    0.26
  -3   0  10   10.33    0.53
  -3   0  10    9.63    0.54
  -3   0  10   10.55    0.50
  -2   0  10   33.82    1.27
  -2   0  10   31.46    1.30
   1   0 -10   19.81    0.82
  -1   0  10   19.65    0.82
   0   0  10   24.99    1.06
   0   0 -10   24.61    0.98
  -1   0 -10   37.05    1.40
   2   0  10    0.98    0.25
   2   0  10    1.02    0.21
   2   0  10    1.17    0.23
   3   0  10    6.51    0.40
   3   0  10    6.30    0.45
   3   0  10    6.52    0.38
   4   0  10   83.03    3.12
   4   0  10   83.52    3.12
   4   0  10   85.83    3.14
   5   0  10    0.44    0.16
   5   0  10    0.24    0.19
   5   0  10    0.11    0.15
   6   0  10    4.36    0.33
   6   0  10    4.02    0.31
   7   0  10    3.32    0.30
   8   0  10    0.24    0.13
  -8   0 -10    0.51    0.13
   8   0  10    0.50    0.13
   9   0  10    3.18    0.23
  -9   0 -10    2.45    0.21
 -10   1  10    0.34    0.10
  -9  -1  10    1.99    0.20
  -9  -1  10    1.98    0.21
   9  -1 -10    1.61    0.25
   9   1 -10    1.91    0.27
  -9   1  10    1.51    0.23
  -9   1  10    1.34    0.18
  -8  -1  10    0.76    0.17
   8  -1 -10    0.40    0.16
  -8  -1  10    0.96    0.22
  -8   1  10    0.70    0.15
  -8   1  10    0.44    0.16
   8   1 -10    0.72    0.17
  -7  -1  10    1.06    0.25
   7  -1 -10    0.66    0.17
  -7  -1  10    0.59    0.17
  -7   1  10    0.40    0.17
  -7   1  10    0.47    0.15
   7   1 -10    0.30    0.15
  -6  -1  10   44.06    1.71
  -6  -1  10   43.09    1.70
   6  -1 -10   47.05    1.73
  -6   1  10   42.65    1.71
  -6   1  10   44.13    1.71
  -5  -1  10   19.84    0.84
  -5   1  10   19.12    0.83
  -5   1  10   18.72    0.83
  -4  -1  10    1.41    0.33
  -4  -1  10    0.98    0.19
  -4  -1  10    1.04    0.25
  -4   1  10    0.92    0.20
  -4   1  10    1.00    0.21
  -3  -1  10    1.27    0.24
  -3  -1  10    1.21    0.25
  -3  -1  10    0.77    0.20
  -3   1  10    0.87    0.22
  -3   1  10    0.91    0.19
  -3   1  10    0.66    0.21
  -2  -1  10    4.96    0.32
  -2  -1  10    5.60    0.48
  -2   1  10    4.71    0.35
  -2   1  10    4.86    0.40
  -2   1  10    5.03    0.40
   1  -1 -10    6.52    0.39
  -1  -1  10    6.67    0.39
   1   1 -10    6.91    0.40
  -1   1  10    6.43    0.43
   0  -1  10   14.13    0.66
   0  -1 -10   15.08    0.64
   0   1 -10   15.19    0.64
  -1  -1 -10   11.22    0.51
   1  -1  10    9.22    0.71
  -1   1 -10   10.95    0.49
   2  -1  10    5.56    0.36
   2  -1  10    5.25    0.38
   2  -1  10    5.45    0.58
   2   1  10    5.40    0.40
   2   1  10    5.75    0.37
   2   1  10    5.36    0.41
   3  -1  10    1.23    0.26
   3  -1  10    1.42    0.25
   3  -1  10    1.68    0.37
   3   1  10    1.32    0.26
   3   1  10    1.33    0.31
   3   1  10    1.90    0.26
   4  -1  10    2.93    0.31
   4  -1  10    2.71    0.30
   4  -1  10    3.95    0.37
   4   1  10    3.61    0.34
   4   1  10    3.25    0.31
   4   1  10    3.22    0.29
   5  -1  10    1.17    0.20
   5  -1  10    1.26    0.24
   5  -1  10    1.15    0.24
   5   1  10    0.90    0.19
   5   1  10    1.25    0.27
   5   1  10    1.19    0.25
   6  -1  10    2.89    0.29
   6  -1  10    2.79    0.28
   6   1  10    2.67    0.28
   6   1  10    2.74    0.29
   7  -1  10    4.80    0.44
   7   1  10    4.83    0.40
   7   1  10    4.80    0.36
  -8  -1 -10    0.17    0.11
   8  -1  10    0.13    0.11
   8  -1  10    0.21    0.13
  -8   1 -10   -0.03    0.13
   8   1  10    0.00    0.10
   8   1  10   -0.18    0.13
  -9  -1 -10    0.15    0.10
   9  -1  10    0.13    0.15
   9   1  10    0.10    0.13
 -10   2  10    3.41    0.20
  -9  -2  10    2.69    0.22
  -9  -2  10    2.39    0.22
   9  -2 -10    2.85    0.27
  -9   2  10    2.69    0.20
  -9   2  10    2.52    0.25
   9   2 -10    2.37    0.27
  -8  -2  10    5.83    0.37
  -8  -2  10    6.22    0.36
   8  -2 -10    6.25    0.39
  -8   2  10    5.71    0.35
  -8   2  10    6.11    0.37
   8   2 -10    6.66    0.39
  -7  -2  10   25.11    1.00
  -7  -2  10   24.07    0.99
   7  -2 -10   21.99    1.00
  -7   2  10   24.32    1.00
  -7   2  10   24.33    0.99
  -6  -2  10   41.99    1.69
   6  -2 -10   45.69    1.73
  -6  -2  10   43.03    1.71
  -6   2  10   44.72    1.71
  -6   2  10   44.55    1.71
  -5  -2  10   40.17    1.57
  -5  -2  10   39.89    1.55
  -5   2  10   38.15    1.55
  -5   2  10   40.72    1.55
  -4  -2  10    6.07    0.38
  -4  -2  10    5.70    0.37
  -4  -2  10    5.69    0.45
  -4   2  10    5.12    0.38
  -4   2  10    5.55    0.38
  -3  -2  10    2.07    0.42
  -3  -2  10    2.54    0.34
  -3  -2  10    3.55    0.28
  -3   2  10    2.85    0.32
  -3   2  10    2.50    0.31
  -2  -2  10    3.70    0.45
  -2  -2  10    3.30    0.28
  -2   2  10    3.71    0.33
  -2   2  10    3.13    0.37
  -2   2  10    3.67    0.33
  -1  -2  10   16.46    0.68
   1  -2 -10   14.66    0.69
   1   2 -10   16.60    0.70
   0  -2 -10    0.57    0.14
   0  -2  10    0.79    0.18
   0   2 -10    0.64    0.15
   1  -2  10    0.51    0.18
  -1  -2 -10    0.29    0.16
   1   2  10    0.43    0.20
  -1   2 -10    0.48    0.14
   1   2  10    0.31    0.19
   2  -2  10    1.71    0.27
   2  -2  10    1.31    0.32
   2  -2  10    1.77    0.30
   2   2  10    1.84    0.31
   2   2  10    1.70    0.31
   2   2  10    1.55    0.27
   2   2  10    2.59    0.40
   3  -2  10    1.62    0.25
   3  -2  10    2.11    0.30
   3  -2  10    2.00    0.27
   3   2  10    1.59    0.28
   3   2  10    2.28    0.30
   3   2  10    1.88    0.26
   3   2  10    2.23    0.46
   4  -2  10   11.58    0.59
   4   2  10   10.63    0.61
   5  -2  10    0.92    0.19
   5  -2  10    1.13    0.22
   5   2  10    1.01    0.20
   5   2  10    1.21    0.27
   5   2  10    0.67    0.17
   6  -2  10    1.10    0.25
   6  -2  10    0.61    0.17
   6   2  10    1.37    0.25
   6   2  10    0.60    0.17
   7  -2  10    0.40    0.17
   7   2  10    0.10    0.14
  -7   2 -10    0.00    0.16
   8  -2  10    0.26    0.12
   8  -2  10   -0.04    0.11
  -8  -2 -10    0.10    0.11
  -8   2 -10   -0.17    0.14
   8   2  10    0.03    0.11
   8   2  10    0.35    0.14
  -9  -2 -10    0.12    0.10
   9   2  10    0.20    0.13
  -9  -3  10    1.08    0.22
   9  -3 -10    0.92    0.17
  -9  -3  10    0.96    0.19
  -9   3  10    0.96    0.16
  -9   3  10    1.39    0.26
   9   3 -10    0.86    0.18
   8  -3 -10    3.82    0.31
  -8  -3  10    3.66    0.30
  -8  -3  10    3.52    0.27
  -8   3  10    3.92    0.27
  -8   3  10    3.75    0.31
   8   3 -10    3.14    0.32
  -7  -3  10   -0.15    0.16
  -7  -3  10   -0.14    0.15
   7  -3 -10   -0.03    0.16
  -7   3  10    0.31    0.17
  -7   3  10    0.14    0.14
  -6  -3  10   35.95    1.48
  -6  -3  10   40.02    1.49
  -6   3  10   38.13    1.49
  -6   3  10   37.19    1.48
  -5  -3  10    0.50    0.16
   5  -3 -10    0.49    0.18
  -5  -3  10    0.16    0.23
  -5  -3  10    0.38    0.16
  -5   3  10    0.50    0.18
  -5   3  10    0.32    0.16
  -4  -3  10    0.10    0.25
  -4  -3  10    0.39    0.16
  -4  -3  10    0.23    0.16
  -4   3  10    0.21    0.18
  -4   3  10   -0.02    0.16
  -3  -3  10   27.38    1.06
  -3  -3  10   25.13    1.07
  -3   3  10   25.78    1.06
  -3   3  10   26.76    1.07
  -2  -3  10    4.35    0.30
  -2  -3  10    4.04    0.42
  -2   3  10    4.10    0.34
  -2   3  10    4.13    0.37
   1  -3 -10    4.55    0.37
  -1   3  10    4.26    0.35
   1   3 -10    5.18    0.37
  -1   3  10    4.18    0.37
   0  -3 -10    1.40    0.20
   0  -3  10    1.37    0.25
   0   3 -10    1.78    0.27
   0   3  10    1.23    0.28
   0   3  10    1.65    0.30
   1  -3  10    1.61    0.32
  -1  -3 -10    1.32    0.32
   1  -3  10    1.66    0.24
   1   3  10    1.65    0.30
   1   3  10    1.59    0.29
   1   3  10    1.95    0.39
   2  -3  10    8.31    0.48
   2  -3  10    9.29    0.48
   2   3  10    8.94    0.48
   2   3  10    9.05    0.50
   2   3  10    8.35    0.55
   2   3  10    8.59    0.46
   3  -3  10    3.83    0.30
   3  -3  10    3.51    0.32
   3  -3  10    2.90    0.35
   3   3  10    3.86    0.33
   3   3  10    3.20    0.46
   3   3  10    3.74    0.29
   3   3  10    3.35    0.32
   4  -3  10    6.86    0.51
   4  -3  10    6.51    0.39
   4  -3  10    6.73    0.41
   4   3  10    6.83    0.43
   4   3  10    6.21    0.39
   4   3  10    6.50    0.40
   5  -3  10    0.07    0.15
   5  -3  10    0.04    0.14
   5   3  10    0.07    0.15
   5   3  10    0.01    0.16
   5   3  10   -0.05    0.15
   6  -3  10    1.18    0.24
   6  -3  10    1.24    0.24
   6   3  10    1.11    0.25
   6   3  10    1.21    0.26
   7  -3  10    2.86    0.25
   7  -3  10    2.75    0.25
   7   3  10    2.90    0.27
  -7   3 -10    3.01    0.30
   7   3  10    3.13    0.27
   8  -3  10    0.61    0.13
   8  -3  10    0.79    0.19
  -8  -3 -10    0.72    0.17
   8   3  10    1.08    0.22
   8   3  10    0.57    0.12
  -9  -3 -10   -0.03    0.09
   9   3  10   -0.07    0.12
  -9  -4  10    3.68    0.30
  -9  -4  10    4.43    0.27
   9  -4 -10    4.19    0.31
  -9   4  10    4.63    0.26
   9   4 -10    4.81    0.34
  -8  -4  10    1.95    0.23
   8  -4 -10    1.89    0.27
  -8  -4  10    1.84    0.27
  -8   4  10    1.83    0.27
   8   4 -10    1.99    0.27
  -8   4  10    2.13    0.22
   7  -4 -10    2.98    0.31
  -7  -4  10    3.72    0.35
  -7  -4  10    3.59    0.31
  -7   4  10    2.87    0.29
  -7   4  10    3.92    0.34
  -6  -4  10    0.29    0.16
   6  -4 -10    0.02    0.17
  -6  -4  10    0.13    0.20
  -6   4  10    0.49    0.17
  -6   4  10    0.28    0.18
  -5  -4  10    0.26    0.16
   5  -4 -10    0.28    0.16
  -5  -4  10    0.29    0.24
  -5  -4  10    0.49    0.20
  -5   4  10    0.39    0.17
  -5   4  10    0.43    0.18
  -4  -4  10   35.04    1.38
   4  -4 -10   35.40    1.37
  -4  -4  10   34.92    1.39
  -4   4  10   34.44    1.38
  -4   4  10   35.26    1.38
  -3  -4  10    0.28    0.15
  -3  -4  10    0.47    0.18
  -3   4  10    0.38    0.19
  -3   4  10    0.26    0.16
  -2  -4  10    0.14    0.14
  -2  -4  10    0.19    0.25
  -2   4  10    0.08    0.17
  -2   4  10    0.17    0.18
  -1  -4  10    0.03    0.14
  -1   4  10    0.06    0.18
   1   4 -10    0.17    0.17
  -1   4  10    0.47    0.19
   0  -4  10    0.37    0.14
   0  -4 -10    0.20    0.18
   0   4  10    0.19    0.18
   0   4  10    0.35    0.21
   0   4 -10    0.36    0.16
   0   4  10    0.15    0.20
   1  -4  10    5.40    0.34
   1  -4  10    5.38    0.39
   1  -4  10    5.34    0.39
  -1  -4 -10    5.11    0.42
   1   4  10    4.65    0.41
   1   4  10    5.02    0.38
   1   4  10    5.25    0.36
   2  -4  10    2.86    0.30
   2  -4  10    2.59    0.29
   2  -4  10    3.02    0.30
   2   4  10    2.41    0.29
   2   4  10    1.69    0.37
   2   4  10    2.18    0.28
   2   4  10    3.16    0.34
   3  -4  10    0.05    0.18
   3  -4  10    0.18    0.15
   3  -4  10    0.19    0.14
   3   4  10    0.55    0.24
   3   4  10    0.56    0.17
   3   4  10    0.35    0.18
   3   4  10    0.37    0.16
   4  -4  10    6.82    0.41
   4  -4  10    6.60    0.45
   4  -4  10    5.99    0.38
   4   4  10    6.66    0.40
   4   4  10    5.98    0.41
   4   4  10    6.64    0.39
   5  -4  10    9.16    0.50
   5  -4  10    9.08    0.48
   5   4  10    9.62    0.50
   5   4  10    9.53    0.50
   5   4  10    9.30    0.49
   6  -4  10    3.65    0.31
   6  -4  10    4.28    0.31
   6   4  10    3.54    0.31
  -6   4 -10    3.81    0.49
   6   4  10    3.52    0.31
   7  -4  10    0.36    0.13
   7  -4  10    0.63    0.15
   7   4  10    0.49    0.14
   7   4  10    0.45    0.14
   8  -4  10    0.03    0.11
   8  -4  10    0.19    0.12
  -8  -4 -10    0.25    0.10
   8   4  10    0.01    0.11
  -9  -4 -10    0.55    0.13
   9   4  10    0.66    0.16
   9  -5 -10    0.40    0.18
  -9  -5  10    0.27    0.11
   9   5 -10    0.24    0.19
  -9   5  10    0.51    0.11
  -8  -5  10    4.19    0.34
   8  -5 -10    3.97    0.32
  -8  -5  10    4.25    0.29
  -8   5  10    3.83    0.32
   8   5 -10    3.72    0.33
  -8   5  10    4.14    0.27
  -7  -5  10   21.91    0.89
  -7  -5  10   19.39    1.08
   7  -5 -10   20.36    0.90
  -7   5  10   22.03    0.90
  -7   5  10   21.39    0.89
   6  -5 -10    0.91    0.20
  -6  -5  10    0.69    0.17
  -6  -5  10    1.25    0.27
  -6   5  10    1.18    0.25
  -6   5  10    1.07    0.21
   5  -5 -10    0.27    0.19
  -5  -5  10    0.01    0.15
  -5  -5  10   -0.12    0.15
  -5   5  10    0.10    0.15
  -5   5  10    0.13    0.17
  -4  -5  10    6.23    0.43
   4  -5 -10    6.69    0.41
  -4  -5  10    7.30    0.42
  -4   5  10    6.39    0.40
  -4   5  10    6.29    0.43
   3  -5 -10   10.56    0.55
  -3  -5  10   11.22    0.54
  -3  -5  10   10.70    0.56
  -3   5  10   11.22    0.55
  -3   5  10   11.52    0.55
  -2  -5  10   17.57    0.74
  -2  -5  10   16.57    0.81
  -2   5  10   17.07    0.75
  -2   5  10   17.58    0.75
  -1  -5  10    4.96    0.31
  -1   5  10    4.57    0.36
  -1   5  10    4.37    0.42
  -1   5  10    4.15    0.34
   0  -5  10   33.59    1.29
   0  -5  10   32.03    1.31
   0   5  10   33.54    1.30
   0   5  10   32.97    1.31
   0   5 -10   33.50    1.32
   0   5  10   33.20    1.30
   1  -5  10   21.08    0.83
   1  -5  10   19.62    0.86
   1  -5  10   19.18    0.85
   1   5  10   20.09    0.86
   1   5  10   19.12    0.84
   1   5  10   19.40    0.90
   1   5  10   21.24    0.84
   2  -5  10    3.30    0.31
   2  -5  10    3.07    0.31
   2  -5  10    3.51    0.30
   2   5  10    3.44    0.37
   2   5  10    3.79    0.32
   2   5  10    3.43    0.29
   2   5  10    3.80    0.37
   3  -5  10    3.19    0.30
   3  -5  10    3.98    0.32
   3  -5  10    3.82    0.33
   3   5  10    3.72    0.32
   3   5  10    3.74    0.33
   3   5  10    4.18    0.32
   3   5  10    3.23    0.40
   4  -5  10    2.08    0.26
   4  -5  10    1.23    0.24
   4  -5  10    1.91    0.32
   4   5  10    1.48    0.27
   4   5  10    1.23    0.26
   4   5  10    1.19    0.24
   5  -5  10    1.97    0.26
   5  -5  10    2.44    0.39
   5  -5  10    2.44    0.26
   5   5  10    2.84    0.30
   5   5  10    2.52    0.27
   5   5  10    2.75    0.28
   6  -5  10    0.69    0.17
   6  -5  10    1.29    0.23
  -6  -5 -10    1.47    0.26
   6   5  10    0.80    0.17
   6   5  10    0.79    0.17
   6   5  10    0.90    0.18
   7  -5  10    1.87    0.20
   7  -5  10    1.72    0.23
   7   5  10    1.57    0.24
   7   5  10    1.96    0.22
   8  -5  10    0.87    0.19
  -8  -5 -10    0.94    0.16
   8  -5  10    0.94    0.17
   8   5  10    0.91    0.17
  -9  -5 -10    0.35    0.09
  -9  -6  10    4.46    0.26
  -9   6  10    4.36    0.25
  -8  -6  10    2.71    0.24
   8  -6 -10    3.14    0.34
  -8   6  10    2.64    0.23
  -8   6  10    2.06    0.32
   7  -6 -10   10.78    0.57
  -7  -6  10   12.41    0.56
  -7   6  10   12.11    0.56
  -6  -6  10    3.38    0.32
   6  -6 -10    3.25    0.33
  -6   6  10    3.84    0.34
  -6   6  10    4.07    0.32
   5  -6 -10   -0.40    0.17
  -5  -6  10   -0.03    0.15
  -5  -6  10    0.12    0.16
  -5   6  10    0.11    0.18
  -5   6  10    0.05    0.15
  -4  -6  10    3.28    0.34
   4  -6 -10    3.29    0.36
  -4  -6  10    3.12    0.31
  -4   6  10    3.32    0.30
  -4   6  10    2.66    0.32
  -3  -6  10   10.83    0.54
  -3  -6  10   10.65    0.57
  -3   6  10   11.15    0.56
  -3   6  10   11.41    0.54
  -2  -6  10    0.11    0.14
  -2  -6  10    0.20    0.27
  -2   6  10    0.13    0.16
  -2   6  10    0.39    0.16
  -2   6  10    0.20    0.25
  -1  -6  10    3.50    0.38
  -1  -6  10    2.93    0.27
  -1   6  10    3.22    0.30
  -1   6  10    3.29    0.34
  -1   6  10    3.14    0.33
   0  -6  10    2.39    0.25
   0  -6  10    2.54    0.33
   0   6  10    2.56    0.32
   0   6  10    2.41    0.29
   0   6  10    3.08    0.31
   1  -6  10   14.51    0.67
   1  -6  10   14.75    0.67
   1  -6  10   13.95    0.64
   1   6  10   14.74    0.67
   1   6  10   14.50    0.66
   1   6  10   15.20    0.67
   1   6  10   14.10    0.72
   2  -6  10    0.00    0.15
   2  -6  10    0.01    0.14
   2  -6  10   -0.06    0.16
   2   6  10    0.18    0.16
   2   6  10   -0.08    0.19
   2   6  10   -0.04    0.21
   3  -6  10    0.71    0.17
   3  -6  10    0.41    0.23
   3   6  10    0.62    0.21
   3   6  10    0.42    0.18
   4  -6  10    7.69    0.45
   4  -6  10    8.29    0.47
   4  -6  10    7.81    0.43
   4   6  10    7.60    0.45
   4   6  10    7.96    0.44
   4   6  10    8.49    0.46
   5  -6  10    5.84    0.38
   5  -6  10    5.57    0.42
   5  -6  10    5.56    0.36
   5   6  10    5.98    0.38
   5   6  10    5.48    0.37
   5   6  10    5.37    0.38
  -6  -6 -10    6.14    0.43
   6  -6  10    5.48    0.49
   6  -6  10    5.56    0.36
   6  -6  10    6.08    0.38
   6   6  10    6.41    0.38
   6   6  10    6.02    0.37
   6   6  10    5.52    0.37
   7  -6  10    2.55    0.22
   7  -6  10    2.83    0.23
   7   6  10    2.16    0.25
   7   6  10    2.70    0.24
   8  -6  10    5.29    0.33
  -8  -6 -10    4.42    0.25
   8  -6  10    4.51    0.26
   8   6  10    3.79    0.25
  -9  -7  10    0.42    0.12
  -9   7  10    0.32    0.09
  -8  -7  10    2.10    0.22
   8  -7 -10    2.41    0.29
  -8   7  10    2.25    0.21
   8   7 -10    2.34    0.30
  -7  -7  10    2.19    0.34
   7  -7 -10    2.73    0.31
  -7   7  10    2.60    0.32
   6  -7 -10    2.30    0.31
  -6  -7  10    2.87    0.30
  -6   7  10    2.60    0.33
  -6   7  10    2.48    0.27
   5  -7 -10    1.33    0.23
  -5  -7  10    1.00    0.19
  -5   7  10    1.55    0.25
  -5   7  10    1.36    0.28
  -4  -7  10   48.58    1.88
  -4  -7  10   49.81    1.90
   4  -7 -10   49.72    1.88
  -4   7  10   49.27    1.88
  -4   7  10   47.61    1.87
  -3  -7  10   28.02    1.13
  -3  -7  10   27.49    1.13
  -3   7  10   27.88    1.12
  -3   7  10   27.18    1.11
  -2  -7  10    0.74    0.27
  -2  -7  10    0.19    0.15
  -2   7  10    0.43    0.17
  -2   7  10    0.65    0.17
  -2   7  10    0.29    0.22
  -1  -7  10    0.11    0.22
  -1  -7  10    0.30    0.14
  -1   7  10    0.05    0.19
  -1   7  10    0.17    0.16
  -1   7  10    0.21    0.16
   0  -7  10    0.97    0.20
   0  -7  10    1.10    0.21
   0   7  10    0.85    0.19
   0   7  10    0.92    0.20
   0   7  10    0.96    0.20
   1  -7  10   21.85    0.91
   1  -7  10   21.94    0.89
   1  -7  10   20.83    0.91
   1   7  10   21.42    0.90
   1   7  10   21.79    0.90
   1   7  10   21.67    0.96
   1   7  10   21.49    0.91
   2  -7  10    7.11    0.41
   2  -7  10    7.55    0.43
   2  -7  10    7.35    0.43
   2   7  10    7.87    0.42
   2   7  10    6.96    0.43
   2   7  10    7.33    0.48
   2   7  10    7.45    0.45
   3  -7  10   16.14    0.70
   3  -7  10   15.75    0.71
   3  -7  10   16.02    0.70
   3   7  10   15.27    0.71
   3   7  10   15.92    0.72
   3   7  10   14.73    0.70
   3   7  10   15.56    0.72
   4  -7  10    2.59    0.31
   4  -7  10    2.15    0.28
   4  -7  10    2.19    0.26
   4   7  10    2.42    0.29
   4   7  10    2.44    0.27
   4   7  10    2.08    0.29
   5  -7  10    2.92    0.30
   5  -7  10    3.12    0.34
   5  -7  10    3.68    0.29
   5   7  10    3.38    0.31
   5   7  10    3.20    0.29
   5   7  10    3.13    0.30
   6  -7  10    1.69    0.24
   6  -7  10    2.05    0.22
   6  -7  10    1.80    0.34
   6   7  10    1.39    0.24
   6   7  10    1.65    0.23
  -7  -7 -10    1.43    0.34
   7  -7  10    0.42    0.13
   7  -7  10    0.68    0.16
   7   7  10    1.06    0.23
   7   7  10    0.52    0.13
  -8  -7 -10    0.10    0.09
   8  -7  10    0.05    0.13
   8  -7  10   -0.10    0.14
   8   7  10    0.01    0.09
  -9  -8  10    2.54    0.18
  -9   8  10    2.18    0.18
  -8  -8  10    6.73    0.35
   8  -8 -10    7.04    0.43
  -8   8  10    6.71    0.34
   8   8 -10    6.87    0.43
   7  -8 -10    0.83    0.20
  -7  -8  10    1.00    0.21
  -7   8  10    0.79    0.15
  -7   8  10    0.86    0.21
  -6  -8  10   -0.03    0.17
   6  -8 -10   -0.05    0.19
  -6  -8  10    0.11    0.16
  -6   8  10    0.00    0.15
  -6   8  10   -0.11    0.18
  -5  -8  10    0.75    0.18
  -5  -8  10    0.80    0.18
   5  -8 -10    1.42    0.25
  -5   8  10    0.92    0.18
  -5   8  10    0.79    0.21
  -4  -8  10    6.43    0.41
  -4  -8  10    6.01    0.42
  -4   8  10    6.48    0.41
  -4   8  10    5.46    0.38
  -3  -8  10   28.16    1.15
  -3  -8  10   28.06    1.15
  -3   8  10   28.77    1.14
  -3   8  10   26.96    1.13
  -2  -8  10    4.78    0.34
  -2  -8  10    4.48    0.42
  -2   8  10    4.60    0.36
  -2   8  10    4.73    0.38
  -2   8  10    5.18    0.35
  -1  -8  10    1.26    0.32
  -1  -8  10    1.24    0.23
  -1   8  10    1.20    0.21
  -1   8  10    1.02    0.20
  -1   8  10    0.89    0.19
   0  -8  10    3.38    0.32
   0  -8  10    3.71    0.29
   0   8  10    4.14    0.32
   0   8  10    3.50    0.32
   0   8  10    3.04    0.31
   1  -8  10    4.01    0.35
   1  -8  10    3.27    0.31
   1  -8  10    3.23    0.29
   1   8  10    2.61    0.29
   1   8  10    2.55    0.42
   1   8  10    3.48    0.31
   1   8  10    3.42    0.33
   2  -8  10    4.75    0.33
   2  -8  10    4.80    0.35
   2   8  10    4.93    0.35
   2   8  10    4.40    0.33
   2   8  10    5.54    0.39
   2   8  10    4.89    0.38
   3  -8  10    4.47    0.33
   3  -8  10    4.33    0.34
   3  -8  10    4.58    0.34
   3   8  10    4.78    0.37
   3   8  10    4.71    0.33
   3   8  10    4.77    0.37
   3   8  10    4.07    0.34
   4  -8  10    8.69    0.47
   4  -8  10    9.56    0.49
   4  -8  10    8.95    0.49
   4   8  10    8.89    0.49
   4   8  10    9.05    0.50
   4   8  10    8.83    0.47
   5  -8  10    2.60    0.26
   5  -8  10    2.85    0.31
   5  -8  10    2.36    0.27
   5   8  10    2.38    0.28
   5   8  10    2.22    0.27
   5   8  10    2.89    0.28
   6  -8  10    2.30    0.25
  -6  -8 -10    2.20    0.28
   6  -8  10    2.41    0.29
   6  -8  10    2.38    0.33
   6   8  10    1.64    0.24
   6   8  10    2.00    0.29
   7  -8  10    4.22    0.28
   7  -8  10    4.20    0.26
  -7  -8 -10    4.36    0.34
   7   8  10    4.44    0.28
   7   8  10    4.26    0.30
   8  -8  10    0.20    0.17
  -8  -8 -10    0.42    0.10
   8   8  10    0.21    0.10
  -8  -9  10    1.10    0.17
   8   9 -10    2.13    0.35
  -8   9  10    1.60    0.17
  -7  -9  10    7.14    0.38
   7  -9 -10    6.58    0.45
  -7   9  10    7.27    0.38
  -6  -9  10    1.31    0.27
   6  -9 -10    1.70    0.34
  -6   9  10    1.41    0.25
   5  -9 -10    4.56    0.50
  -5  -9  10    4.94    0.37
  -5  -9  10    4.65    0.37
  -5   9  10    5.14    0.40
  -5   9  10    5.16    0.35
  -4  -9  10    9.25    0.52
  -4   9  10    9.08    0.51
  -4   9  10    9.06    0.48
  -3  -9  10    2.61    0.39
  -3  -9  10    2.34    0.30
  -3   9  10    2.34    0.36
  -3   9  10    1.98    0.31
  -3   9  10    2.37    0.29
  -2  -9  10   -0.03    0.15
  -2  -9  10    0.59    0.26
  -2   9  10    0.25    0.15
  -2   9  10    0.53    0.17
  -1  -9  10    1.69    0.28
  -1  -9  10    1.56    0.25
  -1   9  10    1.99    0.27
  -1   9  10    1.99    0.28
   0  -9  10    4.05    0.32
   0  -9  10    4.11    0.34
   0   9  10    3.75    0.34
   0   9  10    4.30    0.33
   1  -9  10    8.71    0.46
   1  -9  10    8.70    0.46
   1  -9  10    8.10    0.47
   1   9  10    8.49    0.47
   1   9  10    8.28    0.46
   1   9  10    8.24    0.45
   1   9  10    7.79    0.54
   2  -9  10   15.54    0.71
   2  -9  10   15.86    0.69
   2  -9  10   15.79    0.70
   2   9  10   15.95    0.73
   2   9  10   15.45    0.71
   2   9  10   15.34    0.71
   2   9  10   15.13    0.69
   3  -9  10    4.16    0.34
   3  -9  10    4.07    0.31
   3  -9  10    4.19    0.32
   3   9  10    4.21    0.34
   3   9  10    3.75    0.32
   3   9  10    4.05    0.35
   3   9  10    4.22    0.35
   4  -9  10    1.33    0.23
   4  -9  10    0.70    0.18
   4  -9  10    0.71    0.18
   4   9  10    0.57    0.19
   4   9  10    0.85    0.19
   4   9  10    1.32    0.26
   5  -9  10    1.69    0.28
   5  -9  10    1.44    0.22
   5  -9  10    1.57    0.24
   5   9  10    1.27    0.24
   5   9  10    1.47    0.24
   5   9  10    1.58    0.25
   6  -9  10    7.97    0.41
   6  -9  10    8.07    0.47
  -6  -9 -10    8.26    0.43
   6  -9  10    8.35    0.43
   6   9  10    8.46    0.42
   6   9  10    8.06    0.43
   7  -9  10    0.06    0.12
   7  -9  10    0.13    0.10
  -7  -9 -10    0.36    0.16
   7   9  10    0.16    0.17
   7   9  10    0.13    0.10
  -8  -9 -10    0.20    0.09
   8   9  10    0.00    0.09
  -8 -10  10   11.55    0.50
  -8  10  10   12.11    0.50
  -7 -10  10    0.29    0.12
  -7  10  10    0.27    0.11
  -6 -10  10    0.18    0.14
  -6  10  10    0.25    0.13
  -6  10  10    0.04    0.21
  -5 -10  10    0.09    0.16
  -5 -10  10    0.27    0.17
  -5  10  10    0.12    0.15
  -5  10  10    0.16    0.20
  -4 -10  10    9.56    0.54
  -4 -10  10    9.27    0.51
  -4  10  10    9.52    0.49
  -4  10  10    9.36    0.50
  -3 -10  10    6.00    0.42
  -3  10  10    6.73    0.43
  -3  10  10    6.28    0.42
  -3  10  10    6.85    0.40
  -2 -10  10   69.04    2.57
  -2 -10  10   68.19    2.56
  -2  10  10   68.09    2.54
  -2  10  10   65.33    2.54
  -2  10  10   68.95    2.55
  -1 -10  10    7.23    0.44
  -1 -10  10    8.34    0.44
  -1  10  10    7.30    0.43
  -1  10  10    7.61    0.42
  -1  10  10    6.37    0.43
   0 -10  10    2.43    0.29
   0 -10  10    2.19    0.27
   0  10  10    2.39    0.30
   0  10  10    2.51    0.27
   0  10  10    2.63    0.30
   1 -10  10    0.05    0.17
   1 -10  10    0.02    0.15
   1 -10  10   -0.12    0.14
   1  10  10    0.18    0.16
   1  10  10    0.06    0.16
   1  10  10    0.38    0.25
   1  10  10    0.03    0.14
   2 -10  10    6.19    0.38
   2 -10  10    6.07    0.38
   2 -10  10    5.99    0.39
   2  10  10    5.73    0.39
   2  10  10    5.97    0.37
   2  10  10    5.76    0.39
   2  10  10    6.09    0.42
   3 -10  10    0.20    0.16
   3 -10  10    0.55    0.17
   3 -10  10    0.47    0.15
   3  10  10    0.45    0.18
   3  10  10    0.28    0.17
   3  10  10    0.43    0.15
   3  10  10    0.35    0.18
   4 -10  10   -0.01    0.15
   4 -10  10    0.03    0.16
   4 -10  10    0.09    0.14
   4  10  10   -0.07    0.15
   4  10  10   -0.23    0.14
   4  10  10    0.16    0.15
   5 -10  10   16.70    0.73
   5 -10  10   15.20    0.73
   5 -10  10   16.85    0.71
   5  10  10   16.41    0.74
   5  10  10   17.00    0.72
   6 -10  10    3.50    0.35
   6 -10  10    3.88    0.26
  -6 -10 -10    4.36    0.29
   6 -10  10    3.99    0.28
   6  10  10    3.82    0.28
   6  10  10    3.71    0.28
   7 -10  10    0.39    0.13
   7  10  10    0.38    0.11
  -8 -11  10    1.54    0.18
  -8  11  10    1.27    0.22
  -7 -11  10    0.46    0.13
  -7  11  10    0.13    0.13
  -6 -11  10    0.47    0.14
  -6  11  10    0.86    0.15
  -5 -11  10    1.01    0.21
  -5  11  10    0.82    0.18
  -4 -11  10    0.11    0.17
  -4 -11  10    0.38    0.21
  -4  11  10    0.17    0.16
   4  11 -10    0.55    0.29
  -4  11  10    0.25    0.18
  -3 -11  10    2.71    0.31
  -3  11  10    3.29    0.33
  -3  11  10    3.29    0.30
  -3  11  10    2.46    0.31
  -2 -11  10    3.02    0.33
  -2 -11  10    3.62    0.32
  -2  11  10    3.19    0.33
  -2  11  10    2.91    0.32
  -2  11  10    2.96    0.30
  -1 -11  10    0.43    0.18
  -1 -11  10    0.15    0.16
  -1  11  10    0.23    0.15
  -1  11  10    0.14    0.16
  -1  11  10    0.48    0.18
   0 -11  10   -0.08    0.16
   0 -11  10   -0.14    0.15
   0  11  10   -0.08    0.17
   0  11  10    0.01    0.16
   0  11  10    0.16    0.14
   1 -11  10    7.26    0.43
   1 -11  10    7.36    0.43
   1 -11  10    7.49    0.42
   1  11  10    6.90    0.43
   1  11  10    7.64    0.41
   1  11  10    6.95    0.43
   1  11  10    6.85    0.51
   2 -11  10    0.62    0.16
   2 -11  10    0.30    0.16
   2 -11  10    0.70    0.17
   2  11  10    0.37    0.14
   2  11  10    0.73    0.17
   2  11  10    0.74    0.17
   2  11  10    0.62    0.21
   3 -11  10   13.52    0.67
   3 -11  10   14.98    0.66
   3 -11  10   14.31    0.68
   3  11  10   14.25    0.66
   3  11  10   15.98    0.69
   3  11  10   15.32    0.67
   4 -11  10    5.30    0.33
   4 -11  10    5.44    0.35
   4 -11  10    5.03    0.37
   4  11  10    5.64    0.36
   4  11  10    5.43    0.36
   4  11  10    5.55    0.36
   5 -11  10    1.57    0.21
   5 -11  10    1.84    0.21
   5 -11  10    1.21    0.27
  -5 -11 -10    2.01    0.24
   5  11  10    1.44    0.23
   5  11  10    1.71    0.22
   5  11  10    1.53    0.22
   6 -11  10    0.53    0.11
   6 -11  10    0.50    0.20
   6 -11  10    0.36    0.12
  -6 -11 -10    0.42    0.13
   6  11  10    0.29    0.11
   6  11  10    0.30    0.13
  -7 -11 -10    0.58    0.14
  -7 -11 -10    0.79    0.16
   7 -11  10    0.46    0.13
   7  11  10    0.49    0.10
  -7 -12  10    0.15    0.14
  -7  12  10    0.04    0.14
  -6 -12  10    2.89    0.27
  -6  12  10    2.44    0.24
  -5 -12  10    1.62    0.28
  -5 -12  10    1.44    0.28
  -5  12  10    1.71    0.24
  -4 -12  10    0.22    0.18
  -4  12  10   -0.29    0.18
   4  12 -10    0.11    0.23
  -4  12  10    0.23    0.16
  -3 -12  10    0.42    0.17
  -3  12  10    0.53    0.18
  -3  12  10   -0.01    0.17
  -3  12  10    0.24    0.18
  -2 -12  10    0.32    0.17
  -2 -12  10    0.40    0.18
  -2  12  10    0.22    0.16
  -2  12  10    0.34    0.15
  -2  12  10    0.31    0.17
  -1 -12  10   11.04    0.55
  -1 -12  10   10.14    0.54
  -1  12  10   10.68    0.54
  -1  12  10   11.11    0.53
  -1  12  10   11.35    0.56
   0 -12  10   12.37    0.60
   0 -12  10   12.53    0.60
   0  12  10   12.56    0.59
   0  12  10   12.40    0.61
   0  12  10   12.08    0.60
   1 -12  10    0.06    0.15
   1 -12  10    0.00    0.14
   1  12  10    0.16    0.14
   1  12  10   -0.01    0.16
   1  12  10    0.00    0.17
   2 -12  10   21.22    0.89
   2 -12  10   21.29    0.91
   2 -12  10   20.34    0.91
   2  12  10   21.69    0.91
   2  12  10   21.50    0.90
   2  12  10   21.12    0.90
   2  12  10   22.14    0.93
   3 -12  10    0.31    0.16
   3 -12  10    0.03    0.13
   3 -12  10    0.14    0.14
   3  12  10    0.31    0.17
   3  12  10    0.15    0.16
   3  12  10    0.18    0.14
   4 -12  10    0.49    0.21
   4 -12  10    0.53    0.17
   4 -12  10    0.81    0.18
   4  12  10    0.18    0.25
   4  12  10    1.44    0.34
   4  12  10    0.41    0.22
   5 -12  10    0.20    0.12
   5 -12  10    0.53    0.17
  -5 -12 -10    0.40    0.12
   5  12  10    0.37    0.12
   6 -12  10   -0.08    0.19
  -6 -12 -10   -0.04    0.11
   6 -12  10    0.03    0.10
   6  12  10   -0.04    0.09
   6  12  10    0.11    0.13
  -7 -12 -10    0.69    0.22
  -7 -12 -10    0.41    0.13
   7  12  10    0.65    0.12
  -7 -13  10    8.74    0.42
  -6 -13  10    0.03    0.15
  -6  13  10    0.17    0.17
  -5 -13  10    1.36    0.22
  -5 -13  10    1.01    0.21
  -5  13  10    1.01    0.18
  -4 -13  10    5.46    0.38
  -4  13  10    5.60    0.37
   4  13 -10    5.93    0.42
  -4  13  10    5.74    0.36
  -4  13  10    5.12    0.42
  -3 -13  10    0.23    0.15
  -3  13  10   -0.05    0.17
  -3  13  10   -0.02    0.18
  -3  13  10    0.22    0.16
  -2 -13  10    4.34    0.35
  -2  13  10    4.88    0.37
  -2  13  10    4.61    0.33
  -2  13  10    5.41    0.38
  -1 -13  10    1.94    0.27
  -1 -13  10    2.08    0.27
  -1  13  10    2.64    0.25
  -1  13  10    2.45    0.30
  -1  13  10    1.67    0.30
   0 -13  10    0.16    0.14
   0 -13  10    0.59    0.17
   0  13  10    0.37    0.18
   0  13  10    0.00    0.12
   0  13  10    0.47    0.18
   1 -13  10    8.39    0.45
   1 -13  10    7.97    0.46
   1  13  10    8.17    0.47
   1  13  10    8.06    0.45
   1  13  10    8.49    0.45
   2 -13  10    7.68    0.45
   2 -13  10    8.50    0.45
   2  13  10    8.14    0.44
   2  13  10    7.83    0.45
   2  13  10    8.49    0.48
   3 -13  10    1.53    0.22
   3 -13  10    1.24    0.24
   3  13  10    1.21    0.21
   4 -13  10    2.60    0.29
   4 -13  10    2.92    0.25
   4  13  10    2.72    0.24
   4  13  10    2.66    0.26
   4  13  10    3.17    0.27
   5 -13  10    0.20    0.11
   5 -13  10    0.10    0.16
  -5 -13 -10    0.17    0.11
   5  13  10    0.28    0.12
   5  13  10    0.32    0.12
   6 -13  10    1.65    0.18
  -6 -13 -10    1.55    0.18
   6  13  10    1.60    0.16
   6  13  10    1.24    0.23
  -5 -14  10    0.53    0.21
  -4 -14  10    0.61    0.19
   4  14 -10    0.17    0.18
  -4  14  10    0.46    0.16
  -4  14  10    0.28    0.19
  -3 -14  10   -0.09    0.16
  -3  14  10    0.21    0.14
  -3  14  10    0.09    0.19
  -3  14  10   -0.40    0.18
  -2 -14  10   16.19    0.78
  -2  14  10   18.50    0.77
  -2  14  10   18.47    0.76
  -1 -14  10    0.25    0.14
  -1 -14  10    0.17    0.16
  -1  14  10    0.24    0.17
  -1  14  10   -0.02    0.12
  -1  14  10    0.48    0.20
   0 -14  10    0.12    0.15
   0 -14  10    0.60    0.16
   0  14  10    0.26    0.18
   0  14  10    0.34    0.17
   0  14  10    0.31    0.13
   1 -14  10    0.84    0.19
   1 -14  10    1.09    0.18
   1  14  10    0.64    0.15
   1  14  10    0.93    0.21
   1  14  10    1.20    0.25
   2 -14  10   -0.08    0.15
   2 -14  10    0.01    0.12
   2  14  10    0.32    0.18
   2  14  10    0.13    0.13
   2  14  10    0.39    0.20
   3 -14  10    0.04    0.12
   3 -14  10    0.02    0.14
   3  14  10   -0.01    0.16
   3  14  10   -0.10    0.16
   3  14  10    0.00    0.11
   4 -14  10    0.26    0.11
  -4 -14 -10    0.37    0.11
   4  14  10    0.28    0.13
   4  14  10    0.13    0.11
   5 -14  10    1.45    0.25
  -5 -14 -10    1.36    0.18
   5 -14  10    1.41    0.18
   5  14  10    1.47    0.18
   5  14  10    0.99    0.19
   6 -14  10    1.89    0.20
  -6 -14 -10    1.82    0.18
   6  14  10    2.06    0.16
  -4 -15  10    2.65    0.33
   4  15 -10    2.70    0.29
  -4  15  10    2.69    0.27
  -3 -15  10    1.00    0.20
  -3  15  10    0.94    0.20
  -3  15  10    1.26    0.25
  -2 -15  10    0.43    0.18
  -2  15  10    0.41    0.17
  -2  15  10    0.53    0.14
  -1 -15  10    0.91    0.20
  -1  15  10    1.19    0.26
  -1  15  10    0.50    0.14
   0 -15  10    0.76    0.17
   0  15  10    1.13    0.24
   1 -15  10    0.09    0.15
   1 -15  10   -0.03    0.11
   1  15  10    0.08    0.21
  -1  15 -10    0.22    0.16
   1  15  10   -0.13    0.09
   2 -15  10    2.01    0.22
   2 -15  10    2.20    0.26
   2  15  10    2.06    0.29
   2  15  10    2.14    0.21
   2  15  10    2.55    0.33
   3 -15  10    3.62    0.26
   3 -15  10    3.51    0.29
   3  15  10    3.85    0.32
   3  15  10    3.16    0.28
   3  15  10    3.56    0.26
   4 -15  10    0.31    0.11
  -4 -15 -10    0.26    0.11
   4 -15  10    0.02    0.14
   4  15  10    0.22    0.12
   4  15  10    0.32    0.11
  -5 -15 -10    1.19    0.16
   5 -15  10    1.15    0.16
   5  15  10    1.21    0.18
   5  15  10    0.86    0.15
  -4 -16  10   10.20    0.55
  -4  16  10    9.21    0.45
   4  16 -10    9.57    0.58
  -3 -16  10    7.23    0.45
   3  16 -10    7.58    0.40
  -3  16  10    7.93    0.38
  -2 -16  10    0.15    0.20
  -2  16  10    0.16    0.11
  -1 -16  10   13.20    0.62
  -1  16  10   13.47    0.58
   0 -16  10    9.32    0.48
   0  16  10    9.25    0.44
   1 -16  10    1.05    0.23
   1 -16  10    1.03    0.18
  -1  16 -10    1.29    0.28
   1  16  10    0.94    0.17
   2 -16  10   -0.17    0.16
   2 -16  10    0.07    0.10
   2  16  10    0.03    0.09
  -2  16 -10    0.11    0.13
   3 -16  10    4.40    0.29
   3 -16  10    3.54    0.24
  -3 -16 -10    3.80    0.25
   3  16  10    3.52    0.24
   3  16  10    3.45    0.27
  -3  16 -10    3.78    0.24
   4 -16  10    0.08    0.15
  -4 -16 -10    0.11    0.09
   4 -16  10    0.09    0.09
   4  16  10    0.27    0.12
  -4  16 -10   -0.04    0.09
  -5 -16 -10    4.78    0.25
   5  16  10    4.65    0.25
  -5  16 -10    4.71    0.23
   4  17 -10    4.21    0.34
  -3 -17  10    0.20    0.24
   3  17 -10    0.25    0.12
  -3  17  10    0.09    0.12
  -2 -17  10   -0.24    0.19
  -2  17  10    0.12    0.10
  -1 -17  10    0.09    0.18
  -1  17  10    0.09    0.10
   0 -17  10    6.42    0.38
   0  17  10    5.83    0.31
   1 -17  10    2.79    0.28
   1  17  10    2.89    0.21
   2 -17  10    1.78    0.24
  -2 -17 -10    1.43    0.19
  -2  17 -10    1.28    0.25
   2  17  10    1.49    0.16
   3 -17  10    0.56    0.17
  -3 -17 -10    0.88    0.16
  -3  17 -10    0.57    0.12
   3  17  10    0.71    0.13
  -4 -17 -10    0.56    0.10
   4  17  10    0.63    0.12
  -4  17 -10    0.24    0.10
  -3  18  10    1.12    0.17
   3  18 -10    1.08    0.18
  -2  18  10    1.15    0.22
   2  18 -10    0.72    0.15
  -1 -18  10    1.85    0.40
  -1  18  10    1.40    0.15
   0 -18 -10    0.20    0.17
   0 -18  10    0.35    0.19
   0  18  10    0.23    0.09
   1 -18  10   -0.02    0.19
  -1 -18 -10    0.42    0.14
   1  18  10    0.18    0.08
  -2 -18 -10   -0.13    0.12
  -3 -18 -10    0.25    0.11
   3  18  10    0.37    0.10
  -2  19  10    4.82    0.25
   2  19 -10    5.18    0.26
  -1  19  10    0.20    0.08
   1  19 -10    0.11    0.09
   0  19  10    0.29    0.08
   1  19  10    0.23    0.08
  -9   0  11    0.01    0.10
  -9   0  11    0.01    0.12
   9   0 -11    0.17    0.16
   8   0 -11    0.10    0.16
  -8   0  11   -0.08    0.13
  -8   0  11    0.00    0.12
  -7   0  11   -0.13    0.14
   7   0 -11   -0.01    0.14
  -7   0  11    0.04    0.15
  -6   0  11    0.03    0.16
  -6   0  11    0.11    0.17
  -5   0  11    0.04    0.17
  -5   0  11   -0.36    0.16
  -4   0  11    0.14    0.19
  -4   0  11    0.06    0.18
  -3   0  11   -0.42    0.19
  -3   0  11    0.13    0.18
  -3   0  11    0.81    0.19
  -2   0  11   -0.13    0.20
  -2   0  11    0.03    0.18
  -2   0  11    0.28    0.20
  -1   0  11    0.22    0.20
  -1   0  11   -0.19    0.20
  -1   0  11   -0.37    0.23
   0   0 -11    0.20    0.19
   0   0  11    0.35    0.22
   0   0  11    0.55    0.30
   1   0  11   -0.13    0.21
   1   0  11    0.22    0.25
   1   0  11    0.41    0.20
   2   0  11   -0.04    0.16
   2   0  11   -0.23    0.19
   2   0  11   -0.19    0.21
   3   0  11   -0.23    0.20
   3   0  11   -0.11    0.14
   3   0  11    0.22    0.16
   4   0  11   -0.06    0.16
   4   0  11    0.14    0.15
   4   0  11    0.06    0.17
   5   0  11    0.09    0.15
   5   0  11    0.23    0.14
   5   0  11   -0.06    0.18
   6   0  11   -0.17    0.14
   6   0  11    0.05    0.13
   7   0  11    0.18    0.12
   7   0  11    0.20    0.13
   8   0  11   -0.12    0.09
   8   0  11    0.16    0.12
  -8   0 -11    0.13    0.12
  -9  -1  11    0.00    0.11
   9  -1 -11    0.13    0.16
  -9  -1  11    0.17    0.12
  -9   1  11   -0.11    0.12
  -9   1  11   -0.04    0.10
   9   1 -11    0.12    0.16
  -8  -1  11   10.87    0.50
  -8  -1  11   10.42    0.50
   8  -1 -11   10.01    0.53
   8   1 -11   10.47    0.53
  -8   1  11   11.13    0.51
  -8   1  11   10.30    0.49
  -7  -1  11    0.52    0.17
  -7  -1  11    0.46    0.17
   7  -1 -11    0.17    0.15
  -7   1  11    0.37    0.16
  -7   1  11    0.28    0.15
   7   1 -11    0.29    0.15
  -6  -1  11   15.91    0.73
   6  -1 -11   15.88    0.75
  -6  -1  11   16.88    0.74
  -6   1  11   17.48    0.75
  -6   1  11   15.94    0.73
  -5  -1  11   13.70    0.65
  -5  -1  11   14.00    0.66
  -5   1  11   13.49    0.65
  -5   1  11   13.98    0.64
  -4  -1  11    3.31    0.33
  -4  -1  11    3.59    0.35
  -4  -1  11    3.91    0.32
  -4   1  11    3.75    0.34
  -4   1  11    2.99    0.33
  -3  -1  11   25.44    1.06
  -3  -1  11   25.42    1.06
  -3  -1  11   26.43    1.04
  -3   1  11   25.67    1.04
  -3   1  11   25.74    1.05
  -3   1  11   25.23    1.05
  -2  -1  11    0.07    0.15
  -2  -1  11   -0.02    0.21
  -2  -1  11   -0.24    0.22
  -2   1  11    0.09    0.18
  -2   1  11    0.17    0.19
  -2   1  11   -0.10    0.19
  -1  -1  11   31.77    1.30
  -1  -1  11   37.21    1.36
  -1  -1  11   27.51    1.39
  -1   1  11   32.71    1.29
  -1   1  11   33.11    1.29
   0  -1 -11   13.85    0.70
   0  -1  11   15.21    0.68
   0   1  11   17.26    0.80
   0   1 -11   14.48    0.70
   0   1  11   15.43    0.69
   0   1  11   14.73    0.73
   1  -1  11    0.51    0.24
   1  -1  11    0.48    0.27
   1  -1  11    0.29    0.19
   1   1  11    0.56    0.20
   1   1  11    0.12    0.28
   1   1  11    0.92    0.22
   1   1  11    0.77    0.26
   2  -1  11    8.78    0.47
   2  -1  11    8.81    0.50
   2  -1  11    9.51    0.55
   2   1  11    8.98    0.50
   2   1  11    9.23    0.47
   2   1  11    9.39    0.51
   3  -1  11    2.54    0.38
   3  -1  11    3.28    0.29
   3  -1  11    2.86    0.31
   3   1  11    3.32    0.35
   3   1  11    2.98    0.31
   3   1  11    3.17    0.29
   4  -1  11    1.45    0.25
   4  -1  11    1.40    0.25
   4  -1  11    1.35    0.32
   4   1  11    1.17    0.22
   4   1  11    1.52    0.26
   4   1  11    0.71    0.16
   5  -1  11   28.87    1.15
   5  -1  11   28.08    1.17
   5  -1  11   28.37    1.15
   5   1  11   28.41    1.15
   5   1  11   29.22    1.17
   5   1  11   27.91    1.15
   6  -1  11    2.83    0.29
   6  -1  11    3.07    0.27
   6   1  11    3.12    0.29
   6   1  11    3.14    0.29
   7  -1  11    1.81    0.21
   7  -1  11    1.88    0.22
   7   1  11    2.17    0.22
   7   1  11    1.73    0.23
  -7   1 -11    1.88    0.25
   8  -1  11    0.02    0.10
   8  -1  11    0.15    0.10
  -8  -1 -11    0.10    0.11
   8   1  11   -0.01    0.12
  -8   1 -11    0.19    0.15
   8   1  11    0.13    0.10
  -9  -2  11    0.10    0.11
   9  -2 -11    0.22    0.16
  -9  -2  11    0.03    0.13
  -9   2  11    0.15    0.13
  -9   2  11   -0.03    0.09
   9   2 -11    0.06    0.17
  -8  -2  11    4.52    0.31
   8  -2 -11    4.62    0.34
  -8  -2  11    4.87    0.30
  -8   2  11    4.58    0.30
  -8   2  11    5.16    0.33
   8   2 -11    4.33    0.34
   7  -2 -11    1.42    0.28
  -7  -2  11    2.05    0.27
  -7  -2  11    1.69    0.28
   7   2 -11    1.68    0.28
  -7   2  11    2.50    0.28
  -7   2  11    1.85    0.26
  -6  -2  11   21.30    0.88
   6  -2 -11   19.90    0.88
  -6  -2  11   20.44    0.88
  -6   2  11   19.33    0.87
  -6   2  11   20.99    0.88
  -5  -2  11    1.01    0.19
  -5  -2  11    0.55    0.21
  -5   2  11    0.76    0.19
  -5   2  11    0.96    0.19
  -4  -2  11   66.95    2.65
  -4  -2  11   75.37    2.66
  -4  -2  11   70.32    2.64
  -4   2  11   71.89    2.64
  -4   2  11   67.34    2.73
  -3  -2  11   12.24    0.62
  -3  -2  11   12.12    0.65
  -3  -2  11   13.02    0.60
  -3   2  11   13.02    0.62
  -3   2  11   13.66    0.61
  -2  -2  11    4.50    0.41
  -2  -2  11    4.73    0.33
  -2  -2  11    4.14    0.47
  -2   2  11    4.27    0.36
  -2   2  11    4.27    0.36
  -1  -2  11    4.73    0.48
  -1  -2  11    5.62    0.36
  -1   2  11    5.62    0.39
  -1   2  11    5.18    0.40
   0  -2 -11    9.57    0.62
   0   2 -11    7.41    0.50
   0   2  11    8.21    0.49
   0   2  11    8.12    0.46
   0   2  11    7.48    0.49
   1  -2  11    0.08    0.21
   1  -2  11    0.02    0.20
   1  -2  11   -0.09    0.22
   1   2  11    0.18    0.18
   1   2  11   -0.09    0.25
   1   2  11    0.12    0.17
   1   2  11    0.19    0.26
   2  -2  11   12.19    0.58
   2  -2  11   10.97    0.64
   2  -2  11   11.89    0.57
   2   2  11   12.11    0.59
   2   2  11   11.60    0.58
   2   2  11   11.38    0.56
   2   2  11   11.93    0.65
   3  -2  11    0.15    0.17
   3  -2  11    0.29    0.25
   3  -2  11    0.01    0.15
   3   2  11    0.06    0.17
   3   2  11   -0.07    0.15
   3   2  11    0.05    0.17
   4  -2  11    0.99    0.24
   4  -2  11    1.48    0.25
   4  -2  11    0.94    0.23
   4   2  11    1.61    0.25
   4   2  11    1.12    0.21
   4   2  11    0.70    0.16
   5  -2  11    3.23    0.29
   5  -2  11    4.00    0.32
   5   2  11    3.43    0.32
   5   2  11    3.10    0.30
   5   2  11    3.82    0.31
   6  -2  11    2.45    0.26
   6  -2  11    2.47    0.27
   6   2  11    2.20    0.27
   6   2  11    2.22    0.26
   7  -2  11    0.23    0.12
   7  -2  11    0.36    0.12
  -7   2 -11    0.30    0.16
   7   2  11    0.15    0.12
   7   2  11    0.25    0.13
   8  -2  11    0.15    0.11
  -8  -2 -11    0.33    0.10
   8  -2  11    0.37    0.11
   8   2  11    0.17    0.10
  -8   2 -11    0.24    0.18
   8   2  11    0.30    0.18
   9  -3 -11   15.54    0.67
  -9  -3  11   14.00    0.62
  -9  -3  11   15.93    0.62
   9   3 -11   14.72    0.66
  -9   3  11   14.53    0.63
  -9   3  11   16.34    0.62
  -8  -3  11    0.16    0.15
  -8  -3  11    0.05    0.12
   8  -3 -11   -0.02    0.16
  -8   3  11    0.12    0.12
  -8   3  11    0.13    0.13
   8   3 -11    0.34    0.17
  -7  -3  11    6.32    0.39
   7  -3 -11    5.99    0.40
  -7   3  11    6.68    0.38
  -7   3  11    6.37    0.40
  -6  -3  11   14.40    0.65
  -6  -3  11   13.78    0.65
   6  -3 -11   12.71    0.64
  -6   3  11   13.73    0.65
  -6   3  11   13.72    0.64
  -5  -3  11   37.38    1.46
  -5  -3  11   39.74    1.49
  -5  -3  11   37.00    1.47
   5  -3 -11   37.90    1.46
  -5   3  11   34.49    1.45
  -5   3  11   36.49    1.46
  -4  -3  11    0.87    0.25
  -4  -3  11    0.65    0.19
  -4  -3  11    0.52    0.28
  -4   3  11    0.62    0.19
  -4   3  11    0.67    0.21
  -3  -3  11    4.99    0.35
  -3  -3  11    4.73    0.40
  -3   3  11    5.21    0.36
  -3   3  11    5.17    0.37
  -2  -3  11    9.28    0.57
  -2  -3  11   10.22    0.50
  -2   3  11    9.54    0.51
  -2   3  11    9.71    0.50
  -1  -3  11    4.68    0.54
  -1  -3  11    5.02    0.34
  -1   3  11    4.96    0.37
  -1   3  11    4.71    0.36
   0  -3  11    0.92    0.28
   0  -3  11    1.00    0.25
   0   3  11    1.25    0.27
   0   3  11    0.96    0.22
   0   3  11    1.10    0.24
   0   3 -11    1.19    0.24
   1  -3  11    1.62    0.29
   1  -3  11    1.65    0.30
   1  -3  11    1.70    0.31
   1   3  11    2.03    0.36
   1   3  11    1.66    0.28
   1   3  11    1.22    0.28
   1   3  11    1.65    0.29
   2  -3  11   24.90    0.99
   2  -3  11   23.67    0.99
   2  -3  11   25.19    1.01
   2   3  11   23.35    1.02
   2   3  11   24.59    0.99
   2   3  11   23.49    1.01
   2   3  11   24.29    1.00
   3  -3  11   20.88    0.90
   3  -3  11   20.65    0.88
   3   3  11   22.27    0.89
   3   3  11   19.36    0.92
   3   3  11   20.41    0.92
   3   3  11   20.92    0.89
   4  -3  11    0.33    0.16
   4  -3  11    0.39    0.14
   4   3  11    0.52    0.18
   4   3  11    0.64    0.18
   4   3  11    0.87    0.17
   5  -3  11    3.56    0.29
   5  -3  11    3.71    0.31
   5   3  11    3.20    0.30
   5   3  11    3.05    0.31
   5   3  11    3.69    0.30
   6  -3  11    0.14    0.13
   6  -3  11    0.18    0.14
   6   3  11    0.13    0.14
   6   3  11    0.16    0.15
   7  -3  11    0.12    0.11
   7  -3  11    0.33    0.11
  -7   3 -11    0.39    0.20
   7   3  11    0.18    0.12
   7   3  11    0.36    0.13
   8  -3  11   -0.06    0.10
   8  -3  11   -0.16    0.10
  -8  -3 -11   -0.06    0.09
   8   3  11   -0.07    0.09
   8   3  11    0.00    0.14
  -9  -4  11    0.26    0.10
  -9   4  11    0.21    0.09
   9   4 -11    0.28    0.20
  -8  -4  11    0.04    0.12
   8  -4 -11    0.22    0.21
  -8  -4  11   -0.25    0.16
  -8   4  11   -0.09    0.14
   8   4 -11   -0.07    0.16
  -8   4  11    0.03    0.11
  -7  -4  11    0.11    0.14
   7  -4 -11    0.54    0.18
  -7  -4  11    0.27    0.19
  -7   4  11    0.10    0.16
  -7   4  11    0.25    0.14
  -6  -4  11    0.04    0.22
   6  -4 -11    0.41    0.18
  -6  -4  11    0.31    0.17
  -6   4  11    0.08    0.15
  -6   4  11    0.11    0.17
  -5  -4  11   29.90    1.20
   5  -4 -11   29.11    1.18
  -5  -4  11   29.84    1.19
  -5  -4  11   28.78    1.19
  -5   4  11   28.39    1.18
  -5   4  11   28.89    1.18
  -4  -4  11    1.32    0.30
   4  -4 -11    1.28    0.22
  -4  -4  11    1.30    0.26
  -4   4  11    1.46    0.26
  -4   4  11    1.63    0.29
  -3  -4  11   12.05    0.61
  -3  -4  11   12.41    0.58
  -3   4  11   11.76    0.59
  -3   4  11   12.16    0.58
  -2  -4  11   13.22    0.71
  -2  -4  11   14.38    0.64
  -2   4  11   14.73    0.66
  -2   4  11   14.10    0.65
  -1  -4  11    0.31    0.15
  -1   4  11    0.36    0.17
  -1   4  11    0.49    0.19
  -1   4  11    0.70    0.25
   0  -4  11   33.65    1.36
   0  -4  11   32.93    1.33
   0   4  11   34.82    1.35
   0   4  11   34.38    1.35
   0   4  11   35.53    1.35
   1  -4  11    0.13    0.18
   1  -4  11    0.14    0.16
   1  -4  11    0.15    0.20
   1   4  11    0.47    0.26
   1   4  11    0.14    0.16
   1   4  11    0.14    0.20
   1   4  11    0.13    0.18
   2  -4  11   36.52    1.41
   2  -4  11   36.29    1.41
   2  -4  11   35.85    1.42
   2   4  11   36.45    1.43
   2   4  11   34.84    1.42
   2   4  11   36.04    1.41
   2   4  11   36.06    1.41
   3  -4  11    1.34    0.33
   3  -4  11    1.32    0.24
   3  -4  11    1.47    0.26
   3   4  11    1.32    0.25
   3   4  11    1.20    0.27
   3   4  11    1.73    0.25
   4  -4  11    0.11    0.15
   4  -4  11    0.06    0.15
   4   4  11    0.08    0.15
   4   4  11   -0.05    0.15
   4   4  11    0.07    0.17
   5  -4  11    1.28    0.23
   5  -4  11    0.94    0.19
   5   4  11    0.95    0.24
   5   4  11    0.50    0.16
   5   4  11    0.76    0.17
   6  -4  11   10.22    0.50
   6  -4  11   10.17    0.52
   6   4  11   10.66    0.51
   6   4  11   10.35    0.52
   7  -4  11    0.08    0.11
   7  -4  11    0.45    0.12
   7   4  11    0.22    0.11
   7   4  11    0.29    0.12
  -8  -4 -11    3.45    0.23
   8  -4  11    3.76    0.23
   8  -4  11    3.89    0.24
   8   4  11    3.36    0.28
   8   4  11    3.61    0.23
  -9   5  11    4.12    0.25
   8  -5 -11    2.50    0.28
  -8  -5  11    3.33    0.24
  -8   5  11    2.54    0.23
  -8   5  11    2.57    0.28
   8   5 -11    2.69    0.28
   7  -5 -11    4.47    0.35
  -7   5  11    4.52    0.34
  -7   5  11    5.41    0.46
  -6  -5  11   11.08    0.56
   6  -5 -11   11.11    0.56
  -6   5  11   11.37    0.56
  -6   5  11   11.10    0.55
  -5  -5  11    4.76    0.36
   5  -5 -11    4.51    0.39
  -5   5  11    4.80    0.35
  -5   5  11    4.60    0.37
   4  -5 -11    7.88    0.47
  -4  -5  11    7.20    0.45
  -4  -5  11    7.47    0.45
  -4   5  11    7.99    0.45
  -4   5  11    7.25    0.43
  -3  -5  11   10.88    0.54
  -3  -5  11   10.61    0.57
  -3   5  11   10.79    0.54
  -3   5  11   10.31    0.53
  -2  -5  11    0.15    0.15
  -2  -5  11    0.27    0.27
  -2   5  11    0.18    0.15
  -2   5  11    0.09    0.16
  -1  -5  11   24.03    0.94
  -1  -5  11   21.37    0.99
  -1   5  11   23.77    0.95
  -1   5  11   22.72    0.96
  -1   5  11   22.41    0.95
   0  -5  11   20.57    0.86
   0  -5  11   20.33    0.89
   0   5  11   20.46    0.87
   0   5  11   20.97    0.87
   0   5  11   20.02    0.86
   1  -5  11   32.19    1.26
   1  -5  11   30.86    1.24
   1  -5  11   31.65    1.24
   1   5  11   30.16    1.28
   1   5  11   31.10    1.24
   1   5  11   31.13    1.24
   1   5  11   32.25    1.25
   2  -5  11    2.78    0.29
   2  -5  11    2.83    0.30
   2  -5  11    2.61    0.29
   2   5  11    2.04    0.33
   2   5  11    2.46    0.28
   2   5  11    2.77    0.29
   2   5  11    2.49    0.35
   3  -5  11    0.35    0.21
   3  -5  11   -0.03    0.14
   3  -5  11    0.12    0.14
   3   5  11   -0.24    0.20
   3   5  11    0.02    0.17
   3   5  11   -0.01    0.15
   3   5  11    0.20    0.15
   4  -5  11   20.06    0.84
   4  -5  11   19.96    0.87
   4  -5  11   19.43    0.85
   4   5  11   19.95    0.85
   4   5  11   19.56    0.86
   4   5  11   19.53    0.84
   5  -5  11    0.16    0.14
   5  -5  11    0.20    0.15
   5   5  11    0.15    0.16
   5   5  11    0.06    0.16
   5   5  11    0.07    0.15
   6  -5  11    0.20    0.15
   6  -5  11    0.38    0.13
   6   5  11    0.32    0.15
   6   5  11    0.42    0.16
   7  -5  11    2.67    0.24
   7  -5  11    3.34    0.23
   7   5  11    3.19    0.24
   7   5  11    3.20    0.25
   8  -5  11    3.05    0.22
   8  -5  11    3.28    0.21
  -8  -5 -11    2.95    0.20
   8   5  11    3.10    0.21
  -9  -6  11    0.13    0.09
  -9   6  11    0.20    0.09
   8  -6 -11    0.71    0.19
  -8  -6  11    0.24    0.12
   8   6 -11    0.71    0.18
  -8   6  11    0.42    0.18
  -8   6  11    0.33    0.11
  -7  -6  11    1.37    0.22
   7  -6 -11    1.14    0.28
  -7   6  11    1.37    0.21
  -7   6  11    1.28    0.25
   6  -6 -11    1.46    0.30
  -6  -6  11    1.48    0.27
  -6   6  11    1.59    0.30
  -6   6  11    2.02    0.26
  -5  -6  11    2.66    0.30
  -5  -6  11    2.76    0.30
  -5   6  11    2.73    0.29
  -5   6  11    2.13    0.31
   4  -6 -11   17.77    0.80
  -4  -6  11   17.79    0.77
  -4  -6  11   17.25    0.78
  -4   6  11   17.51    0.77
  -4   6  11   16.97    0.77
  -3  -6  11    2.96    0.30
  -3  -6  11    2.94    0.39
  -3   6  11    3.09    0.30
  -3   6  11    2.89    0.31
  -2  -6  11   -0.10    0.13
  -2  -6  11    0.25    0.29
  -2   6  11    0.19    0.15
  -2   6  11    0.00    0.16
  -1  -6  11    7.07    0.40
  -1  -6  11    6.77    0.49
  -1   6  11    7.28    0.41
  -1   6  11    6.87    0.42
  -1   6  11    7.09    0.44
   0  -6  11   13.69    0.67
   0  -6  11   14.82    0.65
   0   6  11   14.93    0.66
   0   6  11   14.50    0.65
   0   6  11   13.71    0.66
   1  -6  11    8.18    0.45
   1  -6  11    7.67    0.46
   1  -6  11    8.49    0.43
   1   6  11    8.40    0.44
   1   6  11    7.94    0.46
   1   6  11    7.31    0.54
   1   6  11    7.92    0.45
   2  -6  11    1.09    0.26
   2  -6  11    0.58    0.19
   2   6  11    0.67    0.23
   2   6  11    0.55    0.18
   2   6  11    1.21    0.23
   2   6  11    0.65    0.29
   3  -6  11   10.15    0.54
   3  -6  11   10.18    0.51
   3  -6  11   10.52    0.54
   3   6  11   10.95    0.55
   3   6  11   10.25    0.56
   3   6  11   10.42    0.54
   3   6  11   10.09    0.51
   4  -6  11    2.77    0.28
   4  -6  11    3.05    0.29
   4   6  11    3.10    0.29
   4   6  11    2.33    0.29
   4   6  11    3.05    0.30
   5  -6  11    0.12    0.24
   5  -6  11    0.38    0.15
   5  -6  11    0.49    0.15
   5   6  11    0.39    0.15
   5   6  11    0.18    0.15
   5   6  11    0.10    0.15
  -6  -6 -11    0.36    0.21
   6   6  11    0.05    0.14
   7  -6  11    0.15    0.11
   7  -6  11    0.46    0.10
   7   6  11    0.28    0.12
   7   6  11    0.25    0.13
   8  -6  11    0.35    0.10
  -8  -6 -11    0.32    0.09
   8  -6  11    0.33    0.13
  -9  -7  11    0.27    0.09
  -9   7  11    0.25    0.09
  -8  -7  11    0.94    0.18
   8  -7 -11    1.31    0.32
  -8   7  11    0.81    0.16
   8   7 -11    1.84    0.26
   7  -7 -11   13.66    0.63
  -7  -7  11   13.79    0.61
  -7   7  11   13.25    0.60
  -7   7  11   13.02    0.59
  -6  -7  11    3.24    0.32
   6  -7 -11    3.87    0.36
  -6   7  11    3.97    0.31
  -6   7  11    3.91    0.34
  -5  -7  11    0.40    0.17
  -5  -7  11    0.48    0.17
   5  -7 -11    0.08    0.23
  -5   7  11    0.28    0.16
  -5   7  11    0.55    0.19
  -4  -7  11    0.17    0.18
  -4  -7  11    0.24    0.18
  -4   7  11    0.09    0.16
  -4   7  11    0.11    0.16
  -3  -7  11    0.40    0.16
  -3  -7  11    0.60    0.24
  -3   7  11    0.37    0.16
  -3   7  11    0.34    0.17
  -2  -7  11    2.08    0.27
  -2   7  11    1.59    0.36
  -1  -7  11    9.59    0.49
  -1  -7  11    8.80    0.53
  -1   7  11    9.91    0.49
  -1   7  11    8.84    0.50
  -1   7  11    9.69    0.51
   0  -7  11   16.59    0.76
   0  -7  11   16.61    0.74
   0   7  11   16.53    0.74
   0   7  11   17.83    0.75
   0   7  11   17.16    0.74
   1  -7  11    0.47    0.20
   1  -7  11    0.64    0.17
   1  -7  11    0.97    0.20
   1   7  11    1.16    0.30
   1   7  11    0.84    0.18
   1   7  11    0.92    0.25
   2  -7  11    1.44    0.27
   2  -7  11    0.72    0.17
   2  -7  11    1.08    0.26
   2   7  11    1.30    0.26
   2   7  11    1.40    0.24
   2   7  11    1.46    0.29
   2   7  11    1.05    0.24
   3  -7  11   41.07    1.62
   3  -7  11   41.60    1.60
   3  -7  11   41.63    1.60
   3   7  11   39.81    1.61
   3   7  11   41.32    1.61
   3   7  11   42.20    1.61
   3   7  11   40.79    1.61
   4  -7  11    1.43    0.24
   4  -7  11    0.97    0.24
   4  -7  11    0.77    0.21
   4   7  11    0.95    0.20
   4   7  11    1.20    0.26
   4   7  11    1.03    0.23
   5  -7  11   -0.07    0.13
   5  -7  11   -0.18    0.13
   5  -7  11   -0.08    0.21
   5   7  11   -0.27    0.14
   5   7  11    0.01    0.13
   5   7  11   -0.23    0.13
  -6  -7 -11    4.67    0.36
   6  -7  11    4.99    0.32
   6  -7  11    5.21    0.30
   6   7  11    4.68    0.31
   6   7  11    5.06    0.32
   7  -7  11    2.39    0.20
   7  -7  11    2.11    0.21
   7   7  11    2.48    0.21
   7   7  11    2.46    0.24
  -8  -7 -11   -0.11    0.08
   8  -7  11    0.04    0.14
   8   7  11   -0.14    0.08
  -8  -8  11    0.83    0.17
   8   8 -11    0.41    0.20
  -8   8  11    0.95    0.16
   7  -8 -11    0.55    0.22
  -7  -8  11    0.31    0.13
  -7   8  11    0.14    0.18
  -7   8  11    0.42    0.12
   6  -8 -11    4.65    0.41
  -6  -8  11    4.63    0.34
  -6   8  11    4.76    0.32
  -5  -8  11    0.01    0.17
  -5  -8  11   -0.03    0.15
  -5   8  11    0.05    0.15
  -5   8  11   -0.14    0.17
  -4  -8  11    6.57    0.43
  -4  -8  11    5.68    0.45
  -4   8  11    6.60    0.40
  -4   8  11    6.06    0.40
  -3  -8  11    0.21    0.24
  -3  -8  11   -0.01    0.16
  -3   8  11    0.18    0.15
  -3   8  11    0.09    0.16
  -2  -8  11    0.23    0.17
  -2   8  11    0.13    0.16
  -2   8  11    0.02    0.14
  -2   8  11    0.48    0.26
  -1  -8  11   12.37    0.59
  -1  -8  11   12.20    0.61
  -1   8  11   12.40    0.59
  -1   8  11   12.31    0.60
   0  -8  11    5.97    0.38
   0   8  11    6.23    0.40
   0   8  11    6.43    0.39
   0   8  11    5.74    0.38
   1  -8  11   15.81    0.86
   1  -8  11   17.80    0.79
   1  -8  11   18.75    0.78
   1   8  11   18.04    0.79
   1   8  11   18.77    0.79
   1   8  11   18.18    0.79
   2  -8  11    1.71    0.27
   2  -8  11    2.42    0.28
   2  -8  11    1.73    0.28
   2   8  11    1.99    0.30
   2   8  11    2.38    0.28
   2   8  11    1.53    0.33
   2   8  11    2.43    0.26
   3  -8  11    0.97    0.24
   3  -8  11    1.30    0.24
   3   8  11    1.48    0.27
   3   8  11    1.91    0.26
   3   8  11    1.18    0.26
   3   8  11    1.40    0.30
   4  -8  11    0.31    0.16
   4  -8  11    0.15    0.14
   4  -8  11    0.20    0.19
   4   8  11    0.36    0.15
   4   8  11    0.24    0.16
   4   8  11    0.03    0.17
   5  -8  11    2.44    0.34
   5  -8  11    2.50    0.24
   5  -8  11    2.83    0.27
   5   8  11    2.93    0.27
   5   8  11    2.33    0.27
   5   8  11    2.30    0.27
   6  -8  11    0.93    0.18
  -6  -8 -11    0.72    0.17
   6  -8  11    0.83    0.18
   6   8  11    0.43    0.13
   6   8  11    0.70    0.15
   7  -8  11    9.69    0.43
   7  -8  11    9.95    0.44
   7   8  11   10.00    0.45
   7   8  11    9.25    0.44
  -8  -8 -11    0.73    0.13
   8   8  11    0.38    0.09
  -8  -9  11    2.40    0.20
  -8   9  11    2.76    0.25
  -7  -9  11    0.44    0.13
  -7   9  11    0.50    0.12
  -6  -9  11    7.18    0.39
  -6   9  11    6.92    0.41
  -6   9  11    6.55    0.38
  -5  -9  11   10.29    0.56
  -5  -9  11   11.57    0.56
  -5   9  11   10.62    0.55
  -5   9  11   11.36    0.54
  -4  -9  11    5.87    0.41
  -4  -9  11    6.20    0.43
  -4   9  11    5.89    0.38
  -4   9  11    6.02    0.41
  -3  -9  11    1.23    0.26
  -3  -9  11    0.70    0.27
  -3   9  11    0.51    0.18
  -3   9  11    1.19    0.38
  -3   9  11    0.31    0.15
  -2  -9  11    0.13    0.23
  -2  -9  11    0.01    0.17
  -2   9  11    0.14    0.17
  -2   9  11   -0.12    0.13
  -2   9  11    0.23    0.18
  -1  -9  11    2.30    0.28
  -1  -9  11    2.66    0.31
  -1   9  11    2.65    0.29
  -1   9  11    1.81    0.29
  -1   9  11    2.67    0.29
   0  -9  11   23.83    1.00
   0  -9  11   22.96    0.99
   0   9  11   24.33    0.99
   0   9  11   24.40    1.00
   0   9  11   24.30    0.99
   1  -9  11   -0.10    0.16
   1  -9  11    0.06    0.18
   1  -9  11    0.24    0.16
   1   9  11    0.35    0.15
   1   9  11    0.10    0.16
   1   9  11    0.27    0.16
   2  -9  11    9.19    0.48
   2  -9  11    8.91    0.49
   2  -9  11   10.10    0.50
   2   9  11    9.36    0.50
   2   9  11    8.72    0.48
   2   9  11    9.25    0.49
   2   9  11    9.35    0.54
   3  -9  11    7.87    0.44
   3  -9  11    7.88    0.43
   3  -9  11    7.62    0.45
   3   9  11    7.47    0.43
   3   9  11    7.73    0.46
   3   9  11    7.65    0.44
   3   9  11    7.74    0.46
   4  -9  11   -0.01    0.13
   4  -9  11    0.30    0.18
   4  -9  11    0.27    0.15
   4   9  11    0.33    0.14
   4   9  11   -0.08    0.14
   4   9  11    0.52    0.17
   5  -9  11    0.28    0.16
   5  -9  11    0.35    0.18
   5  -9  11    0.50    0.19
   5   9  11    0.40    0.22
   6  -9  11    1.67    0.29
  -6  -9 -11    2.23    0.27
   6  -9  11    2.23    0.21
   6  -9  11    2.04    0.20
   6   9  11    1.93    0.21
   6   9  11    2.08    0.22
   7  -9  11    1.30    0.17
  -7  -9 -11    1.31    0.31
   7  -9  11    1.27    0.15
   7   9  11    1.31    0.16
   7   9  11    1.41    0.23
  -8 -10  11    0.80    0.17
  -8  10  11    0.98    0.15
  -7 -10  11    0.44    0.12
  -7  10  11    0.45    0.11
  -6 -10  11    0.32    0.15
  -6  10  11    0.34    0.12
  -6  10  11    0.34    0.19
  -5 -10  11    0.15    0.16
  -5  10  11    0.12    0.13
  -5  10  11    0.15    0.18
  -4 -10  11   -0.08    0.17
  -4 -10  11   -0.10    0.23
  -4  10  11   -0.05    0.18
  -4  10  11    0.18    0.16
  -3 -10  11    0.18    0.17
  -3  10  11   -0.04    0.16
  -3  10  11    0.01    0.14
  -3  10  11    0.14    0.21
  -2 -10  11    0.01    0.19
  -2  10  11   -0.10    0.14
  -2  10  11    0.19    0.18
  -2  10  11    0.21    0.15
  -1 -10  11   50.98    1.95
  -1 -10  11   52.26    1.96
  -1  10  11   49.81    1.94
  -1  10  11   51.03    1.94
  -1  10  11   50.60    1.95
   0 -10  11   17.04    0.76
   0 -10  11   18.76    0.78
   0  10  11   16.36    0.75
   0  10  11   16.44    0.75
   0  10  11   17.25    0.76
   1 -10  11    3.21    0.33
   1 -10  11    3.96    0.31
   1 -10  11    3.80    0.33
   1  10  11    3.58    0.33
   1  10  11    3.12    0.32
   1  10  11    3.67    0.29
   2 -10  11   21.35    0.91
   2 -10  11   20.28    0.91
   2 -10  11   21.11    0.89
   2  10  11   21.92    0.91
   2  10  11   21.23    0.91
   2  10  11   22.02    0.93
   2  10  11   21.58    0.90
   3 -10  11    1.24    0.26
   3 -10  11    1.45    0.24
   3 -10  11    1.22    0.24
   3  10  11    0.89    0.18
   3  10  11    1.02    0.24
   3  10  11    1.24    0.26
   4 -10  11    1.44    0.27
   4 -10  11    0.64    0.16
   4 -10  11    0.53    0.15
   4  10  11    0.47    0.16
   4  10  11    0.68    0.16
   4  10  11    0.61    0.15
  -5 -10 -11    0.06    0.12
   5 -10  11   -0.07    0.18
   5 -10  11   -0.25    0.12
   5 -10  11   -0.02    0.10
   5  10  11   -0.04    0.12
   5  10  11    0.02    0.12
   5  10  11    0.21    0.13
   6 -10  11    0.05    0.09
  -6 -10 -11    0.22    0.14
   6 -10  11    0.15    0.11
   6 -10  11    0.23    0.26
   6  10  11    0.18    0.11
   6  10  11    0.13    0.12
   7 -10  11    0.11    0.11
  -7 -10 -11    0.11    0.17
   7  10  11    0.27    0.10
  -8 -11  11   -0.05    0.20
  -7 -11  11    0.21    0.13
  -7  11  11    0.07    0.11
  -6 -11  11    1.64    0.25
  -6  11  11    1.85    0.21
  -5 -11  11    2.37    0.29
  -5 -11  11    1.62    0.31
  -5  11  11    2.06    0.24
  -5  11  11    2.28    0.30
  -4 -11  11    0.73    0.20
  -4 -11  11    1.12    0.43
  -4  11  11    0.72    0.18
  -4  11  11    0.90    0.16
  -3 -11  11   20.37    0.93
  -3  11  11   22.86    0.91
  -3  11  11   21.59    0.90
  -3  11  11   21.26    0.90
  -2 -11  11   13.44    0.66
  -2 -11  11   13.84    0.66
  -2  11  11   14.34    0.65
  -2  11  11   13.91    0.64
  -2  11  11   14.60    0.65
  -1 -11  11   19.89    0.92
  -1 -11  11   22.34    0.92
  -1  11  11   22.22    0.92
  -1  11  11   21.14    0.91
  -1  11  11   22.48    0.91
   0 -11  11   39.29    1.54
   0 -11  11   38.49    1.54
   0  11  11   40.12    1.53
   0  11  11   38.91    1.53
   0  11  11   39.01    1.53
   1 -11  11    0.09    0.18
   1 -11  11    0.05    0.15
   1 -11  11    0.03    0.15
   1  11  11    0.03    0.12
   1  11  11    0.15    0.15
   1  11  11    0.01    0.15
   2 -11  11    2.01    0.26
   2 -11  11    1.84    0.26
   2 -11  11    2.15    0.26
   2  11  11    1.71    0.34
   2  11  11    1.81    0.28
   2  11  11    2.16    0.28
   2  11  11    1.88    0.25
   3 -11  11   -0.04    0.13
   3 -11  11    0.15    0.16
   3 -11  11   -0.07    0.14
   3  11  11    0.27    0.15
   3  11  11    0.29    0.16
   3  11  11    0.08    0.17
   4 -11  11   17.90    0.79
   4 -11  11   17.33    0.84
   4  11  11   18.86    0.78
   5 -11  11    1.53    0.34
   5 -11  11    2.61    0.22
   5 -11  11    2.58    0.22
  -5 -11 -11    2.20    0.24
   5  11  11    1.99    0.22
   5  11  11    2.56    0.23
   5  11  11    2.63    0.23
   6 -11  11   -0.04    0.29
  -6 -11 -11   -0.01    0.12
   6 -11  11   -0.02    0.10
   6  11  11    0.11    0.10
   6  11  11    0.07    0.12
  -7 -11 -11    1.14    0.16
   7  11  11    1.07    0.14
  -7 -12  11    0.28    0.14
  -7  12  11    0.25    0.14
  -6 -12  11    3.71    0.30
  -6  12  11    3.73    0.26
  -5 -12  11    0.22    0.17
  -5 -12  11    0.40    0.19
  -5  12  11    0.52    0.19
  -5  12  11    0.10    0.14
  -4 -12  11    0.77    0.18
  -4  12  11    0.44    0.17
  -3 -12  11    0.29    0.16
  -3  12  11    0.37    0.17
  -3  12  11   -0.08    0.15
  -3  12  11    0.13    0.17
  -2 -12  11    0.26    0.16
  -2  12  11    0.10    0.15
  -2  12  11    0.02    0.15
  -2  12  11    0.03    0.15
  -1 -12  11    0.69    0.18
  -1 -12  11    0.51    0.19
  -1  12  11    0.45    0.15
  -1  12  11    0.41    0.18
  -1  12  11    0.58    0.17
   0 -12  11    0.78    0.18
   0 -12  11    1.04    0.20
   0  12  11    1.14    0.20
   0  12  11    1.23    0.26
   0  12  11    0.96    0.22
   1 -12  11    4.64    0.33
   1 -12  11    4.31    0.34
   1  12  11    4.43    0.35
   1  12  11    4.27    0.34
   1  12  11    4.44    0.31
   2 -12  11    0.09    0.15
   2 -12  11    0.19    0.14
   2 -12  11    0.36    0.15
   2  12  11    0.46    0.16
   2  12  11    0.13    0.21
   2  12  11    0.56    0.18
   2  12  11    0.35    0.14
   3 -12  11    2.71    0.26
   3 -12  11    2.06    0.27
   3 -12  11    1.98    0.24
   3  12  11    1.77    0.34
   3  12  11    2.45    0.27
   3  12  11    2.55    0.26
   4 -12  11    1.31    0.19
   4 -12  11    1.26    0.21
   4 -12  11    1.10    0.26
   4  12  11    1.37    0.22
   4  12  11    1.10    0.22
   4  12  11    1.62    0.20
   5 -12  11    0.78    0.19
  -5 -12 -11    0.95    0.19
   5 -12  11    0.66    0.16
   5  12  11    0.52    0.13
   5  12  11    0.55    0.13
   6 -12  11    0.08    0.10
  -6 -12 -11   -0.03    0.12
   6  12  11   -0.07    0.09
   6  12  11    0.07    0.12
  -6  13  11    1.59    0.24
  -5 -13  11    0.41    0.18
  -5  13  11    0.40    0.14
  -4 -13  11    0.02    0.17
  -4  13  11    0.05    0.14
  -4  13  11    0.08    0.17
  -3 -13  11    0.15    0.17
  -3  13  11   -0.15    0.16
  -3  13  11   -0.12    0.15
  -3  13  11    0.10    0.15
  -2 -13  11    1.31    0.26
  -2  13  11    1.19    0.27
  -2  13  11    1.11    0.26
  -2  13  11    1.58    0.24
  -1 -13  11    1.59    0.25
  -1 -13  11    1.81    0.27
  -1  13  11    1.86    0.28
  -1  13  11    1.41    0.27
  -1  13  11    1.45    0.24
   0 -13  11    4.53    0.34
   0 -13  11    4.37    0.33
   0  13  11    4.45    0.34
   0  13  11    4.13    0.34
   0  13  11    4.93    0.33
   1 -13  11    4.71    0.36
   1 -13  11    5.51    0.35
   1  13  11    5.56    0.34
   1  13  11    5.91    0.37
   1  13  11    5.37    0.36
   2 -13  11    8.75    0.45
   2 -13  11    8.27    0.46
   2  13  11    8.12    0.48
   2  13  11    8.64    0.44
   3 -13  11    5.30    0.32
   3 -13  11    5.07    0.34
   3  13  11    5.12    0.34
   3  13  11    5.05    0.32
   3  13  11    4.97    0.31
   4 -13  11    6.33    0.34
   4  13  11    6.17    0.35
   4  13  11    6.20    0.34
   4  13  11    6.22    0.34
   5 -13  11    0.10    0.09
  -5 -13 -11    0.05    0.10
   5 -13  11   -0.08    0.17
   5  13  11   -0.06    0.10
   5  13  11    0.08    0.10
   6 -13  11    0.68    0.16
  -6 -13 -11    1.00    0.17
   6  13  11    0.89    0.14
  -5 -14  11    1.47    0.30
  -5  14  11    1.06    0.26
  -4  14  11    3.25    0.30
  -3 -14  11    5.00    0.36
  -3  14  11    5.28    0.34
  -3  14  11    5.41    0.34
  -3  14  11    5.78    0.36
  -2 -14  11    1.41    0.26
  -2  14  11    1.57    0.26
  -2  14  11    1.60    0.22
  -2  14  11    1.82    0.27
  -1 -14  11    0.30    0.17
  -1  14  11    0.37    0.16
   0 -14  11    1.14    0.28
   0 -14  11    1.25    0.25
   0  14  11    1.27    0.30
   0  14  11    0.90    0.19
   0  14  11    0.98    0.22
   1 -14  11    8.04    0.45
   1  14  11    7.79    0.43
   2 -14  11    1.39    0.20
   2 -14  11    1.55    0.25
   2  14  11    1.41    0.25
   2  14  11    1.71    0.30
   2  14  11    0.98    0.19
   3 -14  11   -0.01    0.10
   3 -14  11    0.02    0.15
   3  14  11   -0.08    0.15
   3  14  11    0.12    0.10
   3  14  11   -0.01    0.14
   4 -14  11    0.93    0.24
  -4 -14 -11    0.98    0.17
   4 -14  11    0.88    0.16
   4  14  11    0.99    0.17
   4  14  11    0.95    0.19
   5 -14  11    1.92    0.19
  -5 -14 -11    2.10    0.19
   5  14  11    2.13    0.18
   5  14  11    2.19    0.18
  -4 -15  11    0.25    0.20
  -3 -15  11   -0.10    0.18
  -3  15  11    0.12    0.14
   3  15 -11    0.08    0.15
  -3  15  11    0.03    0.19
  -2 -15  11    0.29    0.16
  -2  15  11    0.39    0.16
  -2  15  11    0.30    0.19
  -2  15  11    0.36    0.13
  -1 -15  11    1.32    0.25
  -1  15  11    1.89    0.25
  -1  15  11    1.54    0.30
  -1  15  11    1.67    0.21
   0 -15  11    0.85    0.19
   0 -15  11    0.45    0.17
   0  15  11    0.68    0.16
   0  15  11    0.31    0.19
   1 -15  11    0.44    0.16
   1 -15  11    0.83    0.17
  -1  15 -11    0.37    0.19
   1  15  11    0.29    0.19
   1  15  11    0.43    0.12
   2 -15  11    0.44    0.12
   2 -15  11    0.50    0.16
   2  15  11    0.39    0.12
   2  15  11    0.23    0.19
   3 -15  11    6.83    0.39
   3 -15  11    6.65    0.35
   3  15  11    6.55    0.37
   3  15  11    6.81    0.34
   3  15  11    8.42    0.47
  -4 -15 -11    2.01    0.18
   4 -15  11    1.97    0.27
   4 -15  11    1.91    0.18
   4  15  11    1.68    0.17
   4  15  11    1.89    0.20
   5 -15  11    0.49    0.10
  -5 -15 -11    0.44    0.10
  -5  15 -11    0.77    0.12
   5  15  11    0.41    0.17
   5  15  11    0.58    0.12
  -3 -16  11    0.20    0.19
  -3  16  11   -0.05    0.11
   3  16 -11    0.31    0.14
  -2 -16  11    0.03    0.17
  -2  16  11    0.35    0.12
  -1 -16  11    2.18    0.27
  -1  16  11    2.25    0.20
   0 -16  11    0.90    0.18
   0  16  11    0.86    0.16
   1 -16  11    0.51    0.16
   1 -16  11    0.32    0.11
   1  16  11    0.33    0.10
   2 -16  11    2.27    0.20
   2 -16  11    2.54    0.26
  -2  16 -11    2.68    0.24
   2  16  11    2.95    0.21
   3 -16  11    2.18    0.26
  -3 -16 -11    1.67    0.18
   3 -16  11    1.71    0.16
   3  16  11    1.84    0.17
  -4 -16 -11    2.70    0.19
   4 -16  11    2.73    0.18
  -4  16 -11    2.57    0.18
   4  16  11    2.36    0.18
   3  17 -11    0.40    0.15
  -3  17  11    0.27    0.13
  -2 -17  11    1.65    0.31
   2  17 -11    1.37    0.19
  -2  17  11    1.47    0.17
  -1 -17  11    6.66    0.40
  -1  17  11    6.01    0.31
   0 -17  11    8.12    0.43
   0  17  11    7.31    0.36
   1 -17  11    0.18    0.17
   1  17  11    0.30    0.09
   2 -17  11    1.22    0.25
   2  17  11    1.54    0.16
  -3 -17 -11    0.17    0.10
  -3  17 -11    0.24    0.13
   3  17  11    0.20    0.09
  -2  18  11   10.09    0.44
   2  18 -11   11.01    0.45
  -1  18  11    2.48    0.18
   1  18 -11    2.52    0.19
  -1 -18 -11    0.57    0.15
   1  18  11    0.77    0.13
  -2 -18 -11    3.75    0.25
   2  18  11    3.57    0.20
  -9   0  12    2.75    0.21
  -9   0  12    2.67    0.20
  -8   0  12    1.10    0.19
   8   0 -12    1.30    0.24
  -8   0  12    0.87    0.19
   7   0 -12    0.15    0.16
  -7   0  12    0.11    0.18
  -7   0  12    0.19    0.14
  -6   0  12   22.73    0.97
  -6   0  12   23.72    0.98
  -5   0  12    2.56    0.31
  -5   0  12    2.37    0.31
  -4   0  12    0.46    0.18
  -4   0  12    0.41    0.19
  -3   0  12    3.53    0.34
  -3   0  12    3.96    0.37
  -3   0  12    4.05    0.35
  -2   0  12   24.29    0.99
  -2   0  12   24.66    1.00
  -2   0  12   22.98    0.99
  -1   0  12    7.87    0.47
  -1   0  12    7.48    0.46
  -1   0  12    6.70    0.48
   0   0  12    1.90    0.38
   0   0  12    2.47    0.41
   0   0  12    2.77    0.33
   1   0  12   26.07    1.13
   1   0  12   26.45    1.08
   1   0  12   26.81    1.09
   1   0  12   26.51    1.07
   2   0  12    0.37    0.16
   2   0  12    0.57    0.21
   2   0  12    0.36    0.20
   3   0  12    0.26    0.21
   3   0  12    0.18    0.15
   3   0  12    0.27    0.17
   4   0  12   17.85    0.77
   4   0  12   17.26    0.77
   4   0  12   17.77    0.79
   5   0  12    0.09    0.15
   5   0  12    0.30    0.17
   5   0  12    0.17    0.15
   6   0  12    0.14    0.13
   6   0  12    0.20    0.12
   7   0  12   41.97    1.56
   7   0  12   39.99    1.57
  -8   0 -12    5.57    0.29
   8   0  12    5.19    0.27
   8   0  12    4.97    0.27
  -9  -1  12    0.44    0.11
  -9  -1  12    0.33    0.12
  -9   1  12    0.43    0.12
  -9   1  12    0.37    0.10
  -8  -1  12   -0.02    0.12
  -8  -1  12    0.08    0.11
   8  -1 -12    0.29    0.16
  -8   1  12    0.12    0.12
  -8   1  12    0.38    0.12
   8   1 -12   -0.03    0.15
   7  -1 -12   -0.05    0.15
  -7  -1  12    0.18    0.20
  -7  -1  12    0.09    0.15
  -7   1  12    0.20    0.19
   7   1 -12    0.30    0.17
  -6  -1  12    1.69    0.28
   6  -1 -12    1.61    0.28
  -6  -1  12    2.34    0.29
  -6   1  12    1.65    0.29
  -6   1  12    1.84    0.26
  -5  -1  12    3.46    0.33
  -5  -1  12    3.00    0.33
  -5   1  12    3.44    0.32
  -5   1  12    3.21    0.30
  -4  -1  12    7.97    0.46
  -4  -1  12    7.63    0.46
  -4  -1  12    8.03    0.46
  -4   1  12    7.40    0.45
  -4   1  12    7.66    0.45
  -3  -1  12    5.38    0.39
  -3  -1  12    5.55    0.39
  -3  -1  12    5.51    0.41
  -3   1  12    5.42    0.39
  -3   1  12    5.46    0.39
  -2  -1  12   25.62    1.10
  -2  -1  12   27.90    1.11
  -2  -1  12   26.62    1.09
  -2   1  12   26.26    1.09
  -2   1  12   27.05    1.10
  -2   1  12   27.76    1.09
  -1  -1  12    4.72    0.38
  -1  -1  12    4.27    0.43
  -1  -1  12    4.77    0.41
  -1   1  12    4.89    0.39
  -1   1  12    4.78    0.38
   0  -1  12    1.28    0.26
   0  -1  12    1.11    0.29
   0  -1  12    1.21    0.25
   0  -1  12    0.84    0.30
   0   1  12    1.18    0.24
   0   1  12    1.36    0.31
   0   1  12    1.79    0.36
   1  -1  12   14.16    0.72
   1  -1  12   15.79    0.70
   1  -1  12   14.99    0.72
   1   1  12   15.31    0.71
   1   1  12   15.68    0.73
   1   1  12   15.85    0.70
   1   1  12   15.66    0.74
   2  -1  12    1.09    0.25
   2  -1  12    1.25    0.29
   2  -1  12    0.96    0.24
   2   1  12    1.06    0.21
   2   1  12    1.16    0.20
   2   1  12    1.20    0.29
   3  -1  12   13.01    0.60
   3  -1  12   12.73    0.61
   3  -1  12   12.46    0.64
   3   1  12   12.06    0.60
   3   1  12   12.58    0.61
   3   1  12   12.79    0.59
   4  -1  12    0.40    0.16
   4  -1  12    0.25    0.16
   4  -1  12    0.78    0.21
   4   1  12    0.37    0.18
   4   1  12    0.25    0.17
   4   1  12    0.50    0.15
   5  -1  12    0.62    0.16
   5  -1  12    0.28    0.16
   5   1  12    0.25    0.15
   5   1  12    0.76    0.18
   5   1  12    0.42    0.16
   6  -1  12    2.45    0.25
   6  -1  12    2.34    0.25
   6   1  12    2.03    0.23
   6   1  12    2.09    0.25
   7  -1  12    0.37    0.12
   7  -1  12    0.44    0.11
  -7   1 -12    0.24    0.15
   7   1  12    0.30    0.12
   7   1  12    0.53    0.12
   8  -1  12    0.32    0.11
   8  -1  12    0.22    0.11
  -8  -1 -12    0.34    0.12
   8   1  12    0.28    0.12
   8   1  12    0.19    0.10
  -9  -2  12    1.54    0.23
  -9  -2  12    1.65    0.18
  -9   2  12    1.73    0.16
  -9   2  12    1.41    0.22
  -8  -2  12    0.24    0.14
  -8  -2  12    0.20    0.11
   8  -2 -12    0.45    0.17
  -8   2  12    0.31    0.13
   8   2 -12    0.35    0.16
  -8   2  12    0.09    0.11
   7  -2 -12    0.01    0.16
  -7  -2  12   -0.03    0.15
   7   2 -12    0.04    0.16
  -7   2  12    0.09    0.14
   6  -2 -12    7.97    0.46
  -6  -2  12    8.50    0.47
  -6  -2  12    7.65    0.46
  -6   2  12    7.96    0.46
  -6   2  12    8.75    0.46
  -5  -2  12   14.56    0.66
  -5  -2  12   14.64    0.67
  -5   2  12   12.86    0.64
  -5   2  12   13.90    0.66
  -4  -2  12    1.82    0.29
  -4  -2  12    2.12    0.34
  -4  -2  12    1.81    0.31
  -4   2  12    1.17    0.21
  -4   2  12    1.44    0.28
  -3  -2  12    0.22    0.19
  -3  -2  12    0.12    0.22
  -3  -2  12    0.51    0.18
  -3   2  12    0.21    0.17
  -3   2  12    0.40    0.19
  -2  -2  12   18.90    0.80
  -2  -2  12   18.95    0.84
  -2  -2  12   18.31    0.82
  -2   2  12   18.66    0.80
  -2   2  12   17.53    0.80
  -1  -2  12   13.53    0.70
  -1  -2  12   13.98    0.65
  -1  -2  12   14.08    0.71
  -1   2  12   13.69    0.65
  -1   2  12   14.70    0.65
   0  -2  12   33.42    1.30
   0  -2  12   31.64    1.32
   0  -2  12   33.93    1.36
   0   2  12   34.08    1.31
   0   2  12   32.34    1.31
   0   2  12   32.84    1.31
   1  -2  12   10.42    0.56
   1  -2  12   10.92    0.55
   1   2  12   10.97    0.60
   1   2  12    9.82    0.57
   1   2  12   10.73    0.54
   1   2  12   10.71    0.53
   2  -2  12    1.00    0.21
   2  -2  12    0.77    0.27
   2  -2  12    0.71    0.18
   2   2  12    0.83    0.22
   2   2  12    0.39    0.17
   2   2  12    0.72    0.18
   2   2  12    0.78    0.26
   3  -2  12    0.72    0.18
   3  -2  12    0.53    0.19
   3  -2  12    0.32    0.27
   3   2  12    0.78    0.20
   3   2  12    1.06    0.23
   3   2  12    0.58    0.18
   4  -2  12   12.71    0.61
   4  -2  12   12.20    0.65
   4  -2  12   13.68    0.63
   4   2  12   13.11    0.62
   4   2  12   13.72    0.63
   4   2  12   13.31    0.61
   5  -2  12    3.17    0.29
   5  -2  12    2.80    0.27
   5   2  12    3.12    0.28
   5   2  12    3.06    0.29
   5   2  12    2.49    0.30
   6  -2  12    2.08    0.23
   6  -2  12    1.85    0.25
   6   2  12    2.12    0.24
   6   2  12    1.94    0.27
   7  -2  12    4.33    0.27
   7  -2  12    4.22    0.28
   7   2  12    4.10    0.28
   7   2  12    4.56    0.28
  -7   2 -12    4.31    0.32
   8  -2  12    0.40    0.12
   8  -2  12    0.26    0.10
  -8  -2 -12    0.07    0.10
   8   2  12    0.51    0.13
   8   2  12    0.16    0.10
  -9  -3  12    2.67    0.20
  -9   3  12    2.75    0.18
  -9   3  12    2.91    0.28
   8  -3 -12    4.91    0.35
  -8  -3  12    5.04    0.29
  -8  -3  12    4.75    0.32
  -8   3  12    4.98    0.30
   8   3 -12    4.87    0.34
  -8   3  12    4.90    0.29
  -7  -3  12   -0.11    0.13
  -7  -3  12    0.13    0.16
   7  -3 -12    0.18    0.17
  -7   3  12    0.20    0.13
  -7   3  12    0.32    0.15
  -6  -3  12    5.61    0.38
   6  -3 -12    5.04    0.38
  -6  -3  12    4.99    0.40
  -6   3  12    5.05    0.36
  -6   3  12    5.65    0.38
  -5  -3  12    0.19    0.23
  -5  -3  12    0.08    0.17
  -5   3  12    0.53    0.18
  -5   3  12    0.38    0.15
  -4  -3  12   29.54    1.24
  -4  -3  12   31.21    1.23
  -4  -3  12   31.47    1.25
  -4   3  12   30.71    1.23
  -4   3  12   30.15    1.23
  -3  -3  12   45.71    1.81
  -3  -3  12   47.97    1.85
  -3   3  12   46.24    1.82
  -3   3  12   48.29    1.92
  -2  -3  12    0.29    0.22
  -2  -3  12    0.41    0.17
  -2   3  12    0.35    0.17
  -2   3  12    0.30    0.15
  -1  -3  12   15.97    0.69
  -1  -3  12   14.44    0.77
  -1   3  12   15.74    0.70
  -1   3  12   15.32    0.69
   0  -3  12    1.19    0.28
   0  -3  12    1.64    0.28
   0   3  12    1.53    0.24
   0   3  12    1.01    0.19
   0   3  12    0.79    0.23
   1  -3  12    9.24    0.51
   1  -3  12    9.35    0.52
   1  -3  12    9.47    0.52
   1   3  12   10.20    0.50
   1   3  12    9.21    0.57
   1   3  12    9.52    0.50
   1   3  12    9.87    0.54
   2  -3  12   19.86    0.83
   2  -3  12   19.90    0.84
   2   3  12   20.28    0.86
   2   3  12   19.74    0.87
   2   3  12   17.71    0.92
   3  -3  12    7.02    0.41
   3  -3  12    7.36    0.43
   3   3  12    7.50    0.41
   3   3  12    5.36    0.51
   3   3  12    7.46    0.43
   3   3  12    7.05    0.43
   4  -3  12    3.82    0.32
   4  -3  12    3.47    0.30
   4   3  12    3.91    0.33
   4   3  12    3.82    0.32
   4   3  12    3.90    0.31
   5  -3  12    0.99    0.22
   5  -3  12    0.96    0.22
   5   3  12    0.64    0.17
   5   3  12    0.30    0.16
   5   3  12    0.61    0.18
   7  -3  12    1.62    0.18
   7  -3  12    1.65    0.20
   7   3  12    1.51    0.19
   7   3  12    1.50    0.20
  -8  -3 -12    0.07    0.09
   8  -3  12    0.01    0.10
   8  -3  12   -0.02    0.10
   8   3  12    0.05    0.13
   8   3  12    0.01    0.10
  -9  -4  12    1.00    0.15
  -9   4  12    0.81    0.13
  -8  -4  12    0.09    0.11
   8  -4 -12   -0.02    0.16
  -8   4  12   -0.07    0.10
   8   4 -12    0.15    0.15
  -8   4  12    0.07    0.12
  -7  -4  12    2.38    0.26
   7  -4 -12    2.31    0.30
  -7  -4  12    1.90    0.32
  -7   4  12    2.36    0.24
  -7   4  12    2.28    0.25
   6  -4 -12   31.39    1.34
  -6  -4  12   34.07    1.34
  -6  -4  12   33.01    1.34
  -6   4  12   35.67    1.35
  -6   4  12   35.06    1.34
  -5  -4  12    0.43    0.17
  -5  -4  12    0.20    0.18
   5  -4 -12    0.20    0.19
  -5   4  12    0.17    0.15
  -5   4  12    0.02    0.16
  -4  -4  12    0.26    0.17
   4  -4 -12    0.47    0.21
  -4  -4  12    0.25    0.18
  -4   4  12    0.55    0.18
  -4   4  12    0.35    0.16
  -3  -4  12    0.44    0.26
  -3  -4  12    0.07    0.18
  -3   4  12    0.29    0.18
  -3   4  12    0.24    0.16
  -2  -4  12    2.09    0.28
  -2  -4  12    2.55    0.39
  -2   4  12    2.34    0.28
  -2   4  12    1.60    0.27
  -1  -4  12   18.97    0.81
  -1   4  12   19.10    0.82
  -1   4  12   18.86    0.81
  -1   4  12   18.61    0.84
   0  -4  12   24.69    0.97
   0  -4  12   22.44    0.99
   0   4  12   23.41    0.98
   0   4  12   23.43    0.98
   0   4  12   23.56    0.98
   1  -4  12    0.86    0.21
   1  -4  12    0.59    0.20
   1  -4  12    1.06    0.21
   1   4  12    0.73    0.20
   1   4  12    0.25    0.26
   1   4  12    0.63    0.17
   1   4  12    0.47    0.17
   2  -4  12    6.58    0.43
   2  -4  12    7.12    0.44
   2  -4  12    7.92    0.47
   2   4  12    7.65    0.42
   2   4  12    7.79    0.44
   2   4  12    8.44    0.47
   3  -4  12    8.11    0.41
   3  -4  12    6.89    0.41
   3   4  12    5.56    0.47
   3   4  12    6.91    0.40
   3   4  12    6.68    0.42
   3   4  12    6.59    0.42
   4  -4  12    0.33    0.15
   4  -4  12    0.42    0.15
   4   4  12    0.46    0.17
   4   4  12    0.36    0.16
   4   4  12    0.35    0.15
   5  -4  12    1.05    0.22
   5  -4  12    0.60    0.15
   5   4  12    1.00    0.23
   5   4  12    0.49    0.17
   5   4  12    1.00    0.22
   6  -4  12    1.49    0.20
   6  -4  12    1.73    0.22
   6   4  12    0.90    0.20
   6   4  12    1.13    0.20
   7  -4  12    0.07    0.11
   7  -4  12    0.02    0.09
   7   4  12   -0.02    0.11
   7   4  12    0.12    0.12
  -8  -4 -12    0.19    0.09
   8  -4  12    0.25    0.10
   8  -4  12    0.34    0.10
   8   4  12    0.20    0.08
  -9  -5  12    1.15    0.15
  -9   5  12    0.84    0.13
   8  -5 -12    0.81    0.20
  -8  -5  12    1.17    0.18
   8   5 -12    1.28    0.27
  -8   5  12    1.26    0.22
  -8   5  12    1.17    0.17
  -7  -5  12    2.37    0.25
   7  -5 -12    2.17    0.31
  -7   5  12    2.21    0.23
  -7   5  12    2.56    0.25
   6  -5 -12    0.48    0.20
  -6  -5  12    0.37    0.16
  -6   5  12    0.53    0.16
  -6   5  12    0.63    0.17
  -5  -5  12    3.71    0.32
   5  -5 -12    2.68    0.36
  -5  -5  12    2.78    0.32
  -5   5  12    2.87    0.31
  -5   5  12    3.35    0.29
  -4  -5  12   22.17    0.93
   4  -5 -12   21.28    0.93
  -4  -5  12   20.78    0.91
  -4   5  12   22.11    0.91
  -4   5  12   20.75    0.90
  -3  -5  12    3.15    0.40
  -3  -5  12    3.63    0.32
  -3   5  12    3.16    0.30
  -3   5  12    2.83    0.30
  -2  -5  12    9.77    0.49
  -2  -5  12    8.10    0.56
  -2   5  12    8.83    0.52
  -2   5  12    9.10    0.56
  -1  -5  12    1.31    0.25
  -1   5  12    1.21    0.21
  -1   5  12    1.21    0.28
  -1   5  12    1.34    0.24
   0  -5  12    1.55    0.33
   0  -5  12    1.49    0.26
   0   5  12    1.43    0.28
   0   5  12    1.62    0.21
   0   5  12    1.40    0.29
   1  -5  12    1.11    0.28
   1  -5  12    1.74    0.30
   1  -5  12    1.75    0.30
   1   5  12    1.59    0.27
   1   5  12    1.44    0.32
   2  -5  12   21.40    0.88
   2  -5  12   20.61    0.89
   2  -5  12   20.41    0.86
   2   5  12   20.40    0.88
   2   5  12   21.25    0.89
   2   5  12   19.47    0.86
   2   5  12   20.15    0.88
   3  -5  12    5.85    0.38
   3  -5  12    5.15    0.43
   3  -5  12    5.78    0.36
   3   5  12    4.89    0.42
   3   5  12    5.56    0.38
   3   5  12    5.53    0.36
   3   5  12    5.78    0.39
   4  -5  12    4.25    0.32
   4  -5  12    4.18    0.32
   4   5  12    4.24    0.32
   4   5  12    4.35    0.34
   4   5  12    4.15    0.33
   5  -5  12    4.81    0.33
   5  -5  12    4.59    0.34
   5   5  12    5.11    0.33
   5   5  12    4.85    0.35
   5   5  12    5.03    0.35
   6  -5  12    0.93    0.20
   6  -5  12    0.88    0.18
   6   5  12    0.90    0.20
   6   5  12    0.57    0.14
   7  -5  12    2.77    0.22
   7  -5  12    2.54    0.20
   7   5  12    2.90    0.22
   7   5  12    2.52    0.21
   8  -5  12    1.87    0.17
  -8  -5 -12    1.92    0.16
   8  -5  12    1.99    0.18
   8   5  12    1.88    0.16
  -9   6  12    1.12    0.14
  -8  -6  12    0.00    0.10
   8  -6 -12    0.22    0.24
  -8   6  12    0.06    0.09
   8   6 -12    0.24    0.17
  -8   6  12   -0.04    0.16
  -7  -6  12   -0.08    0.12
   7  -6 -12    0.06    0.23
  -7   6  12    0.14    0.14
  -7   6  12    0.14    0.11
   6  -6 -12    0.30    0.21
  -6  -6  12    0.34    0.16
  -6   6  12    1.03    0.25
  -6   6  12    0.16    0.13
  -5  -6  12    0.82    0.19
  -5  -6  12    1.16    0.27
   5  -6 -12    0.97    0.24
  -5   6  12    0.71    0.17
  -5   6  12    0.57    0.16
  -4  -6  12   10.08    0.52
  -4   6  12    9.76    0.51
  -4   6  12    9.27    0.50
  -3  -6  12    3.02    0.31
  -3  -6  12    3.09    0.41
  -3   6  12    3.61    0.32
  -3   6  12    3.34    0.29
  -2  -6  12   43.92    1.67
  -2  -6  12   42.68    1.68
  -2   6  12   42.83    1.66
  -2   6  12   41.58    1.65
  -1  -6  12    4.45    0.34
  -1  -6  12    4.48    0.43
  -1   6  12    4.69    0.39
  -1   6  12    5.16    0.34
  -1   6  12    4.76    0.36
   0  -6  12    8.33    0.50
   0  -6  12    9.17    0.47
   0   6  12    8.37    0.46
   0   6  12    8.45    0.48
   0   6  12    8.08    0.47
   1  -6  12    3.19    0.32
   1  -6  12    3.72    0.32
   1   6  12    3.13    0.30
   1   6  12    3.31    0.34
   1   6  12    2.83    0.29
   2  -6  12   -0.06    0.15
   2  -6  12    0.03    0.16
   2  -6  12    0.12    0.18
   2   6  12    0.17    0.18
   2   6  12   -0.06    0.15
   2   6  12    0.13    0.17
   2   6  12   -0.16    0.19
   3  -6  12   11.11    0.57
   3  -6  12   11.10    0.53
   3  -6  12   10.69    0.55
   3   6  12   10.52    0.56
   3   6  12   11.37    0.54
   3   6  12   10.52    0.56
   3   6  12   10.69    0.54
   4  -6  12   11.68    0.57
   4  -6  12   11.55    0.61
   4  -6  12   10.85    0.55
   4   6  12   11.59    0.55
   4   6  12   11.57    0.57
   4   6  12   11.79    0.57
   5  -6  12    0.02    0.13
   5  -6  12    0.30    0.14
   5   6  12    0.02    0.14
   5   6  12    0.15    0.16
   5   6  12   -0.12    0.13
   6  -6  12    4.03    0.26
   6  -6  12    4.20    0.28
   6   6  12    4.18    0.28
   6   6  12    3.80    0.27
   7  -6  12    1.22    0.16
   7  -6  12    1.05    0.17
   7   6  12    1.01    0.18
   7   6  12    1.42    0.18
  -8  -6 -12    0.60    0.13
   8   6  12    0.34    0.09
  -8  -7  12    3.28    0.22
  -8   7  12    3.41    0.21
   8   7 -12    3.32    0.32
   7  -7 -12    1.95    0.37
  -7  -7  12    2.10    0.23
  -7   7  12    1.85    0.20
  -7   7  12    1.77    0.25
   6  -7 -12    0.58    0.24
  -6   7  12    0.26    0.15
  -6   7  12    0.28    0.19
  -5  -7  12    7.16    0.46
  -5  -7  12    7.92    0.46
  -5   7  12    8.11    0.44
  -5   7  12    8.97    0.47
  -4  -7  12    0.26    0.17
  -4  -7  12    0.28    0.20
  -4   7  12    0.05    0.17
  -4   7  12   -0.03    0.13
  -3  -7  12    0.62    0.19
  -3  -7  12    2.27    0.40
  -3   7  12    1.16    0.24
  -3   7  12    0.82    0.18
  -2  -7  12   28.45    1.15
  -2   7  12   27.88    1.14
  -2   7  12   28.28    1.14
  -2   7  12   27.98    1.15
  -1  -7  12    2.97    0.39
  -1  -7  12    3.93    0.32
  -1   7  12    3.33    0.35
  -1   7  12    3.65    0.33
  -1   7  12    3.74    0.31
   0  -7  12   11.21    0.55
   0  -7  12   10.62    0.56
   0   7  12   10.44    0.54
   0   7  12   11.57    0.55
   0   7  12   10.73    0.54
   1  -7  12    4.48    0.35
   1  -7  12    4.75    0.38
   1  -7  12    4.99    0.35
   1   7  12    4.76    0.36
   1   7  12    4.63    0.34
   1   7  12    4.30    0.34
   2  -7  12   13.13    0.64
   2  -7  12   13.33    0.63
   2  -7  12   13.45    0.64
   2   7  12   13.48    0.64
   2   7  12   13.52    0.65
   2   7  12   14.69    0.67
   2   7  12   13.77    0.64
   3  -7  12    6.55    0.39
   3  -7  12    6.50    0.40
   3  -7  12    6.62    0.43
   3   7  12    6.85    0.41
   3   7  12    6.68    0.43
   3   7  12    6.64    0.39
   3   7  12    6.88    0.42
   4  -7  12    6.16    0.37
   4  -7  12    6.02    0.38
   4  -7  12    5.67    0.43
   4   7  12    6.25    0.37
   4   7  12    6.18    0.39
   4   7  12    6.33    0.39
   5  -7  12    0.47    0.13
   5  -7  12    0.68    0.16
   5   7  12    0.33    0.14
   5   7  12    0.42    0.14
   5   7  12    0.27    0.15
   6  -7  12   -0.02    0.09
  -6  -7 -12   -0.35    0.19
   6  -7  12    0.04    0.11
   6   7  12    0.21    0.12
   6   7  12   -0.11    0.11
   7  -7  12    0.30    0.09
   7  -7  12    0.23    0.10
   7   7  12    0.17    0.10
   7   7  12    0.38    0.17
  -8   8  12    0.32    0.14
  -7  -8  12    2.49    0.24
  -7   8  12    2.58    0.22
  -7   8  12    2.97    0.28
  -6  -8  12    2.25    0.27
  -6   8  12    2.35    0.23
  -6   8  12    3.31    0.28
  -5  -8  12    3.68    0.33
  -5  -8  12    4.02    0.35
  -5   8  12    4.01    0.33
  -5   8  12    3.92    0.30
  -4  -8  12    0.16    0.20
  -4  -8  12    0.37    0.18
  -4   8  12    0.28    0.16
  -4   8  12    0.05    0.16
  -3  -8  12   15.50    0.75
  -3  -8  12   12.38    0.75
  -3   8  12   15.17    0.67
  -3   8  12   15.90    0.68
  -2  -8  12   -0.10    0.15
  -2   8  12    0.26    0.16
  -2   8  12    0.05    0.20
  -2   8  12    0.12    0.14
  -1  -8  12   12.24    0.59
  -1  -8  12   11.50    0.60
  -1   8  12   12.37    0.58
  -1   8  12   11.46    0.57
  -1   8  12   11.83    0.58
   0  -8  12    5.53    0.38
   0  -8  12    5.35    0.39
   0   8  12    5.57    0.37
   0   8  12    5.46    0.36
   0   8  12    5.14    0.37
   1  -8  12   -0.17    0.16
   1  -8  12    0.16    0.17
   1  -8  12    0.15    0.16
   1   8  12    0.52    0.17
   1   8  12   -0.10    0.14
   1   8  12   -0.21    0.16
   2  -8  12    8.43    0.46
   2  -8  12    8.35    0.47
   2   8  12    9.07    0.46
   2   8  12    7.94    0.46
   2   8  12    8.48    0.49
   2   8  12    8.25    0.47
   3  -8  12    3.27    0.34
   3  -8  12    3.53    0.30
   3  -8  12    3.29    0.29
   3   8  12    3.87    0.32
   3   8  12    3.19    0.29
   3   8  12    3.18    0.33
   3   8  12    3.86    0.34
   4  -8  12   14.35    0.67
   4  -8  12   13.41    0.68
   4  -8  12   15.13    0.65
   4   8  12   15.35    0.66
   4   8  12   14.68    0.67
   4   8  12   14.74    0.67
   5  -8  12    5.81    0.44
   5  -8  12    5.88    0.35
   5  -8  12    5.19    0.33
   5   8  12    6.24    0.36
   5   8  12    5.92    0.34
   5   8  12    5.63    0.34
   6  -8  12    0.92    0.16
  -6  -8 -12    1.06    0.19
   6  -8  12    0.73    0.17
   6   8  12    1.04    0.19
   6   8  12    1.02    0.18
   7  -8  12    0.52    0.12
   7  -8  12    0.53    0.14
   7   8  12    0.41    0.13
   7   8  12    0.22    0.09
  -8  -9  12   -0.10    0.10
  -8   9  12    0.06    0.09
  -7  -9  12    0.92    0.20
  -7   9  12    0.69    0.15
  -6  -9  12    1.20    0.23
  -6   9  12    0.84    0.17
  -6   9  12    1.06    0.19
  -5  -9  12   -0.07    0.15
  -5   9  12   -0.04    0.16
  -5   9  12   -0.04    0.12
  -4  -9  12    0.34    0.22
  -4  -9  12    0.18    0.16
  -4   9  12    0.31    0.17
  -4   9  12    0.30    0.15
  -3  -9  12   11.24    0.59
  -3   9  12   11.65    0.57
  -3   9  12   11.92    0.56
  -2  -9  12    8.93    0.62
  -2  -9  12   11.26    0.59
  -2   9  12   10.74    0.55
  -2   9  12   11.23    0.54
  -2   9  12   10.97    0.53
  -1  -9  12    4.13    0.34
  -1  -9  12    3.71    0.35
  -1   9  12    3.39    0.32
  -1   9  12    3.62    0.32
  -1   9  12    3.45    0.31
   0  -9  12    0.37    0.18
   0  -9  12    0.68    0.19
   0   9  12    0.65    0.17
   0   9  12    0.49    0.17
   0   9  12    0.34    0.15
   1  -9  12    4.21    0.33
   1  -9  12    4.21    0.37
   1   9  12    3.66    0.31
   1   9  12    4.42    0.33
   1   9  12    4.13    0.32
   2  -9  12   48.10    1.84
   2  -9  12   45.94    1.83
   2  -9  12   47.14    1.82
   2   9  12   47.38    1.83
   2   9  12   48.84    1.84
   2   9  12   47.79    1.84
   2   9  12   48.43    1.83
   3  -9  12    2.13    0.29
   3  -9  12    1.61    0.25
   3  -9  12    2.11    0.25
   3   9  12    2.03    0.26
   3   9  12    1.41    0.24
   3   9  12    1.42    0.28
   3   9  12    2.36    0.29
   4  -9  12    4.18    0.29
   4  -9  12    3.59    0.30
   4  -9  12    3.77    0.36
   4   9  12    4.34    0.32
   4   9  12    4.06    0.31
   4   9  12    4.01    0.29
   5  -9  12    3.63    0.28
  -5  -9 -12    4.02    0.29
   5  -9  12    4.53    0.27
   5  -9  12    2.73    0.46
   5   9  12    3.99    0.28
   5   9  12    3.97    0.27
   5   9  12    3.93    0.28
   6  -9  12    0.81    0.14
  -6  -9 -12    0.26    0.15
   6  -9  12    0.47    0.12
   6   9  12    0.49    0.12
   6   9  12    0.69    0.16
   7  -9  12    0.31    0.11
   7   9  12    0.56    0.23
   7   9  12    0.44    0.10
  -7 -10  12    3.80    0.26
  -7  10  12    3.81    0.23
  -6 -10  12    1.40    0.24
  -6  10  12    1.37    0.26
  -6  10  12    1.10    0.19
  -5 -10  12   -0.09    0.17
  -5 -10  12    0.25    0.17
  -5  10  12    0.11    0.12
  -5  10  12    0.28    0.15
  -4 -10  12    2.84    0.30
  -4  10  12    3.02    0.30
  -4  10  12    2.29    0.26
  -3 -10  12    0.31    0.17
  -3  10  12    0.45    0.15
  -3  10  12    0.37    0.17
  -2 -10  12    0.65    0.17
  -2 -10  12    0.14    0.20
  -2  10  12    0.42    0.16
  -2  10  12    0.33    0.15
  -2  10  12    0.37    0.19
  -1 -10  12   51.87    2.09
  -1 -10  12   55.88    2.09
  -1  10  12   56.22    2.09
  -1  10  12   56.59    2.08
  -1  10  12   53.48    2.08
   0 -10  12    0.18    0.16
   0 -10  12   -0.05    0.16
   0  10  12    0.20    0.15
   0  10  12   -0.02    0.14
   0  10  12   -0.12    0.15
   1 -10  12    6.45    0.40
   1 -10  12    6.70    0.42
   1 -10  12    7.63    0.43
   1  10  12    6.48    0.41
   1  10  12    7.33    0.41
   1  10  12    6.87    0.41
   2 -10  12   29.14    1.15
   2 -10  12   26.50    1.17
   2 -10  12   29.53    1.18
   2  10  12   29.31    1.16
   2  10  12   29.40    1.18
   2  10  12   29.48    1.17
   2  10  12   28.89    1.16
   3 -10  12   -0.02    0.13
   3 -10  12   -0.13    0.15
   3 -10  12    0.17    0.15
   3  10  12    0.09    0.15
   3  10  12   -0.10    0.16
   3  10  12   -0.06    0.14
   4 -10  12    2.31    0.22
   4 -10  12    2.44    0.30
   4  10  12    1.88    0.33
   4  10  12    2.51    0.28
   4  10  12    2.39    0.26
   5 -10  12   11.01    0.49
   5 -10  12   10.84    0.56
  -5 -10 -12   10.77    0.50
   5 -10  12   11.06    0.50
   5  10  12   11.01    0.51
   5  10  12   10.21    0.49
   5  10  12   11.19    0.50
   6 -10  12    0.11    0.10
   6 -10  12    0.03    0.08
  -6 -10 -12    0.08    0.14
   6  10  12   -0.07    0.09
   6  10  12    0.06    0.11
   7 -10  12    0.30    0.11
  -7 -10 -12    0.30    0.10
   7  10  12    0.27    0.09
  -7 -11  12    0.36    0.13
  -7  11  12    0.40    0.12
  -6 -11  12    0.20    0.16
  -6  11  12    0.13    0.11
  -5 -11  12    0.13    0.17
  -5 -11  12    0.54    0.20
  -5  11  12    0.23    0.15
  -5  11  12    0.26    0.12
  -4 -11  12    0.17    0.16
  -4  11  12   -0.06    0.19
  -3 -11  12    0.38    0.17
  -3  11  12    0.55    0.17
  -3  11  12    0.32    0.20
  -3  11  12    0.53    0.16
  -2 -11  12    0.49    0.17
  -2 -11  12    0.42    0.20
  -2  11  12    0.12    0.14
  -2  11  12    0.27    0.16
  -2  11  12    0.62    0.18
  -1 -11  12    5.00    0.36
  -1 -11  12    5.34    0.38
  -1  11  12    5.19    0.35
  -1  11  12    5.66    0.36
  -1  11  12    4.98    0.36
   0 -11  12    5.94    0.38
   0 -11  12    5.68    0.38
   0  11  12    6.30    0.39
   0  11  12    5.67    0.37
   0  11  12    5.87    0.38
   1 -11  12    7.56    0.44
   1 -11  12    7.33    0.44
   1 -11  12    7.34    0.44
   1  11  12    7.48    0.42
   1  11  12    8.69    0.44
   1  11  12    7.60    0.43
   2 -11  12    4.58    0.33
   2 -11  12    4.52    0.33
   2 -11  12    4.73    0.35
   2  11  12    4.81    0.33
   2  11  12    4.76    0.40
   2  11  12    5.09    0.35
   2  11  12    4.66    0.34
   3 -11  12    0.22    0.13
   3 -11  12    0.16    0.16
   3  11  12    0.24    0.15
   3  11  12    0.30    0.16
   3  11  12    0.00    0.12
   4 -11  12    2.09    0.22
   4 -11  12    2.00    0.21
   4 -11  12    2.27    0.28
   4  11  12    1.76    0.22
   4  11  12    1.79    0.23
   4  11  12    1.66    0.21
   5 -11  12   -0.24    0.21
   5 -11  12    0.03    0.10
  -5 -11 -12   -0.01    0.11
   5 -11  12    0.04    0.09
   5  11  12    0.01    0.11
   5  11  12    0.22    0.11
   5  11  12    0.03    0.11
  -6 -11 -12   -0.13    0.12
   6 -11  12   -0.09    0.09
   6  11  12    0.00    0.09
   6  11  12   -0.25    0.11
  -6 -12  12    3.65    0.32
  -6  12  12    3.30    0.23
  -5 -12  12   -0.16    0.27
  -5  12  12    0.07    0.12
  -5  12  12    0.06    0.17
  -4 -12  12    0.20    0.17
  -4  12  12    0.09    0.13
  -4  12  12    0.23    0.14
  -3 -12  12    2.08    0.27
  -3  12  12    2.01    0.29
  -2 -12  12    0.47    0.17
  -2  12  12    0.28    0.16
  -2  12  12    0.34    0.16
  -2  12  12    0.29    0.16
  -1 -12  12   14.30    0.71
  -1 -12  12   16.12    0.70
  -1  12  12   15.64    0.69
  -1  12  12   16.15    0.69
  -1  12  12   15.99    0.69
   0 -12  12    0.14    0.14
   0 -12  12    0.02    0.15
   0  12  12    0.26    0.15
   0  12  12   -0.01    0.13
   0  12  12    0.35    0.16
   1 -12  12   13.30    0.65
   1 -12  12   13.87    0.64
   1  12  12   14.87    0.64
   1  12  12   13.78    0.63
   1  12  12   13.65    0.63
   2 -12  12    8.81    0.45
   2 -12  12    8.06    0.46
   2  12  12    8.66    0.46
   2  12  12    7.93    0.48
   2  12  12    8.55    0.44
   2  12  12    8.80    0.44
   3 -12  12    0.00    0.12
   3 -12  12   -0.02    0.11
   3 -12  12    0.06    0.15
   3  12  12   -0.12    0.11
   3  12  12    0.04    0.13
   3  12  12   -0.14    0.15
   4 -12  12    5.86    0.39
   4 -12  12    6.22    0.33
   4  12  12    6.01    0.33
   4  12  12    5.77    0.32
   4  12  12    5.61    0.34
   5 -12  12    0.32    0.10
   5 -12  12    0.12    0.22
  -5 -12 -12    0.04    0.11
   5  12  12    0.43    0.11
   5  12  12    0.40    0.12
   6 -12  12    5.14    0.26
  -6 -12 -12    5.49    0.28
   6  12  12    5.20    0.26
   6  12  12    4.65    0.28
  -6  13  12   -0.17    0.16
  -5 -13  12    0.04    0.17
  -5  13  12   -0.19    0.12
  -4 -13  12   17.07    0.76
  -4  13  12   17.20    0.72
  -4  13  12   17.59    0.72
  -3 -13  12    2.69    0.29
  -3  13  12    2.96    0.27
  -3  13  12    2.69    0.27
  -3  13  12    2.85    0.26
  -2 -13  12    0.68    0.17
  -2  13  12    0.49    0.15
  -2  13  12    0.77    0.16
  -2  13  12    0.70    0.15
  -1 -13  12    3.79    0.33
  -1 -13  12    3.30    0.31
  -1  13  12    3.76    0.32
   0 -13  12   11.40    0.59
   0  13  12   13.42    0.59
   0  13  12   12.93    0.58
   1 -13  12    0.28    0.20
   1 -13  12    0.25    0.16
   1  13  12    0.10    0.14
   2 -13  12   18.69    0.79
   2 -13  12   18.57    0.80
   2  13  12   18.46    0.78
   2  13  12   18.64    0.77
   3 -13  12    3.52    0.25
   3 -13  12    3.61    0.30
   3  13  12    3.37    0.24
   3  13  12    3.55    0.26
   3  13  12    3.12    0.29
   4 -13  12    1.15    0.25
   4 -13  12    0.82    0.16
   4  13  12    0.72    0.16
   4  13  12    1.10    0.19
   4  13  12    0.87    0.18
   5 -13  12    3.37    0.21
  -5 -13 -12    3.99    0.23
   5  13  12    3.80    0.24
   5  13  12    3.42    0.23
  -4 -14  12    0.78    0.18
  -4  14  12    0.52    0.15
  -3 -14  12    3.48    0.32
   3  14 -12    3.95    0.32
  -3  14  12    3.58    0.28
  -3  14  12    3.59    0.28
  -3  14  12    3.72    0.30
  -2 -14  12    0.68    0.18
  -2  14  12    0.64    0.14
  -2  14  12    1.11    0.23
  -2  14  12    1.06    0.23
  -1 -14  12    0.72    0.17
  -1  14  12    0.54    0.15
  -1  14  12    0.94    0.22
  -1  14  12    0.40    0.13
   0 -14  12    1.08    0.19
   0 -14  12    0.90    0.18
   0  14  12    1.06    0.21
   0  14  12    0.38    0.15
   0  14  12    1.05    0.19
   1 -14  12    0.20    0.15
   1 -14  12    0.14    0.12
   1  14  12    0.06    0.11
   1  14  12    0.39    0.15
   2 -14  12    0.72    0.17
   2 -14  12    0.85    0.17
   2  14  12    0.94    0.21
   2  14  12    0.82    0.17
   3 -14  12    1.32    0.18
   3 -14  12    1.12    0.24
   3  14  12    1.46    0.17
   3  14  12    1.51    0.26
   3  14  12    1.78    0.21
   4 -14  12    3.39    0.22
  -4 -14 -12    3.68    0.23
   4 -14  12    3.39    0.32
   4  14  12    3.56    0.22
   4  14  12    3.55    0.25
   5 -14  12    0.77    0.14
  -5 -14 -12    1.12    0.16
   5  14  12    1.27    0.16
   5  14  12    1.16    0.18
  -4 -15  12    2.37    0.32
  -3 -15  12    0.42    0.17
  -3  15  12    0.36    0.22
  -3  15  12    0.30    0.21
   3  15 -12    0.56    0.17
  -2 -15  12    1.50    0.25
  -2  15  12    1.80    0.27
  -2  15  12    1.20    0.19
  -2  15  12    1.25    0.23
  -1  15  12    1.82    0.20
  -1  15  12    1.33    0.23
  -1  15  12    1.89    0.27
   0 -15  12    2.83    0.38
   0  15  12    2.49    0.22
   0  15  12    2.61    0.28
   1 -15  12    1.34    0.18
   1 -15  12    1.38    0.25
   1  15  12    1.55    0.25
   1  15  12    1.56    0.18
   2 -15  12    7.42    0.41
   2 -15  12    7.30    0.36
  -2  15 -12    7.37    0.38
   2  15  12    7.24    0.36
   2  15  12    7.38    0.40
   3 -15  12    1.11    0.15
   3 -15  12    1.44    0.24
   3  15  12    1.20    0.16
  -4 -15 -12   -0.01    0.09
   4 -15  12    0.09    0.08
   4  15  12    0.04    0.09
  -3 -16  12    0.32    0.20
   3  16 -12    0.19    0.19
  -3  16  12    0.27    0.16
  -2 -16  12    0.51    0.18
  -2  16  12    1.03    0.17
  -1 -16  12    2.95    0.29
  -1  16  12    2.54    0.20
   0 -16  12   -0.31    0.14
   0  16  12   -0.03    0.09
   1 -16  12    0.04    0.15
   1  16  12    0.00    0.09
   2 -16  12    1.38    0.24
   2 -16  12    1.01    0.14
   2  16  12    1.21    0.15
   3 -16  12    1.33    0.14
  -3 -16 -12    1.41    0.16
  -3  16 -12    1.15    0.21
   3  16  12    1.11    0.14
  -2  17  12    0.27    0.11
   2  17 -12    0.11    0.12
  -1 -17  12    0.33    0.25
  -1  17  12    0.37    0.13
   0 -17  12   -0.10    0.18
   0  17  12   -0.04    0.08
   1  17  12    0.12    0.09
  -2 -17 -12    0.21    0.10
   2  17  12    0.14    0.08
   1  18 -12    6.78    0.32
  -1  18  12    6.52    0.30
   0  18  12   -0.17    0.08
   1  18  12    0.05    0.08
  -9   0  13    0.01    0.10
   8   0 -13    0.05    0.16
  -8   0  13    0.01    0.11
  -8   0  13    0.10    0.11
  -7   0  13   -0.34    0.13
  -7   0  13    0.14    0.13
   7   0 -13   -0.07    0.15
  -6   0  13    0.22    0.16
  -6   0  13    0.00    0.15
   6   0 -13   -0.23    0.16
  -5   0  13   -0.05    0.15
  -5   0  13   -0.09    0.16
  -4   0  13   -0.04    0.18
  -4   0  13   -0.03    0.17
  -3   0  13    0.13    0.21
  -3   0  13   -0.21    0.16
  -3   0  13    0.07    0.18
  -2   0  13   -0.13    0.22
  -2   0  13    0.23    0.18
  -1   0  13   -0.07    0.19
  -1   0  13   -0.02    0.19
   0   0  13   -0.19    0.19
   0   0  13   -0.11    0.23
   0   0  13   -0.03    0.22
   1   0  13   -0.02    0.17
   1   0  13    0.14    0.21
   1   0  13   -0.19    0.19
   1   0  13    0.37    0.28
   2   0  13    0.04    0.16
   2   0  13    0.01    0.18
   2   0  13   -0.06    0.19
   3   0  13    0.28    0.20
   3   0  13   -0.20    0.14
   3   0  13    0.22    0.16
   4   0  13   -0.18    0.14
   4   0  13    0.18    0.15
   4   0  13   -0.32    0.17
   5   0  13    0.04    0.13
   5   0  13    0.13    0.15
   6   0  13   -0.21    0.10
   6   0  13   -0.10    0.10
   7   0  13   -0.03    0.09
   7   0  13    0.05    0.10
  -7   0 -13   -0.26    0.13
   8   0  13   -0.04    0.11
   8   0  13    0.07    0.09
  -9  -1  13    0.67    0.16
  -9   1  13    0.70    0.16
  -9   1  13    0.60    0.13
   8  -1 -13    0.94    0.19
  -8  -1  13    1.03    0.19
  -8  -1  13    0.97    0.19
  -8   1  13    0.56    0.12
  -8   1  13    0.72    0.17
   8   1 -13    0.79    0.18
   7  -1 -13   14.56    0.67
  -7  -1  13   14.58    0.64
  -7  -1  13   15.31    0.65
  -7   1  13   14.64    0.64
  -7   1  13   13.94    0.63
   7   1 -13   14.09    0.67
  -6  -1  13    8.83    0.47
  -6  -1  13    9.45    0.47
   6  -1 -13    7.62    0.47
  -6   1  13    9.04    0.47
  -6   1  13    8.20    0.46
  -5  -1  13    4.85    0.37
  -5  -1  13    5.34    0.39
  -5   1  13    4.89    0.37
  -5   1  13    5.32    0.37
  -4  -1  13   13.40    0.63
  -4  -1  13   13.15    0.63
  -4   1  13   12.35    0.62
  -4   1  13   13.28    0.62
  -3  -1  13   27.89    1.12
  -3  -1  13   25.66    1.11
  -3  -1  13   27.58    1.11
  -3   1  13   26.82    1.11
  -3   1  13   27.41    1.10
  -2  -1  13   -0.18    0.20
  -2  -1  13    0.21    0.20
  -2   1  13    0.18    0.41
  -2   1  13    0.09    0.22
  -2   1  13    0.28    0.26
  -1  -1  13    7.87    0.49
  -1  -1  13    8.91    0.52
  -1  -1  13    8.48    0.50
  -1   1  13    8.59    0.49
  -1   1  13    8.05    0.47
   0  -1  13   13.39    0.67
   0  -1  13   13.93    0.67
   0  -1  13   13.34    0.71
   0   1  13   14.04    0.66
   0   1  13   13.56    0.67
   0   1  13   13.55    0.64
   1  -1  13    7.03    0.43
   1  -1  13    7.17    0.47
   1  -1  13    6.72    0.46
   1   1  13    7.23    0.46
   1   1  13    6.62    0.49
   1   1  13    6.95    0.51
   1   1  13    6.58    0.43
   2  -1  13   43.30    1.70
   2  -1  13   44.27    1.70
   2  -1  13   44.45    1.69
   2   1  13   44.56    1.70
   2   1  13   42.41    1.68
   2   1  13   43.79    1.70
   3  -1  13    0.75    0.23
   3  -1  13    0.43    0.18
   3  -1  13    0.86    0.18
   3   1  13    0.71    0.19
   3   1  13    0.61    0.16
   3   1  13    1.00    0.21
   4  -1  13    2.35    0.33
   4  -1  13    2.39    0.26
   4  -1  13    2.05    0.28
   4   1  13    2.47    0.30
   4   1  13    2.25    0.29
   4   1  13    2.61    0.26
   5  -1  13    1.50    0.23
   5  -1  13    1.30    0.22
   5   1  13    1.80    0.25
   5   1  13    1.59    0.24
   5   1  13    1.21    0.22
   6  -1  13    3.93    0.28
   6  -1  13    3.63    0.27
   6   1  13    3.81    0.27
   6   1  13    4.00    0.28
  -7  -1 -13    0.17    0.12
   7  -1  13    0.19    0.10
   7  -1  13    0.39    0.10
   7   1  13    0.08    0.10
  -7   1 -13    0.32    0.24
   7   1  13    0.23    0.10
   8  -1  13    0.09    0.11
   8  -1  13    0.19    0.09
   8   1  13    0.27    0.09
  -9  -2  13    1.56    0.17
  -9   2  13    1.75    0.16
  -8  -2  13    0.20    0.16
   8  -2 -13    0.21    0.18
  -8  -2  13    0.34    0.11
  -8   2  13    0.25    0.11
  -8   2  13    0.27    0.11
   8   2 -13    0.39    0.16
   7  -2 -13    1.79    0.28
  -7  -2  13    2.20    0.24
  -7  -2  13    1.87    0.26
  -7   2  13    2.05    0.23
  -7   2  13    1.93    0.22
   7   2 -13    2.02    0.27
   6  -2 -13    0.77    0.19
  -6  -2  13    0.36    0.19
  -6  -2  13    0.50    0.16
  -6   2  13    0.77    0.16
  -6   2  13    0.58    0.16
   5  -2 -13    1.26    0.30
  -5  -2  13    2.16    0.29
  -5  -2  13    1.86    0.32
  -5   2  13    1.86    0.28
  -5   2  13    1.71    0.29
  -4  -2  13   79.19    2.94
  -4  -2  13   77.95    2.95
  -4  -2  13   82.46    2.96
  -4   2  13   77.69    2.94
  -4   2  13   77.29    2.95
  -3  -2  13    0.02    0.18
  -3  -2  13   -0.02    0.22
  -3  -2  13    0.35    0.19
  -3   2  13   -0.13    0.15
  -3   2  13    0.02    0.16
  -2  -2  13    0.00    0.24
  -2  -2  13    0.27    0.20
  -2   2  13    0.11    0.16
  -2   2  13    0.40    0.17
  -1  -2  13   88.32    3.35
  -1  -2  13   89.21    3.35
  -1  -2  13   92.40    3.35
  -1   2  13   90.93    3.35
  -1   2  13   91.18    3.35
   0  -2  13    0.28    0.29
   0  -2  13    0.27    0.24
   0   2  13    0.31    0.21
   0   2  13    0.20    0.20
   0   2  13    0.14    0.17
   1  -2  13    4.73    0.37
   1  -2  13    5.11    0.41
   1   2  13    5.17    0.37
   1   2  13    4.76    0.45
   1   2  13    4.70    0.41
   2  -2  13    0.37    0.17
   2  -2  13    0.29    0.26
   2  -2  13    0.58    0.18
   2   2  13    0.66    0.27
   2   2  13    0.66    0.17
   2   2  13    0.58    0.21
   2   2  13    0.49    0.16
   3  -2  13    1.02    0.23
   3  -2  13    0.63    0.24
   3  -2  13    1.12    0.25
   3   2  13    0.69    0.18
   3   2  13    0.77    0.18
   3   2  13    0.53    0.15
   4  -2  13    3.07    0.30
   4  -2  13    2.70    0.27
   4  -2  13    2.53    0.40
   4   2  13    2.72    0.30
   4   2  13    2.79    0.28
   4   2  13    3.10    0.29
   5  -2  13   21.50    0.88
   5  -2  13   20.88    0.89
   5   2  13   21.09    0.89
   5   2  13   20.89    0.90
   6  -2  13    3.14    0.24
   6  -2  13    3.18    0.24
   6   2  13    3.42    0.26
   6   2  13    2.97    0.24
   7  -2  13    0.21    0.09
   7  -2  13    0.09    0.10
   7   2  13    0.16    0.10
   7   2  13    0.00    0.09
   8  -2  13    1.18    0.15
   8  -2  13    1.20    0.16
   8   2  13    1.08    0.14
  -9  -3  13    0.23    0.09
  -9   3  13    0.06    0.09
  -8  -3  13    0.10    0.10
   8  -3 -13   -0.17    0.18
   8   3 -13    0.33    0.16
  -8   3  13    0.09    0.11
  -8   3  13   -0.03    0.09
  -7  -3  13    0.48    0.17
  -7  -3  13    0.92    0.20
   7  -3 -13    0.83    0.19
   7   3 -13    0.77    0.17
  -7   3  13    0.52    0.14
  -7   3  13    0.58    0.13
  -6  -3  13    6.35    0.39
   6  -3 -13    5.99    0.42
  -6  -3  13    5.75    0.42
  -6   3  13    6.57    0.38
  -6   3  13    6.69    0.39
  -5  -3  13   -0.28    0.15
  -5  -3  13    0.26    0.22
   5  -3 -13   -0.09    0.18
  -5   3  13   -0.10    0.16
  -5   3  13   -0.14    0.14
  -4  -3  13    2.66    0.30
  -4  -3  13    3.14    0.33
   4  -3 -13    2.65    0.37
  -4   3  13    2.73    0.30
  -4   3  13    2.50    0.29
  -3  -3  13    0.31    0.19
  -3  -3  13    0.68    0.18
  -3   3  13    0.25    0.16
  -3   3  13    0.29    0.15
  -2  -3  13   18.00    0.79
  -2  -3  13   15.98    0.84
  -2   3  13   17.98    0.78
  -2   3  13   18.97    0.78
  -1  -3  13    5.47    0.40
  -1  -3  13    5.55    0.49
  -1   3  13    4.90    0.37
  -1   3  13    4.53    0.40
   0  -3  13    0.07    0.20
   0  -3  13    0.40    0.24
   0   3  13   -0.01    0.19
   0   3  13    0.34    0.17
   1  -3  13   12.40    0.80
   1  -3  13   12.52    0.68
   1  -3  13   13.71    0.68
   1   3  13   14.56    0.64
   1   3  13   13.76    0.64
   1   3  13   13.28    0.66
   1   3  13   14.97    0.80
   2  -3  13   11.25    0.56
   2  -3  13   11.77    0.58
   2   3  13   11.72    0.56
   2   3  13   12.07    0.58
   2   3  13   12.07    0.60
   2   3  13   11.37    0.62
   3  -3  13    0.20    0.16
   3  -3  13   -0.03    0.14
   3   3  13    0.36    0.25
   3   3  13   -0.08    0.14
   3   3  13   -0.02    0.17
   3   3  13    0.01    0.16
   4  -3  13    2.16    0.27
   4  -3  13    2.57    0.27
   4   3  13    1.99    0.28
   4   3  13    1.89    0.25
   4   3  13    2.43    0.29
   5  -3  13    0.23    0.14
   5  -3  13    0.18    0.14
   5   3  13    0.16    0.15
   5   3  13    0.33    0.15
   5   3  13    0.22    0.14
   6  -3  13    0.54    0.13
   6  -3  13    0.77    0.17
   6   3  13    0.52    0.13
   6   3  13    0.38    0.12
   7  -3  13    0.10    0.10
   7  -3  13   -0.02    0.09
   7   3  13   -0.15    0.10
   7   3  13   -0.08    0.09
   8  -3  13    0.18    0.10
  -8  -3 -13    0.30    0.11
   8  -3  13    0.04    0.10
   8   3  13    0.27    0.09
   8  -4 -13    0.16    0.22
  -8  -4  13    0.09    0.10
   8   4 -13    0.07    0.16
  -8   4  13    0.06    0.09
  -8   4  13   -0.01    0.11
   7  -4 -13    0.46    0.21
  -7  -4  13    0.30    0.12
  -7   4  13    0.18    0.12
  -7   4  13    0.19    0.12
   6  -4 -13    6.34    0.44
  -6  -4  13    7.29    0.41
  -6   4  13    6.94    0.40
  -6   4  13    7.01    0.40
  -5  -4  13    5.71    0.38
   5  -4 -13    5.41    0.42
  -5   4  13    4.89    0.36
  -5   4  13    5.17    0.37
  -4  -4  13   11.55    0.56
   4  -4 -13   11.74    0.63
  -4  -4  13    9.89    0.56
  -4   4  13   11.16    0.54
  -4   4  13    9.99    0.54
  -3  -4  13    1.13    0.22
  -3  -4  13    0.59    0.20
  -3   4  13    0.61    0.17
  -3   4  13    0.49    0.16
  -2  -4  13    8.28    0.47
  -2  -4  13    7.30    0.52
  -2   4  13    8.06    0.44
  -2   4  13    8.19    0.46
  -1  -4  13    2.14    0.30
  -1   4  13    2.92    0.31
  -1   4  13    2.24    0.38
  -1   4  13    2.76    0.29
   0  -4  13   -0.06    0.19
   0  -4  13   -0.23    0.22
   0   4  13    0.31    0.17
   0   4  13    0.24    0.17
   0   4  13    0.07    0.24
   1  -4  13    6.08    0.42
   1  -4  13    6.36    0.41
   1  -4  13    6.53    0.44
   1   4  13    5.67    0.42
   1   4  13    6.26    0.39
   1   4  13    5.81    0.39
   2  -4  13   30.20    1.19
   2  -4  13   29.93    1.21
   2  -4  13   30.28    1.22
   2   4  13   28.66    1.20
   2   4  13   30.73    1.20
   2   4  13   28.16    1.18
   2   4  13   29.54    1.21
   3  -4  13    9.76    0.50
   3  -4  13    9.04    0.48
   3   4  13    8.80    0.50
   3   4  13    8.80    0.53
   3   4  13    9.22    0.50
   3   4  13    9.70    0.49
   4  -4  13    3.68    0.30
   4  -4  13    3.34    0.29
   4   4  13    3.31    0.29
   4   4  13    3.18    0.30
   4   4  13    3.51    0.31
   5  -4  13    0.08    0.13
   5  -4  13   -0.04    0.12
   5   4  13   -0.18    0.13
   5   4  13    0.12    0.14
   5   4  13   -0.22    0.13
   6  -4  13    0.03    0.11
   6  -4  13   -0.08    0.09
   6   4  13   -0.08    0.11
   6   4  13    0.10    0.11
   7  -4  13    2.55    0.18
   7  -4  13    2.43    0.20
   7   4  13    2.67    0.19
   7   4  13    2.54    0.21
  -8  -5  13    0.76    0.16
  -8   5  13    0.82    0.14
   8   5 -13    0.56    0.18
  -8   5  13    0.57    0.14
  -7  -5  13    0.25    0.13
   7  -5 -13    0.39    0.22
  -7   5  13   -0.09    0.12
  -7   5  13    0.09    0.11
   6  -5 -13    2.70    0.36
   5  -5 -13    0.93    0.25
  -5  -5  13    0.58    0.19
  -5  -5  13    0.89    0.20
  -5   5  13    0.42    0.16
  -5   5  13    0.43    0.15
  -4  -5  13    2.70    0.31
  -4  -5  13    2.56    0.34
  -4   5  13    2.74    0.28
  -4   5  13    3.02    0.29
  -3  -5  13    3.64    0.38
  -3  -5  13    3.68    0.34
  -3   5  13    2.89    0.29
  -3   5  13    3.09    0.31
  -2  -5  13    0.36    0.26
  -2  -5  13    0.55    0.18
  -2   5  13    0.41    0.16
  -2   5  13    0.41    0.15
  -1  -5  13    3.20    0.32
  -1   5  13    3.13    0.37
  -1   5  13    3.10    0.29
  -1   5  13    2.84    0.31
   0  -5  13    5.60    0.40
   0  -5  13    5.28    0.43
   0   5  13    6.14    0.39
   0   5  13    5.87    0.38
   0   5  13    5.54    0.40
   1  -5  13    8.89    0.49
   1  -5  13    8.42    0.49
   1  -5  13    8.99    0.50
   1   5  13    8.53    0.49
   1   5  13    8.39    0.47
   1   5  13    8.82    0.47
   2  -5  13    8.33    0.51
   2  -5  13    7.96    0.46
   2  -5  13    8.14    0.45
   2   5  13    7.83    0.49
   2   5  13    8.06    0.47
   2   5  13    8.02    0.44
   2   5  13    8.37    0.46
   3  -5  13    0.09    0.16
   3  -5  13    0.47    0.16
   3   5  13    0.36    0.17
   3   5  13    0.26    0.21
   3   5  13    0.48    0.18
   3   5  13    0.21    0.15
   4  -5  13   17.51    0.76
   4  -5  13   16.96    0.77
   4   5  13   17.85    0.77
   4   5  13   17.46    0.77
   4   5  13   17.58    0.76
   5  -5  13   -0.01    0.15
   5  -5  13   -0.11    0.15
   5   5  13    0.15    0.15
   6  -5  13    6.74    0.36
   6  -5  13    6.87    0.35
   6   5  13    6.80    0.37
   6   5  13    6.42    0.35
   7  -5  13    3.44    0.22
   7  -5  13    3.51    0.21
   7   5  13    3.41    0.22
   7   5  13    3.82    0.23
  -8  -6  13    0.30    0.10
  -8   6  13    0.31    0.17
   8   6 -13    0.55    0.19
  -8   6  13    0.34    0.09
   7  -6 -13    0.20    0.29
  -7  -6  13   -0.11    0.11
  -7   6  13    0.08    0.10
  -7   6  13    0.13    0.13
   6  -6 -13    0.76    0.30
  -6  -6  13    0.48    0.15
  -6   6  13    0.61    0.15
  -6   6  13    0.47    0.13
  -5  -6  13    5.32    0.39
  -5  -6  13    6.52    0.41
  -5   6  13    5.63    0.37
  -5   6  13    6.11    0.38
  -4  -6  13    0.41    0.16
  -4  -6  13    0.11    0.20
  -4   6  13    0.17    0.14
  -4   6  13    0.36    0.15
  -3  -6  13    4.14    0.49
  -3  -6  13    4.85    0.44
  -3   6  13    4.96    0.35
  -3   6  13    5.05    0.35
  -2  -6  13   13.40    0.63
  -2   6  13   12.61    0.61
  -2   6  13   13.05    0.61
  -1  -6  13    1.50    0.38
  -1  -6  13    1.65    0.27
  -1   6  13    1.14    0.24
  -1   6  13    1.09    0.19
  -1   6  13    1.00    0.19
   0  -6  13   13.08    0.64
   0  -6  13   14.00    0.64
   0   6  13   14.13    0.64
   0   6  13   12.44    0.62
   0   6  13   13.41    0.63
   1  -6  13    6.62    0.42
   1  -6  13    6.41    0.41
   1  -6  13    6.46    0.42
   1   6  13    6.19    0.39
   1   6  13    5.67    0.39
   1   6  13    6.04    0.41
   2  -6  13    3.57    0.31
   2  -6  13    3.71    0.30
   2   6  13    2.89    0.35
   2   6  13    3.10    0.29
   2   6  13    3.46    0.36
   2   6  13    3.48    0.31
   3  -6  13    0.12    0.15
   3  -6  13   -0.04    0.23
   3  -6  13    0.16    0.15
   3   6  13   -0.17    0.14
   3   6  13    0.15    0.16
   3   6  13    0.13    0.19
   3   6  13    0.09    0.18
   4  -6  13    9.39    0.47
   4  -6  13    9.32    0.49
   4   6  13    9.49    0.48
   4   6  13    9.21    0.48
   4   6  13    8.81    0.48
  -5  -6 -13    5.64    0.39
   5  -6  13    5.50    0.32
   5  -6  13    4.87    0.33
   5   6  13    5.13    0.32
   5   6  13    5.66    0.33
   5   6  13    5.53    0.34
   6  -6  13    0.74    0.16
   6  -6  13    0.65    0.14
   6   6  13    0.35    0.12
   6   6  13    0.48    0.12
   7  -6  13    1.05    0.14
   7  -6  13    1.41    0.14
   7   6  13    1.21    0.17
   7   6  13    1.33    0.15
  -8  -7  13    0.04    0.10
  -8   7  13   -0.18    0.08
  -7  -7  13    3.36    0.25
  -7   7  13    3.47    0.23
  -7   7  13    3.69    0.26
  -6  -7  13    0.54    0.16
  -6   7  13    0.29    0.11
  -6   7  13    0.60    0.15
  -5  -7  13    0.27    0.17
  -5  -7  13    0.10    0.17
  -5   7  13   -0.05    0.14
  -5   7  13   -0.08    0.12
  -4  -7  13    1.36    0.24
  -4  -7  13    0.76    0.18
  -4   7  13    0.86    0.17
  -4   7  13    1.02    0.19
  -3  -7  13    1.43    0.26
  -3  -7  13    1.26    0.27
  -3   7  13    1.58    0.24
  -3   7  13    1.68    0.27
  -2   7  13    0.30    0.16
  -2   7  13    0.46    0.16
  -1  -7  13   16.60    0.77
  -1  -7  13   17.01    0.75
  -1   7  13   17.07    0.74
  -1   7  13   16.33    0.74
  -1   7  13   16.39    0.75
   0  -7  13   14.97    0.69
   0  -7  13   15.19    0.69
   0   7  13   14.91    0.68
   0   7  13   14.58    0.68
   0   7  13   14.59    0.67
   1  -7  13    7.93    0.62
   1  -7  13    6.21    0.43
   1  -7  13    6.88    0.42
   1   7  13    6.42    0.40
   1   7  13    6.97    0.41
   1   7  13    6.75    0.42
   2  -7  13    6.47    0.41
   2  -7  13    6.17    0.43
   2  -7  13    6.34    0.40
   2   7  13    7.07    0.42
   2   7  13    7.01    0.41
   2   7  13    7.09    0.40
   2   7  13    6.57    0.45
   3  -7  13    0.20    0.21
   3  -7  13    0.42    0.15
   3  -7  13    0.33    0.15
   3   7  13    0.08    0.15
   3   7  13    0.43    0.15
   3   7  13    0.21    0.18
   3   7  13    0.63    0.19
   4  -7  13    2.34    0.40
   4  -7  13    2.09    0.24
   4  -7  13    1.88    0.24
   4   7  13    2.37    0.26
   4   7  13    2.17    0.28
   4   7  13    1.84    0.26
  -5  -7 -13    0.02    0.16
   5  -7  13    0.00    0.11
   5  -7  13    0.02    0.09
   5   7  13   -0.23    0.12
   5   7  13    0.20    0.12
   5   7  13    0.06    0.11
   6  -7  13   10.82    0.51
   6  -7  13   11.70    0.50
   6   7  13   11.32    0.51
   6   7  13   11.57    0.50
   7  -7  13    0.04    0.09
   7  -7  13    0.08    0.08
   7   7  13    0.10    0.11
   7   7  13   -0.02    0.08
  -8  -8  13    5.11    0.27
  -7  -8  13    0.96    0.18
  -7   8  13    0.55    0.11
  -6  -8  13    1.91    0.25
  -6   8  13    2.01    0.21
  -6   8  13    2.26    0.25
  -5  -8  13   44.27    1.70
  -5  -8  13   42.72    1.73
  -5   8  13   46.77    1.75
  -4  -8  13   11.28    0.59
  -4  -8  13   12.41    0.61
  -4   8  13   12.37    0.57
  -4   8  13   11.35    0.57
  -3  -8  13    7.28    0.45
  -3   8  13    7.29    0.43
  -3   8  13    8.11    0.43
  -2  -8  13   11.96    0.59
  -2   8  13   11.65    0.58
  -2   8  13   12.21    0.57
  -2   8  13   11.19    0.60
  -1  -8  13    6.04    0.41
  -1  -8  13    6.23    0.44
  -1   8  13    6.94    0.41
  -1   8  13    5.96    0.38
  -1   8  13    6.38    0.39
   0  -8  13    4.01    0.35
   0  -8  13    4.31    0.34
   0   8  13    4.04    0.32
   0   8  13    3.95    0.32
   0   8  13    4.15    0.34
   1  -8  13    8.23    0.49
   1  -8  13    9.19    0.49
   1  -8  13    8.91    0.50
   1   8  13    9.37    0.48
   1   8  13    9.54    0.49
   1   8  13    9.24    0.48
   2  -8  13    2.33    0.31
   2  -8  13    2.06    0.27
   2  -8  13    2.08    0.28
   2   8  13    1.63    0.34
   2   8  13    1.77    0.30
   2   8  13    2.27    0.27
   2   8  13    1.99    0.26
   3  -8  13    0.20    0.20
   3  -8  13    0.05    0.13
   3  -8  13   -0.02    0.14
   3   8  13   -0.05    0.14
   3   8  13    0.26    0.17
   3   8  13   -0.13    0.17
   3   8  13    0.07    0.13
   4  -8  13   28.25    1.17
   4  -8  13   28.01    1.17
   4   8  13   29.10    1.16
   4   8  13   29.26    1.16
   4   8  13   29.65    1.16
   5  -8  13    0.13    0.10
   5  -8  13    0.45    0.12
  -5  -8 -13    0.60    0.15
   5   8  13    0.97    0.20
   5   8  13    0.20    0.11
   5   8  13    0.43    0.12
   6  -8  13    1.21    0.15
   6  -8  13    1.03    0.16
   6   8  13    1.07    0.17
   6   8  13    0.82    0.17
   7  -8  13    0.50    0.11
   7  -8  13    0.36    0.10
   7   8  13    0.38    0.10
  -7   9  13    0.82    0.14
  -6  -9  13    2.01    0.24
  -6   9  13    1.98    0.19
  -6   9  13    1.77    0.23
  -5  -9  13    0.74    0.18
  -5  -9  13    0.81    0.19
  -5   9  13    0.75    0.16
  -5   9  13    0.68    0.14
  -4  -9  13    0.89    0.19
  -4  -9  13    1.07    0.24
  -4   9  13    0.85    0.17
  -4   9  13    0.93    0.22
  -3  -9  13    0.39    0.17
  -3   9  13    0.45    0.15
  -3   9  13    0.57    0.17
  -2  -9  13    0.14    0.17
  -2   9  13   -0.03    0.13
  -2   9  13   -0.05    0.20
  -2   9  13    0.04    0.14
  -1  -9  13    2.03    0.29
  -1  -9  13    1.84    0.31
  -1   9  13    1.65    0.26
  -1   9  13    2.72    0.28
  -1   9  13    2.01    0.28
   0  -9  13    2.94    0.32
   0  -9  13    3.70    0.33
   0   9  13    3.76    0.31
   0   9  13    3.09    0.30
   0   9  13    3.88    0.32
   1  -9  13   38.40    1.48
   1  -9  13   36.01    1.50
   1  -9  13   38.03    1.50
   1   9  13   38.98    1.49
   1   9  13   39.53    1.50
   1   9  13   37.94    1.49
   2  -9  13    0.04    0.16
   2  -9  13   -0.06    0.15
   2  -9  13    0.09    0.17
   2   9  13   -0.03    0.16
   2   9  13   -0.41    0.21
   2   9  13    0.13    0.14
   2   9  13    0.07    0.14
   3  -9  13    4.08    0.36
   3  -9  13    4.32    0.30
   3  -9  13    3.86    0.31
   3   9  13    3.92    0.30
   3   9  13    4.30    0.32
   3   9  13    4.26    0.37
   4  -9  13   14.21    0.65
   4  -9  13   14.51    0.68
   4  -9  13   14.71    0.63
   4   9  13   14.54    0.64
   4   9  13   14.68    0.64
   4   9  13   14.85    0.65
   5  -9  13    0.30    0.10
  -5  -9 -13    0.40    0.14
   5  -9  13    0.43    0.12
   5   9  13    0.25    0.11
   5   9  13    0.41    0.11
   5   9  13    0.15    0.12
   6  -9  13    0.53    0.13
   6  -9  13    0.45    0.09
  -6  -9 -13    0.39    0.19
   6   9  13    0.61    0.14
   6   9  13    0.66    0.15
  -7 -10  13   -0.17    0.13
  -7  10  13    0.17    0.09
  -6 -10  13    0.65    0.15
  -6  10  13    0.78    0.16
  -6  10  13    1.05    0.23
  -5 -10  13   -0.12    0.18
  -5 -10  13    0.12    0.16
  -5  10  13    0.11    0.11
  -5  10  13   -0.09    0.13
  -4 -10  13    0.76    0.19
  -4  10  13    1.26    0.26
  -3 -10  13   -0.09    0.15
  -3  10  13    0.37    0.15
  -3  10  13   -0.13    0.14
  -2 -10  13    0.26    0.23
  -2 -10  13    0.08    0.16
  -2  10  13   -0.13    0.13
  -2  10  13   -0.05    0.18
  -2  10  13   -0.11    0.14
  -1 -10  13    0.83    0.20
  -1 -10  13    0.89    0.20
  -1  10  13    0.81    0.17
  -1  10  13    0.53    0.17
  -1  10  13    1.06    0.23
   0 -10  13   11.55    0.62
   0 -10  13   13.24    0.62
   0  10  13   13.72    0.62
   0  10  13   13.55    0.61
   0  10  13   13.32    0.61
   1 -10  13    2.88    0.35
   1 -10  13    2.93    0.32
   1 -10  13    3.00    0.30
   1  10  13    3.45    0.29
   1  10  13    3.23    0.28
   1  10  13    4.02    0.31
   2 -10  13    0.89    0.21
   2 -10  13    0.86    0.17
   2 -10  13    0.47    0.15
   2  10  13    0.65    0.17
   2  10  13    0.75    0.16
   2  10  13    1.08    0.22
   3 -10  13    1.26    0.28
   3 -10  13    0.92    0.16
   3  10  13    1.52    0.25
   4 -10  13    4.23    0.29
   4 -10  13    4.02    0.37
   4 -10  13    4.43    0.27
   4  10  13    4.47    0.30
   4  10  13    4.15    0.28
   4  10  13    4.45    0.29
   5 -10  13    1.49    0.19
  -5 -10 -13    2.05    0.22
   5 -10  13    1.89    0.18
   5  10  13    1.49    0.19
   5  10  13    1.90    0.18
   5  10  13    2.11    0.19
   6 -10  13    0.19    0.10
  -6 -10 -13   -0.32    0.17
   6  10  13    0.05    0.09
   6  10  13    0.25    0.10
  -7  11  13    1.18    0.17
  -6 -11  13    2.82    0.31
  -6  11  13    3.19    0.22
  -5 -11  13    0.07    0.16
  -5  11  13   -0.02    0.14
  -5  11  13   -0.09    0.11
  -4 -11  13    0.53    0.17
  -4  11  13    0.94    0.19
  -4  11  13    1.28    0.22
  -3 -11  13    2.78    0.30
  -2 -11  13    4.04    0.34
  -2  11  13    4.26    0.32
  -2  11  13    4.59    0.32
  -1 -11  13    5.08    0.36
  -1 -11  13    4.33    0.35
  -1  11  13    5.14    0.34
  -1  11  13    4.83    0.33
  -1  11  13    4.84    0.34
   0 -11  13   19.50    0.83
   0 -11  13   18.21    0.83
   0  11  13   20.79    0.83
   0  11  13   19.17    0.82
   0  11  13   18.61    0.81
   1 -11  13    0.66    0.16
   1 -11  13    0.93    0.19
   1  11  13    1.20    0.21
   1  11  13    1.24    0.23
   1  11  13    0.96    0.23
   2 -11  13    1.20    0.24
   2 -11  13    0.71    0.18
   2  11  13    0.93    0.23
   2  11  13    1.09    0.24
   3 -11  13    0.61    0.14
   3 -11  13    0.97    0.19
   3 -11  13    0.94    0.20
   3  11  13    0.83    0.19
   3  11  13    0.48    0.12
   3  11  13    0.81    0.18
   4 -11  13    0.08    0.10
   4 -11  13    0.15    0.10
   4 -11  13    0.06    0.20
   4  11  13    0.25    0.11
   4  11  13   -0.11    0.11
   4  11  13    0.23    0.14
  -5 -11 -13    0.00    0.11
   5 -11  13    0.21    0.09
   5  11  13    0.08    0.11
   5  11  13    0.10    0.09
   6 -11  13    0.52    0.13
   6  11  13    0.32    0.11
   6  11  13    0.17    0.11
  -6  12  13   -0.02    0.11
  -5 -12  13    3.95    0.31
  -5  12  13    3.57    0.30
  -5  12  13    4.00    0.25
  -4 -12  13   -0.05    0.15
  -4  12  13    0.12    0.11
  -4  12  13   -0.05    0.13
  -3 -12  13    1.90    0.26
  -3  12  13    1.77    0.24
  -3  12  13    1.33    0.22
  -2 -12  13    1.94    0.28
  -2  12  13    2.82    0.26
  -2  12  13    2.36    0.25
  -2  12  13    2.53    0.26
  -1 -12  13    0.60    0.16
  -1 -12  13    0.75    0.18
  -1  12  13    1.22    0.24
  -1  12  13    0.49    0.15
   0 -12  13    2.74    0.29
   0 -12  13    2.57    0.31
   0  12  13    2.48    0.26
   1 -12  13    0.05    0.12
   1 -12  13    0.14    0.15
   1  12  13    0.26    0.13
   1  12  13    0.13    0.12
   2 -12  13    2.43    0.23
   2 -12  13    2.37    0.28
   2  12  13    2.56    0.23
   2  12  13    2.66    0.25
   3 -12  13    0.98    0.18
   3 -12  13    0.69    0.19
   3  12  13    1.25    0.18
   3  12  13    1.09    0.25
   4 -12  13    0.64    0.22
   4 -12  13    0.86    0.16
   4  12  13    0.49    0.11
   4  12  13    0.79    0.15
   4  12  13    0.95    0.17
   5 -12  13   -0.09    0.08
  -5 -12 -13   -0.08    0.11
   5  12  13    0.03    0.13
   5  12  13    0.12    0.11
  -5  13  13    0.27    0.13
  -4 -13  13    1.79    0.26
  -4  13  13    1.52    0.21
  -4  13  13    1.82    0.24
  -3 -13  13    0.97    0.19
  -3  13  13    1.00    0.20
  -3  13  13    1.17    0.22
  -2 -13  13    0.25    0.15
  -2  13  13    0.35    0.14
  -2  13  13    0.36    0.14
  -2  13  13    0.38    0.13
  -1 -13  13    0.65    0.17
  -1  13  13    0.62    0.15
  -1  13  13    0.56    0.14
  -1  13  13    0.68    0.14
   0 -13  13    3.09    0.30
   0 -13  13    2.63    0.25
   0  13  13    3.05    0.26
   0  13  13    3.09    0.25
   0  13  13    2.84    0.25
   1 -13  13    1.85    0.22
   1 -13  13    1.58    0.25
   1  13  13    2.08    0.21
   1  13  13    1.60    0.23
   1  13  13    2.08    0.23
   2 -13  13    1.08    0.18
   2 -13  13    1.06    0.24
   2  13  13    0.94    0.20
   2  13  13    0.87    0.17
   3 -13  13    1.91    0.18
   3 -13  13    1.85    0.28
   3  13  13    2.02    0.21
   3  13  13    1.94    0.18
  -4 -13 -13    0.02    0.09
   4 -13  13    0.11    0.09
   4  13  13    0.14    0.15
   4  13  13    0.00    0.10
   4  13  13    0.11    0.09
  -5 -13 -13    0.04    0.10
   5 -13  13   -0.04    0.08
   5  13  13    0.11    0.10
  -4 -14  13    1.03    0.26
  -4  14  13    0.52    0.15
  -4  14  13    0.34    0.19
  -3 -14  13    3.58    0.31
  -3  14  13    3.66    0.26
  -3  14  13    3.82    0.26
  -2 -14  13   11.52    0.56
  -2  14  13   11.20    0.52
  -2  14  13   11.44    0.51
  -2  14  13   12.50    0.52
  -1 -14  13    1.30    0.27
  -1  14  13    1.48    0.20
  -1  14  13    1.24    0.21
  -1  14  13    1.54    0.22
   0 -14  13    3.73    0.26
   0 -14  13    4.31    0.34
   0  14  13    3.80    0.26
   0  14  13    3.42    0.26
   0  14  13    3.50    0.27
   1 -14  13    0.46    0.12
   1 -14  13    0.33    0.16
   1  14  13    0.62    0.14
   1  14  13    0.64    0.12
   2 -14  13    0.09    0.15
   2 -14  13    0.04    0.10
   2  14  13    0.09    0.12
   2  14  13    0.01    0.09
   3 -14  13    3.66    0.32
   3 -14  13    3.86    0.24
   3  14  13    4.60    0.38
   3  14  13    4.29    0.24
   4 -14  13   13.77    0.56
  -4 -14 -13   14.24    0.56
   4  14  13   13.53    0.56
  -3 -15  13    2.27    0.29
  -2 -15  13    6.94    0.39
  -2  15  13    6.74    0.35
  -2  15  13    6.63    0.34
  -2  15  13    6.40    0.37
  -1 -15  13   -0.03    0.15
  -1  15  13    0.06    0.19
  -1  15  13    0.04    0.10
   0 -15  13    0.41    0.16
   0  15  13    0.27    0.15
   0  15  13    0.39    0.11
   1 -15  13    0.20    0.10
   1 -15  13    0.33    0.16
   1  15  13    0.30    0.17
   1  15  13    0.12    0.10
   2 -15  13    2.11    0.27
   2 -15  13    1.96    0.18
   2  15  13    2.17    0.25
   2  15  13    1.97    0.17
   3 -15  13    0.12    0.10
  -3  15 -13   -0.02    0.14
   3  15  13    0.14    0.10
   4  15  13    0.57    0.12
  -2  16  13    3.04    0.23
   2  16 -13    3.33    0.25
  -1 -16  13    0.77    0.18
  -1  16  13    0.90    0.20
   0 -16  13    0.37    0.17
   0  16  13    0.54    0.10
   1 -16  13    4.19    0.33
   1  16  13    4.44    0.24
  -2 -16 -13    0.22    0.09
   2  16  13    0.17    0.08
  -3 -16 -13    0.19    0.09
   3  16  13    0.09    0.08
  -1  17  13    2.69    0.19
   1  17 -13    2.44    0.21
   0  17  13    0.10    0.09
  -1 -17 -13   14.03    0.56
   1  17  13   14.28    0.56
  -8   0  14    0.91    0.16
   8   0 -14    1.04    0.22
  -8   0  14    1.00    0.18
  -7   0  14    5.46    0.33
   7   0 -14    5.27    0.38
  -7   0  14    6.36    0.33
   6   0 -14    0.90    0.19
  -6   0  14    1.02    0.24
  -5   0  14    0.40    0.16
  -5   0  14    0.39    0.16
  -4   0  14    4.08    0.34
  -4   0  14    3.64    0.34
  -3   0  14   30.30    1.22
  -3   0  14   30.15    1.21
  -2   0  14    7.72    0.46
  -2   0  14    8.83    0.58
  -2   0  14    8.00    0.47
  -1   0  14    6.18    0.43
  -1   0  14    5.21    0.40
   0   0  14   14.26    0.67
   0   0  14   14.56    0.70
   0   0  14   13.87    0.68
   1   0  14   12.13    0.61
   1   0  14   12.25    0.64
   1   0  14   13.82    0.62
   2   0  14    1.83    0.32
   2   0  14    2.05    0.27
   2   0  14    2.06    0.31
   3   0  14   31.03    1.25
   3   0  14   31.28    1.25
   4   0  14    0.99    0.21
   4   0  14    0.97    0.22
   4   0  14    1.04    0.24
   5   0  14   -0.02    0.11
   5   0  14    0.07    0.14
   6   0  14    0.10    0.10
   6   0  14    0.17    0.10
  -7   0 -14    0.61    0.17
   7   0  14    0.31    0.09
   7   0  14    0.32    0.10
  -8  -1  14    0.09    0.09
  -8  -1  14    0.05    0.14
  -8   1  14    0.10    0.09
   8   1 -14    0.03    0.19
  -8   1  14   -0.10    0.10
  -7  -1  14   -0.12    0.11
  -7  -1  14    0.17    0.14
   7  -1 -14   -0.26    0.17
  -7   1  14    0.11    0.11
  -7   1  14    0.26    0.12
   7   1 -14   -0.14    0.15
  -6  -1  14    2.63    0.28
   6  -1 -14    2.24    0.31
  -6   1  14    2.69    0.26
   6   1 -14    2.30    0.29
   5  -1 -14    0.23    0.19
  -5  -1  14    0.52    0.18
  -5  -1  14    0.35    0.18
  -5   1  14    0.12    0.16
  -5   1  14    0.41    0.16
  -4  -1  14   -0.07    0.16
  -4  -1  14    0.41    0.19
  -4   1  14    0.01    0.16
  -4   1  14    0.00    0.15
  -3  -1  14    1.95    0.33
  -3  -1  14    2.04    0.31
  -3  -1  14    2.22    0.35
  -3   1  14    2.88    0.30
  -3   1  14    1.73    0.28
  -2  -1  14    6.41    0.47
  -2  -1  14    5.73    0.43
  -2  -1  14    5.95    0.42
  -2   1  14    6.23    0.40
  -2   1  14    6.09    0.40
  -1  -1  14    7.52    0.47
  -1  -1  14    6.77    0.48
  -1   1  14    7.12    0.45
  -1   1  14    6.61    0.43
   0  -1  14    4.14    0.42
   0  -1  14    4.23    0.41
   0  -1  14    4.06    0.47
   0   1  14    4.79    0.39
   0   1  14    4.70    0.36
   0   1  14    4.45    0.42
   1  -1  14    0.17    0.18
   1  -1  14   -0.16    0.22
   1  -1  14    0.04    0.21
   1   1  14    0.05    0.16
   1   1  14    0.18    0.23
   1   1  14    0.04    0.17
   1   1  14    0.19    0.24
   2  -1  14   11.42    0.55
   2  -1  14   11.74    0.57
   2  -1  14   11.06    0.60
   2   1  14   10.92    0.57
   2   1  14   11.14    0.55
   2   1  14   11.09    0.56
   3  -1  14    1.21    0.25
   3  -1  14    1.70    0.34
   3  -1  14    1.86    0.27
   3   1  14    1.94    0.29
   3   1  14    2.21    0.30
   3   1  14    1.99    0.26
   4  -1  14    0.09    0.13
   4  -1  14   -0.11    0.13
   4  -1  14    0.15    0.20
   4   1  14    0.32    0.17
   4   1  14    0.34    0.16
   4   1  14   -0.03    0.13
   5  -1  14    0.08    0.11
   5  -1  14    0.10    0.12
   5   1  14   -0.03    0.12
   5   1  14    0.04    0.12
   6  -1  14   -0.03    0.10
   6  -1  14    0.17    0.10
   6   1  14    0.02    0.10
   6   1  14    0.09    0.10
   7  -1  14    4.45    0.24
   7  -1  14    4.01    0.23
  -7  -1 -14    4.54    0.26
   7   1  14    3.82    0.24
   7   1  14    4.62    0.24
  -8  -2  14    3.39    0.22
  -8   2  14    3.27    0.22
   7  -2 -14    1.63    0.30
  -7  -2  14    1.28    0.21
  -7  -2  14    1.43    0.24
  -7   2  14    1.14    0.20
  -7   2  14    1.29    0.19
   7   2 -14    1.12    0.26
  -6  -2  14   12.06    0.56
   6  -2 -14   12.02    0.59
  -6  -2  14   12.32    0.57
  -6   2  14   12.04    0.55
  -6   2  14   10.96    0.58
   5  -2 -14    4.67    0.40
  -5  -2  14    6.14    0.40
  -5  -2  14    5.20    0.38
  -5   2  14    5.33    0.36
  -5   2  14    5.81    0.37
  -4  -2  14    4.87    0.39
  -4  -2  14    4.55    0.37
  -4   2  14    4.41    0.35
  -4   2  14    4.20    0.33
  -3  -2  14    4.65    0.37
  -3  -2  14    4.64    0.48
  -3  -2  14    4.54    0.40
  -3   2  14    4.91    0.36
  -3   2  14    4.66    0.35
  -2  -2  14    0.39    0.24
  -2  -2  14   -0.12    0.20
  -2  -2  14    0.49    0.20
  -2   2  14    0.38    0.16
  -2   2  14    0.29    0.16
  -1  -2  14    1.03    0.27
  -1  -2  14   -0.07    0.32
  -1  -2  14    0.58    0.24
  -1   2  14    0.81    0.19
  -1   2  14    0.54    0.18
   0   2  14    3.56    0.38
   0   2  14    3.91    0.34
   0   2  14    4.26    0.38
   1  -2  14    0.38    0.19
   1  -2  14    0.05    0.20
   1   2  14    0.26    0.17
   1   2  14    0.73    0.19
   1   2  14   -0.07    0.21
   2  -2  14    8.32    0.44
   2  -2  14    8.30    0.46
   2   2  14    7.53    0.44
   2   2  14    7.93    0.55
   2   2  14    7.62    0.47
   2   2  14    8.40    0.46
   3  -2  14    0.79    0.17
   3  -2  14    0.62    0.17
   3   2  14    0.62    0.18
   3   2  14    0.88    0.18
   3   2  14    0.82    0.19
   4  -2  14    0.33    0.14
   4  -2  14    0.20    0.14
   4   2  14    0.56    0.16
   4   2  14    0.27    0.15
   4   2  14    0.67    0.17
   5  -2  14    0.27    0.12
   5  -2  14    0.08    0.11
   5   2  14    0.17    0.13
   5   2  14    0.06    0.12
   5   2  14    0.15    0.13
   6  -2  14    0.45    0.12
   6  -2  14    0.13    0.10
   6   2  14    0.23    0.10
   6   2  14    0.19    0.10
   7  -2  14    0.13    0.09
  -7  -2 -14    0.27    0.12
   7  -2  14    0.20    0.08
   7   2  14    0.17    0.10
   7   2  14    0.10    0.08
  -8  -3  14    0.42    0.10
  -8   3  14    0.37    0.11
  -7  -3  14    0.20    0.12
   7  -3 -14    0.22    0.21
  -7   3  14    0.17    0.11
   7   3 -14    0.20    0.15
  -7   3  14    0.09    0.10
  -6  -3  14    1.58    0.23
   6  -3 -14    1.47    0.33
  -6  -3  14    1.75    0.31
  -6   3  14    1.80    0.24
  -6   3  14    2.25    0.23
  -5  -3  14    4.33    0.50
  -5  -3  14    3.87    0.31
   5  -3 -14    2.89    0.37
  -5   3  14    3.77    0.31
  -5   3  14    3.36    0.29
  -4  -3  14   13.62    0.63
   4  -3 -14   12.26    0.67
  -4  -3  14   12.01    0.64
  -4   3  14   13.67    0.62
  -4   3  14   13.94    0.63
  -3  -3  14   27.40    1.09
  -3  -3  14   25.46    1.28
  -3   3  14   27.13    1.08
  -3   3  14   25.66    1.08
  -2  -3  14   22.00    0.95
  -2  -3  14   23.05    0.96
  -2   3  14   22.20    0.94
  -2   3  14   22.34    0.94
  -1  -3  14   14.52    0.77
  -1  -3  14   16.57    0.74
  -1   3  14   15.22    0.71
  -1   3  14   16.35    0.71
   0  -3  14    8.20    0.53
   0   3  14    8.05    0.45
   0   3  14    8.19    0.47
   0   3  14    7.83    0.47
   1  -3  14    8.18    0.48
   1  -3  14    7.85    0.46
   1   3  14    7.75    0.44
   1   3  14    7.63    0.47
   1   3  14    7.19    0.44
   2  -3  14    4.17    0.32
   2  -3  14    4.36    0.35
   2   3  14    4.62    0.43
   2   3  14    4.09    0.39
   2   3  14    3.94    0.33
   2   3  14    4.75    0.33
   3  -3  14   18.26    0.80
   3  -3  14   17.95    0.78
   3   3  14   18.52    0.78
   3   3  14   17.92    0.80
   3   3  14   18.05    0.79
   3   3  14   17.77    0.85
   4  -3  14   14.38    0.65
   4  -3  14   14.23    0.66
   4   3  14   14.77    0.66
   4   3  14   14.50    0.65
   4   3  14   14.82    0.67
   5  -3  14    0.46    0.13
   5  -3  14    0.78    0.18
   5   3  14    0.38    0.14
   5   3  14    0.50    0.13
   5   3  14    0.31    0.14
   6  -3  14    0.04    0.10
   6  -3  14    0.06    0.10
   6   3  14    0.01    0.09
   6   3  14    0.00    0.10
  -7  -3 -14    0.36    0.11
   7  -3  14    0.55    0.10
   7  -3  14    0.50    0.10
   7   3  14    0.69    0.14
   7   3  14    0.50    0.10
  -8   4  14    1.03    0.18
  -8   4  14    1.00    0.14
  -7  -4  14    2.09    0.22
   7  -4 -14    2.43    0.40
   7   4 -14    2.47    0.27
  -7   4  14    2.46    0.23
  -7   4  14    2.59    0.21
  -6  -4  14    0.99    0.21
   6  -4 -14    0.75    0.26
  -6   4  14    1.22    0.20
  -6   4  14    1.00    0.20
   5  -4 -14   -0.32    0.26
  -5  -4  14   -0.01    0.16
  -5   4  14    0.14    0.13
  -5   4  14    0.22    0.15
  -4  -4  14   10.46    0.53
  -4  -4  14    9.46    0.54
  -4   4  14    9.56    0.50
  -4   4  14   10.05    0.51
  -3  -4  14    0.12    0.20
  -3  -4  14    0.00    0.18
  -3   4  14    0.24    0.15
  -3   4  14   -0.02    0.15
  -2  -4  14   10.38    0.56
  -2  -4  14   10.69    0.58
  -2   4  14   11.03    0.53
  -2   4  14   10.14    0.53
  -1  -4  14   16.45    0.73
  -1   4  14   15.57    0.79
  -1   4  14   16.26    0.71
  -1   4  14   15.19    0.71
   0  -4  14    2.69    0.37
   0  -4  14    3.00    0.39
   0   4  14    3.04    0.32
   0   4  14    3.12    0.30
   0   4  14    2.77    0.31
   1  -4  14   37.75    1.52
   1  -4  14   39.88    1.53
   1  -4  14   36.70    1.50
   1   4  14   39.18    1.51
   1   4  14   40.31    1.52
   1   4  14   38.35    1.51
   2  -4  14    6.02    0.38
   2  -4  14    6.12    0.40
   2   4  14    5.88    0.37
   2   4  14    5.24    0.44
   2   4  14    5.65    0.38
   2   4  14    5.83    0.42
   3  -4  14    0.04    0.15
   3  -4  14    0.01    0.13
   3   4  14    0.03    0.17
   3   4  14    0.32    0.23
   3   4  14    0.07    0.15
   3   4  14   -0.21    0.14
   4  -4  14   -0.02    0.13
   4  -4  14   -0.06    0.13
   4   4  14   -0.11    0.14
   4   4  14    0.28    0.16
   4   4  14    0.06    0.13
   5  -4  14    0.06    0.11
   5  -4  14    0.11    0.11
   5   4  14    0.16    0.13
   5   4  14    0.33    0.12
   5   4  14   -0.25    0.12
   6  -4  14    0.27    0.11
   6  -4  14    0.70    0.14
   6   4  14    0.57    0.12
   6   4  14    0.40    0.10
   7  -4  14   -0.04    0.08
   7  -4  14    0.00    0.08
   7   4  14   -0.08    0.09
   7   4  14    0.00    0.08
  -8  -5  14    1.80    0.17
  -8   5  14    1.51    0.21
  -8   5  14    2.08    0.16
  -7  -5  14    0.30    0.11
  -7   5  14    0.22    0.10
   7   5 -14    0.05    0.16
  -7   5  14    0.44    0.12
  -6  -5  14    0.27    0.14
  -6   5  14    0.36    0.13
  -6   5  14    0.44    0.12
  -5  -5  14    0.72    0.17
  -5   5  14    0.68    0.16
  -5   5  14    0.80    0.16
  -4  -5  14    6.60    0.42
  -4  -5  14    6.19    0.42
  -4   5  14    6.68    0.40
  -4   5  14    6.07    0.38
  -3  -5  14    4.50    0.36
  -3  -5  14    3.73    0.40
  -3   5  14    4.52    0.34
  -3   5  14    4.18    0.32
  -2  -5  14   26.68    1.35
  -2  -5  14   34.38    1.31
  -2   5  14   32.70    1.28
  -2   5  14   34.29    1.29
  -1  -5  14    1.69    0.32
  -1   5  14    2.22    0.27
  -1   5  14    1.75    0.29
  -1   5  14    1.51    0.35
   0  -5  14   29.57    1.16
   0  -5  14   27.92    1.16
   0   5  14   28.19    1.14
   0   5  14   26.40    1.14
   0   5  14   29.43    1.15
   1  -5  14    6.73    0.43
   1  -5  14    6.65    0.43
   1   5  14    6.59    0.43
   1   5  14    7.16    0.41
   1   5  14    6.57    0.40
   2  -5  14    9.34    0.49
   2  -5  14    8.97    0.47
   2   5  14    9.30    0.51
   2   5  14    9.11    0.49
   2   5  14    9.86    0.54
   2   5  14    8.86    0.47
   3  -5  14    0.69    0.17
   3  -5  14    0.59    0.15
   3   5  14    1.50    0.23
   3   5  14    0.73    0.22
   3   5  14    0.86    0.18
   3   5  14    1.27    0.27
   4  -5  14    4.40    0.31
   4  -5  14    4.73    0.32
   4   5  14    4.44    0.32
   4   5  14    4.38    0.38
   4   5  14    4.54    0.31
   5  -5  14    0.16    0.11
   5  -5  14    0.33    0.12
   5   5  14    0.30    0.12
   5   5  14    0.08    0.11
   5   5  14    0.10    0.13
   6  -5  14    0.16    0.09
   6  -5  14    0.09    0.10
   6   5  14    0.08    0.10
   6   5  14    0.06    0.10
   7  -5  14    0.54    0.12
   7  -5  14    0.69    0.13
   7   5  14    0.89    0.13
   7   5  14    0.76    0.15
  -8  -6  14    3.66    0.22
  -8   6  14    3.63    0.20
  -7  -6  14    3.06    0.23
   7   6 -14    2.57    0.27
  -7   6  14    2.39    0.22
  -7   6  14    2.79    0.21
  -6  -6  14    3.47    0.28
  -6   6  14    3.98    0.26
  -6   6  14    3.32    0.27
  -5  -6  14   13.47    0.66
  -5  -6  14   13.78    0.63
  -5   6  14   14.67    0.67
  -5   6  14   13.85    0.74
  -4  -6  14    1.98    0.29
  -4  -6  14    1.44    0.23
  -4   6  14    2.22    0.26
  -4   6  14    2.01    0.25
  -3  -6  14    0.08    0.17
  -3  -6  14   -0.10    0.22
  -3   6  14   -0.06    0.15
  -3   6  14   -0.10    0.12
  -2  -6  14    5.83    0.41
  -2   6  14    6.18    0.39
  -2   6  14    6.36    0.38
  -1  -6  14   13.61    0.65
  -1   6  14   13.23    0.63
  -1   6  14   13.86    0.64
  -1   6  14   13.18    0.65
   0  -6  14    4.82    0.40
   0  -6  14    4.87    0.39
   0   6  14    5.10    0.34
   0   6  14    5.37    0.36
   0   6  14    4.82    0.36
   1  -6  14   20.10    0.88
   1  -6  14   20.88    0.88
   1  -6  14   20.02    0.89
   1   6  14   21.00    0.88
   1   6  14   20.39    0.87
   1   6  14   20.51    0.87
   2  -6  14    3.13    0.30
   2  -6  14    3.02    0.29
   2  -6  14    3.00    0.39
   2   6  14    2.69    0.28
   2   6  14    2.66    0.29
   2   6  14    2.89    0.37
   2   6  14    3.26    0.33
   3  -6  14    4.26    0.31
   3  -6  14    3.90    0.32
   3   6  14    4.26    0.32
   3   6  14    4.54    0.35
   3   6  14    4.53    0.32
   3   6  14    4.36    0.37
   4   6  14    0.09    0.14
   5  -6  14    0.28    0.11
   5  -6  14    0.33    0.12
   5   6  14   -0.08    0.11
   5   6  14    0.11    0.12
   5   6  14    0.44    0.12
   6  -6  14    9.96    0.46
   6  -6  14   10.05    0.45
   6   6  14   10.98    0.46
   6   6  14   10.33    0.46
   7  -6  14    0.81    0.13
  -7  -6 -14    0.86    0.13
   7  -6  14    0.97    0.12
   7   6  14    0.84    0.13
   7   6  14    0.97    0.16
  -8   7  14    0.33    0.09
  -7  -7  14    1.85    0.20
  -7   7  14    1.89    0.17
   7   7 -14    1.24    0.26
  -6  -7  14    5.82    0.34
  -6   7  14    5.62    0.33
  -6   7  14    5.61    0.32
  -5  -7  14    0.08    0.15
  -5  -7  14    0.15    0.15
  -5   7  14    0.20    0.13
  -5   7  14    0.05    0.12
  -4  -7  14    0.89    0.24
  -4  -7  14    1.11    0.27
  -4   7  14    0.69    0.16
  -4   7  14    1.33    0.24
  -3  -7  14   44.49    1.69
  -3  -7  14   41.49    1.70
  -3   7  14   44.64    1.68
  -3   7  14   43.60    1.68
  -2  -7  14    6.53    0.42
  -2   7  14    5.86    0.38
  -2   7  14    6.32    0.40
  -1  -7  14    4.89    0.44
  -1  -7  14    4.88    0.37
  -1   7  14    4.77    0.34
  -1   7  14    4.77    0.39
  -1   7  14    4.36    0.34
   0  -7  14    5.18    0.39
   0  -7  14    4.63    0.39
   0   7  14    4.74    0.34
   0   7  14    5.44    0.36
   0   7  14    5.17    0.36
   1  -7  14    5.23    0.41
   1  -7  14    5.26    0.39
   1  -7  14    5.72    0.39
   1   7  14    5.80    0.37
   1   7  14    6.31    0.37
   1   7  14    5.43    0.38
   2  -7  14    1.89    0.34
   2  -7  14    2.09    0.28
   2  -7  14    1.91    0.27
   2   7  14    2.61    0.27
   2   7  14    1.78    0.29
   2   7  14    2.07    0.35
   2   7  14    1.74    0.25
   3  -7  14    8.19    0.55
   3  -7  14    9.15    0.47
   3  -7  14    9.53    0.48
   3   7  14    8.97    0.47
   3   7  14    9.44    0.47
   3   7  14    9.23    0.47
   3   7  14    9.85    0.52
   4  -7  14    6.72    0.37
   4  -7  14    5.92    0.35
   4   7  14    6.77    0.38
   4   7  14    6.67    0.36
   4   7  14    6.60    0.36
   5  -7  14    0.07    0.10
  -5  -7 -14    0.26    0.19
   5  -7  14    0.09    0.11
   5   7  14    0.15    0.12
   5   7  14   -0.05    0.11
   5   7  14    0.00    0.10
   6  -7  14    4.95    0.26
   6  -7  14    5.16    0.27
   6   7  14    5.16    0.27
   6   7  14    4.72    0.27
  -7   8  14    3.25    0.21
  -7   8  14    3.42    0.26
  -6  -8  14    1.37    0.22
  -6   8  14    1.55    0.17
  -6   8  14    1.27    0.21
  -5  -8  14    2.54    0.28
  -5  -8  14    2.34    0.28
  -5   8  14    2.40    0.22
  -5   8  14    2.19    0.24
  -4  -8  14    4.22    0.34
  -4  -8  14    3.93    0.38
  -4   8  14    4.42    0.30
  -4   8  14    4.45    0.32
  -3  -8  14   -0.12    0.17
  -3   8  14    0.05    0.15
  -3   8  14   -0.24    0.13
  -2  -8  14    2.24    0.29
  -2   8  14    1.94    0.25
  -2   8  14    2.29    0.27
  -1  -8  14    0.24    0.17
  -1  -8  14   -0.07    0.22
  -1   8  14    0.02    0.14
  -1   8  14    0.51    0.19
  -1   8  14    0.32    0.16
   0  -8  14    1.43    0.28
   0  -8  14    0.95    0.21
   0   8  14    1.59    0.26
   0   8  14    0.96    0.19
   0   8  14    1.43    0.27
   1  -8  14    0.78    0.22
   1  -8  14    0.60    0.18
   1  -8  14    0.69    0.20
   1   8  14    0.77    0.17
   1   8  14    0.47    0.15
   1   8  14    0.66    0.16
   2  -8  14   -0.02    0.14
   2  -8  14    0.23    0.19
   2  -8  14   -0.14    0.15
   2   8  14   -0.15    0.13
   2   8  14    0.32    0.35
   2   8  14    0.28    0.15
   2   8  14   -0.07    0.16
   3  -8  14   -0.07    0.16
   3  -8  14   -0.49    0.22
   3  -8  14    0.06    0.15
   3   8  14    0.20    0.14
   3   8  14   -0.06    0.12
   3   8  14    0.26    0.18
   4  -8  14    0.09    0.11
   4  -8  14    0.05    0.11
   4   8  14   -0.02    0.13
   4   8  14   -0.21    0.11
   4   8  14   -0.05    0.10
  -5  -8 -14   -0.09    0.15
   5  -8  14   -0.04    0.09
   5  -8  14   -0.03    0.10
   5   8  14   -0.09    0.11
   5   8  14    0.01    0.10
   5   8  14   -0.04    0.10
   6  -8  14    0.17    0.09
   6  -8  14    0.18    0.08
   6   8  14    0.10    0.10
   6   8  14    0.14    0.10
  -7  -9  14    8.93    0.41
  -7   9  14    9.23    0.39
  -6  -9  14   11.57    0.51
  -6   9  14   10.86    0.50
  -6   9  14   12.06    0.50
  -5  -9  14    6.05    0.39
  -5  -9  14    6.82    0.39
  -5   9  14    6.05    0.35
  -5   9  14    6.24    0.34
  -4  -9  14    0.28    0.17
  -4   9  14    0.34    0.14
  -4   9  14    0.44    0.13
  -3  -9  14    3.08    0.32
  -3   9  14    3.65    0.29
  -3   9  14    3.54    0.29
  -2  -9  14    1.70    0.28
  -2   9  14    1.33    0.24
  -2   9  14    1.61    0.25
  -2   9  14    1.84    0.36
  -1  -9  14    3.12    0.31
  -1  -9  14    3.17    0.34
  -1   9  14    3.45    0.29
  -1   9  14    3.45    0.33
  -1   9  14    3.58    0.31
   0  -9  14    0.38    0.18
   0  -9  14    0.40    0.18
   0   9  14    0.35    0.15
   0   9  14    0.11    0.16
   0   9  14   -0.03    0.14
   1  -9  14    0.29    0.18
   1  -9  14    0.40    0.16
   1  -9  14    0.74    0.27
   1   9  14    0.24    0.16
   1   9  14    0.30    0.13
   1   9  14    0.21    0.14
   2  -9  14   -0.11    0.15
   2  -9  14    0.12    0.19
   2  -9  14    0.00    0.13
   2   9  14    0.27    0.13
   2   9  14    0.28    0.15
   2   9  14    0.30    0.14
   3  -9  14    0.32    0.13
   3  -9  14    0.47    0.22
   3  -9  14    0.65    0.14
   3   9  14    0.34    0.14
   3   9  14    0.62    0.18
   3   9  14    0.27    0.12
   4  -9  14    4.37    0.29
   4  -9  14    4.60    0.27
   4   9  14    4.14    0.27
   4   9  14    4.42    0.28
   4   9  14    4.63    0.30
   5  -9  14    2.24    0.20
   5  -9  14    2.16    0.17
  -5  -9 -14    2.17    0.25
   5   9  14    1.84    0.20
   5   9  14    2.45    0.19
   5   9  14    2.10    0.18
   6  -9  14    1.10    0.12
   6  -9  14    1.27    0.14
   6   9  14    0.91    0.15
   6   9  14    0.91    0.14
  -6 -10  14    0.17    0.18
  -6  10  14    0.24    0.10
  -6  10  14    0.30    0.14
  -5 -10  14    1.42    0.25
  -5  10  14    1.55    0.21
  -5  10  14    1.22    0.18
  -4 -10  14    4.93    0.35
  -4  10  14    4.95    0.31
  -4  10  14    4.91    0.30
  -3 -10  14    0.44    0.18
  -3  10  14    0.26    0.12
  -3  10  14    0.24    0.12
  -2 -10  14    2.71    0.29
  -2  10  14    1.74    0.32
  -2  10  14    2.21    0.25
  -2  10  14    2.48    0.26
  -1 -10  14    0.06    0.16
  -1  10  14    0.12    0.13
  -1  10  14   -0.08    0.14
  -1  10  14    0.21    0.17
   0 -10  14    0.72    0.20
   0 -10  14    1.09    0.24
   0  10  14    1.13    0.24
   0  10  14    0.64    0.15
   0  10  14    1.27    0.24
   1 -10  14    2.55    0.31
   1 -10  14    3.53    0.39
   1  10  14    2.76    0.27
   1  10  14    3.14    0.29
   1  10  14    3.17    0.27
   2 -10  14    3.89    0.34
   2 -10  14    4.51    0.30
   2 -10  14    3.86    0.30
   2  10  14    4.57    0.31
   2  10  14    4.30    0.28
   2  10  14    4.13    0.29
   3 -10  14    0.22    0.22
   3 -10  14    0.12    0.12
   3 -10  14    0.06    0.11
   3  10  14    0.33    0.12
   3  10  14    0.33    0.17
   3  10  14    0.24    0.11
   4 -10  14    0.06    0.10
   4 -10  14    0.08    0.10
   4  10  14    0.25    0.11
   4  10  14    0.02    0.09
   4  10  14    0.34    0.14
  -5 -10 -14    0.79    0.14
   5 -10  14    0.84    0.15
   5 -10  14    0.70    0.14
   5  10  14    0.58    0.16
   5  10  14    0.88    0.15
   6 -10  14    0.15    0.08
   6  10  14    0.05    0.11
   6  10  14    0.15    0.10
  -6  11  14    0.09    0.09
  -5 -11  14    0.26    0.16
  -5  11  14   -0.03    0.12
  -5  11  14    0.20    0.10
  -4  11  14    0.11    0.12
  -4  11  14   -0.13    0.10
  -3 -11  14    0.67    0.18
  -3  11  14    0.16    0.12
  -3  11  14    0.56    0.14
  -2 -11  14    1.47    0.27
  -2  11  14    1.33    0.21
  -2  11  14    1.23    0.27
  -2  11  14    1.43    0.22
  -1 -11  14    0.01    0.16
  -1 -11  14    0.22    0.16
  -1  11  14    0.07    0.15
  -1  11  14    0.14    0.16
   0 -11  14    3.32    0.32
   0 -11  14    3.59    0.28
   0  11  14    2.63    0.29
   0  11  14    3.77    0.28
   1 -11  14    0.06    0.12
   1 -11  14    0.21    0.17
   1  11  14    0.14    0.13
   1  11  14   -0.11    0.12
   1  11  14    0.22    0.13
   2 -11  14    0.58    0.18
   2 -11  14    0.77    0.18
   2  11  14    0.39    0.12
   2  11  14    0.18    0.12
   3 -11  14    0.10    0.10
   3 -11  14   -0.16    0.18
   3 -11  14    0.04    0.11
   3  11  14    0.08    0.11
   3  11  14   -0.14    0.10
   3  11  14    0.06    0.18
   4 -11  14    1.01    0.16
   4  11  14    0.85    0.26
   4  11  14    1.22    0.16
   4  11  14    1.25    0.17
  -5 -11 -14    0.00    0.13
   5 -11  14    0.10    0.13
   5  11  14   -0.06    0.08
   5  11  14    0.47    0.13
  -6  12  14    0.53    0.15
  -5  12  14   -0.10    0.12
  -5  12  14    0.15    0.16
  -4 -12  14    5.53    0.35
  -4  12  14    5.55    0.31
  -4  12  14    5.53    0.30
  -3 -12  14    7.69    0.50
  -3  12  14    7.16    0.37
  -3  12  14    6.63    0.37
  -2 -12  14    2.75    0.28
  -2  12  14    2.67    0.27
  -2  12  14    2.66    0.24
  -2  12  14    2.43    0.23
  -1 -12  14    1.90    0.27
  -1 -12  14    1.87    0.24
  -1  12  14    1.68    0.23
  -1  12  14    1.60    0.21
  -1  12  14    2.08    0.22
   0 -12  14    4.81    0.33
   0 -12  14    4.93    0.36
   0  12  14    5.47    0.32
   0  12  14    5.37    0.32
   0  12  14    5.64    0.32
   1 -12  14    0.90    0.19
   1 -12  14    0.53    0.14
   1  12  14    0.65    0.14
   1  12  14    0.90    0.19
   1  12  14    0.96    0.19
   2 -12  14   17.68    0.76
   2 -12  14   17.50    0.73
   2  12  14   17.87    0.73
   2  12  14   17.43    0.72
   3 -12  14    2.36    0.32
   3 -12  14    2.12    0.20
   3  12  14    2.20    0.21
   3  12  14    2.52    0.19
  -4 -12 -14   -0.03    0.09
   4 -12  14    0.31    0.09
   4  12  14    0.08    0.18
   4  12  14    0.18    0.09
   4  12  14    0.24    0.10
  -5 -12 -14    4.55    0.28
   5  12  14    5.10    0.24
  -5  13  14    2.82    0.23
  -4 -13  14    5.22    0.35
  -4  13  14    4.61    0.31
  -4  13  14    6.06    0.32
  -3 -13  14    3.20    0.29
  -3  13  14    2.58    0.22
  -3  13  14    2.84    0.24
  -2 -13  14    0.11    0.16
  -2  13  14    0.00    0.11
  -2  13  14    0.12    0.15
  -2  13  14    0.10    0.12
  -1  13  14   18.40    0.75
  -1  13  14   17.06    0.74
  -1  13  14   19.27    0.75
   0 -13  14    1.60    0.20
   0 -13  14    1.78    0.33
   0  13  14    1.50    0.20
   0  13  14    1.34    0.19
   0  13  14    1.80    0.20
   1 -13  14    0.12    0.11
   1 -13  14    0.29    0.17
   1  13  14    0.23    0.12
   1  13  14    0.16    0.10
   2 -13  14    2.89    0.30
   2 -13  14    2.07    0.20
   2  13  14    2.03    0.19
   2  13  14    2.03    0.20
   3 -13  14    2.46    0.20
   3 -13  14    3.55    0.40
   3  13  14    2.52    0.18
   3  13  14    2.53    0.19
   4 -13  14    1.32    0.14
  -4 -13 -14    1.71    0.16
   4  13  14    1.69    0.15
  -4  14  14    0.05    0.15
  -3 -14  14    0.56    0.17
  -3  14  14    0.50    0.14
  -3  14  14    0.45    0.13
  -2 -14  14    0.53    0.17
  -2  14  14    0.46    0.13
  -2  14  14    0.77    0.16
  -2  14  14    0.45    0.12
  -1 -14  14    0.21    0.15
  -1  14  14   -0.12    0.11
  -1  14  14    0.05    0.12
  -1  14  14   -0.04    0.11
   0 -14  14    0.97    0.24
   0  14  14    1.04    0.19
   0  14  14    1.03    0.18
   1 -14  14    0.20    0.17
   1 -14  14    0.65    0.12
   1  14  14    0.63    0.13
   1  14  14    0.65    0.15
   2 -14  14    0.65    0.19
   2 -14  14    0.43    0.10
   2  14  14    0.59    0.13
   2  14  14    0.36    0.14
   3 -14  14    0.25    0.09
  -3 -14 -14    0.95    0.20
   3  14  14    0.39    0.13
   3  14  14    0.35    0.10
  -2 -15  14    0.22    0.17
  -2  15  14   -0.12    0.20
  -2  15  14   -0.01    0.16
  -1 -15  14    0.96    0.19
  -1  15  14    1.19    0.17
  -1  15  14    0.85    0.17
   0 -15  14    2.01    0.26
   0  15  14    1.45    0.16
   0  15  14    1.58    0.23
   1 -15  14    0.41    0.23
   1  15  14    0.41    0.17
   1  15  14    0.24    0.09
   2 -15  14    1.10    0.13
   2  15  14    0.76    0.13
  -3 -15 -14    2.36    0.17
  -1  16  14    0.92    0.17
   1  16 -14    1.07    0.17
   0  16  14    0.74    0.13
   1  16  14    2.12    0.16
  -8   0  15    0.02    0.09
  -7   0  15   -0.19    0.12
   7   0 -15    0.18    0.20
  -7   0  15   -0.11    0.10
  -6   0  15    0.34    0.14
  -6   0  15   -0.15    0.12
   6   0 -15    0.01    0.19
  -5   0  15   -0.09    0.14
  -5   0  15   -0.03    0.14
  -4   0  15   -0.21    0.14
  -4   0  15   -0.09    0.16
  -3   0  15    0.25    0.17
  -3   0  15   -0.20    0.15
  -2   0  15   -0.12    0.17
  -2   0  15   -0.14    0.18
  -1   0  15    0.03    0.20
  -1   0  15   -0.13    0.18
   0   0  15    0.03    0.22
   0   0  15    0.06    0.22
   0   0  15    0.30    0.19
   1   0  15    0.14    0.25
   1   0  15   -0.03    0.17
   1   0  15   -0.26    0.19
   2   0  15    0.16    0.18
   2   0  15   -0.11    0.15
   2   0  15   -0.36    0.19
   3   0  15    0.07    0.14
   3   0  15    0.07    0.15
   3   0  15    0.49    0.19
   4   0  15    0.11    0.16
   4   0  15    0.04    0.17
   5   0  15   -0.02    0.11
   5   0  15    0.08    0.10
   6   0  15   -0.16    0.08
   6   0  15    0.11    0.10
   7   0  15   -0.02    0.08
   7   0  15   -0.01    0.08
  -8  -1  15    0.19    0.09
  -8   1  15    0.19    0.13
  -8   1  15   -0.04    0.09
  -7  -1  15    2.26    0.27
   7  -1 -15    3.53    0.36
  -7  -1  15    2.62    0.22
  -7   1  15    2.67    0.21
  -7   1  15    2.77    0.22
   7   1 -15    2.81    0.32
  -6  -1  15    4.08    0.29
  -6  -1  15    4.13    0.30
   6   1 -15    3.86    0.33
  -6   1  15    3.90    0.28
  -6   1  15    4.06    0.28
  -5  -1  15   11.59    0.57
  -5  -1  15   13.10    0.59
   5  -1 -15   12.17    0.61
  -5   1  15   13.54    0.58
  -5   1  15   10.40    0.62
  -4  -1  15    7.82    0.45
  -4  -1  15    7.78    0.44
  -4   1  15    7.44    0.43
  -4   1  15    8.07    0.44
  -3  -1  15    1.16    0.22
  -3  -1  15    1.46    0.28
  -3   1  15    1.66    0.27
  -3   1  15    1.78    0.29
  -2  -1  15   17.14    0.79
  -2  -1  15   18.31    0.81
  -2   1  15   18.89    0.80
  -2   1  15   19.11    0.81
  -1  -1  15    3.13    0.38
  -1  -1  15    3.28    0.38
  -1   1  15    2.72    0.34
  -1   1  15    3.24    0.32
   0  -1  15   22.89    0.95
   0  -1  15   21.23    0.98
   0   1  15   22.59    0.94
   0   1  15   22.85    0.94
   0   1  15   21.47    0.94
   1  -1  15   23.21    1.00
   1  -1  15   23.40    0.99
   1  -1  15   23.09    0.97
   1   1  15   23.86    1.01
   1   1  15   23.37    0.97
   1   1  15   23.68    0.98
   2  -1  15    0.87    0.24
   2  -1  15    0.36    0.16
   2  -1  15   -0.20    0.18
   2   1  15    0.50    0.20
   2   1  15    0.30    0.16
   2   1  15    0.37    0.19
   3  -1  15    3.70    0.29
   3  -1  15    2.88    0.37
   3  -1  15    3.51    0.30
   3   1  15    3.37    0.29
   3   1  15    3.17    0.32
   3   1  15    3.61    0.32
   4  -1  15    0.58    0.20
   4  -1  15    0.57    0.19
   4   1  15    0.40    0.16
   4   1  15    0.19    0.15
   5  -1  15    0.79    0.18
   5  -1  15    1.01    0.17
   5   1  15    0.90    0.18
   5   1  15    1.11    0.19
   6  -1  15    6.22    0.30
   6  -1  15    5.52    0.31
   6   1  15    5.85    0.31
   6   1  15    5.88    0.30
   7  -1  15    0.51    0.12
   7  -1  15    0.74    0.12
   7   1  15    0.59    0.12
   7   1  15    0.65    0.12
  -8  -2  15    0.56    0.13
  -8   2  15    0.22    0.10
  -8   2  15    0.21    0.11
  -7  -2  15    6.06    0.32
   7  -2 -15    6.72    0.47
  -7   2  15    5.98    0.32
   7   2 -15    6.43    0.39
  -7   2  15    5.77    0.31
  -6  -2  15    1.15    0.26
  -6  -2  15    1.05    0.21
   6  -2 -15    0.90    0.25
  -6   2  15    1.01    0.20
  -6   2  15    1.02    0.20
   6   2 -15    0.85    0.20
   5  -2 -15    5.44    0.44
  -5  -2  15    5.08    0.38
  -5   2  15    5.11    0.39
  -5   2  15    5.98    0.36
  -4  -2  15    0.15    0.21
  -4  -2  15   -0.10    0.16
  -4   2  15    0.00    0.14
  -4   2  15    0.32    0.14
  -3  -2  15    0.42    0.22
  -3  -2  15   -0.05    0.21
  -3  -2  15    0.04    0.16
  -3   2  15   -0.12    0.15
  -3   2  15    0.10    0.15
  -2  -2  15    3.46    0.49
  -2  -2  15    3.34    0.35
  -2  -2  15    3.13    0.41
  -2   2  15    3.15    0.31
  -2   2  15    3.46    0.31
  -1  -2  15   42.71    1.69
  -1   2  15   42.89    1.67
  -1   2  15   44.57    1.68
   0   2  15    1.01    0.22
   0   2  15    1.66    0.31
   0   2  15    1.28    0.21
   1  -2  15    0.98    0.20
   1  -2  15    1.85    0.34
   1   2  15    0.76    0.18
   1   2  15    1.45    0.26
   1   2  15    0.75    0.23
   2  -2  15    7.07    0.40
   2  -2  15    6.77    0.43
   2   2  15    7.10    0.45
   2   2  15    6.60    0.42
   2   2  15    6.81    0.40
   2   2  15    6.87    0.56
   3  -2  15    3.04    0.27
   3  -2  15    2.79    0.29
   3   2  15    2.51    0.26
   3   2  15    1.80    0.29
   3   2  15    2.36    0.30
   4  -2  15    0.64    0.16
   4  -2  15    0.80    0.24
   4   2  15    0.71    0.16
   4   2  15    1.01    0.24
   5  -2  15    2.30    0.20
   5  -2  15    1.85    0.21
   5   2  15    1.98    0.22
   5   2  15    2.11    0.20
   6  -2  15    1.09    0.16
   6  -2  15    1.17    0.17
   6   2  15    1.12    0.16
   6   2  15    1.66    0.17
   7  -2  15    0.12    0.08
   7  -2  15    0.12    0.09
   7   2  15    0.10    0.08
   7   2  15    0.05    0.08
  -8  -3  15    0.88    0.14
  -8   3  15    1.01    0.17
  -8   3  15    0.86    0.15
  -7  -3  15    0.90    0.18
  -7   3  15    0.49    0.11
  -7   3  15    0.48    0.11
   7   3 -15    0.66    0.18
  -6  -3  15    0.54    0.14
  -6   3  15    0.34    0.12
  -6   3  15    0.52    0.12
  -5  -3  15    0.92    0.17
  -5   3  15    0.88    0.20
  -4  -3  15    3.54    0.32
  -4   3  15    3.04    0.29
  -4   3  15    3.53    0.30
  -3  -3  15    2.26    0.35
  -3  -3  15    2.12    0.32
  -3   3  15    2.27    0.28
  -3   3  15    2.15    0.28
  -2  -3  15   -0.05    0.22
  -2  -3  15    0.37    0.20
  -2   3  15   -0.08    0.17
  -2   3  15    0.29    0.16
  -1  -3  15    1.29    0.28
  -1   3  15    1.42    0.27
  -1   3  15    1.41    0.26
   0   3  15   -0.19    0.15
   0   3  15    0.15    0.17
   0   3  15    0.31    0.20
   1  -3  15   14.55    0.69
   1  -3  15   15.10    0.70
   1   3  15   15.03    0.68
   1   3  15   14.81    0.68
   1   3  15   15.38    0.70
   2  -3  15    0.24    0.17
   2  -3  15    0.20    0.16
   2   3  15   -0.26    0.22
   2   3  15    0.26    0.15
   2   3  15    0.13    0.14
   2   3  15   -0.20    0.20
   3  -3  15    0.35    0.14
   3  -3  15    0.08    0.15
   3   3  15    0.31    0.15
   3   3  15    0.50    0.17
   3   3  15    0.18    0.16
   4  -3  15   14.80    0.65
   4  -3  15   14.56    0.63
   4   3  15   14.16    0.64
   4   3  15   14.28    0.63
   4   3  15   14.27    0.64
   5  -3  15    1.68    0.18
   5  -3  15    1.57    0.19
   5   3  15    1.66    0.21
   5   3  15    1.45    0.18
   5   3  15    1.37    0.20
   6  -3  15    1.52    0.15
   6  -3  15    1.22    0.15
   6   3  15    1.05    0.15
   6   3  15    1.06    0.15
   7  -3  15    0.71    0.12
   7  -3  15    0.52    0.12
   7   3  15    0.67    0.13
   7   3  15    0.36    0.10
  -8  -4  15    0.00    0.08
  -8   4  15   -0.07    0.09
  -7  -4  15    5.61    0.31
   7   4 -15    6.60    0.38
  -7   4  15    6.02    0.31
  -7   4  15    5.76    0.30
  -6  -4  15   -0.15    0.12
  -6   4  15   -0.01    0.11
  -6   4  15    0.04    0.11
  -5  -4  15    2.56    0.28
  -5   4  15    1.82    0.25
  -5   4  15    1.91    0.23
  -4  -4  15    4.31    0.35
  -4  -4  15    3.27    0.34
  -4   4  15    3.32    0.31
  -4   4  15    3.67    0.29
  -3  -4  15    2.46    0.33
  -3  -4  15    2.45    0.34
  -3   4  15    2.76    0.29
  -3   4  15    3.49    0.30
  -2  -4  15    7.49    0.48
  -2  -4  15    7.21    0.49
  -2   4  15    7.78    0.43
  -2   4  15    7.60    0.43
  -1  -4  15   13.12    0.67
  -1   4  15   13.68    0.62
  -1   4  15   13.56    0.64
   0  -4  15   15.67    0.78
   0   4  15   16.62    0.73
   0   4  15   17.39    0.75
   0   4  15   16.77    0.74
   1  -4  15   32.68    1.30
   1  -4  15   32.78    1.32
   1   4  15   33.94    1.31
   1   4  15   32.67    1.30
   1   4  15   32.88    1.31
   2  -4  15    1.02    0.20
   2  -4  15    0.60    0.17
   2   4  15    0.35    0.15
   2   4  15    1.43    0.33
   2   4  15    1.02    0.24
   2   4  15    0.92    0.23
   3  -4  15    0.20    0.14
   3  -4  15    0.41    0.15
   3   4  15    0.55    0.18
   3   4  15    0.34    0.15
   4  -4  15    3.59    0.28
   4  -4  15    3.34    0.26
   4   4  15    3.78    0.29
   4   4  15    3.56    0.28
   4   4  15    3.09    0.25
   5  -4  15    0.01    0.10
   5  -4  15    0.14    0.11
   5   4  15    0.06    0.11
   5   4  15    0.10    0.11
   5   4  15    0.12    0.10
   6  -4  15    1.51    0.16
   6  -4  15    1.70    0.16
   6   4  15    1.66    0.16
   6   4  15    1.66    0.16
  -7  -5  15    0.16    0.10
  -7   5  15    0.37    0.10
  -7   5  15    0.28    0.11
   7   5 -15    0.33    0.17
  -6  -5  15    0.23    0.13
  -6   5  15    0.32    0.12
  -6   5  15    0.08    0.10
  -5  -5  15    4.81    0.32
  -5   5  15    3.99    0.28
  -5   5  15    3.93    0.29
  -4  -5  15   22.90    1.01
  -4   5  15   25.19    0.99
  -4   5  15   24.37    0.99
  -3  -5  15    2.49    0.35
  -3  -5  15    2.11    0.32
  -3   5  15    2.87    0.29
  -3   5  15    2.78    0.27
  -2  -5  15    3.53    0.36
  -2   5  15    3.97    0.32
  -2   5  15    3.79    0.31
  -1  -5  15    0.32    0.21
  -1   5  15    0.39    0.16
  -1   5  15    0.50    0.26
  -1   5  15    0.78    0.17
   0  -5  15    0.75    0.25
   0  -5  15    1.03    0.25
   0   5  15    1.25    0.27
   0   5  15    1.45    0.27
   0   5  15    1.21    0.25
   1  -5  15   15.39    0.72
   1  -5  15   15.28    0.71
   1   5  15   16.45    0.71
   1   5  15   16.30    0.71
   1   5  15   15.68    0.70
   2  -5  15    9.20    0.48
   2  -5  15    9.22    0.49
   2   5  15    9.37    0.48
   2   5  15    9.36    0.48
   2   5  15    8.70    0.51
   2   5  15    9.10    0.53
   3  -5  15    1.86    0.24
   3  -5  15    1.36    0.24
   3   5  15    1.81    0.24
   3   5  15    1.29    0.22
   3   5  15    1.44    0.27
   4  -5  15    1.74    0.21
   4  -5  15    1.53    0.21
   4   5  15    2.21    0.21
   4   5  15    1.82    0.24
   4   5  15    1.79    0.22
   5  -5  15    2.50    0.21
   5  -5  15    2.12    0.19
   5   5  15    1.86    0.20
   5   5  15    1.88    0.20
   5   5  15    2.35    0.20
   6  -5  15    1.71    0.14
   6  -5  15    1.27    0.15
   6   5  15    1.52    0.16
   6   5  15    1.30    0.15
  -7  -6  15    0.08    0.11
   7   6 -15   -0.13    0.22
  -7   6  15    0.07    0.11
  -7   6  15    0.12    0.09
  -6  -6  15    2.79    0.24
  -6   6  15    2.61    0.21
  -6   6  15    2.71    0.22
  -5  -6  15    2.59    0.28
  -5   6  15    2.65    0.24
  -5   6  15    2.00    0.21
  -4  -6  15    0.22    0.17
  -4  -6  15    0.45    0.18
  -4   6  15    0.35    0.13
  -4   6  15    0.27    0.14
  -3  -6  15    3.41    0.34
  -3  -6  15    3.48    0.44
  -3   6  15    3.45    0.29
  -3   6  15    3.90    0.31
  -2  -6  15    0.62    0.20
  -2   6  15    0.44    0.15
  -2   6  15    0.33    0.15
  -1  -6  15    2.95    0.35
  -1   6  15    3.24    0.29
  -1   6  15    3.29    0.36
  -1   6  15    3.46    0.30
   0  -6  15    4.38    0.39
   0  -6  15    4.64    0.39
   0   6  15    4.59    0.34
   0   6  15    4.60    0.33
   0   6  15    4.32    0.34
   1  -6  15    0.60    0.24
   1  -6  15    0.57    0.19
   1  -6  15    0.47    0.22
   1   6  15    0.79    0.18
   1   6  15    0.66    0.16
   1   6  15    0.67    0.16
   2  -6  15    6.92    0.41
   2  -6  15    7.54    0.40
   2   6  15    6.50    0.39
   2   6  15    6.50    0.41
   2   6  15    6.40    0.39
   3  -6  15    6.34    0.37
   3  -6  15    6.39    0.38
   3   6  15    6.81    0.40
   4  -6  15   -0.01    0.11
   4  -6  15   -0.05    0.11
   4   6  15    0.08    0.11
   4   6  15    0.08    0.11
   4   6  15   -0.04    0.13
   5  -6  15    0.63    0.16
   5  -6  15    0.75    0.15
   5   6  15    0.77    0.18
   5   6  15    0.70    0.16
   5   6  15    0.76    0.16
   6  -6  15    0.06    0.10
   6  -6  15    0.08    0.15
   6   6  15    0.15    0.09
   6   6  15    0.18    0.09
  -7   7  15    1.09    0.14
  -7   7  15    0.84    0.18
  -6  -7  15    0.29    0.13
  -6   7  15   -0.10    0.09
  -6   7  15   -0.02    0.10
  -5  -7  15    0.51    0.16
  -5   7  15    0.35    0.12
  -5   7  15    0.42    0.13
  -4  -7  15   10.23    0.52
  -4  -7  15    9.55    0.51
  -4   7  15    9.47    0.47
  -4   7  15    9.73    0.47
  -3  -7  15    3.15    0.32
  -3   7  15    2.90    0.27
  -3   7  15    2.92    0.28
  -2  -7  15    0.10    0.17
  -2   7  15    0.00    0.12
  -2   7  15    0.14    0.14
  -1  -7  15    1.21    0.30
  -1   7  15    1.43    0.24
  -1   7  15    1.43    0.26
  -1   7  15    1.57    0.32
   0  -7  15    2.11    0.32
   0  -7  15    1.99    0.33
   0   7  15    1.90    0.25
   0   7  15    2.29    0.27
   0   7  15    1.60    0.28
   1  -7  15    1.55    0.34
   1  -7  15    1.20    0.24
   1  -7  15    1.60    0.27
   1   7  15    1.67    0.25
   1   7  15    1.42    0.23
   1   7  15    1.50    0.26
   2  -7  15    9.77    0.50
   2  -7  15    8.72    0.56
   2  -7  15    9.18    0.48
   2   7  15   10.04    0.48
   2   7  15   10.01    0.55
   2   7  15    9.70    0.48
   3  -7  15    1.47    0.21
   3  -7  15    1.28    0.20
   3   7  15    1.30    0.20
   3   7  15    1.88    0.27
   3   7  15    1.70    0.22
   4  -7  15    0.81    0.16
   4  -7  15    0.61    0.13
   4   7  15    0.86    0.16
   4   7  15    1.25    0.22
   4   7  15    0.83    0.18
   5  -7  15    0.26    0.10
   5  -7  15    0.15    0.09
   5   7  15    0.16    0.10
   5   7  15    0.15    0.11
   5   7  15    0.19    0.09
   6  -7  15    3.22    0.19
   6  -7  15    2.82    0.18
   6   7  15    3.09    0.18
   6   7  15    2.70    0.19
  -6  -8  15    1.23    0.23
  -6   8  15    1.18    0.15
  -6   8  15    1.81    0.18
  -5  -8  15   -0.02    0.17
  -5   8  15   -0.09    0.10
  -5   8  15   -0.01    0.11
  -4  -8  15    0.98    0.20
  -4   8  15    1.33    0.21
  -4   8  15    1.24    0.20
  -3  -8  15    0.38    0.17
  -2  -8  15    5.55    0.39
  -2   8  15    5.73    0.35
  -2   8  15    5.83    0.36
  -1  -8  15    0.35    0.19
  -1   8  15    0.08    0.29
  -1   8  15    0.34    0.15
  -1   8  15    0.42    0.15
   0  -8  15    3.70    0.35
   0  -8  15    4.37    0.38
   0   8  15    4.27    0.31
   0   8  15    4.49    0.33
   0   8  15    4.51    0.31
   1  -8  15    2.48    0.35
   1  -8  15    3.01    0.41
   1   8  15    2.79    0.27
   1   8  15    2.57    0.25
   1   8  15    2.38    0.27
   2  -8  15   -0.03    0.13
   2  -8  15    0.14    0.24
   2  -8  15   -0.15    0.15
   2   8  15    0.23    0.15
   2   8  15    0.32    0.13
   3  -8  15    7.31    0.38
   3  -8  15    7.38    0.39
   3   8  15    7.31    0.42
   3   8  15    7.77    0.39
   3   8  15    7.29    0.38
   4  -8  15   19.50    0.80
   4  -8  15   19.11    0.78
   4   8  15   19.92    0.80
   4   8  15   19.97    0.79
   4   8  15   19.11    0.79
   5  -8  15    0.14    0.09
   5  -8  15   -0.02    0.09
   5   8  15    0.11    0.09
   5   8  15   -0.03    0.16
   6  -8  15    6.24    0.28
   6  -8  15    6.65    0.29
   6   8  15    6.07    0.29
   6   8  15    6.03    0.29
  -6  -9  15    0.71    0.19
  -6   9  15    0.43    0.12
  -6   9  15    0.28    0.09
  -5   9  15    6.86    0.34
  -5   9  15    6.65    0.34
  -4  -9  15    0.45    0.17
  -4   9  15    0.21    0.11
  -4   9  15    0.18    0.11
  -3  -9  15    2.80    0.30
  -3   9  15    2.59    0.22
  -3   9  15    2.36    0.24
  -2  -9  15   -0.06    0.16
  -1  -9  15    1.49    0.29
  -1  -9  15    2.47    0.34
  -1   9  15    1.71    0.23
  -1   9  15    1.43    0.23
  -1   9  15    1.77    0.27
   0  -9  15   10.71    0.53
   0  -9  15    9.66    0.54
   0   9  15   10.76    0.52
   0   9  15   11.27    0.52
   0   9  15   11.65    0.52
   1  -9  15    7.09    0.45
   1  -9  15    7.28    0.41
   1   9  15    7.10    0.39
   1   9  15    7.80    0.45
   2  -9  15    2.05    0.37
   2  -9  15    2.10    0.24
   2  -9  15    2.06    0.24
   2   9  15    2.41    0.23
   2   9  15    2.06    0.25
   2   9  15    2.28    0.22
   3  -9  15    0.30    0.12
   3  -9  15    0.41    0.12
   3   9  15    0.30    0.18
   3   9  15    0.29    0.11
   3   9  15    0.39    0.12
   4  -9  15    0.83    0.15
   4  -9  15    0.64    0.12
   4   9  15    0.94    0.17
   4   9  15    0.97    0.16
   4   9  15    1.00    0.21
   5  -9  15    0.86    0.13
   5  -9  15    0.98    0.15
   5   9  15    0.83    0.18
   5   9  15    0.89    0.13
  -6  10  15    0.00    0.08
  -6  10  15    0.09    0.17
  -5  10  15    0.38    0.11
  -5  10  15    0.39    0.10
  -4 -10  15    3.35    0.29
  -4  10  15    3.21    0.24
  -4  10  15    3.50    0.24
  -3 -10  15    0.57    0.17
  -3  10  15    0.35    0.12
  -3  10  15    0.68    0.13
  -2 -10  15    0.58    0.17
  -2  10  15    0.48    0.12
  -2  10  15    0.33    0.12
  -1 -10  15    0.49    0.18
  -1 -10  15    0.32    0.19
  -1  10  15    0.48    0.13
  -1  10  15    0.51    0.16
  -1  10  15    0.33    0.12
   0 -10  15    3.59    0.33
   0 -10  15    3.06    0.29
   0  10  15    3.29    0.26
   0  10  15    3.30    0.26
   0  10  15    3.09    0.25
   1 -10  15    0.48    0.19
   1 -10  15    0.36    0.14
   1  10  15    0.12    0.11
   1  10  15    0.04    0.12
   1  10  15    0.12    0.12
   2 -10  15    0.20    0.21
   2 -10  15    0.06    0.11
   2 -10  15   -0.21    0.14
   2  10  15   -0.02    0.11
   2  10  15   -0.21    0.10
   3 -10  15    0.45    0.12
   3 -10  15    1.00    0.32
   3 -10  15    1.20    0.18
   3  10  15    0.67    0.16
   3  10  15    0.70    0.15
  -4 -10 -15   -0.04    0.12
   4 -10  15    0.07    0.09
   4 -10  15    0.21    0.09
   4  10  15    0.02    0.09
   4  10  15    0.01    0.16
   4  10  15   -0.02    0.08
   5 -10  15    0.12    0.08
   5  10  15   -0.15    0.08
  -6  11  15    0.20    0.10
  -5  11  15    4.86    0.28
  -4 -11  15    0.11    0.17
  -4  11  15    0.01    0.11
  -4  11  15    0.17    0.10
  -3 -11  15    2.46    0.28
  -3  11  15    1.95    0.20
  -3  11  15    2.06    0.21
  -2 -11  15    0.34    0.16
  -2  11  15    0.21    0.11
  -2  11  15    0.33    0.12
  -1 -11  15    4.46    0.34
  -1  11  15    4.30    0.27
  -1  11  15    4.05    0.29
  -1  11  15    4.22    0.28
   0 -11  15    4.30    0.33
   0 -11  15    3.96    0.29
   0  11  15    3.93    0.27
   0  11  15    4.19    0.28
   0  11  15    3.86    0.27
   1 -11  15    0.34    0.13
   1 -11  15    0.43    0.18
   1  11  15    0.49    0.13
   1  11  15    0.48    0.12
   1  11  15    0.25    0.12
   2 -11  15   -0.02    0.10
   2 -11  15   -0.24    0.20
   2  11  15    0.13    0.11
   2  11  15    0.02    0.10
   3 -11  15    0.34    0.10
   3  11  15    0.23    0.10
   3  11  15    0.37    0.11
  -4 -11 -15    0.69    0.17
   4  11  15    1.01    0.14
   4  11  15    0.94    0.14
  -5  12  15    0.34    0.11
  -4 -12  15    0.03    0.16
  -4  12  15    0.09    0.10
  -3 -12  15    2.60    0.27
  -3  12  15    2.34    0.21
  -3  12  15    2.86    0.21
  -2 -12  15    2.02    0.27
  -2  12  15    1.65    0.19
  -2  12  15    1.87    0.20
  -1 -12  15    0.10    0.16
  -1  12  15    0.05    0.11
  -1  12  15   -0.10    0.13
  -1  12  15   -0.10    0.10
   0 -12  15    1.97    0.28
   0 -12  15    1.97    0.22
   0  12  15    2.17    0.21
   0  12  15    2.23    0.21
   0  12  15    2.00    0.21
   1 -12  15    3.29    0.24
   1 -12  15    2.89    0.30
   1  12  15    3.23    0.23
   1  12  15    3.32    0.23
   1  12  15    2.90    0.23
   2 -12  15    0.64    0.15
   2 -12  15    0.45    0.22
   2  12  15    0.60    0.14
   2  12  15    0.75    0.15
   3 -12  15    0.08    0.09
   3  12  15    0.24    0.10
   3  12  15    0.10    0.08
  -4 -12 -15    0.14    0.11
   4 -12  15    0.48    0.12
   4  12  15    0.03    0.08
  -4  13  15    0.13    0.11
  -4  13  15    0.03    0.14
  -3 -13  15    0.40    0.17
  -3  13  15    0.64    0.16
  -3  13  15    0.94    0.17
  -2 -13  15    0.36    0.17
  -2  13  15    0.28    0.11
  -2  13  15    0.21    0.11
  -1 -13  15    0.21    0.16
  -1  13  15    0.02    0.12
  -1  13  15    0.01    0.10
  -1  13  15    0.20    0.11
   0 -13  15    2.23    0.29
   0  13  15    2.56    0.21
   0  13  15    2.06    0.20
   0  13  15    2.07    0.19
   1 -13  15    1.22    0.17
   1 -13  15    1.58    0.28
   1  13  15    1.28    0.16
   1  13  15    1.18    0.17
   2 -13  15    0.14    0.10
   2  13  15    0.26    0.09
   2  13  15    0.12    0.11
   3 -13  15    0.23    0.09
   3  13  15    0.21    0.09
   3  13  15    0.31    0.11
  -3  14  15    2.74    0.23
  -3  14  15    2.65    0.23
  -2 -14  15    8.63    0.52
  -2  14  15    7.31    0.34
  -2  14  15    6.47    0.34
  -1 -14  15    0.56    0.18
  -1  14  15    0.49    0.13
  -1  14  15    0.60    0.13
  -1  14  15    0.72    0.15
   0 -14  15    1.81    0.28
   0  14  15    1.68    0.18
   0  14  15    1.57    0.16
   1  14  15    0.96    0.15
   1  14  15    1.52    0.17
   2 -14  15    2.81    0.18
   2  14  15    2.71    0.18
   2  14  15    2.87    0.22
   0  15  15    1.69    0.17
   1  15  15    1.22    0.14
  -7   0  16    0.47    0.16
  -7   0  16    0.79    0.15
   6   0 -16    2.97    0.39
  -6   0  16    3.77    0.27
  -6   0  16    3.04    0.25
  -5   0  16   20.79    0.84
  -5   0  16   20.16    0.84
  -4   0  16    0.71    0.17
  -4   0  16    0.58    0.19
  -3   0  16    3.36    0.30
  -3   0  16    3.10    0.32
  -2   0  16    3.15    0.31
  -2   0  16    2.42    0.31
  -1   0  16   10.61    0.55
  -1   0  16   10.63    0.54
   0   0  16    5.39    0.39
   0   0  16    4.60    0.44
   1   0  16   19.37    0.83
   1   0  16   19.18    0.82
   2   0  16    3.53    0.36
   2   0  16    4.61    0.36
   2   0  16    4.54    0.32
   3   0  16    3.13    0.26
   3   0  16    3.08    0.28
   3   0  16    3.10    0.31
   4   0  16   16.61    0.71
   4   0  16   16.50    0.69
   5   0  16    0.75    0.15
   5   0  16    0.47    0.12
   6   0  16    0.03    0.08
   6   0  16    0.05    0.11
  -7  -1  16    0.19    0.09
  -7   1  16    0.27    0.12
  -7   1  16    0.09    0.09
  -6  -1  16    0.08    0.10
  -6  -1  16    0.22    0.16
   6  -1 -16    0.10    0.32
  -6   1  16    0.10    0.12
  -6   1  16    0.04    0.10
   6   1 -16    0.43    0.21
  -5  -1  16    0.39    0.16
  -5  -1  16    0.02    0.12
   5   1 -16    0.25    0.21
  -5   1  16    0.22    0.12
  -5   1  16    0.63    0.15
  -4  -1  16   10.12    0.54
  -4   1  16   11.19    0.53
  -4   1  16   12.43    0.60
  -3  -1  16    1.23    0.27
  -3  -1  16    1.35    0.31
  -3   1  16    1.95    0.27
  -3   1  16    0.88    0.18
  -2  -1  16    5.02    0.39
  -2  -1  16    4.99    0.38
  -2   1  16    4.93    0.35
  -2   1  16    4.43    0.35
  -1  -1  16    0.53    0.22
  -1  -1  16    1.00    0.23
  -1   1  16    0.80    0.18
  -1   1  16    0.46    0.19
   0  -1  16    2.56    0.38
   0   1  16    3.08    0.53
   0   1  16    2.74    0.36
   0   1  16    3.64    0.32
   1  -1  16    8.13    0.50
   1  -1  16    7.75    0.45
   1   1  16    8.84    0.58
   1   1  16    8.39    0.46
   1   1  16    7.15    0.44
   2  -1  16    3.83    0.31
   2  -1  16    4.19    0.35
   2   1  16    3.82    0.42
   2   1  16    3.96    0.31
   2   1  16    4.41    0.34
   3  -1  16    4.70    0.32
   3  -1  16    4.03    0.30
   3   1  16    4.23    0.30
   3   1  16    4.76    0.32
   3   1  16    4.06    0.32
   4  -1  16    1.07    0.20
   4  -1  16    0.62    0.13
   4   1  16    0.78    0.18
   4   1  16    0.46    0.14
   4   1  16    0.50    0.16
   5  -1  16    0.00    0.09
   5  -1  16    0.10    0.10
   5   1  16   -0.13    0.09
   5   1  16    0.10    0.11
   6  -1  16    0.73    0.13
   6   1  16    0.63    0.14
  -7  -2  16    0.15    0.09
  -7   2  16    0.12    0.11
  -7   2  16    0.22    0.09
  -6  -2  16    1.47    0.19
  -6   2  16    1.53    0.20
  -6   2  16    1.87    0.20
   6   2 -16    2.35    0.31
  -5  -2  16    9.76    0.47
  -5   2  16   10.26    0.47
  -5   2  16    9.41    0.47
  -4  -2  16    0.21    0.15
  -4   2  16    0.02    0.13
  -3  -2  16    3.83    0.33
  -3   2  16    4.30    0.33
  -3   2  16    4.01    0.32
  -2  -2  16    4.02    0.38
  -2   2  16    4.08    0.34
  -2   2  16    3.95    0.32
  -1  -2  16    0.41    0.24
  -1   2  16    0.61    0.19
  -1   2  16    0.30    0.17
   0   2  16    0.22    0.18
   0   2  16   -0.24    0.15
   0   2  16    0.45    0.21
   1  -2  16    4.96    0.37
   1  -2  16    5.32    0.42
   1   2  16    5.17    0.42
   1   2  16    4.40    0.35
   1   2  16    4.38    0.35
   2  -2  16    3.52    0.30
   2  -2  16    3.44    0.33
   2   2  16    3.81    0.30
   2   2  16    3.49    0.30
   3  -2  16    0.75    0.15
   3  -2  16    0.73    0.16
   3   2  16    0.71    0.17
   3   2  16    0.43    0.14
   3   2  16    1.02    0.23
   4  -2  16    3.07    0.25
   4  -2  16    3.57    0.27
   4   2  16    3.76    0.27
   4   2  16    3.40    0.25
   4   2  16    3.47    0.27
   5  -2  16    0.32    0.10
   5  -2  16    0.12    0.10
   5   2  16    0.13    0.10
   5   2  16    0.23    0.11
   6  -2  16    0.25    0.09
   6  -2  16    0.38    0.09
   6   2  16    0.20    0.09
   6   2  16    0.36    0.09
  -7  -3  16    1.48    0.20
  -7   3  16    1.81    0.17
  -6  -3  16    1.85    0.20
   6   3 -16    1.41    0.27
  -6   3  16    1.82    0.19
  -6   3  16    1.47    0.19
  -5  -3  16    0.14    0.12
  -5   3  16    0.19    0.12
  -5   3  16    0.12    0.12
  -4  -3  16   -0.17    0.14
  -4   3  16    0.02    0.17
  -4   3  16   -0.08    0.12
  -3  -3  16    0.41    0.17
  -3  -3  16   -0.08    0.22
  -3   3  16   -0.03    0.16
  -3   3  16    0.04    0.13
  -2  -3  16   10.27    0.55
  -2  -3  16    9.55    0.59
  -2   3  16   10.56    0.51
  -2   3  16   10.66    0.52
  -1   3  16   -0.07    0.16
  -1   3  16    0.26    0.16
   0   3  16    0.07    0.17
   0   3  16   -0.05    0.15
   0   3  16    0.30    0.20
   1  -3  16   15.08    0.72
   1  -3  16   15.46    0.70
   1   3  16   14.77    0.68
   1   3  16   16.91    0.72
   1   3  16   15.36    0.69
   2  -3  16    0.29    0.23
   2  -3  16   -0.08    0.18
   2   3  16    0.10    0.15
   2   3  16    0.05    0.20
   2   3  16    0.11    0.22
   2   3  16    0.25    0.14
   3  -3  16    0.39    0.14
   3  -3  16    0.40    0.14
   3   3  16    0.15    0.12
   3   3  16    0.21    0.14
   3   3  16   -0.01    0.16
   4  -3  16    0.73    0.17
   4  -3  16    0.59    0.13
   4   3  16    0.61    0.14
   4   3  16    0.39    0.12
   4   3  16    0.91    0.21
   5  -3  16    1.33    0.17
   5  -3  16    0.97    0.15
   5   3  16    1.37    0.17
   5   3  16    1.09    0.15
   6  -3  16    0.07    0.07
   6  -3  16    0.01    0.08
   6   3  16   -0.03    0.08
   6   3  16    0.08    0.10
  -7  -4  16    0.03    0.09
  -7   4  16    0.12    0.09
  -7   4  16    0.15    0.09
  -6  -4  16    3.74    0.24
  -6   4  16    3.56    0.24
   6   4 -16    2.54    0.31
  -6   4  16    3.00    0.22
  -5  -4  16    0.23    0.13
  -5   4  16    0.21    0.12
  -5   4  16   -0.03    0.11
  -4  -4  16    0.75    0.17
  -4   4  16    1.03    0.20
  -4   4  16    0.99    0.21
  -3  -4  16    3.00    0.35
  -3  -4  16    1.97    0.32
  -3   4  16    2.95    0.28
  -3   4  16    3.53    0.27
  -2  -4  16    4.17    0.49
  -2  -4  16    3.40    0.40
  -2   4  16    3.80    0.29
  -2   4  16    3.69    0.31
  -1  -4  16    0.21    0.26
  -1   4  16    0.50    0.16
  -1   4  16    0.39    0.15
   0   4  16    0.46    0.17
   0   4  16    0.10    0.18
   0   4  16    0.29    0.17
   1  -4  16    0.40    0.20
   1  -4  16    0.07    0.31
   1   4  16    0.09    0.14
   1   4  16    0.32    0.15
   1   4  16    0.31    0.18
   2  -4  16   -0.05    0.17
   2  -4  16    0.10    0.15
   2   4  16    0.27    0.20
   2   4  16    0.51    0.14
   2   4  16    0.29    0.16
   3  -4  16    5.56    0.34
   3  -4  16    5.73    0.33
   3   4  16    5.08    0.36
   3   4  16    4.98    0.32
   3   4  16    5.30    0.32
   4  -4  16    1.12    0.19
   4  -4  16    1.38    0.18
   4   4  16    0.93    0.18
   4   4  16    1.28    0.20
   4   4  16    1.19    0.21
   5  -4  16    0.00    0.09
   5  -4  16   -0.10    0.09
   5   4  16    0.02    0.08
   5   4  16    0.13    0.11
   6  -4  16    0.06    0.07
   6  -4  16    0.24    0.09
   6   4  16    0.20    0.08
   6   4  16    0.10    0.10
  -7  -5  16    0.98    0.16
  -7   5  16    1.05    0.17
  -7   5  16    1.24    0.14
  -6  -5  16    2.56    0.22
  -6   5  16    2.61    0.19
  -6   5  16    2.51    0.21
  -5  -5  16    2.27    0.31
  -5   5  16    2.20    0.22
  -5   5  16    2.24    0.21
  -4  -5  16    0.06    0.16
  -4   5  16    0.11    0.12
  -4   5  16    0.00    0.11
  -3  -5  16    0.10    0.19
  -3  -5  16   -0.03    0.19
  -3   5  16   -0.15    0.13
  -3   5  16    0.20    0.14
  -2  -5  16    4.60    0.41
  -2   5  16    6.10    0.37
  -2   5  16    6.07    0.36
  -1  -5  16    0.83    0.25
  -1   5  16    0.74    0.17
  -1   5  16    0.67    0.17
   0   5  16    2.83    0.32
   0   5  16    3.70    0.32
   0   5  16    2.86    0.29
   1   5  16    2.77    0.27
   1   5  16    2.58    0.30
   1   5  16    2.48    0.26
   2  -5  16    1.20    0.24
   2  -5  16    1.45    0.24
   2   5  16    1.28    0.28
   2   5  16    1.08    0.20
   3  -5  16   14.52    0.63
   3  -5  16   13.86    0.61
   3   5  16   14.82    0.62
   3   5  16   13.35    0.63
   3   5  16   14.38    0.62
   4  -5  16   -0.11    0.10
   4  -5  16    0.09    0.11
   4   5  16   -0.02    0.11
   4   5  16   -0.04    0.10
   4   5  16    0.06    0.12
   5  -5  16    0.04    0.08
   5  -5  16    0.03    0.09
   5   5  16    0.04    0.11
   5   5  16    0.04    0.08
   6  -5  16    2.70    0.18
   6  -5  16    2.92    0.17
   6   5  16    3.00    0.19
   6   5  16    3.15    0.18
  -7  -6  16    0.09    0.11
  -7   6  16   -0.05    0.09
  -7   6  16    0.12    0.10
  -6  -6  16    0.44    0.20
  -6   6  16    0.55    0.11
  -6   6  16    1.14    0.17
  -5  -6  16    4.13    0.29
  -5   6  16    4.05    0.27
  -5   6  16    4.09    0.25
  -4  -6  16    6.94    0.42
  -4  -6  16    6.71    0.41
  -4   6  16    6.63    0.36
  -4   6  16    7.48    0.38
  -3  -6  16    0.47    0.20
  -3   6  16    0.08    0.11
  -3   6  16   -0.34    0.12
  -2  -6  16   26.05    1.16
  -2   6  16   30.29    1.14
  -2   6  16   28.89    1.14
  -1  -6  16   10.27    0.58
  -1   6  16   11.40    0.53
  -1   6  16   11.87    0.54
   0  -6  16    3.79    0.41
   0   6  16    4.43    0.31
   0   6  16    4.18    0.31
   1  -6  16    4.58    0.35
   1   6  16    4.97    0.41
   1   6  16    5.35    0.33
   2  -6  16   -0.18    0.14
   2  -6  16   -0.13    0.13
   2   6  16   -0.04    0.13
   2   6  16    0.14    0.16
   2   6  16    0.10    0.12
   3  -6  16    2.59    0.24
   3  -6  16    2.80    0.23
   3   6  16    2.49    0.29
   3   6  16    2.77    0.24
   3   6  16    3.05    0.23
   4  -6  16    0.50    0.11
   4  -6  16    1.02    0.17
   4   6  16    0.57    0.14
   4   6  16    0.67    0.13
   4   6  16    0.79    0.15
   5  -6  16   -0.07    0.09
   5  -6  16    0.00    0.09
   5   6  16    0.08    0.08
   5   6  16    0.18    0.12
  -6  -7  16    0.51    0.14
  -6   7  16    0.28    0.12
  -6   7  16    0.43    0.09
  -5  -7  16    0.87    0.18
  -5   7  16    0.93    0.15
  -5   7  16    0.87    0.18
  -4   7  16    0.55    0.12
  -4   7  16    0.87    0.18
  -3  -7  16    2.91    0.31
  -3   7  16    2.38    0.25
  -3   7  16    2.90    0.23
  -2  -7  16    3.24    0.34
  -2   7  16    3.20    0.35
  -1  -7  16   12.79    0.63
  -1   7  16   13.76    0.60
  -1   7  16   13.28    0.68
  -1   7  16   12.36    0.63
   0  -7  16    9.78    0.54
   0  -7  16   10.88    0.58
   0   7  16   10.89    0.51
   0   7  16   11.25    0.56
   1  -7  16    1.47    0.26
   1  -7  16    1.73    0.34
   1   7  16    1.39    0.24
   1   7  16    1.02    0.20
   1   7  16    1.06    0.22
   2  -7  16    0.23    0.15
   2  -7  16    0.02    0.13
   2   7  16    0.13    0.12
   2   7  16    0.13    0.12
   2   7  16    0.02    0.14
   3  -7  16    4.15    0.28
   3  -7  16    4.52    0.28
   3   7  16    4.68    0.27
   3   7  16    4.25    0.28
   4  -7  16    0.28    0.11
   4  -7  16    0.15    0.10
  -4  -7 -16    0.11    0.18
   4   7  16   -0.07    0.21
   4   7  16   -0.04    0.09
   4   7  16    0.11    0.10
   5  -7  16    1.18    0.18
   5  -7  16    1.90    0.15
   5   7  16    1.46    0.15
   5   7  16    2.00    0.19
  -6   8  16    0.17    0.09
  -6   8  16    0.20    0.10
  -5   8  16    7.09    0.35
  -5   8  16    7.36    0.35
  -4  -8  16    1.89    0.28
  -4   8  16    1.87    0.19
  -4   8  16    2.01    0.20
  -3  -8  16    4.30    0.35
  -3   8  16    4.07    0.27
  -3   8  16    4.07    0.27
  -2  -8  16    0.62    0.19
  -2   8  16    0.39    0.12
  -2   8  16    0.21    0.12
  -1  -8  16    0.16    0.19
  -1   8  16    0.09    0.12
  -1   8  16    0.30    0.18
  -1   8  16    0.26    0.13
   0  -8  16   -0.16    0.17
   0  -8  16    0.12    0.19
   0   8  16    0.04    0.11
   0   8  16   -0.06    0.14
   0   8  16   -0.14    0.12
   1  -8  16    1.61    0.24
   1   8  16    1.59    0.22
   1   8  16    1.72    0.22
   1   8  16    1.75    0.20
   2  -8  16    2.01    0.24
   2  -8  16    1.65    0.22
   2   8  16    1.88    0.20
   2   8  16    1.78    0.23
   2   8  16    1.90    0.21
   3  -8  16    0.90    0.18
   3  -8  16    0.72    0.13
   3   8  16    0.98    0.17
   3   8  16    1.04    0.17
  -4  -8 -16    2.35    0.27
   4  -8  16    2.32    0.19
   4  -8  16    2.54    0.19
   4   8  16    2.56    0.18
   4   8  16    2.50    0.26
   4   8  16    2.50    0.19
   5  -8  16    1.42    0.14
   5  -8  16    1.32    0.14
   5   8  16    1.47    0.14
  -6   9  16    1.68    0.21
  -5   9  16    1.62    0.18
  -5   9  16    1.82    0.17
  -4  -9  16    0.19    0.17
  -4   9  16    0.03    0.09
  -4   9  16   -0.07    0.09
  -3  -9  16    1.36    0.28
  -3   9  16    1.93    0.20
  -3   9  16    1.92    0.20
  -2  -9  16    0.26    0.17
  -2   9  16    0.06    0.10
  -2   9  16   -0.13    0.10
  -1  -9  16    0.34    0.19
  -1   9  16    0.08    0.11
  -1   9  16    0.38    0.12
  -1   9  16   -0.02    0.16
   0  -9  16    1.16    0.25
   0   9  16    1.57    0.22
   0   9  16    1.39    0.22
   0   9  16    0.87    0.19
   1  -9  16    0.36    0.14
   1  -9  16    0.48    0.24
   1   9  16    0.75    0.14
   1   9  16    0.34    0.13
   1   9  16    0.44    0.11
   2  -9  16    1.57    0.20
   2   9  16    2.08    0.20
   2   9  16    1.77    0.20
   3  -9  16    0.10    0.10
   3  -9  16    0.04    0.12
   3   9  16    0.08    0.10
   3   9  16    0.12    0.09
   4  -9  16    0.23    0.09
  -4  -9 -16    0.50    0.15
   4  -9  16    0.49    0.10
   4   9  16    0.50    0.10
   4   9  16    0.58    0.12
   5  -9  16    1.74    0.14
   5   9  16    1.46    0.14
  -5  10  16    0.33    0.10
  -5  10  16    0.18    0.11
  -4 -10  16   13.22    0.60
  -4  10  16   13.55    0.56
  -3 -10  16    0.09    0.17
  -3  10  16    0.18    0.10
  -3  10  16    0.20    0.10
  -2 -10  16   -0.12    0.17
  -2  10  16   -0.02    0.10
  -2  10  16   -0.07    0.10
  -1 -10  16    1.02    0.20
  -1  10  16    1.39    0.19
  -1  10  16    1.08    0.17
  -1  10  16    1.39    0.24
   0 -10  16    5.45    0.38
   0 -10  16    4.96    0.32
   0  10  16    4.69    0.29
   0  10  16    4.59    0.28
   0  10  16    4.79    0.30
   1 -10  16    1.01    0.25
   1 -10  16    1.59    0.21
   1  10  16    1.62    0.21
   1  10  16    1.71    0.20
   1  10  16    1.75    0.19
   2 -10  16   -0.04    0.10
   2  10  16    0.18    0.10
   2  10  16    0.51    0.11
   3 -10  16    3.50    0.23
   3  10  16    4.35    0.24
   3  10  16    3.71    0.23
   4 -10  16    0.00    0.08
  -4 -10 -16   -0.09    0.13
   4  10  16   -0.06    0.07
   4  10  16   -0.07    0.08
  -5  11  16    0.76    0.14
  -4 -11  16    1.42    0.34
  -4  11  16    1.28    0.15
  -3 -11  16    0.37    0.16
  -3  11  16    0.14    0.10
  -3  11  16    0.19    0.10
  -2 -11  16   -0.25    0.17
  -2  11  16    0.04    0.10
  -2  11  16   -0.03    0.09
  -1 -11  16    4.05    0.34
  -1  11  16    3.98    0.26
  -1  11  16    4.39    0.29
  -1  11  16    3.92    0.25
   0 -11  16    2.54    0.24
   0 -11  16    2.52    0.32
   0  11  16    2.40    0.20
   0  11  16    2.45    0.21
   0  11  16    2.55    0.22
   1 -11  16   -0.04    0.22
   1 -11  16    0.02    0.12
   1  11  16   -0.01    0.10
   1  11  16    0.05    0.10
   1  11  16    0.13    0.11
   2 -11  16    1.33    0.17
   2  11  16    1.26    0.16
   2  11  16    1.13    0.16
   3 -11  16    0.92    0.14
   3  11  16    0.74    0.14
   3  11  16    0.83    0.18
   4 -11  16    1.22    0.13
   4  11  16    1.03    0.13
  -4  12  16    0.74    0.18
  -4  12  16    0.82    0.14
  -3 -12  16    0.17    0.21
  -3  12  16   -0.17    0.14
  -3  12  16   -0.11    0.10
  -2 -12  16   -0.05    0.17
  -2  12  16    0.10    0.09
  -2  12  16    0.17    0.10
  -1 -12  16    0.40    0.18
  -1  12  16    0.78    0.12
  -1  12  16    0.69    0.16
  -1  12  16    0.76    0.12
   0  12  16    9.79    0.42
   0  12  16    9.44    0.42
   0  12  16    9.14    0.42
   1 -12  16    0.83    0.18
   1  12  16    0.86    0.15
   1  12  16    0.69    0.15
   2 -12  16    1.58    0.17
   3 -12  16    0.67    0.13
  -3 -12 -16    0.85    0.15
   3  12  16    0.62    0.12
   3  12  16    0.54    0.11
  -2  13  16    1.51    0.16
  -2  13  16    1.23    0.16
  -1  13  16    1.00    0.15
  -1  13  16    0.29    0.10
   0  13  16    1.88    0.17
   0  13  16    2.27    0.19
   1  13  16    0.10    0.09
   1  13  16    0.09    0.10
   2 -13  16    5.24    0.26
   2  13  16    5.46    0.25
   2  13  16    5.03    0.26
  -1  14  16    1.09    0.21
   0  14  16    0.80    0.19
   1  14  16    0.02    0.10
  -7   0  17    0.01    0.09
  -6   0  17   -0.04    0.09
  -6   0  17    0.11    0.16
  -5   0  17    0.34    0.14
  -5   0  17    0.13    0.11
  -4   0  17    0.04    0.14
  -4   0  17   -0.11    0.12
  -3   0  17   -0.29    0.15
  -3   0  17    0.10    0.14
  -2   0  17    0.14    0.20
  -2   0  17    0.09    0.17
  -1   0  17   -0.10    0.21
   0   0  17    0.06    0.18
   1   0  17   -0.11    0.16
   1   0  17    0.29    0.19
   2   0  17   -0.18    0.18
   2   0  17    0.09    0.13
   2   0  17    0.24    0.18
   3   0  17   -0.23    0.14
   3   0  17   -0.12    0.18
   3   0  17   -0.02    0.11
   4   0  17   -0.02    0.12
   4   0  17   -0.03    0.10
   5   0  17   -0.01    0.08
   5   0  17    0.08    0.11
  -7  -1  17    2.61    0.19
  -7   1  17    3.01    0.19
  -6  -1  17   15.37    0.64
  -6   1  17   16.14    0.64
  -5  -1  17    0.41    0.12
  -5   1  17    0.55    0.13
  -5   1  17    0.56    0.12
  -4  -1  17    0.77    0.19
  -4  -1  17    0.65    0.15
  -4   1  17    1.10    0.22
  -4   1  17    1.21    0.21
  -3  -1  17   14.79    0.65
  -3  -1  17   14.84    0.66
  -3   1  17   14.46    0.64
  -3   1  17   14.78    0.65
  -2  -1  17   -0.06    0.17
  -2  -1  17    0.45    0.21
  -2   1  17    0.47    0.16
  -1  -1  17    3.65    0.37
  -1  -1  17    4.05    0.53
   0   1  17    0.50    0.20
   1  -1  17    0.07    0.17
   1   1  17    0.08    0.16
   1   1  17    0.34    0.17
   2  -1  17    0.96    0.22
   2  -1  17    0.84    0.19
   2   1  17    0.99    0.16
   2   1  17    1.02    0.18
   3  -1  17   12.43    0.55
   3  -1  17   12.39    0.54
   3   1  17   11.74    0.54
   3   1  17   12.24    0.56
   3   1  17   12.07    0.55
   4  -1  17    0.17    0.11
   4  -1  17    0.17    0.10
   4   1  17    0.25    0.10
   4   1  17    0.21    0.12
   5  -1  17    1.15    0.14
   5  -1  17    1.04    0.22
   5   1  17    0.96    0.16
   5   1  17    1.11    0.14
  -7  -2  17    4.37    0.23
  -7   2  17    3.81    0.22
  -6  -2  17    2.48    0.20
  -6   2  17    2.09    0.20
  -6   2  17    2.14    0.19
  -5  -2  17    3.11    0.24
  -5   2  17    2.91    0.23
   5   2 -17    2.96    0.39
  -5   2  17    2.82    0.24
  -4  -2  17    7.32    0.39
  -4   2  17    7.87    0.39
  -4   2  17    7.36    0.39
  -3  -2  17    0.09    0.16
  -3   2  17   -0.07    0.12
  -3   2  17    0.22    0.14
  -2  -2  17   -0.01    0.19
  -2   2  17    0.39    0.15
   0   2  17    0.72    0.20
   1  -2  17    0.54    0.19
   1   2  17    0.74    0.17
   1   2  17    1.08    0.23
   1   2  17    0.69    0.17
   2  -2  17    3.48    0.31
   2  -2  17    3.28    0.28
   2   2  17    3.38    0.29
   2   2  17    3.83    0.28
   3  -2  17    0.48    0.13
   3  -2  17    0.74    0.16
   3   2  17    0.85    0.15
   3   2  17    0.57    0.13
   3   2  17    1.02    0.24
   4  -2  17   -0.04    0.10
   4  -2  17   -0.08    0.11
   4   2  17    0.05    0.10
   4   2  17    0.01    0.12
   4   2  17   -0.16    0.13
   5  -2  17    5.65    0.27
   5  -2  17    5.35    0.30
   5   2  17    5.36    0.27
   5   2  17    5.72    0.29
  -6  -3  17   -0.07    0.10
  -6   3  17    0.15    0.12
  -6   3  17   -0.02    0.09
  -5  -3  17    2.15    0.22
  -5   3  17    2.14    0.21
  -5   3  17    1.86    0.20
  -4  -3  17    3.41    0.28
  -4   3  17    3.32    0.26
  -4   3  17    3.21    0.25
  -3  -3  17    7.35    0.44
  -3   3  17    8.06    0.41
  -3   3  17    8.14    0.41
  -2  -3  17    2.39    0.34
  -2   3  17    2.25    0.24
  -2   3  17    1.78    0.26
   0   3  17    5.79    0.38
   1   3  17    2.95    0.34
   1   3  17    2.60    0.26
   1   3  17    2.96    0.27
   2  -3  17    0.91    0.22
   2  -3  17    1.17    0.26
   2   3  17    1.08    0.23
   2   3  17    1.01    0.21
   3  -3  17    0.10    0.11
   3  -3  17    0.26    0.13
   3   3  17    0.18    0.12
   3   3  17   -0.12    0.17
   3   3  17    0.14    0.11
   4  -3  17    1.83    0.19
   4  -3  17    1.95    0.19
   4   3  17    1.60    0.21
   4   3  17    1.82    0.18
   4   3  17    1.62    0.20
   5  -3  17    0.70    0.14
   5  -3  17    0.56    0.14
   5   3  17    0.33    0.09
   5   3  17    0.46    0.12
  -6  -4  17    6.25    0.31
  -6   4  17    6.18    0.30
  -6   4  17    5.86    0.31
  -5  -4  17    0.00    0.12
  -5   4  17    0.22    0.10
  -5   4  17    0.06    0.10
  -4  -4  17    0.72    0.16
  -4   4  17    0.88    0.18
  -4   4  17    0.57    0.13
  -3  -4  17    1.39    0.30
  -3   4  17    1.15    0.20
  -3   4  17    1.40    0.21
  -2   4  17    0.23    0.13
  -2   4  17    0.23    0.13
  -1   4  17    7.48    0.41
  -1   4  17    7.46    0.43
   0   4  17   16.09    0.68
   0   4  17   15.92    0.68
   0   4  17   15.05    0.68
   1  -4  17    3.31    0.48
   1   4  17    2.27    0.29
   1   4  17    2.81    0.26
   1   4  17    3.00    0.26
   2  -4  17    3.76    0.28
   2  -4  17    3.72    0.30
   2   4  17    3.29    0.26
   2   4  17    2.93    0.35
   2   4  17    3.96    0.27
   3  -4  17    6.03    0.32
   3  -4  17    5.87    0.33
   3   4  17    5.69    0.32
   3   4  17    5.84    0.37
   3   4  17    5.81    0.32
   4  -4  17    0.24    0.10
   4  -4  17    0.34    0.11
   4   4  17    0.32    0.11
   4   4  17    0.23    0.10
   4   4  17    0.33    0.20
   5  -4  17    0.16    0.08
   5  -4  17    0.03    0.09
   5   4  17    0.22    0.12
   5   4  17   -0.03    0.08
  -6  -5  17    3.87    0.26
  -6   5  17    3.94    0.22
  -5  -5  17    6.17    0.34
  -5   5  17    6.44    0.32
  -5   5  17    5.79    0.31
  -4  -5  17    0.18    0.17
  -4   5  17   -0.12    0.11
  -4   5  17    0.05    0.10
  -3   5  17    9.17    0.44
  -3   5  17    8.70    0.44
  -2  -5  17    3.57    0.57
  -2   5  17    3.94    0.28
  -2   5  17    4.16    0.28
  -1   5  17    5.69    0.34
  -1   5  17    4.93    0.33
   0   5  17    0.70    0.16
   0   5  17    0.91    0.19
   0   5  17    0.46    0.13
   1   5  17    0.90    0.17
   1   5  17    0.61    0.13
   1   5  17    1.05    0.25
   2  -5  17    0.27    0.15
   2  -5  17    0.10    0.14
   2   5  17    0.12    0.17
   2   5  17    0.20    0.12
   2   5  17    0.19    0.12
   3  -5  17   11.47    0.51
   3  -5  17   11.48    0.49
   3   5  17   10.86    0.50
   3   5  17   11.19    0.50
   4  -5  17    2.20    0.18
   4  -5  17    2.28    0.20
   4   5  17    1.78    0.19
   4   5  17    2.51    0.24
   4   5  17    2.35    0.18
   5  -5  17    0.28    0.09
   5  -5  17    0.26    0.10
   5   5  17    0.12    0.08
   5   5  17    0.26    0.21
  -6   6  17    4.02    0.22
  -6   6  17    4.00    0.23
  -5  -6  17    1.69    0.26
  -5   6  17    2.14    0.19
  -5   6  17    2.11    0.18
  -4   6  17   -0.04    0.09
  -4   6  17    0.01    0.11
  -3  -6  17   -0.42    0.21
  -3   6  17    0.16    0.11
  -3   6  17    0.19    0.11
  -2  -6  17    0.12    0.29
  -2   6  17    0.03    0.11
  -2   6  17    0.25    0.12
  -1  -6  17    8.11    0.63
  -1   6  17    8.93    0.44
  -1   6  17    8.48    0.43
   0   6  17    0.76    0.14
   0   6  17    0.86    0.17
   0   6  17    1.08    0.23
   1  -6  17    8.30    0.45
   1   6  17    9.20    0.43
   1   6  17    9.29    0.43
   1   6  17    8.54    0.44
   2  -6  17   10.06    0.47
   2  -6  17   10.11    0.47
   2   6  17   10.23    0.47
   2   6  17    9.80    0.46
   3  -6  17    1.36    0.19
   3  -6  17    1.21    0.19
   3   6  17    1.27    0.17
   3   6  17    1.59    0.18
   4  -6  17    0.75    0.15
   4  -6  17    1.01    0.20
   4   6  17    0.68    0.15
   4   6  17    1.06    0.14
   5  -6  17    0.22    0.09
   5  -6  17    0.41    0.09
   5   6  17    0.21    0.08
  -6   7  17    0.09    0.09
  -6   7  17    0.01    0.08
  -5   7  17   -0.08    0.08
  -5   7  17    0.08    0.09
  -4   7  17    0.56    0.11
  -4   7  17    0.50    0.11
  -3  -7  17    1.43    0.32
  -3   7  17    1.72    0.20
  -3   7  17    1.99    0.20
  -2  -7  17    0.70    0.23
  -2   7  17    0.40    0.11
  -2   7  17    0.40    0.12
  -1  -7  17    1.03    0.27
  -1   7  17    1.26    0.20
  -1   7  17    1.35    0.19
   0   7  17    0.95    0.20
   0   7  17    0.96    0.22
   0   7  17    0.91    0.18
   1  -7  17    1.10    0.23
   1   7  17    1.00    0.18
   1   7  17    0.57    0.13
   1   7  17    1.03    0.22
   2  -7  17    0.91    0.21
   2   7  17    0.98    0.17
   2   7  17    1.27    0.18
   3  -7  17    4.25    0.26
   3   7  17    4.38    0.25
   3   7  17    4.33    0.25
   4  -7  17    0.39    0.10
   4  -7  17    0.48    0.10
   4   7  17    0.31    0.09
   4   7  17    0.28    0.11
  -5   8  17    3.68    0.22
  -4   8  17    6.62    0.32
  -4   8  17    6.74    0.33
  -3  -8  17    0.25    0.21
  -3   8  17   -0.05    0.09
  -3   8  17    0.10    0.10
  -2  -8  17    1.89    0.32
  -2   8  17    1.58    0.20
  -2   8  17    1.72    0.19
  -1  -8  17    2.48    0.38
  -1   8  17    2.45    0.21
  -1   8  17    2.55    0.22
   0  -8  17   -0.12    0.29
   0   8  17    0.21    0.12
   0   8  17   -0.04    0.14
   0   8  17    0.11    0.10
   1  -8  17    0.13    0.15
   1   8  17    0.35    0.13
   1   8  17    0.38    0.12
   1   8  17    0.36    0.11
   2  -8  17    0.23    0.12
   2   8  17    0.39    0.11
   2   8  17    0.31    0.10
   3  -8  17    0.07    0.10
   3  -8  17   -0.11    0.13
   3   8  17    0.21    0.09
   3   8  17    0.24    0.09
   4  -8  17    0.18    0.09
   4  -8  17    0.38    0.12
   4   8  17    0.11    0.08
   4   8  17    0.14    0.08
  -5   9  17    1.85    0.15
  -5   9  17    1.73    0.17
  -4   9  17    0.11    0.09
  -4   9  17   -0.09    0.08
  -3  -9  17    3.74    0.35
  -3   9  17    3.99    0.25
  -3   9  17    3.97    0.23
  -2  -9  17    9.73    0.51
  -2   9  17    9.19    0.42
  -2   9  17    8.87    0.42
  -1  -9  17    1.56    0.35
  -1   9  17    1.01    0.17
  -1   9  17    0.93    0.18
   0  -9  17    4.03    0.46
   0   9  17    4.24    0.26
   0   9  17    4.03    0.27
   0   9  17    4.03    0.27
   1  -9  17    1.34    0.21
   1   9  17    1.40    0.20
   1   9  17    1.31    0.19
   1   9  17    1.34    0.17
   2  -9  17    5.55    0.31
   2   9  17    5.37    0.29
   2   9  17    6.05    0.29
   3  -9  17    0.08    0.10
   3   9  17    0.04    0.09
   3   9  17   -0.02    0.12
   4  -9  17    0.40    0.10
   4   9  17    0.42    0.09
  -4  10  17    1.55    0.16
  -4  10  17    1.59    0.15
  -3 -10  17    1.64    0.34
  -3  10  17    1.73    0.17
  -3  10  17    1.62    0.16
  -2 -10  17    0.11    0.20
  -2  10  17    0.13    0.09
  -2  10  17    0.03    0.09
  -1 -10  17   -0.21    0.23
  -1  10  17    0.09    0.09
  -1  10  17   -0.11    0.09
   0 -10  17    3.35    0.50
   0  10  17    2.97    0.35
   0  10  17    3.54    0.23
   0  10  17    3.43    0.24
   1 -10  17    0.47    0.15
   1  10  17    0.56    0.11
   1  10  17    0.59    0.12
   2 -10  17    0.14    0.11
   2  10  17   -0.01    0.12
   2  10  17   -0.03    0.09
   3 -10  17    0.21    0.10
   3  10  17    0.11    0.08
   3  10  17    0.01    0.08
  -4  11  17    0.25    0.10
  -4  11  17    0.30    0.09
  -3  11  17    0.33    0.10
  -3  11  17    0.27    0.09
  -2  11  17   18.42    0.73
  -2  11  17   18.97    0.73
  -1  11  17    2.98    0.21
  -1  11  17    2.76    0.19
   0  11  17    0.57    0.14
   0  11  17    0.72    0.16
   0  11  17    0.83    0.15
   1 -11  17    0.16    0.15
   1  11  17    0.08    0.09
   1  11  17    0.14    0.10
   2 -11  17    6.15    0.31
   2  11  17    6.60    0.30
   3  11  17    0.21    0.09
  -3  12  17    1.48    0.15
  -2  12  17    0.92    0.14
  -2  12  17    0.87    0.14
  -1  12  17    3.05    0.22
  -1  12  17    3.22    0.20
   0  12  17    0.19    0.09
   1  12  17    0.01    0.10
   1  12  17   -0.15    0.09
   2  12  17    1.49    0.15
   2  12  17    1.61    0.15
  -1  13  17    1.01    0.15
   0  13  17    0.35    0.11
  -6   0  18   15.40    0.61
  -5   0  18    2.50    0.21
  -4   0  18   15.56    0.71
  -4   0  18   13.75    0.61
  -3   0  18   -0.11    0.13
  -3   0  18    0.02    0.17
  -2   0  18   20.89    0.85
  -2   0  18   20.56    0.85
  -1   0  18    1.53    0.28
  -1   0  18    1.21    0.30
   0   0  18    3.30    0.33
   2   0  18    0.13    0.13
   3   0  18   16.06    0.63
   3   0  18   14.47    0.66
   4   0  18    0.99    0.17
   4   0  18    1.51    0.20
   5   0  18    4.13    0.21
  -6  -1  18    0.07    0.10
  -6   1  18    0.26    0.10
  -5  -1  18    1.48    0.19
  -5   1  18    1.80    0.18
  -5   1  18    1.48    0.23
  -4  -1  18    0.42    0.13
  -4   1  18    0.41    0.14
  -4   1  18    0.51    0.13
  -3  -1  18    3.77    0.29
  -3   1  18    3.86    0.29
  -3   1  18    3.53    0.27
  -2  -1  18   -0.14    0.16
  -2   1  18   -0.14    0.14
  -2   1  18    0.03    0.15
  -1   1  18    0.66    0.17
  -1   1  18    0.59    0.16
   0   1  18    0.54    0.16
   1   1  18    9.88    0.47
   1   1  18    9.61    0.48
   2  -1  18    0.09    0.13
   2   1  18    0.11    0.12
   2   1  18    0.24    0.16
   3  -1  18   -0.06    0.11
   3  -1  18    0.14    0.30
   3   1  18    0.07    0.18
   3   1  18    0.00    0.10
   4  -1  18    0.46    0.13
   4  -1  18    0.26    0.14
   4   1  18    0.41    0.15
   4   1  18    0.43    0.11
   5  -1  18   -0.04    0.08
   5   1  18    0.13    0.08
  -6  -2  18    1.90    0.18
  -6   2  18    1.77    0.17
  -5  -2  18    1.02    0.19
  -5   2  18    0.71    0.13
  -5   2  18    0.82    0.16
  -4  -2  18    4.92    0.30
  -4   2  18    4.56    0.28
  -4   2  18    4.65    0.28
  -3  -2  18    4.03    0.30
  -3   2  18    3.68    0.27
  -3   2  18    3.87    0.27
  -2  -2  18    0.62    0.19
  -2   2  18    0.36    0.14
  -2   2  18    0.49    0.15
  -1   2  18    4.98    0.33
  -1   2  18    5.40    0.34
   0   2  18    2.19    0.25
   0   2  18    2.14    0.30
   1   2  18    0.60    0.16
   1   2  18    0.28    0.15
   2  -2  18    2.67    0.24
   2   2  18    2.47    0.25
   2   2  18    2.27    0.23
   3  -2  18    0.30    0.18
   3  -2  18    0.35    0.11
   3   2  18    0.49    0.18
   3   2  18    0.38    0.11
   4  -2  18    0.82    0.15
   4  -2  18    1.00    0.17
   4   2  18    1.26    0.20
   4   2  18    1.03    0.23
   5  -2  18    0.90    0.13
   5   2  18    0.94    0.13
  -6  -3  18    0.44    0.12
  -6   3  18    0.42    0.09
  -5  -3  18    8.37    0.38
  -5   3  18    8.12    0.37
  -5   3  18    7.27    0.37
  -4  -3  18    0.30    0.15
  -4   3  18    0.35    0.11
  -4   3  18    0.27    0.11
  -3  -3  18    4.26    0.33
  -3   3  18    3.97    0.27
  -3   3  18    4.07    0.27
  -2   3  18    0.23    0.13
  -2   3  18   -0.09    0.12
  -1   3  18   -0.13    0.12
  -1   3  18    0.05    0.14
   0   3  18    0.10    0.13
   0   3  18   -0.13    0.15
   1   3  18   10.96    0.52
   1   3  18   11.49    0.52
   1   3  18   11.63    0.57
   2  -3  18    1.16    0.23
   2  -3  18    1.31    0.32
   2   3  18    1.13    0.20
   2   3  18    0.78    0.19
   3  -3  18    0.47    0.12
   3  -3  18    0.67    0.22
   3   3  18    0.61    0.13
   3   3  18    0.50    0.11
   4  -3  18    6.10    0.29
   4  -3  18    5.92    0.31
   4   3  18    5.87    0.30
  -6   4  18    0.04    0.19
  -6   4  18    0.08    0.08
  -5  -4  18   -0.21    0.14
  -5   4  18    0.13    0.09
  -5   4  18   -0.06    0.10
  -4  -4  18    1.51    0.26
  -4   4  18    1.40    0.17
  -4   4  18    1.35    0.17
  -3   4  18    1.41    0.19
  -3   4  18    1.24    0.19
  -2   4  18    0.19    0.12
  -2   4  18    0.16    0.12
  -1   4  18    0.34    0.14
  -1   4  18    0.46    0.13
   0   4  18    2.62    0.24
   0   4  18    2.64    0.27
   1   4  18    1.80    0.29
   1   4  18    1.84    0.22
   1   4  18    1.86    0.23
   2  -4  18    1.44    0.32
   2   4  18    1.55    0.20
   2   4  18    1.15    0.19
   3  -4  18    3.66    0.27
   3  -4  18    3.98    0.25
   3   4  18    4.00    0.23
   3   4  18    4.07    0.25
   4  -4  18    1.46    0.16
   4  -4  18    1.43    0.18
   4   4  18    1.64    0.15
  -5   5  18    7.04    0.31
  -5   5  18    5.97    0.33
  -4   5  18    3.93    0.24
  -4   5  18    3.94    0.24
  -3   5  18    0.76    0.17
  -3   5  18    0.57    0.12
  -2   5  18    1.21    0.19
  -2   5  18    1.18    0.19
  -1   5  18    1.70    0.20
  -1   5  18    1.30    0.21
   0   5  18    2.13    0.25
   0   5  18    2.06    0.22
   1   5  18   12.25    0.54
   1   5  18   12.23    0.54
   1   5  18   12.05    0.53
   2  -5  18    0.44    0.21
   2   5  18    0.20    0.11
   2   5  18    0.08    0.11
   3  -5  18    0.03    0.12
   3  -5  18   -0.14    0.13
   3   5  18    0.10    0.11
   3   5  18   -0.15    0.09
   4  -5  18    6.47    0.31
   4  -5  18    6.53    0.31
   4   5  18    6.88    0.31
  -5   6  18    1.25    0.15
  -5   6  18    1.44    0.15
  -4   6  18    3.17    0.21
  -4   6  18    3.01    0.21
  -3   6  18    3.97    0.24
  -3   6  18    3.78    0.24
  -2   6  18    4.94    0.29
  -2   6  18    5.24    0.30
  -1   6  18   -0.09    0.10
  -1   6  18    0.18    0.12
   0   6  18    0.68    0.14
   0   6  18    0.50    0.12
   1   6  18    0.22    0.14
   1   6  18    0.14    0.11
   1   6  18    0.31    0.14
   2  -6  18    4.45    0.29
   2   6  18    4.29    0.25
   2   6  18    4.11    0.26
   3  -6  18    0.78    0.16
   3  -6  18    0.56    0.13
   3   6  18    0.46    0.12
   4  -6  18    0.74    0.16
   4   6  18    0.52    0.12
  -5   7  18   -0.01    0.08
  -5   7  18   -0.08    0.08
  -4   7  18   14.49    0.58
  -4   7  18   14.51    0.59
  -3   7  18    0.30    0.10
  -3   7  18    0.16    0.10
  -2   7  18   -0.02    0.09
  -2   7  18   -0.09    0.10
  -1   7  18    2.28    0.21
  -1   7  18    2.31    0.19
   0   7  18    5.42    0.30
   0   7  18    5.27    0.29
   1   7  18   -0.12    0.12
   1   7  18    0.04    0.10
   1   7  18    0.03    0.12
   2  -7  18    2.24    0.24
   2   7  18    2.47    0.22
   2   7  18    2.40    0.18
   3  -7  18    0.54    0.13
   3   7  18    0.65    0.13
   3   7  18    0.51    0.10
  -4   8  18    0.18    0.09
  -4   8  18    0.11    0.08
  -3   8  18    1.17    0.16
  -3   8  18    1.32    0.15
  -2   8  18    2.13    0.18
  -2   8  18    2.09    0.18
  -1   8  18    2.45    0.21
  -1   8  18    2.16    0.19
   0   8  18    0.09    0.11
   0   8  18    0.17    0.09
   1   8  18    0.24    0.12
   1   8  18    0.38    0.12
   1   8  18    0.29    0.10
   2  -8  18    0.74    0.16
   2   8  18    0.74    0.13
   2   8  18    0.76    0.16
   3  -8  18    0.42    0.18
   3   8  18    0.08    0.09
   3   8  18    0.02    0.09
  -4   9  18    9.38    0.40
  -4   9  18    9.76    0.40
  -2   9  18    1.27    0.15
  -2   9  18    0.77    0.14
  -1   9  18    0.15    0.09
  -1   9  18    0.09    0.10
   0   9  18    3.05    0.20
   0   9  18    3.18    0.21
   1   9  18    0.23    0.09
   1   9  18    0.04    0.12
   2   9  18    0.72    0.13
   2   9  18    0.45    0.11
   3   9  18    0.75    0.13
  -3  10  18    7.87    0.34
  -2  10  18    0.11    0.08
  -2  10  18    0.16    0.09
  -1  10  18    2.35    0.23
  -1  10  18    2.37    0.17
   0  10  18    5.50    0.30
   0  10  18    5.11    0.27
   1  10  18    5.80    0.27
   1  10  18    5.46    0.30
   2  10  18   10.89    0.47
  -2  11  18    3.72    0.20
  -2  11  18    3.67    0.21
  -1  11  18   -0.01    0.09
  -1  11  18   -0.19    0.09
   0  11  18    0.30    0.09
   1  11  18    0.66    0.12
  -5   0  19    0.25    0.11
  -4   0  19    0.06    0.12
  -3   0  19   -0.06    0.13
  -2   0  19   -0.03    0.16
   2   0  19   -0.17    0.16
   3   0  19   -0.33    0.12
  -5  -1  19    4.65    0.27
  -5   1  19    4.91    0.25
  -4  -1  19    1.08    0.20
  -4   1  19    1.33    0.30
  -3   1  19    4.82    0.33
  -3   1  19    5.23    0.30
  -2   1  19    0.27    0.14
  -2   1  19    0.05    0.19
  -1   1  19    4.33    0.33
  -1   1  19    3.97    0.31
   0   1  19    3.89    0.35
   2   1  19    0.09    0.15
   3  -1  19    1.23    0.19
   3   1  19    0.97    0.17
  -5  -2  19    0.06    0.24
  -5   2  19   -0.06    0.09
  -4  -2  19    3.73    0.28
  -4   2  19    3.75    0.24
  -4   2  19    3.85    0.26
  -3  -2  19    1.33    0.21
  -3   2  19    1.67    0.19
  -3   2  19    1.48    0.25
  -2   2  19    0.33    0.14
  -2   2  19    0.21    0.13
  -1   2  19    4.78    0.31
  -1   2  19    4.87    0.32
   0   2  19    3.62    0.27
   1   2  19    0.15    0.18
   2   2  19    0.77    0.18
   2   2  19    0.21    0.14
   3  -2  19    9.36    0.43
   3   2  19   10.04    0.42
  -5   3  19    0.78    0.14
  -4   3  19    1.26    0.18
  -4   3  19    1.29    0.21
  -3   3  19    0.30    0.11
  -3   3  19    0.44    0.13
  -2   3  19    5.37    0.30
  -2   3  19    5.21    0.30
  -1   3  19    1.55    0.22
  -1   3  19    2.00    0.21
   0   3  19    0.35    0.13
   1   3  19    2.33    0.23
   2   3  19    5.62    0.31
   2   3  19    6.04    0.31
   3   3  19    1.19    0.17
  -5   4  19   -0.03    0.08
  -4   4  19    9.05    0.40
  -3   4  19    0.02    0.10
  -3   4  19    0.19    0.11
  -2   4  19   -0.09    0.11
  -2   4  19    0.15    0.11
  -1   4  19   12.64    0.53
  -1   4  19   12.04    0.53
   0   4  19    8.05    0.41
   0   4  19   10.72    0.57
   1   4  19    0.33    0.12
   2   4  19    2.23    0.22
   2   4  19    2.57    0.21
   3   4  19    2.72    0.19
  -4   5  19    9.72    0.42
  -4   5  19   10.01    0.42
  -3   5  19    2.07    0.19
  -3   5  19    1.62    0.18
  -2   5  19   -0.11    0.10
  -2   5  19   -0.17    0.10
  -1   5  19    0.28    0.11
  -1   5  19    0.20    0.11
   0   5  19    0.53    0.12
   1   5  19    0.08    0.10
   2   5  19    2.38    0.18
   2   5  19    1.91    0.21
   3   5  19    0.30    0.11
   3   5  19    0.21    0.11
  -4   6  19    5.01    0.26
  -4   6  19    5.37    0.26
  -3   6  19    4.66    0.25
  -2   6  19    8.04    0.36
  -2   6  19    7.69    0.36
  -1   6  19    1.59    0.19
  -1   6  19    0.89    0.15
   0   6  19    0.31    0.16
   0   6  19    0.01    0.10
   1   6  19    0.20    0.10
   2   6  19    2.16    0.21
   2   6  19    2.02    0.18
  -4   7  19    0.33    0.09
  -4   7  19    0.59    0.13
  -3   7  19    1.18    0.15
  -3   7  19    1.38    0.15
  -2   7  19    0.24    0.11
  -1   7  19    0.32    0.16
  -1   7  19    0.13    0.09
   0   7  19    3.25    0.23
   0   7  19    3.01    0.20
   1   7  19    0.23    0.10
   2   7  19    0.47    0.10
  -3   8  19    1.35    0.15
  -3   8  19    1.38    0.14
  -2   8  19    5.90    0.29
  -2   8  19    6.38    0.29
  -1   8  19    3.36    0.20
  -1   8  19    3.04    0.21
   0   8  19   -0.03    0.09
   0   8  19   -0.10    0.10
   1   8  19    0.88    0.13
   2   8  19    0.28    0.10
  -2   9  19    3.33    0.21
  -2   9  19    3.32    0.19
  -1   9  19    3.36    0.21
  -1   9  19    3.52    0.20
   1   9  19    4.02    0.21
  -3   1  20    0.62    0.15
  -3   2  20    3.07    0.24
  -2   2  20    0.53    0.16
  -3   3  20    0.55    0.12
  -2   3  20   15.67    0.64
  -2   3  20   16.03    0.64
  -1   3  20    0.20    0.15
  -1   3  20    0.16    0.27
   0   3  20    0.12    0.16
  -3   4  20    0.24    0.11
  -2   4  20   -0.11    0.12
  -2   4  20    0.11    0.12
  -1   4  20    0.09    0.12
   0   4  20    4.74    0.27
   1   4  20    0.16    0.16
  -3   5  20    1.21    0.16
  -2   5  20   12.44    0.51
  -2   5  20   12.46    0.51
  -1   5  20    0.56    0.15
  -1   5  20    0.67    0.15
   0   5  20    2.32    0.19
   1   5  20   -0.04    0.13
  -2   6  20   -0.05    0.10
  -2   6  20   -0.04    0.11
  -1   6  20    2.61    0.22
  -1   6  20    2.79    0.19
   0   6  20   -0.07    0.10
  -1   7  20    6.78    0.30
   0   7  20    0.00    0.10
   0   0   0    0.00    0.00
;
_shelx_hkl_checksum              31946
_shelx_res_file
;
    SKM192_0m.res created by SHELXL-2014/7
TITL SKM192_0m_a.res in P2(1)/c
REM Old TITL SKM192_0m in P2(1)/c
REM SHELXT solution in P2(1)/c
REM R1 0.137,  Rweak 0.005,  Alpha 0.019,  Orientation as input
REM Formula found by SHELXT:  C30 N4 O3 S Cl
CELL  1.54178   8.8388  17.7686  16.9487   90.000   94.159   90.000
ZERR    4.000   0.0003   0.0006   0.0006    0.000    0.002    0.000
LATT  1
SYMM -X, 1/2+Y, 1/2-Z
SFAC C H N O S CL
UNIT 120 96 12 16 4 4
TEMP -123
SIZE 0.07 0.073 0.156
L.S. 5
BOND $H
LIST 4
FMAP 2
PLAN 5
CONF
MPLA C8 > C13
MPLA C1 > C7 N1 S1
MPLA C17 > C22
MPLA C1 > C7 N1 S1
MPLA C24 > C29
HTAB N2 O3
EQIV $1 -x+1, -y+1, -z+1
HTAB N3 O1_$1
ACTA 140
WGHT    0.043900    1.030500
EXTI    0.001541
FVAR       0.11670
CL1   6    0.930569    0.551233    0.078209    11.00000    0.06595    0.06841 =
         0.02693    0.00486    0.01919   -0.00267
S1    5    0.612242    0.591565    0.597615    11.00000    0.03469    0.02312 =
         0.02217    0.00014    0.00689    0.00087
O1    4    0.749146    0.324455    0.345065    11.00000    0.03705    0.02910 =
         0.03029   -0.00452    0.00483   -0.00341
O2    4    0.985425    0.371801    0.364614    11.00000    0.03032    0.03720 =
         0.02976   -0.00667    0.00669    0.00270
O3    4    0.640840    0.786167    0.487363    11.00000    0.04886    0.02487 =
         0.03834    0.00446    0.01821    0.00113
O4    4    0.317507    1.036138    0.694841    11.00000    0.06036    0.02580 =
         0.03579    0.00263    0.01792    0.00994
N1    3    0.705525    0.451938    0.566005    11.00000    0.02943    0.02469 =
         0.02189    0.00067    0.00130   -0.00030
N2    3    0.708282    0.669387    0.388779    11.00000    0.04905    0.02463 =
         0.02802    0.00496    0.01463    0.00390
H2A   2    0.762667    0.650584    0.352066    11.00000    0.04384
H2B   2    0.703763    0.718511    0.395572    11.00000    0.04815
N3    3    0.503379    0.755214    0.591707    11.00000    0.03836    0.02171 =
         0.02953    0.00025    0.01059   -0.00073
H3    2    0.460735    0.717917    0.616467    11.00000    0.04890
C1    1    0.763870    0.402482    0.516423    11.00000    0.02665    0.02489 =
         0.02222   -0.00031   -0.00010   -0.00030
C2    1    0.797425    0.423321    0.439084    11.00000    0.02625    0.02586 =
         0.02160   -0.00143    0.00212    0.00187
C3    1    0.778402    0.497016    0.412629    11.00000    0.02435    0.02584 =
         0.02098    0.00058    0.00165   -0.00041
C4    1    0.721528    0.549557    0.464945    11.00000    0.02560    0.02407 =
         0.02156    0.00193    0.00300   -0.00053
C5    1    0.685589    0.522211    0.539612    11.00000    0.02665    0.02450 =
         0.02131   -0.00045    0.00224   -0.00077
C6    1    0.630145    0.658202    0.522799    11.00000    0.03137    0.02407 =
         0.02525    0.00141    0.00488   -0.00085
C7    1    0.689254    0.628976    0.456352    11.00000    0.02814    0.02509 =
         0.02554    0.00211    0.00420    0.00026
C8    1    0.793947    0.325354    0.547623    11.00000    0.03489    0.02499 =
         0.02010   -0.00011   -0.00234    0.00202
C9    1    0.695345    0.292355    0.598179    11.00000    0.04095    0.02872 =
         0.02426    0.00077    0.00026    0.00033
AFIX  43
H9    2    0.610267    0.319611    0.614120    11.00000   -1.20000
AFIX   0
C10   1    0.722358    0.219321    0.625094    11.00000    0.05641    0.03166 =
         0.03156    0.00701   -0.00118   -0.00565
AFIX  43
H10   2    0.654952    0.196602    0.659223    11.00000   -1.20000
AFIX   0
C11   1    0.846710    0.179441    0.602553    11.00000    0.06673    0.02512 =
         0.03454    0.00280   -0.00739    0.00733
AFIX  43
H11   2    0.862701    0.129107    0.620131    11.00000   -1.20000
AFIX   0
C12   1    0.947760    0.212645    0.554515    11.00000    0.05304    0.03515 =
         0.03322   -0.00009   -0.00205    0.01583
AFIX  43
H12   2    1.034288    0.185630    0.540064    11.00000   -1.20000
AFIX   0
C13   1    0.922114    0.285604    0.527542    11.00000    0.04094    0.03324 =
         0.02797    0.00199    0.00119    0.00758
AFIX  43
H13   2    0.992204    0.308711    0.495181    11.00000   -1.20000
AFIX   0
C14   1    0.839187    0.366462    0.378959    11.00000    0.03130    0.02461 =
         0.02246    0.00209    0.00389    0.00206
C15   1    1.034794    0.327053    0.299316    11.00000    0.04087    0.06111 =
         0.04063   -0.02033    0.01511    0.00058
AFIX  23
H15A  2    1.126130    0.350427    0.279222    11.00000   -1.20000
H15B  2    0.953915    0.326842    0.255733    11.00000   -1.20000
AFIX   0
C16   1    1.070463    0.247851    0.323708    11.00000    0.06566    0.05808 =
         0.08643   -0.03385    0.00018    0.02083
AFIX 137
H16A  2    1.110255    0.220615    0.279391    11.00000   -1.50000
H16B  2    0.977968    0.223054    0.338999    11.00000   -1.50000
H16C  2    1.146565    0.247928    0.368736    11.00000   -1.50000
AFIX   0
C17   1    0.812859    0.515485    0.329631    11.00000    0.02821    0.02376 =
         0.02177    0.00075    0.00548    0.00274
C18   1    0.709849    0.497082    0.267060    11.00000    0.02813    0.03904 =
         0.02691    0.00324    0.00370   -0.00302
AFIX  43
H18   2    0.614399    0.476057    0.277275    11.00000   -1.20000
AFIX   0
C19   1    0.745122    0.509152    0.189467    11.00000    0.03752    0.04733 =
         0.02373    0.00005    0.00032   -0.00201
AFIX  43
H19   2    0.673982    0.496850    0.146698    11.00000   -1.20000
AFIX   0
C20   1    0.883799    0.539032    0.175249    11.00000    0.03944    0.03294 =
         0.02475    0.00256    0.01032    0.00374
C21   1    0.987340    0.558605    0.236428    11.00000    0.03091    0.04471 =
         0.03555    0.00366    0.01045   -0.00413
AFIX  43
H21   2    1.082119    0.580073    0.225694    11.00000   -1.20000
AFIX   0
C22   1    0.952082    0.546716    0.313784    11.00000    0.03062    0.03996 =
         0.02915    0.00164    0.00251   -0.00515
AFIX  43
H22   2    1.023194    0.559925    0.356248    11.00000   -1.20000
AFIX   0
C23   1    0.591524    0.738328    0.531780    11.00000    0.03339    0.02433 =
         0.02631   -0.00031    0.00520   -0.00081
C24   1    0.456590    0.828631    0.613644    11.00000    0.03091    0.02242 =
         0.03018   -0.00178    0.00553    0.00015
C25   1    0.429073    0.886378    0.559397    11.00000    0.03776    0.03050 =
         0.02386    0.00047    0.00421    0.00375
AFIX  43
H25   2    0.443077    0.878116    0.505029    11.00000   -1.20000
AFIX   0
C26   1    0.381012    0.956344    0.584539    11.00000    0.03797    0.02915 =
         0.02893    0.00394    0.00478    0.00651
AFIX  43
H26   2    0.362571    0.995855    0.547319    11.00000   -1.20000
AFIX   0
C27   1    0.359984    0.968558    0.663610    11.00000    0.03445    0.02388 =
         0.03105   -0.00069    0.00761    0.00334
C28   1    0.384724    0.910259    0.718048    11.00000    0.04082    0.02927 =
         0.02481    0.00046    0.00956    0.00130
AFIX  43
H28   2    0.368679    0.918214    0.772237    11.00000   -1.20000
AFIX   0
C29   1    0.432533    0.841066    0.692943    11.00000    0.03903    0.02502 =
         0.02675    0.00342    0.00686    0.00041
AFIX  43
H29   2    0.449296    0.801376    0.730106    11.00000   -1.20000
AFIX   0
C30   1    0.296682    1.097141    0.640811    11.00000    0.09766    0.03000 =
         0.04911    0.00839    0.02778    0.02530
AFIX 137
H30A  2    0.272370    1.142859    0.669659    11.00000   -1.50000
H30B  2    0.213258    1.085497    0.601441    11.00000   -1.50000
H30C  2    0.390069    1.105099    0.614105    11.00000   -1.50000
REM #####
AFIX   0
HKLF 4
REM  SKM192_0m_a.res in P2(1)/c
REM R1 =  0.0370 for    4468 Fo > 4sig(Fo)  and  0.0456 for all    5277 data
REM    367 parameters refined using      0 restraints
END
WGHT      0.0435      1.0373
REM Highest difference peak  0.295,  deepest hole -0.218,  1-sigma level  0.054
Q1    1   0.7126  0.5898  0.4591  11.00000  0.05    0.30
Q2    1   0.7087  0.5346  0.5034  11.00000  0.05    0.26
Q3    1   0.7890  0.4597  0.4217  11.00000  0.05    0.26
Q4    1   0.8245  0.4022  0.4122  11.00000  0.05    0.25
Q5    1   0.6136  0.6958  0.5192  11.00000  0.05    0.25
;
_shelx_res_checksum              10954
loop_
_space_group_symop_operation_xyz
'x, y, z'
'-x, y+1/2, -z+1/2'
'-x, -y, -z'
'x, -y-1/2, z-1/2'
loop_
_atom_site_type_symbol
_atom_site_label
_atom_site_fract_x
_atom_site_fract_y
_atom_site_fract_z
_atom_site_U_iso_or_equiv
_atom_site_adp_type
_atom_site_calc_flag
_atom_site_occupancy
Cl Cl1 0.93057(7) 0.55123(3) 0.07821(3) 0.05299(16) Uani d 1
S S1 0.61224(5) 0.59156(2) 0.59762(2) 0.02643(11) Uani d 1
O O1 0.74915(13) 0.32446(7) 0.34507(7) 0.0320(3) Uani d 1
O O2 0.98542(13) 0.37180(7) 0.36461(7) 0.0322(3) Uani d 1
O O3 0.64084(15) 0.78617(7) 0.48736(7) 0.0366(3) Uani d 1
O O4 0.31751(16) 1.03614(7) 0.69484(8) 0.0399(3) Uani d 1
N N1 0.70552(15) 0.45194(7) 0.56600(7) 0.0254(3) Uani d 1
N N2 0.70828(18) 0.66939(9) 0.38878(9) 0.0333(3) Uani d 1
H H2A 0.763(2) 0.6506(13) 0.3521(13) 0.044(6) Uiso d 1
H H2B 0.704(2) 0.7185(14) 0.3956(13) 0.048(6) Uiso d 1
N N3 0.50338(17) 0.75521(8) 0.59171(8) 0.0295(3) Uani d 1
H H3 0.461(3) 0.7179(13) 0.6165(13) 0.049(6) Uiso d 1
C C1 0.76387(17) 0.40248(9) 0.51642(9) 0.0247(3) Uani d 1
C C2 0.79742(17) 0.42332(9) 0.43908(9) 0.0245(3) Uani d 1
C C3 0.77840(17) 0.49702(9) 0.41263(9) 0.0237(3) Uani d 1
C C4 0.72153(17) 0.54956(9) 0.46494(9) 0.0237(3) Uani d 1
C C5 0.68559(17) 0.52221(9) 0.53961(9) 0.0241(3) Uani d 1
C C6 0.63015(18) 0.65820(9) 0.52280(9) 0.0268(3) Uani d 1
C C7 0.68925(18) 0.62898(9) 0.45635(9) 0.0261(3) Uani d 1
C C8 0.79395(19) 0.32535(9) 0.54762(9) 0.0269(3) Uani d 1
C C9 0.6953(2) 0.29235(10) 0.59818(10) 0.0314(4) Uani d 1
H H9 0.6103 0.3196 0.6141 0.038 Uiso calc 1
C C10 0.7224(2) 0.21932(10) 0.62509(11) 0.0401(4) Uani d 1
H H10 0.6550 0.1966 0.6592 0.048 Uiso calc 1
C C11 0.8467(3) 0.17944(10) 0.60255(11) 0.0427(5) Uani d 1
H H11 0.8627 0.1291 0.6201 0.051 Uiso calc 1
C C12 0.9478(2) 0.21265(11) 0.55452(11) 0.0407(4) Uani d 1
H H12 1.0343 0.1856 0.5401 0.049 Uiso calc 1
C C13 0.9221(2) 0.28560(10) 0.52754(10) 0.0341(4) Uani d 1
H H13 0.9922 0.3087 0.4952 0.041 Uiso calc 1
C C14 0.83919(18) 0.36646(9) 0.37896(9) 0.0260(3) Uani d 1
C C15 1.0348(2) 0.32705(13) 0.29932(12) 0.0469(5) Uani d 1
H H15A 1.1261 0.3504 0.2792 0.056 Uiso calc 1
H H15B 0.9539 0.3268 0.2557 0.056 Uiso calc 1
C C16 1.0705(3) 0.24785(15) 0.32371(17) 0.0703(8) Uani d 1
H H16A 1.1103 0.2206 0.2794 0.105 Uiso calc 1
H H16B 0.9780 0.2231 0.3390 0.105 Uiso calc 1
H H16C 1.1466 0.2479 0.3687 0.105 Uiso calc 1
C C17 0.81286(17) 0.51549(9) 0.32963(9) 0.0244(3) Uani d 1
C C18 0.70985(19) 0.49708(10) 0.26706(10) 0.0313(4) Uani d 1
H H18 0.6144 0.4761 0.2773 0.038 Uiso calc 1
C C19 0.7451(2) 0.50915(11) 0.18947(10) 0.0363(4) Uani d 1
H H19 0.6740 0.4969 0.1467 0.044 Uiso calc 1
C C20 0.8838(2) 0.53903(10) 0.17525(10) 0.0320(4) Uani d 1
C C21 0.9873(2) 0.55861(11) 0.23643(11) 0.0367(4) Uani d 1
H H21 1.0821 0.5801 0.2257 0.044 Uiso calc 1
C C22 0.9521(2) 0.54672(10) 0.31378(10) 0.0332(4) Uani d 1
H H22 1.0232 0.5599 0.3562 0.040 Uiso calc 1
C C23 0.59152(19) 0.73833(9) 0.53178(9) 0.0279(3) Uani d 1
C C24 0.45659(18) 0.82863(9) 0.61364(10) 0.0277(3) Uani d 1
C C25 0.4291(2) 0.88638(10) 0.55940(10) 0.0306(4) Uani d 1
H H25 0.4431 0.8781 0.5050 0.037 Uiso calc 1
C C26 0.3810(2) 0.95634(10) 0.58454(10) 0.0319(4) Uani d 1
H H26 0.3626 0.9959 0.5473 0.038 Uiso calc 1
C C27 0.35998(19) 0.96856(9) 0.66361(10) 0.0295(4) Uani d 1
C C28 0.3847(2) 0.91026(10) 0.71805(10) 0.0313(4) Uani d 1
H H28 0.3687 0.9182 0.7722 0.038 Uiso calc 1
C C29 0.43253(19) 0.84107(9) 0.69294(10) 0.0300(4) Uani d 1
H H29 0.4493 0.8014 0.7301 0.036 Uiso calc 1
C C30 0.2967(3) 1.09714(12) 0.64081(14) 0.0578(7) Uani d 1
H H30A 0.2724 1.1429 0.6697 0.087 Uiso calc 1
H H30B 0.2133 1.0855 0.6014 0.087 Uiso calc 1
H H30C 0.3901 1.1051 0.6141 0.087 Uiso calc 1
loop_
_atom_site_aniso_label
_atom_site_aniso_U_11
_atom_site_aniso_U_22
_atom_site_aniso_U_33
_atom_site_aniso_U_12
_atom_site_aniso_U_13
_atom_site_aniso_U_23
Cl1 0.0659(3) 0.0684(4) 0.0269(2) -0.0027(3) 0.0192(2) 0.0049(2)
S1 0.0347(2) 0.0231(2) 0.0222(2) 0.00087(15) 0.00689(14) 0.00014(14)
O1 0.0371(6) 0.0291(6) 0.0303(6) -0.0034(5) 0.0048(5) -0.0045(5)
O2 0.0303(6) 0.0372(7) 0.0298(6) 0.0027(5) 0.0067(5) -0.0067(5)
O3 0.0489(7) 0.0249(6) 0.0383(7) 0.0011(5) 0.0182(6) 0.0045(5)
O4 0.0604(8) 0.0258(6) 0.0358(7) 0.0099(6) 0.0179(6) 0.0026(5)
N1 0.0294(7) 0.0247(7) 0.0219(6) -0.0003(5) 0.0013(5) 0.0007(5)
N2 0.0491(9) 0.0246(8) 0.0280(8) 0.0039(7) 0.0146(6) 0.0050(6)
N3 0.0384(8) 0.0217(7) 0.0295(7) -0.0007(6) 0.0106(6) 0.0003(5)
C1 0.0266(8) 0.0249(8) 0.0222(8) -0.0003(6) -0.0001(6) -0.0003(6)
C2 0.0262(8) 0.0259(8) 0.0216(7) 0.0019(6) 0.0021(6) -0.0014(6)
C3 0.0244(7) 0.0258(8) 0.0210(7) -0.0004(6) 0.0016(5) 0.0006(6)
C4 0.0256(7) 0.0241(8) 0.0216(7) -0.0005(6) 0.0030(6) 0.0019(6)
C5 0.0267(7) 0.0245(8) 0.0213(7) -0.0008(6) 0.0022(6) -0.0004(6)
C6 0.0314(8) 0.0241(8) 0.0253(8) -0.0008(6) 0.0049(6) 0.0014(6)
C7 0.0281(8) 0.0251(8) 0.0255(8) 0.0003(6) 0.0042(6) 0.0021(6)
C8 0.0349(8) 0.0250(8) 0.0201(7) 0.0020(7) -0.0023(6) -0.0001(6)
C9 0.0409(9) 0.0287(9) 0.0243(8) 0.0003(7) 0.0003(7) 0.0008(6)
C10 0.0564(12) 0.0317(9) 0.0316(9) -0.0057(8) -0.0012(8) 0.0070(7)
C11 0.0667(13) 0.0251(9) 0.0345(10) 0.0073(9) -0.0074(9) 0.0028(7)
C12 0.0530(12) 0.0352(10) 0.0332(9) 0.0158(9) -0.0020(8) -0.0001(8)
C13 0.0409(10) 0.0332(9) 0.0280(9) 0.0076(8) 0.0012(7) 0.0020(7)
C14 0.0313(8) 0.0246(8) 0.0225(8) 0.0021(6) 0.0039(6) 0.0021(6)
C15 0.0409(10) 0.0611(13) 0.0406(11) 0.0006(9) 0.0151(8) -0.0203(9)
C16 0.0657(16) 0.0581(15) 0.0864(19) 0.0208(12) 0.0002(13) -0.0338(14)
C17 0.0282(8) 0.0238(7) 0.0218(7) 0.0027(6) 0.0055(6) 0.0008(6)
C18 0.0281(8) 0.0390(9) 0.0269(8) -0.0030(7) 0.0037(6) 0.0032(7)
C19 0.0375(9) 0.0473(11) 0.0237(8) -0.0020(8) 0.0003(7) 0.0000(7)
C20 0.0394(9) 0.0329(9) 0.0247(8) 0.0037(7) 0.0103(7) 0.0026(7)
C21 0.0309(9) 0.0447(11) 0.0356(10) -0.0041(8) 0.0104(7) 0.0037(8)
C22 0.0306(9) 0.0400(10) 0.0291(9) -0.0052(7) 0.0025(7) 0.0016(7)
C23 0.0334(8) 0.0243(8) 0.0263(8) -0.0008(6) 0.0052(6) -0.0003(6)
C24 0.0309(8) 0.0224(8) 0.0302(8) 0.0001(6) 0.0055(6) -0.0018(6)
C25 0.0378(9) 0.0305(9) 0.0239(8) 0.0037(7) 0.0042(6) 0.0005(6)
C26 0.0380(9) 0.0292(9) 0.0289(9) 0.0065(7) 0.0048(7) 0.0039(7)
C27 0.0345(9) 0.0239(8) 0.0310(9) 0.0033(7) 0.0076(7) -0.0007(6)
C28 0.0408(9) 0.0293(9) 0.0248(8) 0.0013(7) 0.0096(7) 0.0005(6)
C29 0.0390(9) 0.0250(8) 0.0267(8) 0.0004(7) 0.0069(7) 0.0034(6)
C30 0.0977(19) 0.0300(10) 0.0491(13) 0.0253(11) 0.0278(12) 0.0084(9)
loop_
_atom_type_symbol
_atom_type_description
_atom_type_scat_dispersion_real
_atom_type_scat_dispersion_imag
_atom_type_scat_source
C C 0.0181 0.0091 'International Tables Vol C Tables 4.2.6.8 and 6.1.1.4'
H H 0.0000 0.0000 'International Tables Vol C Tables 4.2.6.8 and 6.1.1.4'
N N 0.0311 0.0180 'International Tables Vol C Tables 4.2.6.8 and 6.1.1.4'
O O 0.0492 0.0322 'International Tables Vol C Tables 4.2.6.8 and 6.1.1.4'
S S 0.3331 0.5567 'International Tables Vol C Tables 4.2.6.8 and 6.1.1.4'
Cl Cl 0.3639 0.7018 'International Tables Vol C Tables 4.2.6.8 and 6.1.1.4'
loop_
_geom_angle_atom_site_label_1
_geom_angle_atom_site_label_2
_geom_angle_atom_site_label_3
_geom_angle
C5 S1 C6 90.74(7)
C14 O2 C15 116.56(13)
C27 O4 C30 116.34(14)
C5 N1 C1 116.72(13)
C7 N2 H2A 119.9(15)
C7 N2 H2B 113.5(15)
H2A N2 H2B 120(2)
C23 N3 C24 126.17(14)
C23 N3 H3 118.5(15)
C24 N3 H3 114.9(15)
N1 C1 C2 121.60(14)
N1 C1 C8 116.57(14)
C2 C1 C8 121.82(14)
C3 C2 C1 121.13(14)
C3 C2 C14 116.44(14)
C1 C2 C14 122.13(14)
C2 C3 C4 117.55(14)
C2 C3 C17 118.78(14)
C4 C3 C17 123.62(14)
C3 C4 C5 116.78(14)
C3 C4 C7 131.47(14)
C5 C4 C7 111.75(14)
N1 C5 C4 126.12(14)
N1 C5 S1 121.45(12)
C4 C5 S1 112.43(12)
C7 C6 C23 123.57(14)
C7 C6 S1 113.39(12)
C23 C6 S1 123.00(12)
N2 C7 C6 124.19(15)
N2 C7 C4 124.04(15)
C6 C7 C4 111.70(14)
C9 C8 C13 119.38(15)
C9 C8 C1 120.17(15)
C13 C8 C1 120.44(15)
C10 C9 C8 119.59(17)
C10 C9 H9 120.2
C8 C9 H9 120.2
C11 C10 C9 120.53(18)
C11 C10 H10 119.7
C9 C10 H10 119.7
C12 C11 C10 120.22(17)
C12 C11 H11 119.9
C10 C11 H11 119.9
C11 C12 C13 119.68(18)
C11 C12 H12 120.2
C13 C12 H12 120.2
C12 C13 C8 120.51(18)
C12 C13 H13 119.7
C8 C13 H13 119.7
O1 C14 O2 124.83(15)
O1 C14 C2 123.65(15)
O2 C14 C2 111.40(13)
O2 C15 C16 111.91(18)
O2 C15 H15A 109.2
C16 C15 H15A 109.2
O2 C15 H15B 109.2
C16 C15 H15B 109.2
H15A C15 H15B 107.9
C15 C16 H16A 109.5
C15 C16 H16B 109.5
H16A C16 H16B 109.5
C15 C16 H16C 109.5
H16A C16 H16C 109.5
H16B C16 H16C 109.5
C18 C17 C22 119.13(15)
C18 C17 C3 120.01(14)
C22 C17 C3 120.73(14)
C17 C18 C19 120.50(16)
C17 C18 H18 119.7
C19 C18 H18 119.7
C20 C19 C18 119.34(16)
C20 C19 H19 120.3
C18 C19 H19 120.3
C19 C20 C21 121.23(16)
C19 C20 Cl1 119.40(14)
C21 C20 Cl1 119.36(14)
C20 C21 C22 119.42(16)
C20 C21 H21 120.3
C22 C21 H21 120.3
C21 C22 C17 120.36(16)
C21 C22 H22 119.8
C17 C22 H22 119.8
O3 C23 N3 123.41(15)
O3 C23 C6 120.45(15)
N3 C23 C6 116.12(14)
C25 C24 C29 119.35(15)
C25 C24 N3 122.96(15)
C29 C24 N3 117.64(15)
C24 C25 C26 120.06(16)
C24 C25 H25 120.0
C26 C25 H25 120.0
C27 C26 C25 120.17(16)
C27 C26 H26 119.9
C25 C26 H26 119.9
O4 C27 C26 124.71(15)
O4 C27 C28 115.35(15)
C26 C27 C28 119.93(15)
C29 C28 C27 119.72(15)
C29 C28 H28 120.1
C27 C28 H28 120.1
C28 C29 C24 120.74(15)
C28 C29 H29 119.6
C24 C29 H29 119.6
O4 C30 H30A 109.5
O4 C30 H30B 109.5
H30A C30 H30B 109.5
O4 C30 H30C 109.5
H30A C30 H30C 109.5
H30B C30 H30C 109.5
loop_
_geom_bond_atom_site_label_1
_geom_bond_atom_site_label_2
_geom_bond_distance
Cl1 C20 1.7383(17)
S1 C5 1.7314(16)
S1 C6 1.7504(16)
O1 C14 1.206(2)
O2 C14 1.336(2)
O2 C15 1.455(2)
O3 C23 1.236(2)
O4 C27 1.375(2)
O4 C30 1.422(2)
N1 C5 1.334(2)
N1 C1 1.344(2)
N2 C7 1.372(2)
N2 H2A 0.88(2)
N2 H2B 0.88(2)
N3 C23 1.358(2)
N3 C24 1.426(2)
N3 H3 0.88(2)
C1 C2 1.414(2)
C1 C8 1.486(2)
C2 C3 1.390(2)
C2 C14 1.500(2)
C3 C4 1.405(2)
C3 C17 1.497(2)
C4 C5 1.413(2)
C4 C7 1.445(2)
C6 C7 1.377(2)
C6 C23 1.475(2)
C8 C9 1.395(2)
C8 C13 1.398(2)
C9 C10 1.390(2)
C9 H9 0.9500
C10 C11 1.385(3)
C10 H10 0.9500
C11 C12 1.384(3)
C11 H11 0.9500
C12 C13 1.388(2)
C12 H12 0.9500
C13 H13 0.9500
C15 C16 1.494(4)
C15 H15A 0.9900
C15 H15B 0.9900
C16 H16A 0.9800
C16 H16B 0.9800
C16 H16C 0.9800
C17 C18 1.386(2)
C17 C22 1.394(2)
C18 C19 1.390(2)
C18 H18 0.9500
C19 C20 1.373(3)
C19 H19 0.9500
C20 C21 1.377(3)
C21 C22 1.386(2)
C21 H21 0.9500
C22 H22 0.9500
C24 C25 1.387(2)
C24 C29 1.394(2)
C25 C26 1.391(2)
C25 H25 0.9500
C26 C27 1.383(2)
C26 H26 0.9500
C27 C28 1.394(2)
C28 C29 1.377(2)
C28 H28 0.9500
C29 H29 0.9500
C30 H30A 0.9800
C30 H30B 0.9800
C30 H30C 0.9800
loop_
_geom_hbond_atom_site_label_D
_geom_hbond_atom_site_label_H
_geom_hbond_atom_site_label_A
_geom_hbond_site_symmetry_A
_geom_hbond_distance_DH
_geom_hbond_distance_HA
_geom_hbond_distance_DA
_geom_hbond_angle_DHA
N2 H2B O3 . 0.88(2) 2.07(2) 2.756(2) 133.6(19)
N2 H2A Cg . 0.88(2) 2.90 3.698 152
N3 H3 O1 3_666 0.88(2) 2.15(2) 2.912(2) 145(2)
loop_
_geom_torsion_atom_site_label_1
_geom_torsion_atom_site_label_2
_geom_torsion_atom_site_label_3
_geom_torsion_atom_site_label_4
_geom_torsion
C5 N1 C1 C2 -2.2(2)
C5 N1 C1 C8 176.70(14)
N1 C1 C2 C3 3.3(2)
C8 C1 C2 C3 -175.53(14)
N1 C1 C2 C14 -170.19(14)
C8 C1 C2 C14 11.0(2)
C1 C2 C3 C4 -1.4(2)
C14 C2 C3 C4 172.46(14)
C1 C2 C3 C17 -178.82(14)
C14 C2 C3 C17 -5.0(2)
C2 C3 C4 C5 -1.3(2)
C17 C3 C4 C5 176.03(14)
C2 C3 C4 C7 179.85(16)
C17 C3 C4 C7 -2.8(3)
C1 N1 C5 C4 -0.7(2)
C1 N1 C5 S1 -179.70(11)
C3 C4 C5 N1 2.5(2)
C7 C4 C5 N1 -178.43(15)
C3 C4 C5 S1 -178.46(11)
C7 C4 C5 S1 0.62(17)
C6 S1 C5 N1 178.69(14)
C6 S1 C5 C4 -0.41(12)
C5 S1 C6 C7 0.08(13)
C5 S1 C6 C23 -177.49(14)
C23 C6 C7 N2 -5.2(3)
S1 C6 C7 N2 177.27(13)
C23 C6 C7 C4 177.81(15)
S1 C6 C7 C4 0.25(18)
C3 C4 C7 N2 1.3(3)
C5 C4 C7 N2 -177.58(15)
C3 C4 C7 C6 178.34(16)
C5 C4 C7 C6 -0.56(19)
N1 C1 C8 C9 36.8(2)
C2 C1 C8 C9 -144.34(16)
N1 C1 C8 C13 -142.32(16)
C2 C1 C8 C13 36.5(2)
C13 C8 C9 C10 -2.7(2)
C1 C8 C9 C10 178.12(15)
C8 C9 C10 C11 0.5(3)
C9 C10 C11 C12 1.7(3)
C10 C11 C12 C13 -1.4(3)
C11 C12 C13 C8 -0.9(3)
C9 C8 C13 C12 3.0(3)
C1 C8 C13 C12 -177.88(16)
C15 O2 C14 O1 4.6(2)
C15 O2 C14 C2 -171.53(15)
C3 C2 C14 O1 -99.45(19)
C1 C2 C14 O1 74.3(2)
C3 C2 C14 O2 76.68(17)
C1 C2 C14 O2 -109.56(17)
C14 O2 C15 C16 -83.3(2)
C2 C3 C17 C18 77.9(2)
C4 C3 C17 C18 -99.37(19)
C2 C3 C17 C22 -97.89(19)
C4 C3 C17 C22 84.8(2)
C22 C17 C18 C19 0.4(3)
C3 C17 C18 C19 -175.48(16)
C17 C18 C19 C20 0.5(3)
C18 C19 C20 C21 -1.3(3)
C18 C19 C20 Cl1 177.86(14)
C19 C20 C21 C22 1.2(3)
Cl1 C20 C21 C22 -177.99(15)
C20 C21 C22 C17 -0.2(3)
C18 C17 C22 C21 -0.5(3)
C3 C17 C22 C21 175.32(16)
C24 N3 C23 O3 -1.1(3)
C24 N3 C23 C6 177.44(15)
C7 C6 C23 O3 -16.0(3)
S1 C6 C23 O3 161.36(13)
C7 C6 C23 N3 165.42(16)
S1 C6 C23 N3 -17.3(2)
C23 N3 C24 C25 32.6(3)
C23 N3 C24 C29 -149.90(17)
C29 C24 C25 C26 1.3(3)
N3 C24 C25 C26 178.83(16)
C24 C25 C26 C27 -0.2(3)
C30 O4 C27 C26 -1.0(3)
C30 O4 C27 C28 177.92(19)
C25 C26 C27 O4 177.84(17)
C25 C26 C27 C28 -1.0(3)
O4 C27 C28 C29 -177.85(16)
C26 C27 C28 C29 1.1(3)
C27 C28 C29 C24 0.0(3)
C25 C24 C29 C28 -1.2(3)
N3 C24 C29 C28 -178.88(16)

_cod_database_fobs_code 1543172
