#------------------------------------------------------------------------------
#$Date: 2016-08-05 06:42:51 +0300 (Fri, 05 Aug 2016) $
#$Revision: 184991 $
#$URL: file:///home/coder/svn-repositories/cod/cif/1/54/31/1543158.cif $
#------------------------------------------------------------------------------
#
# This file is available in the Crystallography Open Database (COD),
# http://www.crystallography.net/
#
# All data on this site have been placed in the public domain by the
# contributors.
#
data_1543158
loop_
_publ_author_name
'Reekie, Tristan A.'
'Donckele, Etienne J.'
'Manenti, Giorgio'
'P\"untener, Salome'
'Trapp, Nils'
'Diederich, Fran\,cois'
_publ_section_title
;
 A Three-Step Synthesis of Tetrasubstituted NH-Pyrroles.
;
_journal_issue                   9
_journal_name_full               'Organic letters'
_journal_page_first              2252
_journal_page_last               2255
_journal_paper_doi               10.1021/acs.orglett.6b00890
_journal_volume                  18
_journal_year                    2016
_chemical_absolute_configuration unk
_chemical_formula_moiety         'C20 H23 N3 O4 S'
_chemical_formula_sum            'C20 H23 N3 O4 S'
_chemical_formula_weight         401.47
_chemical_name_systematic
'diethyl 2-(5-amino-4-cyano-3-(4-(dimethylamino)phenyl)thiophen-2-yl)malonate'
_space_group_crystal_system      monoclinic
_space_group_IT_number           4
_space_group_name_Hall           'P 2yb'
_space_group_name_H-M_alt        'P 1 21 1'
_symmetry_space_group_name_Hall  'P 2yb'
_symmetry_space_group_name_H-M   'P 1 21 1'
_atom_sites_solution_hydrogens   mixed
_atom_sites_solution_primary     direct
_audit_creation_date             2015-04-13
_audit_creation_method
;
Olex2 1.2
(compiled 2015.01.26 svn.r3150 for OlexSys, GUI svn.r4998)
;
_cell_angle_alpha                90
_cell_angle_beta                 107.1540(10)
_cell_angle_gamma                90
_cell_formula_units_Z            4
_cell_length_a                   8.5140(3)
_cell_length_b                   22.5000(7)
_cell_length_c                   11.0395(4)
_cell_measurement_reflns_used    7295
_cell_measurement_temperature    100.0(2)
_cell_measurement_theta_max      27.51
_cell_measurement_theta_min      2.66
_cell_volume                     2020.71(12)
_computing_cell_refinement       'Bruker SAINT'
_computing_data_collection       'Bruker APEX2'
_computing_data_reduction        'Bruker SAINT'
_computing_molecular_graphics    'Olex2 (Dolomanov et al., 2009)'
_computing_publication_material  'Olex2 (Dolomanov et al., 2009)'
_computing_structure_refinement  'XL (Sheldrick, 2008)'
_computing_structure_solution    'XS (Sheldrick, 2008)'
_diffrn_ambient_temperature      100.0(2)
_diffrn_detector                 'Bruker APEX2 area detector'
_diffrn_detector_area_resol_mean 8.33
_diffrn_detector_type            'CCD area detector'
_diffrn_measured_fraction_theta_full 1.000
_diffrn_measured_fraction_theta_max 0.999
_diffrn_measurement_device       'kappa-stage diffractometer'
_diffrn_measurement_device_type  'Bruker Apex2 Duo (Mo)'
_diffrn_measurement_method       '\w and \f scans'
_diffrn_radiation_monochromator  'focusing graphite'
_diffrn_radiation_probe          x-ray
_diffrn_radiation_type           MoK\a
_diffrn_radiation_wavelength     0.71073
_diffrn_reflns_av_R_equivalents  0.0223
_diffrn_reflns_av_unetI/netI     0.0357
_diffrn_reflns_Laue_measured_fraction_full 1.000
_diffrn_reflns_Laue_measured_fraction_max 0.999
_diffrn_reflns_limit_h_max       10
_diffrn_reflns_limit_h_min       -11
_diffrn_reflns_limit_k_max       28
_diffrn_reflns_limit_k_min       -29
_diffrn_reflns_limit_l_max       14
_diffrn_reflns_limit_l_min       -14
_diffrn_reflns_number            16283
_diffrn_reflns_point_group_measured_fraction_full 1.000
_diffrn_reflns_point_group_measured_fraction_max 0.999
_diffrn_reflns_theta_full        25.242
_diffrn_reflns_theta_max         27.522
_diffrn_reflns_theta_min         1.810
_diffrn_source                   'sealed tube'
_diffrn_standards_number         0
_exptl_absorpt_coefficient_mu    0.191
_exptl_absorpt_correction_T_max  0.7456
_exptl_absorpt_correction_T_min  0.7041
_exptl_absorpt_correction_type   multi-scan
_exptl_absorpt_process_details
;
SADABS-2014/5 (Bruker,2014/5) was used for absorption correction.
wR2(int) was 0.0430 before and 0.0401 after correction.
The Ratio of minimum to maximum transmission is 0.9443.
The \l/2 correction factor is 0.00150.
;
_exptl_crystal_colour            'clear dark yellow'
_exptl_crystal_colour_lustre     clear
_exptl_crystal_colour_modifier   dark
_exptl_crystal_colour_primary    yellow
_exptl_crystal_density_diffrn    1.320
_exptl_crystal_description       block
_exptl_crystal_F_000             848
_exptl_crystal_size_max          0.32
_exptl_crystal_size_mid          0.21
_exptl_crystal_size_min          0.1
_refine_diff_density_max         0.283
_refine_diff_density_min         -0.186
_refine_diff_density_rms         0.042
_refine_ls_abs_structure_details
;
 Refined as an inversion twin.
;
_refine_ls_abs_structure_Flack   0.59(7)
_refine_ls_extinction_method     none
_refine_ls_goodness_of_fit_ref   1.043
_refine_ls_hydrogen_treatment    mixed
_refine_ls_matrix_type           full
_refine_ls_number_parameters     526
_refine_ls_number_reflns         9026
_refine_ls_number_restraints     7
_refine_ls_restrained_S_all      1.043
_refine_ls_R_factor_all          0.0370
_refine_ls_R_factor_gt           0.0328
_refine_ls_shift/su_max          0.000
_refine_ls_shift/su_mean         0.000
_refine_ls_structure_factor_coef Fsqd
_refine_ls_weighting_details
'w=1/[\s^2^(Fo^2^)+(0.0415P)^2^+0.2830P] where P=(Fo^2^+2Fc^2^)/3'
_refine_ls_weighting_scheme      calc
_refine_ls_wR_factor_gt          0.0791
_refine_ls_wR_factor_ref         0.0812
_reflns_Friedel_coverage         0.950
_reflns_Friedel_fraction_full    1.000
_reflns_Friedel_fraction_max     0.999
_reflns_number_gt                8318
_reflns_number_total             9026
_reflns_threshold_expression     'I > 2\s(I)'
_cod_data_source_file            ol6b00890_si_002.cif
_cod_data_source_block           mo_d290315_1_1_0m
_cod_depositor_comments
'Adding full bibliography for 1543156--1543159.cif.'
_cod_database_code               1543158
_shelxl_version_number           2014/6
_shelx_space_group_comment
;
The symmetry employed for this shelxl refinement is uniquely defined
by the following loop, which should always be used as a source of
symmetry information in preference to the above space-group names.
They are only intended as comments.
;
_shelx_estimated_absorpt_t_max   0.981
_shelx_estimated_absorpt_t_min   0.941
_olex2_refinement_description
;
1. Twinned data refinement
 Scales: 0.41(7) 0.59(7)
2. Fixed Uiso
 At 1.2 times of:
  All C(H) groups, All C(H,H) groups
 At 1.5 times of:
  All C(H,H,H) groups, All N(H,H) groups
3. Restrained distances
 N3-H3B
 0.86 with sigma of 0.01
 N3-H3A
 0.86 with sigma of 0.01
 N6-H6B
 0.86 with sigma of 0.01
 N6-H6A
 0.86 with sigma of 0.01
 H3B-H3A
 1.4 with sigma of 0.03
 H6B-H6A
 1.4 with sigma of 0.03
4.a Ternary CH refined with riding coordinates:
 C2(H2), C27(H27)
4.b Secondary CH2 refined with riding coordinates:
 C9(H9A,H9B), C12(H12A,H12B), C29(H29A,H29B), C32(H32A,H32B)
4.c Aromatic/amide H refined with riding coordinates:
 C3(H3), C4(H4), C17(H17), C18(H18), C22(H22), C23(H23), C37(H37), C38(H38)
4.d Idealised Me refined as rotating group:
 C1(H1A,H1B,H1C), C10(H10A,H10B,H10C), C13(H13A,H13B,H13C), C16(H16A,H16B,
 H16C), C20(H20A,H20B,H20C), C30(H30A,H30B,H30C), C31(H31A,H31B,H31C), C36(H36A,
 H36B,H36C)
;
_shelx_res_file
;
TITL mo_d290315_1_1_0m in P2(1)
CELL 0.71073 8.514 22.5 11.0395 90 107.154 90
ZERR 4 0.0003 0.0007 0.0004 0 0.001 0
LATT -1
SYMM -X,0.5+Y,-Z
SFAC C H N O S
UNIT 80 92 12 16 4
DFIX 0.86 0.01 N3 H3b
DFIX 0.86 0.01 N3 H3a
DFIX 0.86 0.01 N6 H6b
DFIX 0.86 0.01 N6 H6a
DANG 1.4 0.03 H3b H3a
DANG 1.4 0.03 H6b H6a

L.S. 8
PLAN  -5 0 0
SIZE 0.1 0.21 0.32
TEMP -173.1(2)
HTAB
BOND $H
CONF
MORE -1
fmap 2
acta
TWIN -1 0 0 0 -1 0 0 0 -1 2
REM <olex2.extras>
REM <HklSrc "%.\\mo_d290315_1_1_0m.hkl">
REM </olex2.extras>

WGHT    0.041500    0.283000
BASF   0.59184
FVAR       0.22671
S1    5    0.660869    0.693843    0.422046    11.00000    0.01506    0.01561 =
         0.01282   -0.00115    0.00354   -0.00469
S2    5    1.142125    0.326826    0.402818    11.00000    0.01620    0.01523 =
         0.01266    0.00088    0.00260    0.00362
O1    4    0.330428    0.530045    0.340000    11.00000    0.03686    0.01337 =
         0.02967   -0.00346   -0.00159    0.00044
O2    4    0.540514    0.552948    0.510539    11.00000    0.03308    0.02399 =
         0.02914    0.00498   -0.00290    0.00212
O3    4    0.262850    0.627142    0.575007    11.00000    0.03509    0.01975 =
         0.02277   -0.00203    0.01906   -0.00533
O4    4    0.419371    0.705610    0.563519    11.00000    0.03053    0.03102 =
         0.02385   -0.01221    0.01409   -0.01495
O5    4    0.788931    0.490773    0.332091    11.00000    0.03747    0.01321 =
         0.02958    0.00473    0.00794    0.00573
O6    4    0.752593    0.394915    0.561805    11.00000    0.02953    0.01746 =
         0.01911    0.00162    0.01367    0.00533
O7    4    0.898699    0.314026    0.544573    11.00000    0.03153    0.02371 =
         0.02282    0.01002    0.01401    0.01338
O8    4    1.028087    0.469254    0.477969    11.00000    0.03157    0.02078 =
         0.03248   -0.00134   -0.00082   -0.00374
N1    3   -0.109655    0.573338   -0.167817    11.00000    0.01939    0.02232 =
         0.02256   -0.00799   -0.00017    0.00087
C2    1    0.361892    0.631214    0.398134    11.00000    0.01461    0.01614 =
         0.01376   -0.00047    0.00494   -0.00343
AFIX  13
H2    2    0.248354    0.630354    0.337639    11.00000   -1.20000
AFIX   0
N3    3    0.857109    0.737040    0.290490    11.00000    0.01824    0.02360 =
         0.01730   -0.00148    0.00714   -0.00999
H3A   2    0.917762    0.751925    0.360999    11.00000   -1.50000
H3B   2    0.869750    0.751531    0.223271    11.00000   -1.50000
N4    3    0.597510    0.715647   -0.046970    11.00000    0.02196    0.02486 =
         0.01965   -0.00173    0.00899   -0.00364

N5    3    0.364209    0.443193   -0.186815    11.00000    0.01756    0.01825 =
         0.02024    0.00636    0.00107    0.00058
N6    3    1.331302    0.280244    0.269138    11.00000    0.02080    0.02349 =
         0.01740    0.00373    0.00559    0.00775
H6A   2    1.345950    0.263993    0.202364    11.00000   -1.50000
H6B   2    1.383485    0.263599    0.339158    11.00000   -1.50000
C1    1   -0.255090    0.610034   -0.211068    11.00000    0.01812    0.03101 =
         0.03209   -0.01064   -0.00201   -0.00300
AFIX 137
H1A   2   -0.298893    0.618190   -0.140023    11.00000   -1.50000
H1B   2   -0.338265    0.589176   -0.278115    11.00000   -1.50000
H1C   2   -0.226601    0.647588   -0.244354    11.00000   -1.50000
AFIX   0
C0AA  1    0.026783    0.595492   -0.076287    11.00000    0.01790    0.01774 =
         0.01281   -0.00296    0.00401   -0.00502
C3    1    0.178892    0.566333   -0.045460    11.00000    0.02328    0.01425 =
         0.01516   -0.00151    0.00559   -0.00024
AFIX  43
H3    2    0.188987    0.530277   -0.087317    11.00000   -1.20000
AFIX   0
C4    1    0.315081    0.589230    0.045193    11.00000    0.01737    0.01567 =
         0.01422    0.00151    0.00391    0.00093
AFIX  43
H4    2    0.416967    0.568721    0.063793    11.00000   -1.20000
AFIX   0
C5    1    0.305006    0.642112    0.109856    11.00000    0.01469    0.01579 =
         0.01103    0.00114    0.00584   -0.00112
C6    1    0.449998    0.665693    0.208423    11.00000    0.01550    0.00833 =
         0.01544    0.00044    0.00408    0.00036
C7    1    0.472519    0.663038    0.335253    11.00000    0.01358    0.01101 =
         0.01510   -0.00184    0.00491   -0.00222
C8    1    0.422133    0.566715    0.425847    11.00000    0.01883    0.01470 =
         0.01813    0.00045    0.00938   -0.00459
C9    1    0.376897    0.466970    0.349747    11.00000    0.04618    0.01217 =
         0.04046    0.00121    0.01101    0.00117
AFIX  23
H9A   2    0.300234    0.443845    0.383582    11.00000   -1.20000
H9B   2    0.489365    0.462118    0.408120    11.00000   -1.20000
AFIX   0
C10   1    0.370233    0.445210    0.221831    11.00000    0.04280    0.02378 =
         0.04315   -0.00351    0.01147   -0.00046
AFIX 137
H10A  2    0.260473    0.452485    0.163424    11.00000   -1.50000
H10B  2    0.393472    0.402479    0.225630    11.00000   -1.50000
H10C  2    0.452341    0.466255    0.191727    11.00000   -1.50000
AFIX   0
C11   1    0.353646    0.659683    0.521188    11.00000    0.01367    0.01769 =
         0.01409    0.00140    0.00521    0.00208
C12   1    0.247787    0.648452    0.696355    11.00000    0.03446    0.02330 =
         0.01745    0.00197    0.01506    0.00251
AFIX  23
H12A  2    0.351866    0.667675    0.745021    11.00000   -1.20000
H12B  2    0.227653    0.614348    0.746459    11.00000   -1.20000
AFIX   0
C13   1    0.109733    0.691965    0.675953    11.00000    0.04098    0.03191 =
         0.03505    0.00457    0.02175    0.01052
AFIX 137
H13A  2    0.135573    0.727712    0.634823    11.00000   -1.50000
H13B  2    0.094696    0.702703    0.757847    11.00000   -1.50000
H13C  2    0.008424    0.674005    0.621812    11.00000   -1.50000
AFIX   0
C14   1    0.711510    0.711183    0.285634    11.00000    0.01581    0.01379 =
         0.01641   -0.00108    0.00501    0.00049
C15   1    0.586622    0.693878    0.178941    11.00000    0.01628    0.01364 =
         0.01425    0.00025    0.00621   -0.00151
C16   1   -0.088420    0.525866   -0.250064    11.00000    0.02412    0.02518 =
         0.02562   -0.01104    0.00190   -0.00324
AFIX 137
H16A  2   -0.007597    0.537895   -0.292770    11.00000   -1.50000
H16B  2   -0.193761    0.517491   -0.313561    11.00000   -1.50000
H16C  2   -0.049524    0.490070   -0.199552    11.00000   -1.50000
AFIX   0
C17   1    0.016994    0.648580   -0.010840    11.00000    0.01635    0.02006 =
         0.02071   -0.00226    0.00537    0.00232
AFIX  43
H17   2   -0.084336    0.669447   -0.029342    11.00000   -1.20000
AFIX   0
C18   1    0.153458    0.670510    0.079941    11.00000    0.01850    0.01725 =
         0.01664   -0.00408    0.00626    0.00041
AFIX  43
H18   2    0.143309    0.706123    0.123249    11.00000   -1.20000
AFIX   0
C19   1    0.591443    0.705279    0.053652    11.00000    0.01427    0.01253 =
         0.01931   -0.00158    0.00566   -0.00289

C20   1    0.225256    0.403857   -0.237931    11.00000    0.01830    0.02473 =
         0.02722    0.00723   -0.00044   -0.00148
AFIX 137
H20A  2    0.261914    0.368327   -0.273257    11.00000   -1.50000
H20B  2    0.141367    0.424496   -0.304861    11.00000   -1.50000
H20C  2    0.178685    0.392196   -0.170180    11.00000   -1.50000
AFIX   0
C21   1    0.500246    0.421875   -0.094282    11.00000    0.01783    0.01420 =
         0.01433    0.00035    0.00583    0.00275
C22   1    0.651050    0.452594   -0.059928    11.00000    0.02289    0.01297 =
         0.01590    0.00270    0.00676    0.00107
AFIX  43
H22   2    0.659642    0.489360   -0.099807    11.00000   -1.20000
AFIX   0
C23   1    0.787050    0.430139    0.030980    11.00000    0.01650    0.01543 =
         0.01654   -0.00013    0.00449   -0.00243
AFIX  43
H23   2    0.887590    0.451587    0.051591    11.00000   -1.20000
AFIX   0
C24   1    0.779358    0.376549    0.093018    11.00000    0.01668    0.01519 =
         0.01125   -0.00006    0.00372    0.00530
C25   1    0.927058    0.352971    0.190447    11.00000    0.01552    0.01215 =
         0.01483    0.00197    0.00582    0.00016
C26   1    0.952514    0.357370    0.317355    11.00000    0.01401    0.01338 =
         0.01443    0.00306    0.00204    0.00456
C27   1    0.844205    0.389622    0.381427    11.00000    0.01633    0.01332 =
         0.01322    0.00133    0.00359    0.00312
AFIX  13
H27   2    0.730037    0.389631    0.321886    11.00000   -1.20000
AFIX   0
C28   1    0.899613    0.454661    0.405522    11.00000    0.02251    0.01935 =
         0.01293   -0.00084    0.00740    0.00175
C29   1    0.827679    0.554299    0.339031    11.00000    0.05442    0.01265 =
         0.03679    0.00369    0.01559    0.00560
AFIX  23
H29A  2    0.907193    0.563615    0.422296    11.00000   -1.20000
H29B  2    0.726495    0.577665    0.330657    11.00000   -1.20000
AFIX   0
C30   1    0.899708    0.570880    0.234701    11.00000    0.02962    0.01891 =
         0.05447    0.00304    0.01845   -0.00203
AFIX 137
H30A  2    1.004350    0.550035    0.247149    11.00000   -1.50000
H30B  2    0.918460    0.613883    0.236210    11.00000   -1.50000
H30C  2    0.823284    0.559535    0.152710    11.00000   -1.50000
AFIX   0
C31   1    0.596445    0.329103    0.659068    11.00000    0.03904    0.03370 =
         0.03498   -0.00708    0.02192   -0.00960
AFIX 137
H31A  2    0.494107    0.348794    0.611657    11.00000   -1.50000
H31B  2    0.586539    0.314929    0.740437    11.00000   -1.50000
H31C  2    0.617370    0.295316    0.609972    11.00000   -1.50000
AFIX   0
C32   1    0.735653    0.372199    0.682147    11.00000    0.02901    0.02381 =
         0.01721   -0.00320    0.01209   -0.00157
AFIX  23
H32A  2    0.716007    0.405782    0.733781    11.00000   -1.20000
H32B  2    0.838984    0.352340    0.730258    11.00000   -1.20000
AFIX   0
C33   1    0.837613    0.361046    0.504617    11.00000    0.01647    0.01758 =
         0.01552   -0.00169    0.00281    0.00261
C34   1    1.187819    0.307103    0.265283    11.00000    0.01776    0.01154 =
         0.01508   -0.00064    0.00815    0.00094
C35   1    1.060862    0.323699    0.159833    11.00000    0.01642    0.01471 =
         0.01626    0.00235    0.00623    0.00119
C36   1    0.388421    0.490070   -0.270943    11.00000    0.02298    0.01984 =
         0.02607    0.00936    0.00414    0.00455
AFIX 137
H36A  2    0.428824    0.526010   -0.221397    11.00000   -1.50000
H36B  2    0.283718    0.498729   -0.334956    11.00000   -1.50000
H36C  2    0.468976    0.476947   -0.312961    11.00000   -1.50000
AFIX   0
C37   1    0.493125    0.367735   -0.031192    11.00000    0.01582    0.01840 =
         0.01834    0.00179    0.00488   -0.00101
AFIX  43
H37   2    0.393238    0.345897   -0.051441    11.00000   -1.20000
AFIX   0
C38   1    0.630590    0.346195    0.059994    11.00000    0.02157    0.01603 =
         0.01758    0.00427    0.00578   -0.00049
AFIX  43
H38   2    0.622849    0.309672    0.101031    11.00000   -1.20000
AFIX   0
C39   1    1.063813    0.311403    0.033629    11.00000    0.01420    0.01438 =
         0.01996    0.00329    0.00583    0.00266
N40   3    1.069664    0.300927   -0.066304    11.00000    0.02332    0.02180 =
         0.01831    0.00234    0.00976    0.00424
HKLF 4

REM  mo_d290315_1_1_0m in P2(1)
REM R1 =  0.0328 for    8318 Fo > 4sig(Fo)  and  0.0370 for all    9026 data
REM    526 parameters refined using      7 restraints

END

WGHT      0.0415      0.2833

REM Instructions for potential hydrogen bonds
EQIV $1 -x+2, y+1/2, -z+1
HTAB N3 O7_$1
EQIV $2 -x+2, y+1/2, -z
HTAB N3 N40_$2
EQIV $3 -x+2, y-1/2, -z
HTAB N6 N4_$3
EQIV $4 -x+2, y-1/2, -z+1
HTAB N6 O4_$4
EQIV $5 x-1, y, z
HTAB C1 N4_$5
EQIV $6 x-1, y, z-1
HTAB C1 O2_$6
HTAB C9 S2_$5
HTAB C16 O2_$6
HTAB C20 O8_$6
HTAB C20 N40_$5
HTAB C29 S1
HTAB C36 O8_$6

REM Highest difference peak  0.283,  deepest hole -0.186,  1-sigma level  0.042
Q1    1   0.2402  0.6601  0.0781  11.00000  0.05    0.28
Q2    1   0.3718  0.6537  0.1567  11.00000  0.05    0.27
Q3    1   0.8722  0.3817  0.4522  11.00000  0.05    0.27
Q4    1   1.0304  0.3386  0.3646  11.00000  0.05    0.27
Q5    1   0.8682  0.4203  0.4025  11.00000  0.05    0.27
;
_shelx_res_checksum              38961
_shelx_hkl_file
;
  -1   0   0    1.51    0.12
   1   0   0    1.56    0.12
   2   0   0   45.05    1.01
  -2   0   0   44.75    1.01
   3   0   0   11.39    0.47
  -3   0   0   10.14    0.46
   4   0   0  206.62    4.11
  -4   0   0  207.16    4.13
   5   0   0    0.28    0.23
   5   0   0    0.37    0.25
  -5   0   0    0.11    0.23
  -6   0   0    2.11    0.36
   6   0   0    2.25    0.35
   6   0   0    1.90    0.38
   7   0   0    7.20    0.52
   7   0   0    8.79    0.71
  -7   0   0    9.37    0.75
  -8   0   0    3.64    0.58
   8   0   0    5.14    0.63
   9   0   0   -0.21    0.37
  -9   0   0   -0.30    0.37
 -10   0   0   11.52    1.08
   1  -1   0    2.04    0.14
   1   1   0    2.44    0.14
  -1   1   0    2.20    0.14
  -2  -1   0  356.15    6.62
   2  -1   0  362.36    6.63
  -2   1   0  341.14    6.62
   2   1   0  372.56    6.53
   2   1   0  363.34    6.63
   3  -1   0   40.59    1.03
   3   1   0   40.52    1.03
  -3   1   0   41.84    1.04
   3   1   0   41.37    0.93
   4  -1   0   15.66    0.66
  -4  -1   0   16.32    0.65
   4   1   0   15.22    0.65
   4   1   0   12.44    0.52
  -4   1   0   15.67    0.65
   5  -1   0   60.32    1.56
  -5  -1   0   60.18    1.57
  -5   1   0   58.89    1.57
   5   1   0   60.22    1.39
   5   1   0   59.21    1.55
  -6  -1   0    5.15    0.53
   6  -1   0    5.29    0.53
   6  -1   0    6.10    0.54
  -6   1   0    4.39    0.48
   6   1   0    5.76    0.39
   6   1   0    5.16    0.50
  -7  -1   0   17.10    0.91
   7  -1   0   17.98    0.92
   7  -1   0   11.69    0.73
   7   1   0   15.11    0.84
  -7   1   0   14.50    0.85
   8  -1   0   19.93    1.01
  -8  -1   0   16.59    1.01
  -8   1   0   17.73    1.02
   8   1   0   18.76    0.99
   9  -1   0    6.83    0.73
  -9  -1   0    6.97    0.80
   9   1   0    6.70    0.75
  -9   1   0    6.18    0.73
 -10  -1   0    1.35    0.57
 -10   1   0    1.35    0.55
   0  -2   0   10.35    0.27
   0   2   0   11.13    0.27
  -1  -2   0  208.14    3.89
   1  -2   0  206.75    3.89
  -1   2   0  217.62    3.90
   2  -2   0   10.40    0.41
  -2  -2   0   10.78    0.40
  -2   2   0   11.10    0.41
   3  -2   0  124.35    2.53
  -3  -2   0  123.64    2.53
   3   2   0  123.15    2.52
  -4  -2   0   80.30    1.88
   4  -2   0   79.16    1.87
  -4   2   0   85.11    1.90
   4   2   0   82.62    1.88
   4   2   0   81.44    1.62
   5  -2   0   11.02    0.60
  -5  -2   0   10.12    0.59
   5   2   0   10.82    0.59
  -5   2   0   10.32    0.60
   5   2   0    9.10    0.35
  -6  -2   0    0.39    0.28
   6  -2   0    0.90    0.32
  -6   2   0    0.18    0.28
   6   2   0    0.56    0.28
  -7  -2   0   44.65    1.49
   7  -2   0   43.18    1.44
   7  -2   0   44.10    1.46
  -7   2   0   42.75    1.46
   7   2   0   42.54    1.42
  -8  -2   0    8.15    0.76
   8  -2   0    7.87    0.74
   8   2   0    8.32    0.75
  -8   2   0    7.80    0.75
  -9  -2   0   24.08    1.28
   9  -2   0   24.75    1.22
  -9   2   0   25.62    1.27
 -10  -2   0    9.28    0.99
 -10   2   0    8.66    0.95
   0  -3   0   -0.33    0.08
   0   3   0   -0.42    0.08
  -1  -3   0  512.43    9.38
  -1   3   0  516.71    9.35
  -2  -3   0  540.25    9.76
   2  -3   0  526.11    9.76
   3  -3   0   40.55    1.06
  -3  -3   0   41.92    1.07
  -3   3   0   43.83    1.09
   3   3   0   42.58    1.07
   4  -3   0   30.64    0.94
  -4  -3   0   30.22    0.93
  -4   3   0   28.79    0.93
   4   3   0   28.72    0.91
   5  -3   0    9.70    0.60
  -5  -3   0   10.25    0.59
   5   3   0    9.39    0.58
  -5   3   0    9.17    0.58
   6  -3   0   38.70    1.25
  -6  -3   0   39.90    1.28
  -6   3   0   37.38    1.26
   6   3   0   36.14    1.22
  -7  -3   0   22.47    1.05
   7  -3   0   24.46    1.07
   7   3   0   22.17    1.02
  -7   3   0   23.40    1.08
   8  -3   0    7.60    0.73
  -8  -3   0    7.11    0.72
  -8   3   0    6.64    0.71
   9  -3   0    5.52    0.68
  -9  -3   0    5.04    0.72
  -9   3   0    6.20    0.78
 -10  -3   0    3.94    0.72
 -10   3   0    3.43    0.68
   0  -4   0  421.55    7.73
   0   4   0  426.03    7.73
  -1  -4   0  806.10   14.55
   1  -4   0  793.14   14.55
  -1   4   0  793.66   14.52
   2  -4   0  115.13    2.30
  -2   4   0  112.33    2.30
  -3  -4   0  127.70    2.64
   3  -4   0  128.88    2.65
  -3   4   0  129.63    2.66
   4  -4   0  148.56    3.13
  -4  -4   0  151.73    3.14
  -4   4   0  150.94    3.14
  -5  -4   0   43.11    1.28
   5  -4   0   44.01    1.27
  -6  -4   0    3.97    0.48
   6  -4   0    4.23    0.49
  -6   4   0    3.13    0.44
  -7  -4   0    5.66    0.63
   7  -4   0    4.37    0.55
  -7   4   0    4.81    0.60
   8  -4   0   20.66    1.15
   8  -4   0   21.97    1.09
  -8  -4   0   24.12    1.17
  -8   4   0   22.04    1.12
   9  -4   0   11.62    0.93
  -9  -4   0   12.96    1.01
  -9   4   0   11.54    0.97
 -10  -4   0    9.09    0.98
 -10   4   0    8.06    0.92
   0  -5   0    0.16    0.13
   0   5   0    0.27    0.15
  -1  -5   0  520.08    9.40
   1  -5   0  491.30    9.40
  -1   5   0  526.68    9.42
   1   5   0  521.00    9.40
  -2  -5   0  356.95    6.58
   2  -5   0  354.67    6.58
  -2   5   0  345.45    6.58
  -3  -5   0   99.19    2.03
   3  -5   0   87.05    2.00
  -3   5   0   90.86    2.02
  -4  -5   0    7.66    0.50
   4  -5   0    6.49    0.48
  -4   5   0    6.96    0.50
   5  -5   0   14.47    0.71
  -5  -5   0   14.05    0.70
  -5   5   0   14.76    0.71
   6  -5   0    8.20    0.65
  -6  -5   0    7.50    0.64
  -6   5   0    6.10    0.57
   7  -5   0    0.61    0.38
  -7  -5   0    1.13    0.40
  -7   5   0    0.99    0.40
  -8  -5   0    2.80    0.55
   8  -5   0    3.85    0.58
  -8   5   0    3.79    0.59
   9  -5   0   14.72    0.98
  -9  -5   0   15.18    1.05
  -9   5   0   15.20    1.03
 -10  -5   0   13.64    1.08
 -10   5   0   12.69    1.08
   0  -6   0  432.85    8.00
   0   6   0  437.33    8.00
   1  -6   0   88.00    1.78
  -1  -6   0   85.73    1.77
  -1   6   0   83.67    1.77
   1   6   0   84.54    1.76
  -2  -6   0   61.37    1.36
   2  -6   0   60.22    1.36
  -2   6   0   55.84    1.35
  -3  -6   0  139.64    2.92
   3  -6   0  143.64    2.93
  -3   6   0  141.97    2.93
  -4  -6   0   42.54    1.21
   4  -6   0   42.88    1.22
  -4   6   0   45.63    1.25
   5  -6   0    0.68    0.27
  -5  -6   0    0.59    0.27
  -5   6   0    0.41    0.26
   6  -6   0    2.59    0.43
  -6  -6   0    3.05    0.47
  -6   6   0    3.43    0.49
  -7  -6   0    9.55    0.76
   7  -6   0    8.98    0.74
  -7   6   0   11.14    0.80
   8  -6   0    9.46    0.78
  -8  -6   0    8.07    0.77
  -8   6   0    7.68    0.77
   9  -6   0    1.40    0.49
  -9  -6   0    2.14    0.56
  -9   6   0    0.95    0.48
 -10  -6   0    8.71    0.93
 -10   6   0   12.14    1.11
   0  -7   0    0.20    0.14
   0  -7   0    0.05    0.06
   0   7   0    0.14    0.14
  -1  -7   0   99.38    2.09
   1  -7   0  101.10    2.11
   1   7   0  106.07    2.10
  -1   7   0  102.65    2.11
  -2  -7   0   62.61    1.43
   2  -7   0   63.59    1.44
  -2   7   0   59.39    1.43
   3  -7   0    0.97    0.26
  -3  -7   0    1.15    0.26
  -3   7   0    1.09    0.29
   4  -7   0   12.59    0.62
  -4  -7   0   11.65    0.61
  -4   7   0   11.25    0.61
  -5  -7   0    5.29    0.51
   5  -7   0    5.41    0.49
  -5   7   0    4.64    0.47
   6  -7   0   41.58    1.36
  -6  -7   0   43.37    1.40
  -6   7   0   41.97    1.39
   7  -7   0    8.46    0.72
  -7  -7   0    7.34    0.68
  -7   7   0    7.47    0.69
   8  -7   0   12.61    0.90
  -8  -7   0   13.01    0.92
  -8   7   0   13.13    0.93
   9  -7   0   10.27    0.91
  -9  -7   0    9.53    0.91
  -9   7   0    8.88    0.90
 -10  -7   0    1.14    0.55
 -10   7   0    2.40    0.64
   0  -8   0  716.76   12.56
   0  -8   0  701.11   12.78
   0   8   0  677.24   12.76
   1  -8   0   13.77    0.52
  -1  -8   0   12.13    0.51
  -1   8   0   13.54    0.53
   1   8   0   13.71    0.51
  -2  -8   0  210.51    4.20
   2  -8   0  212.93    4.21
   2   8   0  220.00    4.19
  -3  -8   0   26.01    0.85
   3  -8   0   24.79    0.85
  -3   8   0   25.16    0.87
   4  -8   0  385.16    7.58
  -4  -8   0  410.47    7.62
  -4   8   0  390.70    7.61
  -5  -8   0   13.74    0.74
   5  -8   0   14.09    0.74
  -5   8   0   14.12    0.74
  -6  -8   0    8.27    0.66
   6  -8   0    6.87    0.62
  -6   8   0    8.93    0.70
   7  -8   0   10.91    0.79
  -7  -8   0    9.71    0.76
  -7   8   0    9.99    0.80
   8  -8   0   10.87    0.89
  -8  -8   0   12.50    0.92
  -8   8   0   11.90    0.91
   9  -8   0   18.60    1.11
  -9  -8   0   15.75    1.10
  -9   8   0   17.63    1.16
 -10  -8   0    0.50    0.49
 -10   8   0    0.93    0.54
   0  -9   0    0.42    0.19
   0   9   0    0.43    0.20
  -1  -9   0  402.87    7.44
   1  -9   0  388.42    7.43
  -1   9   0  395.43    7.43
   1   9   0  396.67    7.42
  -2  -9   0   16.31    0.66
   2  -9   0   17.11    0.69
  -2   9   0   17.29    0.68
   2   9   0   16.50    0.65
   3  -9   0   11.78    0.60
  -3  -9   0   13.34    0.62
  -3   9   0   12.36    0.62
  -4  -9   0   89.51    2.10
   4  -9   0   86.29    2.08
  -4   9   0   86.67    2.10
   5  -9   0    7.85    0.59
  -5  -9   0    5.70    0.53
  -5   9   0    7.67    0.61
   6  -9   0    7.47    0.64
  -6  -9   0    6.11    0.60
  -6   9   0    8.29    0.69
  -7  -9   0    3.39    0.56
   7  -9   0    3.80    0.58
  -7   9   0    2.69    0.51
   8  -9   0   25.69    1.24
  -8  -9   0   24.33    1.22
  -8   9   0   26.21    1.25
  -9  -9   0   16.09    1.12
   9  -9   0   14.51    1.03
  -9   9   0   14.45    1.11
 -10  -9   0    0.20    0.49
 -10   9   0    0.34    0.51
   0 -10   0    4.14    0.37
   0 -10   0    4.59    0.20
   0  10   0    5.01    0.41
  -1 -10   0    3.16    0.36
   1 -10   0    3.18    0.35
  -1  10   0    3.10    0.36
   1  10   0    3.38    0.36
  -2 -10   0   48.62    1.26
   2 -10   0   45.81    1.25
  -2  10   0   46.50    1.26
   2  10   0   46.41    1.23
  -3 -10   0    4.28    0.41
   3 -10   0    4.30    0.40
  -3  10   0    4.20    0.41
   4 -10   0   12.12    0.65
  -4 -10   0   11.37    0.64
  -4  10   0   11.66    0.65
   5 -10   0    2.08    0.39
  -5 -10   0    2.22    0.37
  -5  10   0    2.99    0.46
   6 -10   0   19.36    0.98
  -6 -10   0   20.22    0.98
  -6  10   0   21.78    1.02
   7 -10   0    2.02    0.47
  -7 -10   0    2.31    0.50
  -7  10   0    2.16    0.48
   8 -10   0    7.26    0.77
  -8 -10   0    6.39    0.75
  -8  10   0    7.41    0.82
  -9 -10   0    8.06    0.88
   9 -10   0    9.86    0.91
  -9  10   0    9.66    0.96
   0 -11   0    0.05    0.22
   0 -11   0    0.05    0.09
   0  11   0   -0.05    0.23
   1 -11   0    4.02    0.38
  -1 -11   0    4.70    0.42
   1  11   0    3.53    0.36
  -1  11   0    4.37    0.42
  -2 -11   0  352.79    6.64
   2 -11   0  347.44    6.65
   2  11   0  337.20    6.59
  -2  11   0  341.46    6.64
   3 -11   0   69.05    1.72
  -3 -11   0   68.31    1.71
  -3  11   0   66.85    1.72
   3  11   0   67.58    1.68
   4 -11   0   21.40    0.88
  -4 -11   0   20.73    0.87
  -4  11   0   22.21    0.89
  -5 -11   0   12.75    0.75
   5 -11   0   12.87    0.76
  -5  11   0   11.80    0.74
   6 -11   0   36.85    1.34
  -6 -11   0   37.40    1.35
  -6  11   0   35.46    1.35
   7 -11   0   13.66    0.92
  -7 -11   0   12.46    0.89
  -7  11   0   12.92    0.91
   8 -11   0   12.44    0.96
  -8 -11   0   14.86    1.01
  -8  11   0   11.55    0.97
   9 -11   0    4.33    0.68
  -9 -11   0    4.98    0.74
  -9  11   0    5.57    0.78
   0 -12   0  119.85    2.61
   0 -12   0  120.88    2.25
   0  12   0  121.53    2.60
   1 -12   0  119.83    2.65
  -1 -12   0  126.94    2.67
   1  12   0  124.81    2.63
  -1  12   0  118.92    2.64
   2 -12   0    9.17    0.56
  -2 -12   0    7.76    0.54
  -2  12   0    9.19    0.56
   2  12   0    9.21    0.54
   3 -12   0  199.99    4.21
  -3 -12   0  198.54    4.20
   3  12   0  208.18    4.17
  -3  12   0  209.71    4.24
   4 -12   0    5.48    0.53
  -4 -12   0    4.83    0.49
  -4  12   0    5.17    0.52
   5 -12   0    7.45    0.65
  -5 -12   0    7.62    0.64
  -5  12   0    6.85    0.62
  -6 -12   0   18.52    0.98
   6 -12   0   18.12    0.97
  -6  12   0   19.91    1.03
   7 -12   0   24.37    1.14
  -7 -12   0   22.33    1.12
  -7  12   0   20.70    1.14
  -8 -12   0    2.24    0.54
   8 -12   0    1.75    0.52
  -8  12   0    1.42    0.51
  -9 -12   0    1.91    0.56
   9 -12   0    2.28    0.58
  -9  12   0    1.31    0.56
   0 -13   0    0.57    0.23
   0  13   0    0.42    0.24
   1 -13   0   14.65    0.68
  -1 -13   0   15.58    0.69
  -1  13   0   15.32    0.69
   1  13   0   15.64    0.67
  -2 -13   0  179.86    3.82
   2 -13   0  187.13    3.84
  -2  13   0  186.29    3.84
   2  13   0  182.57    3.79
  -3 -13   0    9.43    0.61
   3 -13   0    9.53    0.61
   3  13   0    9.81    0.59
  -3  13   0    9.21    0.61
  -4 -13   0    0.27    0.28
   4 -13   0    0.54    0.30
  -4  13   0   -0.15    0.27
   4  13   0    0.04    0.26
   5 -13   0    4.30    0.55
  -5 -13   0    5.21    0.61
  -5  13   0    5.67    0.62
  -6 -13   0    7.66    0.72
   6 -13   0    7.22    0.70
  -6  13   0    8.83    0.76
   7 -13   0    3.85    0.60
  -7 -13   0    4.66    0.64
  -7  13   0    5.27    0.69
  -8 -13   0    9.36    0.91
   8 -13   0   10.96    0.93
  -8  13   0   10.89    1.00
  -9 -13   0    1.44    0.57
   9 -13   0    4.27    1.06
  -9  13   0    3.57    0.69
   0 -14   0    2.73    0.37
   0  14   0    3.47    0.39
  -1 -14   0   80.59    1.99
   1 -14   0   83.70    2.01
  -1  14   0   81.17    1.98
   1  14   0   83.69    1.97
   2 -14   0    4.66    0.46
  -2 -14   0    5.93    0.52
   2  14   0    4.46    0.44
  -2  14   0    3.75    0.42
   3 -14   0    3.20    0.41
  -3 -14   0    4.61    0.50
   3  14   0    3.68    0.44
  -3  14   0    3.62    0.46
   4 -14   0    8.53    0.64
  -4 -14   0    7.09    0.64
   4  14   0    6.50    0.57
  -4  14   0    7.60    0.67
   5 -14   0   14.32    0.84
  -5 -14   0   13.20    0.83
   5  14   0   14.74    0.82
  -5  14   0   14.46    0.86
  -6 -14   0    3.08    0.53
   6 -14   0    3.49    0.53
  -6  14   0    3.31    0.56
   7 -14   0    7.00    0.76
  -7 -14   0    5.16    0.66
  -7  14   0    6.71    0.76
  -8 -14   0    1.01    0.50
   8 -14   0    2.48    0.57
  -8  14   0    2.24    0.60
  -9 -14   0    0.92    0.52
  -9  14   0    1.25    0.59
   0 -15   0    0.01    0.22
   0  15   0    0.05    0.23
  -1 -15   0   56.01    1.55
   1 -15   0   54.21    1.53
  -1  15   0   55.56    1.52
   1  15   0   56.62    1.51
  -2 -15   0    0.81    0.30
   2 -15   0    1.12    0.32
  -2  15   0    0.97    0.32
   2  15   0    0.83    0.29
  -3 -15   0    7.25    0.63
   3 -15   0    5.36    0.53
   3  15   0    7.11    0.58
  -3  15   0    6.65    0.59
  -4 -15   0    1.17    0.39
   4 -15   0    1.05    0.37
   4  15   0    0.97    0.35
  -4  15   0    0.85    0.36
   5 -15   0   10.19    0.79
  -5 -15   0    9.03    0.77
  -5  15   0   11.17    0.82
   5  15   0    9.50    0.72
   6 -15   0    4.46    0.60
  -6 -15   0    5.45    0.68
  -6  15   0    4.04    0.58
   6  15   0    4.87    0.58
  -7 -15   0   44.45    1.68
   7 -15   0   46.21    1.68
  -7  15   0   46.22    1.72
  -8 -15   0    1.56    0.53
   8 -15   0    1.13    0.52
  -8  15   0    2.04    0.57
  -9 -15   0   10.21    1.03
  -9  15   0   10.97    1.07
   0 -16   0   82.01    2.07
   0  16   0   82.77    2.04
   1 -16   0    5.13    0.51
  -1 -16   0    3.63    0.47
   1  16   0    4.37    0.47
  -1  16   0    3.93    0.45
   2 -16   0   32.20    1.14
  -2 -16   0   31.79    1.14
  -2  16   0   30.60    1.12
   2  16   0   29.95    1.07
  -3 -16   0   73.76    1.97
   3 -16   0   72.55    1.95
  -3  16   0   70.16    1.94
   3  16   0   69.09    1.87
   4 -16   0   74.97    2.06
  -4 -16   0   74.13    2.05
   4  16   0   76.39    2.00
  -4  16   0   72.48    2.06
  -5 -16   0    1.02    0.43
   5 -16   0    1.15    0.43
  -5  16   0    1.28    0.42
   5  16   0    1.45    0.40
  -6 -16   0    1.69    0.46
   6 -16   0    1.84    0.48
   6  16   0    1.11    0.41
  -6  16   0    1.15    0.47
   7 -16   0    9.11    0.86
  -7 -16   0   10.92    0.97
  -7  16   0   11.72    1.01
  -8 -16   0    1.62    0.55
   8 -16   0    2.69    0.59
  -8  16   0    1.90    0.59
   0 -17   0    0.55    0.30
   0  17   0    0.62    0.30
   1 -17   0    2.77    0.43
  -1 -17   0    2.41    0.42
  -1 -17   0    2.37    0.23
   1  17   0    2.25    0.40
  -1  17   0    1.97    0.40
   2 -17   0    5.10    0.56
  -2 -17   0    3.62    0.47
  -2  17   0    4.14    0.52
   2  17   0    3.75    0.46
   3 -17   0   50.75    1.61
  -3 -17   0   52.93    1.63
  -3  17   0   54.84    1.65
   3  17   0   52.56    1.57
   4 -17   0   12.53    0.85
  -4 -17   0   12.95    0.87
  -4  17   0   12.79    0.84
   4  17   0   12.64    0.78
   5 -17   0   15.70    0.94
  -5 -17   0   16.20    0.95
   5  17   0   15.88    0.89
  -5  17   0   16.35    0.98
   6 -17   0    0.66    0.43
  -6 -17   0    0.69    0.42
   6  17   0   -0.02    0.43
  -6  17   0    0.63    0.44
  -7 -17   0    5.27    0.75
   7 -17   0    4.46    0.67
  -7  17   0    4.44    0.68
  -8 -17   0    9.93    0.98
   8 -17   0   10.85    1.00
  -8  17   0   11.35    1.03
   0 -18   0   26.67    1.07
   0  18   0   24.73    1.01
  -1 -18   0   11.44    0.42
   1 -18   0   11.53    0.74
  -1 -18   0   11.66    0.76
  -1  18   0   10.25    0.71
   1  18   0   10.55    0.71
  -2 -18   0    4.66    0.55
   2 -18   0    5.10    0.60
  -2  18   0    5.22    0.55
   2  18   0    5.37    0.55
  -3 -18   0   44.13    1.50
   3 -18   0   45.04    1.51
  -3  18   0   45.37    1.51
   3  18   0   44.73    1.43
  -4 -18   0    9.50    0.81
   4 -18   0   10.62    0.81
  -4  18   0    9.16    0.79
   4  18   0   10.43    0.75
  -5 -18   0   13.29    0.92
   5 -18   0   12.03    0.88
   5  18   0   14.37    0.87
  -5  18   0   13.64    0.93
  -6 -18   0    1.31    0.46
   6 -18   0    1.78    0.52
  -6  18   0    1.53    0.50
   7 -18   0   16.95    1.08
  -7 -18   0   15.77    1.08
  -7  18   0   15.40    1.12
  -8 -18   0    5.60    0.83
   8 -18   0    6.44    0.82
  -8  18   0    5.77    0.80
   0 -19   0   -0.04    0.29
   0  19   0    0.08    0.30
   1 -19   0    6.42    0.65
  -1 -19   0    6.10    0.62
   1  19   0    5.27    0.55
  -1  19   0    7.36    0.66
  -2 -19   0   18.51    0.95
   2 -19   0   18.05    0.95
   2  19   0   18.87    0.93
  -2  19   0   19.09    0.97
  -3 -19   0   14.12    0.89
   3 -19   0   15.29    0.94
   3  19   0   13.97    0.84
  -3  19   0   13.92    0.90
  -4 -19   0   28.76    1.26
   4 -19   0   28.69    1.25
  -4  19   0   28.33    1.23
   4  19   0   27.36    1.16
   5 -19   0    4.90    0.66
  -5 -19   0    6.30    0.72
   5  19   0    6.25    0.66
  -5  19   0    6.16    0.72
   6 -19   0   12.82    0.98
  -6 -19   0   12.69    0.99
  -6  19   0   13.58    0.98
   7 -19   0    1.92    0.56
  -7 -19   0    2.78    0.61
  -7  19   0    1.84    0.57
   8 -19   0    9.47    1.00
  -8 -19   0    7.82    0.91
  -8  19   0   10.31    1.04
   0 -20   0    5.30    0.60
   0  20   0    5.47    0.59
   1 -20   0    7.76    0.70
  -1 -20   0    8.24    0.73
  -1  20   0    7.23    0.66
   1  20   0    8.81    0.72
   2 -20   0   36.29    1.39
  -2 -20   0   37.50    1.40
  -2  20   0   36.90    1.36
   2  20   0   34.78    1.30
   3 -20   0   51.47    1.71
  -3 -20   0   52.39    1.71
   3  20   0   51.07    1.62
  -3  20   0   49.33    1.66
  -4 -20   0    6.17    0.72
   4 -20   0    5.56    0.70
   4  20   0    4.24    0.55
  -4  20   0    6.35    0.72
  -5 -20   0   10.67    0.93
   5 -20   0    7.03    0.77
  -5  20   0    8.69    0.82
   6 -20   0   11.42    0.99
  -6 -20   0   11.98    1.00
  -6  20   0   13.25    1.01
   7 -20   0    6.32    0.79
  -7 -20   0    6.16    0.79
  -7  20   0    6.06    0.83
   0 -21   0   -0.15    0.31
   0  21   0    0.07    0.33
  -1 -21   0    8.59    0.75
   1 -21   0    9.59    0.79
  -1  21   0    9.28    0.76
   1  21   0   10.11    0.76
  -2 -21   0   23.94    1.14
   2 -21   0   23.42    1.14
   2  21   0   26.99    1.12
  -2  21   0   25.36    1.16
  -3 -21   0   19.62    1.07
   3 -21   0   17.44    1.03
  -3  21   0   19.18    1.06
   3  21   0   18.18    0.98
  -4 -21   0    5.55    0.67
   4 -21   0    5.20    0.67
   4  21   0    6.25    0.67
  -4  21   0    5.06    0.66
   5 -21   0   23.56    1.22
  -5 -21   0   26.07    1.30
  -5  21   0   24.26    1.24
   6 -21   0    5.53    0.77
  -6 -21   0    5.52    0.77
  -6  21   0    4.46    0.70
  -7 -21   0   14.50    1.11
   7 -21   0   15.28    1.13
  -7  21   0   14.77    1.14
   0 -22   0    1.69    0.46
   0  22   0    2.03    0.46
  -1 -22   0    7.29    0.73
   1 -22   0    7.59    0.74
   1  22   0    7.03    0.68
  -1  22   0    7.97    0.75
   2 -22   0    0.97    0.40
  -2 -22   0    1.41    0.45
  -2  22   0    1.09    0.46
   2  22   0    1.54    0.43
  -3 -22   0    1.60    0.46
   3 -22   0    1.42    0.49
  -3  22   0    1.97    0.49
   3  22   0    1.16    0.43
   4 -22   0    0.17    0.41
  -4 -22   0   -0.10    0.37
  -4  22   0    0.00    0.40
   5 -22   0    6.51    0.76
  -5 -22   0    6.34    0.80
  -5  22   0    6.61    0.78
  -6 -22   0   25.44    1.38
   6 -22   0   23.10    1.30
  -6  22   0   24.32    1.32
   0 -23   0    0.21    0.38
   0  23   0    0.30    0.38
   1 -23   0   24.98    1.21
  -1 -23   0   26.63    1.25
   1  23   0   25.21    1.16
  -1  23   0   25.28    1.16
   2 -23   0   24.28    1.22
  -2 -23   0   24.97    1.22
   2  23   0   24.41    1.14
  -2  23   0   23.94    1.17
  -3 -23   0    2.11    0.55
   3 -23   0    2.21    0.53
  -3  23   0    1.72    0.51
  -4 -23   0   15.46    1.05
   4 -23   0   16.23    1.06
  -4  23   0   16.76    1.08
  -5 -23   0   17.62    1.17
   5 -23   0   18.24    1.13
  -5  23   0   14.72    1.04
   6 -23   0    5.31    0.78
  -6 -23   0    3.55    0.68
  -6  23   0    3.23    0.68
   0 -24   0   49.49    1.77
   0  24   0   51.18    1.71
   1 -24   0   15.77    1.04
  -1 -24   0   15.27    1.03
   1  24   0   16.66    0.98
  -1  24   0   15.58    0.96
  -2 -24   0    2.69    0.55
   2 -24   0    1.85    0.50
  -2  24   0    1.86    0.51
   2  24   0    2.75    0.56
  -3 -24   0    5.94    0.77
   3 -24   0    6.35    0.78
  -3  24   0    4.81    0.69
  -4 -24   0   25.50    1.31
   4 -24   0   24.58    1.29
  -4  24   0   23.81    1.27
   5 -24   0    3.80    0.68
  -5 -24   0    4.51    0.73
  -5  24   0    4.13    0.66
   6 -24   0    0.58    0.51
  -6 -24   0   -0.38    0.41
  -6  24   0    0.21    0.49
   0 -25   0   -0.29    0.37
   0  25   0    1.01    0.44
   1 -25   0    7.80    0.84
  -1 -25   0    7.03    0.79
   1  25   0    6.26    0.91
  -1  25   0    7.74    0.80
  -2 -25   0    5.95    0.75
   2 -25   0    7.29    0.81
  -2  25   0    6.50    0.77
  -3 -25   0    0.28    0.45
   3 -25   0    0.52    0.43
  -3  25   0    0.22    0.42
   4 -25   0    9.15    0.95
  -4 -25   0    8.64    0.93
  -4  25   0    8.30    0.88
   5 -25   0   13.74    1.10
  -5 -25   0   12.20    1.04
  -5  25   0   11.20    1.17
   0 -26   0    6.52    0.80
   1 -26   0   -0.17    0.39
  -1 -26   0    0.31    0.44
  -1  26   0    0.21    0.47
   2 -26   0    3.93    0.70
  -2 -26   0    2.90    0.63
  -2  26   0    4.22    0.69
  -3 -26   0    7.20    0.84
   3 -26   0    5.42    0.76
  -3  26   0    5.31    0.85
   4 -26   0   -0.46    0.39
  -4 -26   0    0.24    0.45
   0 -27   0    0.25    0.44
  -1 -27   0    7.04    0.86
   1 -27   0    7.26    0.84
  -2 -27   0    8.51    0.92
   2 -27   0    9.71    0.97
   3 -27   0    4.97    0.77
  -3 -27   0    5.07    0.78
  -4 -27   0    0.12    0.48
   4 -27   0    0.33    0.52
   0 -28   0    9.38    0.96
  -1 -28   0   23.63    1.35
   1 -28   0   19.43    1.28
   2 -28   0    1.65    0.55
  -2 -28   0    0.25    0.45
   3 -28   0    2.16    0.61
  -3 -28   0    2.25    0.61
   0 -29   0   -0.01    0.48
  -1 -29   0    5.26    0.79
   1 -29   0    3.92    0.75
 -10   0   1   20.48    1.23
  -9   0   1    4.30    0.65
  -8   0   1    5.43    0.67
   8   0  -1    5.71    0.61
   7   0  -1    5.98    0.54
  -7   0   1    6.49    0.63
   7   0  -1    7.35    0.64
   6   0  -1   41.10    1.27
   6   0  -1   46.22    1.31
  -6   0   1   43.22    1.33
  -5   0   1    0.78    0.28
   5   0  -1    1.28    0.27
   5   0  -1    0.60    0.25
   4   0  -1   57.52    1.43
   4   0  -1   55.26    1.34
  -4   0   1   51.45    1.34
   3   0  -1   24.65    0.66
   3   0  -1   19.85    0.70
  -3   0   1   22.86    0.66
   2   0  -1    4.65    0.25
   2   0  -1    5.80    0.35
  -2   0   1    5.04    0.27
  -1   0   1   -0.01    0.05
   1   0  -1   -0.21    0.12
  -1   0   1   -0.09    0.05
   0   0  -1  188.32    3.54
  -1   0  -1   23.19    0.55
   1   0   1   22.21    0.55
   2   0   1  357.23    6.58
  -2   0  -1  351.77    6.57
  -3   0  -1    0.77    0.21
   3   0   1    0.77    0.22
  -4   0  -1   10.96    0.57
  -5   0  -1   17.70    0.78
   5   0   1   18.09    0.79
  -6   0  -1    5.76    0.57
   6   0   1    5.26    0.57
   7   0   1   30.22    1.24
  -7   0  -1   32.55    1.28
   8   0   1    6.50    0.71
  -8   0  -1    5.88    0.68
  -9   0  -1   15.67    1.06
   9   0   1   13.98    1.03
 -10   0  -1   33.19    1.60
 -10  -1   1    5.20    0.77
 -10   1   1    4.53    0.74
  -9  -1   1    5.90    0.71
  -9   1   1    6.85    0.75
   8  -1  -1   13.08    0.82
  -8  -1   1   13.37    0.89
  -8   1   1   13.86    0.89
   8   1  -1   14.88    0.86
   7  -1  -1   41.55    1.36
  -7  -1   1   41.92    1.42
   7  -1  -1   43.19    1.36
   7   1  -1   43.95    1.37
  -7   1   1   43.92    1.43
   7   1  -1   39.75    1.18
  -6  -1   1   44.25    1.35
   6  -1  -1   46.21    1.33
   6  -1  -1   44.77    1.39
  -6   1   1   44.51    1.36
   6   1  -1   44.17    1.29
   6   1  -1   44.86    1.23
   5  -1  -1   70.41    1.81
  -5  -1   1   66.80    1.71
   5  -1  -1   68.18    1.68
   5   1  -1   72.25    1.69
   5   1  -1   71.06    1.66
  -5   1   1   69.03    1.72
   4  -1  -1   27.62    0.85
   4  -1  -1   29.20    0.98
  -4  -1   1   25.94    0.85
   4   1  -1   27.73    0.84
   4   1  -1   28.83    0.86
  -4   1   1   26.37    0.86
  -3  -1   1   94.93    2.04
   3  -1  -1   99.23    2.04
   3  -1  -1  102.61    2.21
   3   1  -1  105.48    2.10
   3   1  -1   96.72    2.02
  -3   1   1   98.90    2.06
   2  -1  -1   76.13    1.54
   2  -1  -1   78.90    1.72
  -2  -1   1   75.93    1.55
   2   1  -1   79.05    1.63
   2   1  -1   77.51    1.53
  -2   1   1   76.34    1.56
   1  -1  -1  171.76    3.22
  -1  -1   1  163.25    3.00
   1  -1  -1  161.47    3.01
   1   1  -1  166.46    3.15
   1   1  -1  163.38    2.98
  -1   1   1  165.08    3.02
  -1   1   1  163.43    3.02
   0  -1  -1   62.14    1.27
   0  -1  -1   59.98    1.20
   0  -1  -1   60.67    1.14
   0   1  -1   60.31    1.18
   0   1   1   62.16    1.15
   0   1   1   60.70    1.14
  -1  -1  -1  346.77    6.33
   1  -1   1  349.36    6.33
  -1   1  -1  340.81    6.32
   1   1   1  348.85    6.34
   2  -1   1   92.25    1.93
  -2  -1  -1   94.63    1.93
   2   1   1   95.18    1.94
   3  -1   1   81.87    1.79
   3   1   1   78.86    1.79
   4  -1   1   26.77    0.90
   4   1   1   25.49    0.89
   5  -1   1  101.63    2.38
  -5  -1  -1  105.61    2.39
   5   1   1  100.76    2.38
  -5   1  -1  100.78    2.37
   6  -1   1    5.50    0.57
  -6  -1  -1    4.15    0.51
  -6   1  -1    4.64    0.54
   6   1   1    5.44    0.36
   6   1   1    3.80    0.50
  -7  -1  -1   61.12    1.87
   7  -1   1   63.84    1.71
   7  -1   1   62.66    1.87
   7   1   1   63.10    1.88
  -7   1  -1   63.31    1.89
  -8  -1  -1   13.84    0.93
   8  -1   1   15.07    0.96
  -8   1  -1   12.68    0.90
   8   1   1   13.74    0.93
   9  -1   1   11.59    0.97
  -9  -1  -1   12.94    1.00
   9   1   1   13.70    1.00
  -9   1  -1   14.61    1.03
 -10  -1  -1   16.35    1.20
 -10   1  -1   16.09    1.16
 -10  -2   1    0.50    0.50
 -10   2   1   -0.02    0.46
  -9  -2   1    7.95    0.84
  -9   2   1    7.68    0.78
   8  -2  -1    7.78    0.80
   8  -2  -1    8.56    0.72
  -8  -2   1    9.92    0.79
  -8   2   1    8.23    0.74
   7  -2  -1  141.85    3.27
  -7  -2   1  135.47    3.20
   7  -2  -1  132.99    3.10
  -7   2   1  135.83    3.19
   7   2  -1  134.05    3.09
   7   2  -1  141.69    2.95
   6  -2  -1   15.17    0.73
   6  -2  -1   16.59    0.86
  -6  -2   1   16.17    0.77
   6   2  -1   15.47    0.60
   6   2  -1   16.67    0.75
  -6   2   1   15.62    0.79
   5  -2  -1   31.55    0.98
   5  -2  -1   30.38    1.12
  -5  -2   1   30.01    0.98
   5   2  -1   31.91    0.97
  -5   2   1   30.53    1.00
   5   2  -1   31.15    0.88
  -4  -2   1   12.50    0.57
   4  -2  -1   12.69    0.56
   4   2  -1    9.98    0.48
   4   2  -1   12.03    0.55
   3  -2  -1   28.98    0.77
  -3  -2   1   28.99    0.78
  -3   2   1   27.45    0.78
   3   2  -1   28.87    0.76
   2  -2  -1  252.50    4.66
  -2  -2   1  248.42    4.65
  -2   2   1  241.82    4.67
   2   2  -1  260.31    4.72
  -1  -2   1  309.43    5.67
  -1  -2   1  317.76    5.67
   1  -2  -1  311.76    5.70
   1   2  -1  318.32    5.66
  -1   2   1  310.83    5.71
   0  -2  -1    0.06    0.07
   0  -2  -1    0.02    0.06
   0  -2  -1    0.11    0.12
   0  -2   1   -0.02    0.05
   0  -2   1    0.02    0.05
   0   2  -1    0.04    0.05
   0   2  -1    0.06    0.06
   1  -2   1  630.28   11.59
  -1  -2  -1  653.55   11.65
  -1  -2  -1  630.71   11.60
  -1   2  -1  639.27   11.59
   1   2   1  629.83   11.61
   2  -2   1   25.32    0.70
  -2   2  -1   25.92    0.70
   2   2   1   25.97    0.71
  -3  -2  -1   55.42    1.35
   3  -2   1   54.52    1.35
   3   2   1   55.52    1.35
  -3   2  -1   56.80    1.35
   4  -2   1  144.52    3.06
  -4  -2  -1  145.34    3.06
   4   2   1  143.00    3.06
  -4   2  -1  147.88    3.06
   5  -2   1   12.89    0.69
  -5  -2  -1   14.23    0.70
   5   2   1   13.77    0.69
  -5   2  -1   13.82    0.70
  -6  -2  -1   48.23    1.48
   6  -2   1   50.11    1.49
   6   2   1   45.13    1.45
  -6   2  -1   46.76    1.47
  -7  -2  -1   77.62    2.13
   7  -2   1   76.66    2.13
  -7   2  -1   75.09    2.11
   7   2   1   72.75    2.08
  -8  -2  -1   14.30    0.95
   8  -2   1   12.72    0.91
  -8   2  -1   13.18    0.91
   8   2   1   13.85    0.94
  -9  -2  -1   10.59    0.96
   9  -2   1    9.53    0.88
   9   2   1    9.54    0.88
  -9   2  -1   11.46    0.97
 -10  -2  -1    6.80    0.89
 -10   2  -1    5.84    0.82
 -10  -3   1    8.56    0.92
 -10   3   1    8.05    0.91
  -9  -3   1   14.99    1.04
  -9   3   1   12.79    0.98
   8  -3  -1    5.01    0.65
   8  -3  -1    7.00    0.69
  -8  -3   1    4.85    0.61
  -8   3   1    5.05    0.65
   7  -3  -1   45.27    1.42
   7  -3  -1   40.25    1.54
  -7  -3   1   45.83    1.49
  -7   3   1   44.67    1.47
   6  -3  -1    7.69    0.71
   6  -3  -1    6.91    0.54
  -6  -3   1    7.61    0.58
  -6   3   1    8.30    0.62
   5  -3  -1   23.99    0.84
  -5  -3   1   25.58    0.89
  -5   3   1   23.57    0.88
  -4  -3   1  410.31    7.68
   4  -3  -1  405.41    7.66
  -4   3   1  405.70    7.70
  -3  -3   1   44.87    1.09
   3  -3  -1   46.67    1.10
  -3   3   1   45.19    1.11
   2  -3  -1   14.18    0.44
  -2  -3   1   14.26    0.44
  -2   3   1   13.86    0.46
  -1  -3   1   72.02    1.40
   1  -3  -1   72.61    1.43
  -1  -3   1   72.96    1.40
  -1   3   1   71.06    1.44
   1   3  -1   73.31    1.39
   0  -3  -1  132.18    2.50
   0  -3   1  135.48    2.47
   0  -3  -1  125.63    2.48
   0  -3   1  135.48    2.46
   0   3  -1  133.22    2.45
   0   3  -1  131.78    2.43
  -1  -3  -1   68.35    1.41
  -1  -3  -1   67.90    1.43
   1  -3   1   69.56    1.40
  -1   3  -1   68.22    1.39
   2  -3   1  138.35    2.72
  -2  -3  -1  136.20    2.72
  -2   3  -1  138.23    2.72
   2   3   1  136.17    2.73
  -3  -3  -1   71.14    1.67
   3  -3   1   74.77    1.68
  -3   3  -1   75.66    1.68
   3   3   1   72.49    1.68
  -4  -3  -1   33.51    1.04
  -4   3  -1   35.29    1.06
   4   3   1   36.04    1.07
  -5  -3  -1   22.06    0.87
   5  -3   1   22.69    0.88
   5   3   1   22.00    0.87
  -5   3  -1   20.97    0.86
   6  -3   1   57.12    1.66
  -6  -3  -1   57.89    1.68
  -6   3  -1   58.18    1.68
   6   3   1   57.65    1.66
  -7  -3  -1   25.92    1.13
   7  -3   1   24.33    1.12
  -7   3  -1   26.86    1.15
   7   3   1   24.24    1.13
  -8  -3  -1   10.25    0.89
   8  -3   1   10.20    0.83
   8   3   1   11.24    0.86
  -8   3  -1   10.50    0.85
  -9  -3  -1    8.29    0.86
   9  -3   1   10.12    0.92
  -9   3  -1    8.72    0.87
 -10  -3  -1    3.85    0.74
 -10   3  -1    1.16    0.57
 -10  -4   1    9.76    0.95
 -10   4   1    9.40    0.94
  -9  -4   1    8.68    0.83
  -9   4   1    9.79    0.91
   8  -4  -1    5.89    0.75
   8  -4  -1    8.57    0.74
  -8  -4   1    6.30    0.70
  -8   4   1    6.60    0.70
   7  -4  -1   72.38    2.17
  -7  -4   1   67.62    1.93
   7  -4  -1   68.87    1.89
  -7   4   1   66.41    1.94
  -6  -4   1    1.35    0.33
   6  -4  -1    2.13    0.36
  -6   4   1    1.42    0.36
   5  -4  -1   57.13    1.47
  -5  -4   1   56.68    1.50
  -5   4   1   56.79    1.52
  -4  -4   1   21.59    0.76
   4  -4  -1   21.62    0.75
  -4   4   1   21.39    0.77
  -3  -4   1  264.61    5.06
   3  -4  -1  269.21    5.07
  -3   4   1  265.03    5.09
   2  -4  -1   49.34    1.10
  -2  -4   1   48.39    1.08
  -1  -4   1  656.35   11.99
   1  -4  -1  677.72   12.00
   1  -4  -1  652.98   12.03
  -1   4   1  663.11   12.01
   1   4  -1  661.41   11.99
   0  -4  -1   32.35    0.74
   0  -4  -1   31.33    0.72
   0  -4   1   32.98    0.72
   0   4  -1   31.04    0.70
   0   4  -1   31.55    0.64
  -1  -4  -1   94.03    1.85
   1  -4   1   89.98    1.84
  -1   4  -1   91.13    1.83
  -2  -4  -1   84.48    1.66
   2  -4   1   83.82    1.78
  -2  -4  -1   86.29    1.79
  -2   4  -1   80.82    1.77
  -3  -4  -1   90.14    2.01
   3  -4   1   91.11    2.01
  -3   4  -1   92.33    2.01
   4  -4   1   68.28    1.73
  -4  -4  -1   73.59    1.74
  -4   4  -1   73.71    1.74
   4   4   1   68.09    1.72
   5  -4   1    3.19    0.40
  -5  -4  -1    3.30    0.41
  -5   4  -1    3.30    0.43
   5   4   1    3.04    0.40
   6  -4   1   43.60    1.42
  -6  -4  -1   43.11    1.40
   6   4   1   40.27    1.37
  -6   4  -1   42.66    1.38
   7  -4   1   13.98    0.89
  -7  -4  -1   15.53    0.92
   7   4   1   13.98    0.88
  -7   4  -1   14.50    0.91
  -8  -4  -1   11.56    0.89
   8  -4   1   12.63    0.90
  -8   4  -1   11.95    0.89
   9  -4   1    4.00    0.66
  -9  -4  -1    4.48    0.68
  -9   4  -1    3.67    0.66
 -10  -4  -1   27.03    1.45
 -10   4  -1   25.61    1.43
 -10  -5   1    1.95    0.59
 -10   5   1    2.83    0.65
  -9  -5   1   11.36    0.94
  -9   5   1   13.99    1.00
   8  -5  -1   51.22    1.89
   8  -5  -1   49.98    1.62
  -8  -5   1   49.53    1.69
  -8   5   1   48.70    1.69
   7  -5  -1    5.21    0.57
  -7  -5   1    6.35    0.64
  -7   5   1    5.15    0.58
   6  -5  -1    5.21    0.50
  -6  -5   1    4.18    0.47
  -6   5   1    5.15    0.55
   5  -5  -1   18.30    0.76
  -5  -5   1   18.76    0.77
  -5   5   1   18.77    0.79
  -4  -5   1    3.49    0.37
   4  -5  -1    3.88    0.37
  -4   5   1    4.05    0.40
  -3  -5   1    8.72    0.44
   3  -5  -1    7.56    0.43
  -3   5   1    8.10    0.46
  -2  -5   1  338.28    6.23
   2  -5  -1  337.46    6.25
   2   5  -1  332.93    6.20
  -2   5   1  334.01    6.27
  -1  -5   1   34.39    0.80
   1  -5  -1   34.78    0.78
   1  -5  -1   35.77    0.83
   1   5  -1   34.65    0.78
  -1   5   1   34.81    0.84
   0  -5   1  325.86    6.09
   0  -5   1  338.85    5.98
   0  -5  -1  328.66    6.07
   0  -5  -1  332.85    6.12
   0   5  -1  322.61    6.08
   0   5   1  339.58    6.13
   1  -5   1  300.14    5.65
  -1  -5  -1  309.69    5.67
  -1   5  -1  301.57    5.64
  -2  -5  -1   41.77    0.96
   2  -5   1   41.83    1.03
  -2   5  -1   39.13    1.01
  -3  -5  -1   10.72    0.54
   3  -5   1   10.62    0.58
  -3   5  -1   12.18    0.56
  -4  -5  -1  108.27    2.52
   4  -5   1  118.81    2.57
  -4   5  -1  118.41    2.55
   5  -5   1   16.54    0.79
  -5  -5  -1   16.59    0.78
  -6  -5  -1   36.87    1.28
   6  -5   1   37.98    1.29
  -6   5  -1   34.53    1.25
  -7  -5  -1    6.86    0.69
   7  -5   1    5.63    0.63
  -7   5  -1    5.00    0.61
  -8  -5  -1   31.73    1.36
   8  -5   1   33.09    1.37
  -8   5  -1   32.70    1.37
  -9  -5  -1    1.27    0.52
   9  -5   1    1.58    0.53
  -9   5  -1    0.85    0.47
 -10  -5  -1   33.17    1.58
 -10   5  -1   29.61    1.52
 -10  -6   1    8.07    0.90
 -10   6   1    8.97    0.94
  -9  -6   1    2.76    0.59
  -9   6   1    1.71    0.54
  -8  -6   1   13.61    0.90
   8  -6  -1   12.54    0.85
   8  -6  -1    9.38    0.99
  -8   6   1    9.77    0.84
   7  -6  -1   16.69    0.89
  -7  -6   1   18.13    0.93
  -7   6   1   18.30    0.95
  -6  -6   1  100.02    2.41
   6  -6  -1   99.88    2.37
  -6   6   1   95.21    2.40
  -5  -6   1   40.28    1.23
   5  -6  -1   42.66    1.23
   4  -6  -1    0.95    0.26
  -4  -6   1    1.54    0.29
  -4   6   1    0.98    0.28
  -3  -6   1  124.01    2.55
   3  -6  -1  122.74    2.56
  -3   6   1  122.56    2.59
  -2  -6   1  258.46    4.98
   2  -6  -1  266.84    5.01
   2   6  -1  269.25    4.95
  -2   6   1  261.88    5.02
   1  -6  -1  185.94    3.44
   1  -6  -1  176.77    3.34
  -1  -6   1  178.82    3.41
   1   6  -1  175.09    3.38
  -1   6   1  176.12    3.44
   0  -6  -1  235.60    4.35
   0  -6  -1  238.22    4.42
   0  -6   1  231.92    4.40
   0  -6   1  234.59    4.23
   0   6  -1  234.33    4.38
   0   6   1  230.15    4.42
   1  -6   1  189.96    3.74
  -1  -6  -1  200.69    3.76
  -1   6  -1  195.26    3.74
   2  -6   1   34.32    0.95
  -2  -6  -1   34.97    0.95
  -2   6  -1   37.31    0.95
  -3  -6  -1    8.19    0.49
  -3  -6  -1    5.85    0.27
  -3   6  -1    7.12    0.48
   4  -6   1   53.67    1.42
  -4  -6  -1   49.07    1.39
  -4   6  -1   52.39    1.40
  -5  -6  -1    9.82    0.63
   5  -6   1    9.92    0.63
  -5   6  -1    9.80    0.62
  -6  -6  -1   10.75    0.75
   6  -6   1   10.27    0.75
  -6   6  -1   10.44    0.72
  -7  -6  -1   11.73    0.85
   7  -6   1   10.50    0.83
  -7   6  -1   11.19    0.85
  -8  -6  -1   27.21    1.24
   8  -6   1   23.75    1.20
  -8   6  -1   23.70    1.21
  -9  -6  -1   16.27    1.13
   9  -6   1   16.61    1.09
  -9   6  -1   17.89    1.16
 -10  -6  -1   13.89    1.16
 -10   6  -1   14.05    1.16
 -10  -7   1    6.40    0.82
 -10   7   1    8.71    0.97
  -9  -7   1   30.59    1.40
   9  -7  -1   31.50    1.97
  -9   7   1   31.12    1.45
   8  -7  -1   30.98    1.27
   8  -7  -1   32.03    1.63
  -8  -7   1   32.16    1.34
  -8   7   1   33.83    1.40
   7  -7  -1    4.83    0.55
  -7  -7   1    2.87    0.49
  -7   7   1    3.53    0.53
   6  -7  -1   14.48    0.76
  -6  -7   1   15.44    0.80
  -6   7   1   14.70    0.82
   5  -7  -1   49.22    1.37
  -5  -7   1   49.88    1.40
  -5   7   1   48.22    1.41
   4  -7  -1   88.34    2.05
  -4  -7   1   90.43    2.06
  -4   7   1   92.08    2.11
  -3  -7   1  189.63    3.77
   3  -7  -1  191.71    3.78
  -3   7   1  188.74    3.81
   2  -7  -1   68.36    1.51
  -2  -7   1   66.94    1.50
  -2   7   1   66.64    1.52
   2   7  -1   66.65    1.46
   1  -7  -1  514.41    9.27
  -1  -7   1  497.80    9.36
   1  -7  -1  500.13    9.39
   1   7  -1  520.23    9.34
  -1   7   1  518.54    9.41
   0  -7  -1    8.17    0.31
   0  -7   1    8.44    0.36
   0  -7  -1    7.93    0.38
   0   7   1    8.60    0.39
   0   7  -1    8.03    0.36
   1  -7   1   18.76    0.60
  -1  -7  -1   17.97    0.60
  -1   7  -1   19.23    0.60
   2  -7   1   47.94    1.19
  -2  -7  -1   46.10    1.18
  -2   7  -1   45.49    1.16
   3  -7   1    3.62    0.38
  -3  -7  -1    2.70    0.30
  -3  -7  -1    3.48    0.36
  -3   7  -1    2.73    0.33
   4  -7   1   56.09    1.50
  -4  -7  -1   52.32    1.47
  -4   7  -1   57.99    1.49
   5  -7   1   27.28    1.04
  -5  -7  -1   29.11    1.06
  -5   7  -1   27.68    1.04
  -6  -7  -1   -0.15    0.30
   6  -7   1   -0.20    0.31
  -6   7  -1   -0.07    0.30
  -7  -7  -1   21.67    1.08
   7  -7   1   22.23    1.10
  -7   7  -1   23.46    1.13
   8  -7   1   11.83    0.93
  -8  -7  -1   13.66    0.95
  -8   7  -1   12.18    0.94
  -9  -7  -1   47.37    1.82
   9  -7   1   50.05    1.84
  -9   7  -1   45.43    1.79
 -10  -7  -1    1.83    0.62
 -10   7  -1    1.29    0.57
 -10  -8   1    0.39    0.47
 -10   8   1    1.12    0.57
   9  -8  -1   12.64    1.19
  -9  -8   1   15.14    1.03
  -9   8   1   13.02    1.05
   8  -8  -1    9.19    0.79
  -8  -8   1    8.64    0.81
  -8   8   1    9.45    0.85
  -7  -8   1   30.08    1.23
   7  -8  -1   29.38    1.18
  -7   8   1   32.48    1.27
  -6  -8   1    7.64    0.62
   6  -8  -1    7.00    0.59
  -6   8   1    6.51    0.62
  -5  -8   1   22.55    0.89
   5  -8  -1   23.27    0.90
  -5   8   1   24.22    0.94
  -4  -8   1   28.30    0.95
   4  -8  -1   28.44    0.94
  -4   8   1   29.59    0.98
   3  -8  -1    5.88    0.45
  -3  -8   1    7.04    0.45
  -3   8   1    6.36    0.49
   3   8  -1    7.35    0.44
   2  -8  -1    2.54    0.29
  -2  -8   1    2.11    0.28
   2   8  -1    2.68    0.27
  -2   8   1    1.57    0.27
  -1  -8   1  290.03    5.54
   1  -8  -1  298.00    5.57
   1  -8  -1  292.99    5.40
   1   8  -1  294.77    5.51
  -1   8   1  293.45    5.58
   0  -8  -1    2.52    0.21
   0  -8   1    2.10    0.24
   0  -8  -1    2.55    0.26
   0   8  -1    2.20    0.23
   0   8   1    2.15    0.25
   1  -8   1   33.99    0.92
  -1  -8  -1   33.52    0.92
   1   8   1   33.50    0.93
  -1   8  -1   36.18    0.92
   2  -8   1  226.22    4.43
  -2  -8  -1  223.71    4.43
  -2   8  -1  227.45    4.42
  -3  -8  -1   80.26    1.87
   3  -8   1   79.09    1.87
  -3   8  -1   78.87    1.86
   4  -8   1   76.61    1.88
  -4  -8  -1   76.11    1.88
  -4   8  -1   73.19    1.86
   5  -8   1    7.10    0.60
  -5  -8  -1    7.40    0.60
  -5   8  -1    8.72    0.62
  -6  -8  -1   18.06    0.95
   6  -8   1   19.25    0.98
  -6   8  -1   21.51    1.00
   7  -8   1    5.04    0.63
  -7  -8  -1    6.13    0.68
  -7   8  -1    6.24    0.70
   8  -8   1    6.79    0.74
  -8  -8  -1    7.03    0.75
  -8   8  -1    7.67    0.82
  -9  -8  -1   29.34    1.46
   9  -8   1   30.72    1.45
  -9   8  -1   30.94    1.46
 -10  -9   1    0.21    0.47
 -10   9   1    0.06    0.50
   9  -9  -1   10.06    1.16
  -9  -9   1   10.41    0.97
  -9   9   1   10.28    0.94
   8  -9  -1    3.11    0.56
  -8  -9   1    2.12    0.51
  -8   9   1    2.99    0.58
  -7  -9   1   51.42    1.66
   7  -9  -1   53.02    1.64
  -7   9   1   50.60    1.69
   6  -9  -1   18.58    0.89
  -6  -9   1   18.96    0.90
  -6   9   1   17.86    0.92
   5  -9  -1   78.52    1.95
  -5  -9   1   77.44    1.97
  -5   9   1   77.02    1.99
   4  -9  -1   13.23    0.66
  -4  -9   1   13.91    0.66
  -4   9   1   14.80    0.70
   3  -9  -1  235.57    4.71
  -3  -9   1  245.16    4.72
  -3   9   1  242.56    4.75
   3   9  -1  233.08    4.64
   2  -9  -1   61.41    1.47
  -2  -9   1   60.89    1.44
   2   9  -1   59.98    1.40
  -2   9   1   59.68    1.48
  -1  -9   1   34.77    0.94
   1  -9  -1   35.99    0.80
   1  -9  -1   35.37    0.97
   1   9  -1   35.38    0.93
  -1   9   1   34.96    0.98
   0  -9  -1  109.56    2.11
   0  -9   1  105.75    2.23
   0  -9  -1  107.32    2.25
   0   9   1  105.03    2.26
   0   9  -1  104.95    2.21
  -1  -9  -1    9.43    0.50
   1  -9   1   10.30    0.50
   1   9   1    8.94    0.51
  -1   9  -1   10.04    0.50
  -2  -9  -1    3.91    0.40
   2  -9   1    2.91    0.37
  -2   9  -1    4.19    0.40
   3  -9   1   52.60    1.42
  -3  -9  -1   54.85    1.44
  -3   9  -1   54.30    1.42
  -4  -9  -1   10.23    0.61
   4  -9   1   10.13    0.64
  -4   9  -1    9.46    0.61
   5  -9   1   54.31    1.60
  -5  -9  -1   54.00    1.58
  -5   9  -1   53.78    1.57
  -6  -9  -1   26.95    1.15
   6  -9   1   27.32    1.13
  -6   9  -1   27.40    1.14
   7  -9   1    2.24    0.50
  -7  -9  -1    1.47    0.44
  -7   9  -1    1.09    0.44
   8  -9   1    8.46    0.83
  -8  -9  -1    8.22    0.81
  -8   9  -1    7.73    0.82
  -9  -9  -1   30.17    1.46
   9  -9   1   27.53    1.41
  -9   9  -1   29.66    1.42
 -10 -10   1    2.41    0.64
 -10  10   1    3.32    0.71
   9 -10  -1    4.46    0.95
  -9 -10   1    5.92    0.79
  -9  10   1    6.23    0.80
   8 -10  -1    5.78    0.68
  -8 -10   1    5.68    0.69
  -8  10   1    5.45    0.71
   7 -10  -1   12.24    0.83
  -7 -10   1   11.65    0.82
  -7  10   1   12.75    0.91
  -6 -10   1    6.82    0.66
   6 -10  -1    7.16    0.62
  -6  10   1    5.61    0.59
   5 -10  -1    2.02    0.38
  -5 -10   1    2.00    0.37
  -5  10   1    1.79    0.39
   4 -10  -1   38.41    1.17
  -4 -10   1   38.23    1.18
   4  10  -1   38.97    1.12
  -4  10   1   41.58    1.24
  -3 -10   1  100.83    2.28
   3 -10  -1  101.81    2.29
   3  10  -1  105.08    2.23
  -3  10   1  100.82    2.31
   2 -10  -1  351.37    6.80
  -2 -10   1  357.13    6.79
   2  10  -1  360.46    6.74
  -2  10   1  357.21    6.82
   1 -10  -1    2.27    0.32
  -1 -10   1    3.20    0.34
   1 -10  -1    2.88    0.24
   1  10  -1    2.52    0.30
  -1  10   1    2.61    0.34
   0 -10   1    0.03    0.20
   0 -10  -1    0.31    0.22
   0 -10  -1    0.08    0.14
   0  10   1    0.09    0.22
   0  10  -1    0.25    0.21
   1 -10   1   77.23    1.81
  -1 -10  -1   79.68    1.82
   1  10   1   79.20    1.83
  -1  10  -1   81.03    1.79
  -2 -10  -1    0.67    0.25
   2 -10   1    0.89    0.28
  -2  10  -1    0.94    0.27
  -3 -10  -1    5.67    0.48
   3 -10   1    5.95    0.49
  -3  10  -1    6.29    0.49
  -4 -10  -1    5.88    0.53
   4 -10   1    5.04    0.47
  -4 -10  -1    4.95    0.35
  -4  10  -1    5.44    0.49
  -5 -10  -1   21.68    0.96
   5 -10   1   22.43    0.98
  -5  10  -1   22.65    0.96
   6 -10   1   24.39    1.10
  -6 -10  -1   25.61    1.12
  -6  10  -1   26.20    1.13
   7 -10   1   12.15    0.88
  -7 -10  -1   12.77    0.88
  -7  10  -1   10.18    0.84
   8 -10   1    7.78    0.80
  -8 -10  -1    5.87    0.71
  -8  10  -1    8.57    0.83
   9 -10   1    9.59    0.95
  -9 -10  -1    9.84    0.98
  -9  10  -1    9.48    0.95
  -9 -11   1    1.80    0.55
  -9  11   1    2.08    0.56
  -8 -11   1   21.30    1.17
   8 -11  -1   21.68    1.13
  -8  11   1   21.39    1.17
  -7 -11   1   10.42    0.80
   7 -11  -1    9.38    0.78
  -7  11   1    9.69    0.83
   6 -11  -1   21.12    0.98
  -6 -11   1   21.20    1.01
  -6  11   1   22.23    1.04
  -5 -11   1    0.68    0.31
   5 -11  -1    0.80    0.33
  -5  11   1    0.70    0.33
  -4 -11   1   66.33    1.72
   4 -11  -1   65.87    1.71
  -4  11   1   66.01    1.75
   4  11  -1   64.92    1.63
  -3 -11   1   77.54    1.86
   3 -11  -1   78.41    1.88
   3  11  -1   76.44    1.79
  -3  11   1   76.44    1.89
  -2 -11   1   23.00    0.80
   2 -11  -1   22.56    0.82
   2  11  -1   24.54    0.78
  -2  11   1   23.76    0.85
  -1 -11   1  138.29    2.99
   1 -11  -1  147.07    3.02
  -1  11   1  150.30    3.04
   1  11  -1  143.06    2.95
   0 -11   1   33.40    0.99
   0 -11  -1   32.83    0.99
   0 -11  -1   36.21    0.83
   0  11  -1   32.54    0.96
  -1 -11  -1   82.64    1.94
   1 -11   1   84.27    1.93
  -1  11  -1   84.64    1.91
   1  11   1   84.26    1.94
   2 -11   1  106.15    2.33
  -2 -11  -1  100.11    2.31
  -2  11  -1  104.89    2.30
   2  11   1  101.09    2.31
   3 -11   1   46.83    1.36
  -3 -11  -1   47.43    1.35
  -3  11  -1   47.80    1.34
  -4 -11  -1   64.93    1.78
   4 -11   1   68.85    1.80
  -4 -11  -1   66.64    1.59
  -4  11  -1   65.49    1.76
   5 -11   1   13.39    0.80
  -5 -11  -1   13.48    0.79
  -5  11  -1   13.70    0.80
   6 -11   1   37.07    1.37
  -6 -11  -1   38.90    1.40
  -6  11  -1   33.83    1.34
   7 -11   1    3.36    0.58
  -7 -11  -1    2.11    0.49
  -7  11  -1    3.33    0.57
   8 -11   1   18.76    1.12
  -8 -11  -1   18.40    1.10
  -8  11  -1   17.86    1.13
  -9 -11  -1    0.96    0.50
   9 -11   1    0.09    0.44
  -9  11  -1    1.20    0.53
  -9 -12   1   -0.05    0.42
  -9  12   1    0.40    0.49
  -8 -12   1   18.15    1.08
   8 -12  -1   16.40    1.03
  -8  12   1   16.54    1.10
  -7 -12   1    1.02    0.42
   7 -12  -1    1.25    0.42
  -7  12   1    0.52    0.42
   6 -12  -1   15.91    0.88
  -6 -12   1   16.49    0.91
  -6  12   1   14.99    0.92
  -5 -12   1    2.15    0.42
   5 -12  -1    2.20    0.41
  -5  12   1    1.86    0.42
   5  12  -1    2.06    0.36
  -4 -12   1    0.55    0.28
   4 -12  -1    0.61    0.29
  -4  12   1    0.49    0.28
   4  12  -1    0.68    0.27
  -3 -12   1  208.43    4.28
   3 -12  -1  205.29    4.28
   3  12  -1  209.32    4.19
  -3  12   1  212.39    4.31
   2 -12  -1    8.32    0.55
  -2 -12   1    8.64    0.52
  -2  12   1    8.33    0.55
   2  12  -1    8.45    0.49
   1 -12  -1    1.79    0.30
  -1 -12   1    1.81    0.30
   1  12  -1    2.30    0.30
  -1  12   1    2.27    0.34
   0 -12  -1   75.09    1.80
   0 -12   1   77.17    1.80
   0 -12  -1   77.76    1.58
   0  12   1   74.28    1.81
   0  12  -1   74.88    1.76
   1 -12   1   13.50    0.64
  -1 -12  -1   13.08    0.62
  -1  12  -1   13.01    0.61
   1  12   1   13.40    0.64
   2 -12   1   13.79    0.68
  -2 -12  -1   12.61    0.64
   2  12   1   13.82    0.67
  -2  12  -1   13.55    0.64
   3 -12   1    4.00    0.46
  -3 -12  -1    4.47    0.47
  -3  12  -1    4.02    0.44
  -4 -12  -1   22.37    0.93
   4 -12   1   21.78    0.93
  -4  12  -1   21.35    0.92
   5 -12   1   13.94    0.86
  -5 -12  -1   14.65    0.84
  -5  12  -1   13.65    0.81
  -6 -12  -1   26.42    1.18
   6 -12   1   26.07    1.15
  -6  12  -1   26.16    1.15
  -7 -12  -1    6.70    0.74
   7 -12   1    8.80    0.80
  -7  12  -1    7.84    0.78
  -8 -12  -1   22.23    1.23
   8 -12   1   22.48    1.26
  -8  12  -1   21.68    1.24
  -9 -12  -1    1.70    0.59
   9 -12   1    1.59    0.57
  -9  12  -1    1.47    0.57
  -9 -13   1    0.67    0.50
  -9  13   1    0.68    0.50
  -8 -13   1   53.25    1.85
   8 -13  -1   51.94    1.78
  -8  13   1   50.13    1.87
  -7 -13   1   -0.45    0.32
   7 -13  -1   -0.03    0.35
  -7  13   1   -0.35    0.37
   6 -13  -1    8.88    0.75
  -6 -13   1    9.81    0.78
   6  13  -1    8.59    0.67
  -6  13   1    7.71    0.72
  -5 -13   1   30.45    1.19
   5 -13  -1   32.07    1.18
   5  13  -1   33.22    1.11
  -5  13   1   32.65    1.23
   4 -13  -1   40.35    1.29
  -4 -13   1   40.47    1.30
   4  13  -1   41.63    1.23
  -4  13   1   41.57    1.34
  -3 -13   1   32.58    1.08
   3 -13  -1   33.51    1.08
   3  13  -1   31.07    1.01
  -3  13   1   32.08    1.10
   2 -13  -1    2.81    0.37
  -2 -13   1    3.16    0.39
   2  13  -1    3.22    0.36
  -2  13   1    3.57    0.41
  -1 -13   1   80.01    1.90
   1 -13  -1   76.52    1.88
  -1  13   1   79.83    1.91
   1  13  -1   79.47    1.83
   0 -13  -1    1.49    0.18
   0 -13  -1    1.65    0.30
   0 -13   1    1.49    0.28
   0  13  -1    1.82    0.31
   0  13   1    1.42    0.32
   1 -13   1    2.47    0.34
  -1 -13  -1    2.21    0.32
  -1  13  -1    2.30    0.32
   1  13   1    2.17    0.34
   2 -13   1    2.23    0.34
  -2 -13  -1    2.34    0.35
  -2  13  -1    3.26    0.39
   2  13   1    2.68    0.37
   3 -13   1   44.86    1.39
  -3 -13  -1   48.67    1.41
   3  13   1   48.76    1.40
  -3  13  -1   46.62    1.39
   4 -13   1    0.35    0.31
  -4 -13  -1    0.16    0.30
  -4  13  -1    0.43    0.31
   5 -13   1    3.07    0.52
  -5 -13  -1    3.36    0.51
  -5  13  -1    2.91    0.49
   6 -13   1   13.51    0.89
  -6 -13  -1   11.85    0.85
  -6  13  -1   12.68    0.90
   7 -13   1    9.57    0.87
  -7 -13  -1    7.80    0.79
  -7  13  -1    9.83    0.85
   8 -13   1   34.07    1.50
  -8 -13  -1   30.94    1.44
  -8  13  -1   29.78    1.42
  -9 -13  -1    8.95    0.95
   9 -13   1   10.46    1.00
  -9  13  -1   10.64    1.04
  -9 -14   1   -0.63    0.42
  -9  14   1    0.28    0.50
   8 -14  -1   10.94    0.94
  -8 -14   1   11.29    0.97
  -8  14   1   11.82    1.02
  -7 -14   1    2.93    0.54
   7 -14  -1    2.57    0.53
  -7  14   1    2.25    0.53
   6 -14  -1    6.10    0.66
  -6 -14   1    5.71    0.64
   6  14  -1    6.29    0.60
  -6  14   1    5.42    0.65
   5 -14  -1   18.96    0.94
  -5 -14   1   19.46    0.94
  -5  14   1   17.18    0.97
   5  14  -1   18.93    0.85
   4 -14  -1    7.39    0.60
  -4 -14   1    6.53    0.58
  -4  14   1    7.33    0.64
   4  14  -1    6.86    0.55
  -3 -14   1   22.25    0.90
   3 -14  -1   21.76    0.89
  -3  14   1   22.31    0.94
   3  14  -1   22.93    0.85
   2 -14  -1    6.73    0.53
  -2 -14   1    6.82    0.53
   2  14  -1    6.01    0.47
  -2  14   1    7.41    0.56
  -1 -14   1   45.40    1.29
   1 -14  -1   44.09    1.28
  -1  14   1   46.40    1.30
   1  14  -1   41.49    1.21
   0 -14  -1  258.60    5.09
   0 -14  -1  251.82    4.75
   0 -14   1  252.04    5.07
   0  14  -1  254.43    5.02
   0  14   1  249.77    5.07
  -1 -14  -1   99.79    2.38
   1 -14   1  105.51    2.40
   1  14   1  102.48    2.39
  -1  14  -1  105.59    2.36
  -2 -14  -1    9.00    0.61
   2 -14   1    8.90    0.60
  -2  14  -1    9.29    0.59
   2  14   1   10.11    0.61
   3 -14   1    6.07    0.57
  -3 -14  -1    6.01    0.55
   3  14   1    4.81    0.49
  -3  14  -1    5.45    0.52
   4 -14   1    4.68    0.55
  -4 -14  -1    4.78    0.55
  -4  14  -1    3.64    0.48
   4  14   1    4.89    0.55
  -5 -14  -1    1.49    0.41
   5 -14   1    1.41    0.42
  -5  14  -1    1.75    0.42
  -6 -14  -1   12.68    0.89
   6 -14   1   12.92    0.92
  -6  14  -1   12.83    0.88
  -7 -14  -1    4.06    0.63
   7 -14   1    4.32    0.64
  -7  14  -1    3.27    0.61
  -8 -14  -1   12.99    1.06
   8 -14   1   12.38    1.04
  -8  14  -1   12.03    1.03
   9 -14   1   13.10    1.13
  -9 -14  -1   11.48    1.10
  -9  14  -1   13.58    1.10
  -9 -15   1    1.67    0.57
  -9  15   1    2.51    0.67
   8 -15  -1    0.50    0.47
  -8 -15   1    0.66    0.46
  -8  15   1    0.03    0.47
   7 -15  -1   61.62    1.98
  -7 -15   1   69.02    2.11
  -7  15   1   67.26    2.11
   6 -15  -1    3.84    0.58
  -6 -15   1    4.25    0.60
  -6  15   1    4.13    0.62
  -5 -15   1  111.02    2.74
   5 -15  -1  111.58    2.73
   5  15  -1  107.23    2.59
  -5  15   1  111.55    2.78
  -4 -15   1   16.31    0.85
   4 -15  -1   16.93    0.87
  -4  15   1   15.62    0.87
   4  15  -1   16.95    0.79
  -3 -15   1    6.46    0.57
   3 -15  -1    4.76    0.50
  -3  15   1    4.83    0.51
   3  15  -1    6.38    0.52
  -2 -15   1   24.84    0.95
   2 -15  -1   23.97    0.95
  -2  15   1   24.62    0.97
   2  15  -1   24.49    0.89
  -1 -15   1    1.78    0.33
   1 -15  -1    1.86    0.34
   1  15  -1    1.73    0.31
  -1  15   1    2.01    0.36
   0 -15  -1    5.64    0.29
   0 -15   1    6.66    0.51
   0  15  -1    5.63    0.46
   0  15   1    3.80    0.43
  -1 -15  -1    7.54    0.57
   1 -15   1    9.20    0.59
  -1  15  -1    9.61    0.59
   1  15   1    7.96    0.58
   2 -15   1    6.78    0.56
  -2 -15  -1    6.82    0.56
  -2  15  -1    5.17    0.49
   2  15   1    5.57    0.51
   3 -15   1   30.13    1.12
  -3 -15  -1   29.94    1.14
   3  15   1   28.45    1.09
  -3  15  -1   29.75    1.10
   4 -15   1   77.53    2.10
  -4 -15  -1   76.35    2.10
  -4  15  -1   76.93    2.06
   4  15   1   75.63    2.04
   5 -15   1    9.19    0.76
  -5 -15  -1    8.49    0.76
  -5  15  -1    7.99    0.72
   6 -15   1    4.87    0.66
  -6 -15  -1    4.18    0.60
  -6  15  -1    4.38    0.63
   7 -15   1    3.97    0.62
  -7 -15  -1    3.12    0.59
  -7  15  -1    2.99    0.58
   8 -15   1   11.49    1.03
  -8 -15  -1   10.44    1.01
  -8  15  -1   12.23    1.05
  -9 -16   1    1.57    0.59
  -9  16   1    2.13    0.66
  -8 -16   1    3.92    0.68
   8 -16  -1    5.72    0.75
  -8  16   1    4.56    0.73
  -7 -16   1   15.18    1.00
   7 -16  -1   15.31    1.02
  -7  16   1   16.76    1.09
   6 -16  -1    2.25    0.50
  -6 -16   1    2.51    0.52
  -6  16   1    2.45    0.53
   5 -16  -1   15.42    0.88
  -5 -16   1   14.28    0.88
  -5  16   1   14.40    0.92
   5  16  -1   14.00    0.79
  -4 -16   1   18.58    0.93
   4 -16  -1   17.61    0.90
   4  16  -1   17.00    0.83
  -4  16   1   17.59    0.95
  -3 -16   1   44.36    1.39
   3 -16  -1   43.26    1.37
   3  16  -1   39.91    1.27
  -2 -16   1   37.75    1.26
   2 -16  -1   40.18    1.28
   2  16  -1   38.32    1.18
  -2  16   1   36.42    1.26
  -1 -16   1    6.34    0.55
   1 -16  -1    6.62    0.55
  -1  16   1    6.42    0.58
   1  16  -1    6.65    0.51
   0 -16  -1   31.44    0.76
   0 -16   1   29.94    1.07
   0  16   1   30.10    1.08
   0  16  -1   30.14    1.02
  -1 -16  -1   39.70    1.05
  -1 -16  -1   42.49    1.32
   1 -16   1   40.90    1.30
  -1  16  -1   39.90    1.24
   1  16   1   40.99    1.28
  -2 -16  -1    9.84    0.67
   2 -16   1    9.18    0.67
   2  16   1    8.78    0.66
  -2  16  -1    9.22    0.63
  -3 -16  -1    0.24    0.32
   3 -16   1    0.29    0.31
   3  16   1    0.22    0.31
  -3  16  -1    0.70    0.34
   4 -16   1    5.55    0.62
  -4 -16  -1    6.87    0.66
  -4  16  -1    5.88    0.61
   4  16   1    5.85    0.61
  -5 -16  -1   16.62    0.95
   5 -16   1   15.23    0.96
  -5  16  -1   14.27    0.90
   5  16   1   16.85    0.94
   6 -16   1    4.41    0.63
  -6 -16  -1    4.66    0.64
  -6  16  -1    6.13    0.70
   6  16   1    4.97    0.65
  -7 -16  -1   -0.29    0.40
   7 -16   1    0.35    0.42
  -7  16  -1    1.79    0.53
   8 -16   1   12.93    1.08
  -8 -16  -1   15.00    1.09
  -8  16  -1   15.07    1.08
  -8 -17   1   17.91    1.21
  -8  17   1   14.60    1.15
  -7 -17   1    6.41    0.75
   7 -17  -1    8.24    0.83
  -7  17   1    7.82    0.83
  -6 -17   1    2.07    0.50
   6 -17  -1    2.38    0.53
  -6  17   1    3.39    0.60
   5 -17  -1    1.42    0.42
  -5 -17   1    0.67    0.38
   5  17  -1    0.37    0.34
  -5  17   1    0.69    0.41
  -4 -17   1   19.74    0.98
   4 -17  -1   20.79    1.01
   4  17  -1   19.99    0.89
  -4  17   1   19.85    1.01
  -3 -17   1  184.18    4.11
   3 -17  -1  184.80    4.11
   3  17  -1  192.22    4.00
  -3  17   1  195.07    4.16
   2 -17  -1   28.20    1.13
  -2 -17   1   31.61    1.15
  -2  17   1   33.87    1.20
   2  17  -1   31.70    1.09
   1 -17  -1   29.60    1.09
  -1 -17   1   30.11    1.11
   1  17  -1   29.67    1.04
  -1  17   1   29.06    1.10
   0 -17  -1    6.05    0.55
   0 -17   1    7.49    0.59
   0 -17  -1    7.00    0.32
   0  17   1    7.27    0.60
   0  17  -1    7.36    0.57
  -1 -17  -1   26.12    0.78
   1 -17   1   25.97    1.03
  -1 -17  -1   25.45    1.05
  -1  17  -1   25.95    1.00
   1  17   1   25.85    1.02
  -2 -17  -1   14.74    0.83
   2 -17   1   16.13    0.84
  -2  17  -1   15.95    0.82
   2  17   1   15.64    0.85
  -3 -17  -1   17.70    0.92
   3 -17   1   18.92    0.94
   3  17   1   17.72    0.91
  -3  17  -1   18.38    0.91
  -4 -17  -1   19.22    1.04
   4 -17   1   21.01    1.06
  -4  17  -1   19.99    1.00
   4  17   1   20.72    1.00
   5 -17   1   13.26    0.93
  -5 -17  -1   13.27    0.89
   5  17   1   12.72    0.87
  -5  17  -1   12.76    0.89
   6 -17   1   11.89    0.93
  -6 -17  -1   12.85    0.96
   6  17   1   11.81    0.88
  -6  17  -1   11.40    0.94
   7 -17   1    0.86    0.48
  -7 -17  -1    0.93    0.48
  -7  17  -1    1.42    0.52
  -8 -17  -1    0.47    0.51
   8 -17   1    1.68    0.57
  -8  17  -1    1.28    0.55
  -8 -18   1    0.25    0.46
  -8  18   1   -0.01    0.50
  -7 -18   1    2.82    0.58
   7 -18  -1    3.27    0.60
  -7  18   1    2.34    0.59
   6 -18  -1   11.41    0.89
  -6 -18   1   11.52    0.92
  -6  18   1   12.13    0.93
   5 -18  -1   17.74    0.99
  -5 -18   1   17.04    0.98
  -5  18   1   17.34    1.02
  -4 -18   1   55.61    1.75
   4 -18  -1   52.86    1.70
   4  18  -1   53.86    1.58
  -4  18   1   53.32    1.73
   3 -18  -1   86.51    2.28
  -3 -18   1   86.48    2.28
   3  18  -1   84.89    2.15
  -3  18   1   84.73    2.28
   2 -18  -1   45.18    1.48
  -2 -18   1   43.53    1.44
  -2  18   1   46.66    1.48
   2  18  -1   44.56    1.37
   1 -18  -1    0.07    0.30
  -1 -18   1    0.82    0.35
   1  18  -1    0.49    0.30
  -1  18   1    0.04    0.31
   0 -18  -1    2.70    0.22
   0 -18  -1    2.25    0.41
   0 -18   1    2.25    0.43
   0  18   1    3.27    0.48
   0  18  -1    2.86    0.43
  -1 -18  -1    2.73    0.45
   1 -18   1    4.16    0.53
  -1 -18  -1    3.88    0.33
   1  18   1    3.53    0.48
  -1  18  -1    3.95    0.48
   2 -18   1   11.73    0.78
  -2 -18  -1   11.00    0.77
   2  18   1   11.84    0.75
  -2  18  -1   11.16    0.75
   3 -18   1    6.02    0.62
  -3 -18  -1    5.22    0.61
   3  18   1    6.70    0.66
  -3  18  -1    5.34    0.59
   4 -18   1   15.65    0.94
  -4 -18  -1   15.99    0.97
   4  18   1   15.68    0.92
  -4  18  -1   14.74    0.91
  -5 -18  -1    1.51    0.48
   5 -18   1    2.09    0.52
  -5  18  -1    0.49    0.40
   5  18   1    0.96    0.41
   6 -18   1    8.89    0.88
  -6 -18  -1    8.40    0.85
   6  18   1    9.19    0.84
  -6  18  -1    7.53    0.82
   7 -18   1    6.44    0.79
  -7 -18  -1    6.07    0.79
  -7  18  -1    6.07    0.79
  -8 -18  -1    0.36    0.49
   8 -18   1    1.05    0.54
  -8  18  -1    0.47    0.52
  -8 -19   1    2.14    0.59
  -8  19   1    2.80    0.68
   7 -19  -1    2.63    0.58
  -7 -19   1    2.73    0.60
  -7  19   1    3.26    0.66
  -6 -19   1    0.42    0.39
   6 -19  -1    0.93    0.46
  -6  19   1    0.46    0.41
   5 -19  -1   20.74    1.09
  -5 -19   1   18.75    1.05
  -5  19   1   17.14    1.05
  -4 -19   1   42.30    1.53
   4 -19  -1   42.68    1.52
   4  19  -1   42.60    1.40
  -4  19   1   42.89    1.54
  -3 -19   1    1.40    0.43
   3 -19  -1    1.01    0.41
   3  19  -1    1.11    0.35
  -3  19   1    0.99    0.45
  -2 -19   1   10.70    0.75
   2 -19  -1   11.35    0.78
   2  19  -1    8.72    0.66
  -2  19   1   10.23    0.76
  -1 -19   1   -0.01    0.32
   1 -19  -1    0.29    0.34
  -1  19   1   -0.30    0.31
   1  19  -1    0.33    0.30
   0 -19  -1    2.06    0.43
   0 -19   1    2.57    0.46
   0  19   1    2.80    0.48
   0  19  -1    1.92    0.39
  -1 -19  -1    1.27    0.23
   1 -19   1    0.41    0.34
  -1 -19  -1    1.27    0.39
  -1  19  -1    1.13    0.38
   1  19   1    1.65    0.40
  -2 -19  -1  166.72    3.82
   2 -19   1  174.40    3.85
  -2  19  -1  163.62    3.74
   2  19   1  169.52    3.78
  -3 -19  -1   28.34    1.22
   3 -19   1   28.52    1.23
   3  19   1   28.39    1.19
  -3  19  -1   28.89    1.19
   4 -19   1   15.94    0.99
  -4 -19  -1   17.29    1.00
  -4  19  -1   17.93    0.97
   4  19   1   18.07    0.99
  -5 -19  -1    0.40    0.43
   5 -19   1    0.45    0.43
  -5  19  -1    1.21    0.45
   5  19   1    0.40    0.39
  -6 -19  -1   20.39    1.16
   6 -19   1   17.89    1.16
  -6  19  -1   19.84    1.16
   7 -19   1    2.20    0.59
  -7 -19  -1    1.36    0.54
  -7  19  -1    1.88    0.60
   7 -20  -1   14.05    1.02
  -7 -20   1   13.24    1.08
  -7  20   1   12.35    1.08
  -6 -20   1    2.65    0.59
   6 -20  -1    3.76    0.64
  -6  20   1    2.17    0.55
  -5 -20   1    4.19    0.66
   5 -20  -1    3.63    0.61
  -5  20   1    2.91    0.59
  -4 -20   1   27.95    1.26
   4 -20  -1   26.42    1.22
  -4  20   1   29.80    1.31
  -3 -20   1    1.83    0.48
   3 -20  -1    1.19    0.44
  -3  20   1    1.49    0.47
   3  20  -1    1.79    0.42
  -2 -20   1    5.63    0.65
   2 -20  -1    5.25    0.62
   2  20  -1    5.00    0.54
  -2  20   1    4.32    0.58
   1 -20  -1   15.30    0.91
  -1 -20   1   14.04    0.86
   1  20  -1   14.83    0.81
  -1  20   1   16.44    0.91
   0 -20   1    1.25    0.39
   0 -20  -1    1.78    0.45
   0  20   1    2.66    0.49
   0  20  -1    1.87    0.42
   1 -20   1   80.79    2.23
  -1 -20  -1   81.28    2.22
  -1 -20  -1   80.46    2.05
  -1  20  -1   82.09    2.15
   1  20   1   78.37    2.18
  -2 -20  -1    5.87    0.65
   2 -20   1    6.10    0.65
  -2  20  -1    6.12    0.63
   2  20   1    5.49    0.61
  -3 -20  -1   82.82    2.31
   3 -20   1   81.78    2.31
   3  20   1   80.84    2.25
  -3  20  -1   81.25    2.25
   4 -20   1    8.30    0.82
  -4 -20  -1    6.91    0.75
   4  20   1    7.71    0.77
  -4  20  -1    7.42    0.73
  -5 -20  -1    0.16    0.42
   5 -20   1   -0.15    0.39
   5  20   1    0.27    0.41
  -5  20  -1    0.28    0.40
  -6 -20  -1    0.71    0.47
   6 -20   1    0.43    0.48
  -6  20  -1    0.34    0.46
  -7 -20  -1    7.23    0.87
   7 -20   1    9.78    0.98
  -7  20  -1    9.41    0.96
   7 -21  -1    6.82    0.81
  -7 -21   1    7.34    0.86
  -7  21   1    7.30    0.90
   6 -21  -1    1.88    0.55
  -6 -21   1    2.22    0.58
  -6  21   1    2.06    0.56
   5 -21  -1    1.52    0.47
  -5 -21   1    0.38    0.42
  -5  21   1    0.80    0.47
   4 -21  -1   28.32    1.27
  -4 -21   1   26.72    1.26
  -4  21   1   26.25    1.26
   3 -21  -1    4.54    0.64
  -3 -21   1    3.77    0.57
   3  21  -1    3.83    0.61
  -3  21   1    3.50    0.59
  -2 -21   1    7.62    0.74
   2 -21  -1    9.13    0.77
  -2  21   1    8.15    0.75
   2  21  -1    8.61    0.70
   1 -21  -1   37.98    1.41
  -1 -21   1   36.85    1.40
   1  21  -1   39.02    1.33
  -1  21   1   37.09    1.39
   0 -21  -1    3.16    0.53
   0 -21   1    1.85    0.44
   0  21  -1    2.29    0.45
   0  21   1    2.63    0.49
   1 -21   1   57.79    1.82
  -1 -21  -1   57.36    1.82
   1  21   1   58.08    1.79
  -1  21  -1   55.90    1.73
   2 -21   1    0.46    0.40
  -2 -21  -1   -0.24    0.34
  -2 -21  -1   -0.45    0.29
  -2  21  -1   -0.14    0.34
   2  21   1   -0.04    0.36
  -3 -21  -1   17.30    1.00
   3 -21   1   13.52    0.94
   3  21   1   16.19    0.96
  -3  21  -1   15.80    0.96
   4 -21   1    0.08    0.38
  -4 -21  -1    0.44    0.41
  -4  21  -1    0.33    0.39
   4  21   1    0.08    0.40
  -5 -21  -1    0.13    0.40
   5 -21   1    0.50    0.46
  -5  21  -1    0.32    0.41
   5  21   1    0.29    0.44
   6 -21   1    0.83    0.52
  -6 -21  -1    0.79    0.48
  -6  21  -1    0.98    0.50
   7 -21   1    1.61    0.58
  -7 -21  -1    1.85    0.60
   7 -22  -1    4.37    1.15
  -7 -22   1    4.58    0.77
  -7  22   1    4.75    0.79
  -6 -22   1    2.70    0.63
   6 -22  -1    3.75    0.68
  -6  22   1    3.00    0.63
   5 -22  -1   13.84    0.99
  -5 -22   1   13.28    1.02
  -5  22   1   12.80    1.00
   4 -22  -1   62.21    2.02
  -4 -22   1   64.57    2.08
  -4  22   1   64.85    2.08
  -3 -22   1   15.74    1.01
   3 -22  -1   15.15    0.98
  -3  22   1   14.98    0.99
   2 -22  -1    0.15    0.37
  -2 -22   1    0.29    0.38
   2  22  -1    0.33    0.33
  -2  22   1    0.05    0.36
  -1 -22   1    3.57    0.56
   1 -22  -1    3.41    0.56
  -1  22   1    2.74    0.53
   1  22  -1    2.98    0.48
   0 -22  -1   13.22    0.91
   0 -22   1   13.20    0.89
   0  22   1   14.85    0.93
   0  22  -1   13.27    0.82
  -1 -22  -1   16.75    1.00
   1 -22   1   15.87    0.97
   1  22   1   15.58    0.94
  -1  22  -1   16.32    0.94
   2 -22   1    4.93    0.65
  -2 -22  -1    5.07    0.68
   2  22   1    5.77    0.66
  -2  22  -1    4.11    0.58
  -3 -22  -1   12.57    0.92
   3 -22   1   13.27    0.94
   3  22   1   11.41    0.89
  -3  22  -1   12.16    0.90
   4 -22   1   19.11    1.13
  -4 -22  -1   20.91    1.15
  -4  22  -1   20.13    1.10
   4  22   1   17.91    1.04
  -5 -22  -1    3.49    0.64
   5 -22   1    3.25    0.64
  -5  22  -1    3.95    0.64
   6 -22   1    7.16    0.88
  -6 -22  -1    5.66    0.81
   6 -23  -1    4.90    0.75
  -6 -23   1    5.15    0.77
  -6  23   1    4.29    0.71
   5 -23  -1   30.20    1.40
  -5 -23   1   28.49    1.40
  -5  23   1   27.96    1.42
  -4 -23   1   11.85    0.95
   4 -23  -1   11.86    0.96
  -4  23   1   14.01    1.03
   3 -23  -1    3.30    0.60
  -3 -23   1    3.37    0.59
  -3  23   1    3.59    0.64
  -2 -23   1    6.48    0.75
   2 -23  -1    5.58    0.67
  -2  23   1    4.48    0.63
   1 -23  -1   27.16    1.25
  -1 -23   1   27.41    1.25
  -1  23   1   27.47    1.25
   1  23  -1   29.12    1.21
   0 -23   1    1.38    0.47
   0 -23  -1    0.71    0.42
   0  23   1    1.76    0.47
   0  23  -1    0.92    0.40
  -1 -23  -1    0.91    0.41
   1 -23   1    1.96    0.50
  -1  23  -1    0.82    0.41
   1  23   1    1.07    0.44
   2 -23   1   38.77    1.56
  -2 -23  -1   39.76    1.56
  -2  23  -1   40.87    1.50
   2  23   1   42.41    1.56
  -3 -23  -1    2.23    0.53
   3 -23   1    2.87    0.57
   3  23   1    2.08    0.52
  -3  23  -1    2.34    0.53
   4 -23   1    3.82    0.66
  -4 -23  -1    2.63    0.59
   4  23   1    3.00    0.77
  -4  23  -1    3.68    0.60
   5 -23   1    2.53    0.60
  -5 -23  -1    3.83    0.70
  -6 -23  -1    2.68    0.64
   6 -23   1    2.88    0.68
  -6 -24   1    9.91    0.99
   6 -24  -1   11.03    1.03
  -6  24   1   12.73    1.09
   5 -24  -1    4.71    0.69
  -5 -24   1    4.72    0.74
  -5  24   1    4.48    0.73
  -4 -24   1   18.51    1.13
   4 -24  -1   18.06    1.13
  -4  24   1   16.18    1.12
  -3 -24   1    5.53    0.73
   3 -24  -1    6.20    0.74
  -3  24   1    5.71    0.76
  -2 -24   1   16.95    1.08
   2 -24  -1   14.57    1.02
  -2  24   1   15.79    1.04
   1 -24  -1   -0.04    0.36
  -1 -24   1    0.69    0.41
  -1  24   1    0.87    0.42
   0 -24   1   19.45    1.09
   0 -24  -1   18.08    1.06
   0  24   1   19.64    1.09
   1 -24   1    9.92    0.86
  -1 -24  -1   10.39    0.92
  -1  24  -1    9.25    0.89
   1  24   1    9.75    0.84
  -2 -24  -1    0.73    0.43
   2 -24   1    1.16    0.47
  -2  24  -1    0.60    0.42
   2  24   1    0.95    0.47
  -3 -24  -1    6.96    0.80
   3 -24   1    8.09    0.86
  -3  24  -1    8.70    1.13
   3  24   1    8.81    0.83
  -4 -24  -1    3.40    0.63
   4 -24   1    1.51    0.55
  -5 -24  -1    0.08    0.45
   5 -24   1    0.36    0.45
  -5 -25   1    9.47    0.96
   5 -25  -1   12.00    1.00
  -5  25   1   12.49    1.11
  -4 -25   1    2.99    0.63
   4 -25  -1    4.17    0.68
  -4  25   1    2.56    0.59
   3 -25  -1    2.65    0.57
  -3 -25   1    3.25    0.63
  -3  25   1    3.42    0.65
  -2 -25   1   18.11    1.12
   2 -25  -1   16.47    1.09
  -2  25   1   17.69    1.11
  -1 -25   1   -0.30    0.39
   1 -25  -1    0.37    0.42
  -1  25   1    0.14    0.41
   0 -25  -1    4.36    0.67
   0 -25   1    3.65    0.62
   0  25   1    4.33    0.64
  -1 -25  -1    9.68    0.92
   1 -25   1    9.95    0.94
   1  25   1    9.86    0.85
  -2 -25  -1   15.01    1.03
   2 -25   1   13.01    1.03
   2  25   1   13.32    0.98
   3 -25   1    0.48    0.44
  -3 -25  -1    0.32    0.45
  -4 -25  -1    0.65    0.48
   4 -25   1    1.19    0.54
   5 -25   1    0.16    0.44
  -5 -25  -1    0.72    0.50
   5 -26  -1    7.70    0.90
  -5 -26   1    7.07    0.88
  -4 -26   1    1.98    0.59
   4 -26  -1    3.02    0.63
  -4  26   1    1.87    0.59
  -3 -26   1   33.53    1.55
   3 -26  -1   36.30    1.56
  -3  26   1   37.44    1.61
   2 -26  -1    0.18    0.41
  -2 -26   1    0.36    0.45
  -2  26   1   -0.05    0.39
   1 -26  -1   -0.08    0.41
  -1 -26   1    0.18    0.42
  -1  26   1    0.41    0.45
   0 -26   1   20.24    1.19
   0 -26  -1   16.81    1.11
   0  26   1   17.23    1.08
   1 -26   1    9.40    0.90
  -1 -26  -1    9.02    0.89
   1  26   1    8.40    0.85
   2 -26   1    1.31    0.52
  -2 -26  -1    1.12    0.49
   3 -26   1   -0.14    0.43
  -3 -26  -1   -0.32    0.44
  -4 -26  -1    1.51    0.58
   4 -26   1    1.56    0.59
   4 -27  -1    7.43    0.87
  -4 -27   1    6.31    0.87
  -4  27   1    6.72    0.89
   3 -27  -1    7.25    0.87
  -3 -27   1    8.53    0.92
  -3  27   1    9.70    0.98
  -2 -27   1   54.80    2.01
   2 -27  -1   56.20    2.01
  -2  27   1   55.59    1.99
  -1 -27   1    0.09    0.43
   1 -27  -1    0.51    0.48
  -1  27   1    0.17    0.42
   0 -27  -1    1.61    0.54
   0 -27   1    3.60    0.66
   0  27   1    2.33    0.58
   1 -27   1    1.95    0.58
  -1 -27  -1    2.38    0.57
  -2 -27  -1    6.64    0.85
   2 -27   1    7.75    0.90
   3 -27   1    7.61    0.91
  -3 -27  -1    7.37    0.92
   3 -28  -1    1.85    0.57
  -3 -28   1    1.62    0.59
   2 -28  -1    7.35    0.85
  -2 -28   1    9.50    0.97
  -1 -28   1    0.01    0.44
   1 -28  -1   -0.24    0.43
   0 -28  -1    5.29    0.78
   0 -28   1    5.89    0.83
  -1 -28  -1   19.05    1.21
   1 -28   1   16.94    1.18
   2 -28   1    1.86    0.59
  -2 -28  -1    2.72    0.63
  -1 -29   1    7.81    0.91
   1 -29  -1    7.41    0.91
   0 -29  -1   20.02    1.29
   0 -29   1   16.72    1.25
 -10   0   2   -0.04    0.42
  -9   0   2    1.80    0.49
   8   0  -2    2.95    0.46
  -8   0   2    2.49    0.49
   7   0  -2    6.74    0.62
  -7   0   2   10.32    0.71
   7   0  -2    8.62    0.60
   6   0  -2    2.97    0.36
   6   0  -2    2.59    0.43
  -6   0   2    2.54    0.38
   5   0  -2    4.19    0.37
  -5   0   2    3.96    0.39
   5   0  -2    2.75    0.41
   4   0  -2   59.44    1.57
   4   0  -2   58.54    1.33
  -4   0   2   56.70    1.38
   3   0  -2    9.72    0.34
   3   0  -2    7.63    0.51
  -3   0   2   10.06    0.38
  -2   0   2  280.21    5.18
   2   0  -2  287.32    5.50
  -2   0   2  283.89    5.18
   1   0  -2    0.53    0.26
   1   0  -2    1.17    0.20
   0   0   2   20.74    0.42
   0   0  -2   20.31    0.67
   0   0   2   20.32    0.42
  -1   0  -2   31.04    0.73
   1   0   2   31.20    0.75
  -2   0  -2   34.90    0.88
   2   0   2   35.75    0.91
   3   0   2   27.44    0.89
  -3   0  -2   28.78    0.86
   4   0   2   23.95    0.90
  -4   0  -2   25.46    0.87
   5   0   2    5.03    0.50
  -5   0  -2    6.47    0.53
  -6   0  -2   52.84    1.59
   6   0   2   51.80    1.61
   7   0   2    1.29    0.45
  -7   0  -2    2.02    0.47
  -8   0  -2    3.13    0.58
   8   0   2    3.38    0.60
   9   0   2    4.38    0.69
  -9   0  -2    5.94    0.76
 -10   0  -2    0.29    0.52
 -10  -1   2    0.62    0.47
 -10   1   2    0.14    0.47
  -9  -1   2    4.07    0.66
  -9   1   2    3.51    0.59
  -8  -1   2   26.15    1.15
   8  -1  -2   24.68    1.10
   8  -1  -2   26.23    1.05
  -8   1   2   27.42    1.19
  -7  -1   2   48.56    1.53
   7  -1  -2   50.21    1.61
   7  -1  -2   50.05    1.44
   7   1  -2   48.44    1.41
   7   1  -2   49.32    1.47
  -7   1   2   51.61    1.56
  -6  -1   2   36.24    1.16
   6  -1  -2   36.41    1.28
   6  -1  -2   36.48    1.09
   6   1  -2   35.05    1.16
  -6   1   2   34.42    1.14
   6   1  -2   35.90    1.07
   5  -1  -2   29.98    1.10
   5  -1  -2   31.08    0.91
  -5  -1   2   30.11    0.96
  -5   1   2   31.91    0.98
   5   1  -2   28.82    1.01
   5   1  -2   30.64    0.89
   4  -1  -2    0.05    0.30
   4  -1  -2    0.04    0.20
  -4  -1   2    0.63    0.22
   4   1  -2    0.44    0.27
  -4   1   2    0.47    0.23
   4   1  -2    0.26    0.19
  -3  -1   2    9.80    0.39
   3  -1  -2   11.52    0.60
   3  -1  -2   10.72    0.38
  -3   1   2   10.25    0.41
   3   1  -2   11.45    0.56
   2  -1  -2  359.80    6.70
  -2  -1   2  341.38    6.31
   2  -1  -2  342.66    6.29
   2   1  -2  361.03    6.64
  -2   1   2  344.54    6.34
  -2   1   2  337.47    6.34
   1  -1  -2  158.70    3.05
   1  -1  -2  168.52    3.26
   1   1  -2  162.78    3.05
   1   1  -2  145.28    3.18
   0  -1   2  254.02    4.58
   0  -1  -2  262.57    4.90
   0  -1  -2  247.69    4.59
   0  -1   2  253.03    4.58
   0  -1  -2  250.85    4.75
   0   1   2  251.46    4.62
   0   1  -2  259.20    4.74
   0   1   2  256.05    4.62
  -1  -1  -2  305.54    5.64
   1  -1   2  307.37    5.65
   1   1   2  308.65    5.66
  -1   1  -2  303.32    5.62
  -2  -1  -2  106.83    2.12
   2  -1   2  102.31    2.13
  -2   1  -2  104.02    2.11
   2   1   2  100.23    2.13
  -3  -1  -2  177.90    3.58
   3  -1   2  179.62    3.61
  -3   1  -2  177.50    3.57
   3   1   2  180.78    3.61
  -4  -1  -2  128.91    2.80
   4  -1   2  133.57    2.85
  -4   1  -2  127.13    2.79
   4   1   2  130.92    2.84
  -5  -1  -2   24.51    0.94
   5  -1   2   24.58    0.97
   5   1   2   25.19    0.99
  -5   1  -2   25.73    0.96
  -6  -1  -2   52.59    1.60
   6  -1   2   51.63    1.63
  -6   1  -2   52.85    1.59
   6   1   2   53.63    1.64
   7  -1   2   23.98    1.16
  -7  -1  -2   26.30    1.17
  -7   1  -2   23.98    1.12
   7   1   2   25.93    1.19
  -8  -1  -2    6.80    0.77
   8  -1   2    5.87    0.70
  -8   1  -2    5.93    0.70
   8   1   2    8.55    0.83
  -9  -1  -2    6.70    0.81
   9  -1   2    6.16    0.77
   9   1   2    6.16    0.80
  -9   1  -2    6.29    0.77
  10  -1   2    1.39    0.93
 -10  -2   2    1.08    0.50
 -10   2   2    2.47    0.57
  -9  -2   2    3.05    0.59
  -9   2   2    2.30    0.52
   8  -2  -2   12.58    0.77
   8  -2  -2   11.73    0.86
  -8  -2   2   13.78    0.86
  -8   2   2   14.12    0.91
   7  -2  -2    9.36    0.63
  -7  -2   2   10.09    0.71
   7  -2  -2    8.46    0.76
  -7   2   2    8.86    0.72
   7   2  -2    9.39    0.59
   6  -2  -2    3.83    0.41
  -6  -2   2    3.77    0.43
   6  -2  -2    4.29    0.57
  -6   2   2    3.52    0.43
   6   2  -2    3.69    0.42
   5  -2  -2   16.15    0.63
  -5  -2   2   15.18    0.65
   5  -2  -2   15.28    0.84
   5   2  -2   15.28    0.68
  -5   2   2   14.83    0.68
  -4  -2   2   31.21    0.90
   4  -2  -2   29.65    0.86
   4  -2  -2   32.45    1.17
  -4   2   2   30.59    0.91
   4   2  -2   32.65    1.00
   3  -2  -2   73.41    1.49
   3  -2  -2   70.07    1.82
  -3  -2   2   71.21    1.51
  -3   2   2   71.59    1.54
   3   2  -2   70.83    1.68
   2  -2  -2   63.54    1.61
   2  -2  -2   63.38    1.25
  -2  -2   2   62.76    1.24
  -2   2   2   63.44    1.29
   2   2  -2   63.81    1.52
   1  -2  -2  261.33    5.06
   1  -2  -2  259.61    4.84
   1   2  -2  254.83    4.82
  -1   2   2  258.71    4.70
   0  -2  -2   35.66    0.99
   0  -2   2   34.98    0.69
   0  -2   2   34.81    0.69
   0  -2  -2   34.59    0.84
   0  -2  -2   34.90    0.72
   0   2   2   34.88    0.75
   0   2  -2   36.07    0.82
   0   2   2   35.27    0.75
  -1  -2  -2  842.73   15.26
  -1  -2  -2  861.81   15.40
   1  -2   2  862.65   15.34
   1   2   2  822.01   15.37
  -1   2  -2  831.97   15.26
   2  -2   2   83.90    1.80
  -2  -2  -2   86.99    1.80
   2   2   2   84.45    1.81
  -2   2  -2   82.94    1.77
  -3  -2  -2  235.72    4.68
   3  -2   2  238.80    4.70
   3   2   2  243.33    4.71
  -3   2  -2  242.46    4.67
   4  -2   2  143.11    2.95
  -4  -2  -2  131.37    2.89
  -4   2  -2  131.48    2.87
   4   2   2  133.16    2.92
  -5  -2  -2   58.63    1.62
   5  -2   2   61.81    1.67
   5   2   2   58.84    1.65
  -5   2  -2   58.96    1.61
   6  -2   2   49.56    1.57
  -6  -2  -2   50.01    1.55
  -6   2  -2   49.08    1.54
   6   2   2   49.44    1.57
   7  -2   2   31.41    1.28
  -7  -2  -2   29.44    1.26
   7   2   2   31.03    1.30
  -7   2  -2   30.61    1.26
   8  -2   2    8.14    0.80
  -8  -2  -2    9.58    0.85
   8   2   2   10.78    0.90
  -8   2  -2    8.32    0.80
  -9  -2  -2    1.33    0.50
   9  -2   2    0.53    0.48
  -9   2  -2    0.49    0.46
   9   2   2    1.82    0.56
 -10  -3   2   15.29    1.09
 -10   3   2   17.58    1.15
  -9  -3   2    3.81    0.60
  -9   3   2    3.03    0.57
   8  -3  -2   31.25    1.17
  -8  -3   2   32.31    1.28
   8  -3  -2   33.40    1.40
  -8   3   2   27.27    1.23
   7  -3  -2    2.26    0.41
  -7  -3   2    2.45    0.45
   7  -3  -2    1.91    0.49
  -7   3   2    2.15    0.43
  -6  -3   2   55.35    1.54
   6  -3  -2   57.91    1.81
   6  -3  -2   55.40    1.48
  -6   3   2   55.73    1.57
   6   3  -2   56.80    1.45
  -5  -3   2   15.35    0.66
   5  -3  -2   14.16    0.61
   5  -3  -2   14.36    0.87
   5   3  -2   14.68    0.64
  -5   3   2   15.13    0.68
   4  -3  -2    7.01    0.69
  -4  -3   2    6.67    0.42
   4  -3  -2    7.56    0.44
   4   3  -2    6.40    0.47
  -4   3   2    7.01    0.47
  -3  -3   2    4.58    0.30
   3  -3  -2    5.13    0.30
   3  -3  -2    4.94    0.53
  -3   3   2    4.74    0.33
  -2  -3   2   16.42    0.42
   2  -3  -2   16.42    0.45
  -2   3   2   16.28    0.47
   1  -3  -2  443.39    8.17
   1  -3  -2  456.41    8.56
   1  -3  -2  442.47    8.28
  -1  -3   2  458.38    8.10
  -1   3   2  454.20    8.25
  -1   3   2  454.25    8.20
   0  -3  -2  292.19    5.42
   0  -3   2  300.25    5.39
   0  -3  -2  293.05    5.52
   0  -3  -2  305.71    5.71
   0  -3   2  289.28    5.38
   0   3  -2  297.99    5.47
  -1  -3  -2  115.83    2.43
   1  -3   2  116.03    2.30
  -1  -3  -2  119.18    2.31
   1   3   2  118.70    2.33
  -1   3  -2  117.72    2.27
   2  -3   2   88.71    1.90
  -2  -3  -2   89.55    1.90
  -2   3  -2   88.63    1.87
   2   3   2   91.52    1.92
  -3  -3  -2   40.68    1.07
   3  -3   2   37.59    1.07
   3   3   2   36.51    1.08
  -3   3  -2   37.26    1.05
  -4  -3  -2   12.86    0.63
   4  -3   2   13.06    0.66
   4   3   2   14.02    0.68
  -4   3  -2   13.20    0.63
  -5  -3  -2   35.72    1.17
   5  -3   2   34.07    1.17
  -5   3  -2   33.94    1.12
   5   3   2   32.48    1.15
   6  -3   2  107.37    2.68
  -6  -3  -2  109.50    2.66
  -6   3  -2  107.53    2.64
   6   3   2  109.29    2.68
   7  -3   2   25.00    1.15
  -7  -3  -2   23.31    1.13
  -7   3  -2   23.02    1.09
   7   3   2   23.90    1.15
  -8  -3  -2    3.97    0.62
   8  -3   2    4.03    0.62
   8   3   2    4.41    0.64
  -8   3  -2    3.23    0.57
   9  -3   2    2.73    0.62
  -9  -3  -2    3.29    0.65
  -9   3  -2    2.25    0.57
   9   3   2    3.57    0.62
 -10  -4   2    8.64    0.88
 -10   4   2   10.30    0.99
  -9  -4   2   16.42    1.03
  -9   4   2   17.77    1.10
   8  -4  -2   11.19    0.92
   8  -4  -2   11.25    0.76
  -8  -4   2   12.02    0.86
  -8   4   2   11.60    0.88
   7  -4  -2    4.53    0.69
  -7  -4   2    5.31    0.56
   7  -4  -2    5.93    0.56
  -7   4   2    4.40    0.54
   6  -4  -2   16.69    1.00
   6  -4  -2   15.74    0.72
  -6  -4   2   16.85    0.77
  -6   4   2   15.33    0.79
  -5  -4   2   33.65    1.05
   5  -4  -2   36.44    1.38
   5  -4  -2   35.93    1.03
  -5   4   2   36.24    1.10
   4  -4  -2    2.60    0.30
   4  -4  -2    2.58    0.52
  -4  -4   2    2.17    0.28
  -4   4   2    2.45    0.33
   3  -4  -2  240.82    4.43
  -3  -4   2  228.59    4.42
  -3   4   2  229.64    4.46
  -2  -4   2   61.79    1.26
   2  -4  -2   62.58    1.29
  -2   4   2   61.09    1.32
  -1  -4   2  486.73    8.76
   1  -4  -2  475.88    8.89
  -1  -4   2  486.15    8.76
   1  -4  -2  482.33    8.82
   1  -4  -2  493.43    9.22
  -1   4   2  484.28    8.84
   0  -4  -2  116.45    2.38
   0  -4  -2  126.06    2.61
   0  -4  -2  119.04    2.31
   0  -4   2  118.03    2.27
   0  -4   2  120.56    2.27
   0   4  -2  122.44    2.31
   0   4  -2  118.01    2.23
   1  -4   2  150.35    2.93
  -1  -4  -2  148.60    2.94
  -1  -4  -2  156.48    3.09
  -1   4  -2  152.05    2.90
  -2  -4  -2   15.39    0.55
   2  -4   2   14.78    0.54
  -2  -4  -2   13.91    0.52
  -2   4  -2   15.21    0.53
   3  -4   2    1.71    0.32
  -3  -4  -2    1.52    0.27
   3   4   2    2.01    0.34
  -3   4  -2    1.95    0.30
   4  -4   2   56.09    1.54
  -4  -4  -2   57.90    1.53
   4   4   2   63.05    1.59
  -4   4  -2   60.77    1.54
  -5  -4  -2   72.22    1.90
   5  -4   2   76.93    1.96
   5   4   2   75.18    1.94
  -5   4  -2   72.43    1.89
   6  -4   2   73.84    2.03
  -6  -4  -2   72.13    1.98
  -6   4  -2   73.31    1.99
   6   4   2   71.32    2.01
   7  -4   2   16.44    0.98
  -7  -4  -2   18.49    1.02
  -7   4  -2   18.43    1.00
   7   4   2   17.73    1.00
  -8  -4  -2    0.07    0.40
   8  -4   2    0.12    0.40
  -8   4  -2    0.53    0.40
   8   4   2    0.37    0.40
  -9  -4  -2    0.61    0.49
   9  -4   2    1.44    0.55
  -9   4  -2    0.52    0.49
 -10  -5   2    8.68    0.93
 -10   5   2    6.30    0.80
  -9  -5   2   12.59    0.93
   9  -5  -2   13.38    1.51
  -9   5   2   14.12    0.99
  -8  -5   2   10.92    0.83
   8  -5  -2    7.25    0.89
   8  -5  -2   11.58    0.76
  -8   5   2   10.60    0.85
   7  -5  -2   41.41    1.67
   7  -5  -2   38.46    1.27
  -7  -5   2   38.52    1.35
  -7   5   2   39.03    1.37
   6  -5  -2   33.10    1.07
   6  -5  -2   32.89    1.43
  -6  -5   2   33.20    1.13
  -6   5   2   34.29    1.17
   5  -5  -2   12.58    0.59
  -5  -5   2   12.03    0.60
  -5   5   2   11.63    0.64
   4  -5  -2    5.38    0.41
  -4  -5   2    5.64    0.41
  -4   5   2    5.74    0.45
  -3  -5   2    6.84    0.38
   3  -5  -2    6.50    0.38
   3   5  -2    6.45    0.32
  -3   5   2    6.71    0.42
  -2  -5   2   52.60    1.16
   2  -5  -2   56.28    1.20
  -2   5   2   54.55    1.23
   2   5  -2   55.11    1.10
   1  -5  -2  361.64    6.65
  -1  -5   2  356.30    6.55
   1  -5  -2  368.98    6.61
  -1  -5   2  359.93    6.55
  -1   5   2  346.52    6.62
   1   5  -2  359.73    6.59
   0  -5  -2    8.23    0.36
   0  -5   2    8.06    0.30
   0  -5  -2    8.09    0.34
   0   5  -2    7.92    0.27
   0   5  -2    8.26    0.29
  -1  -5  -2   19.75    0.73
  -1  -5  -2   21.23    0.62
   1  -5   2   21.47    0.61
  -1   5  -2   21.35    0.58
  -2  -5  -2  587.69   10.62
   2  -5   2  560.47   10.61
  -2  -5  -2  590.48   10.63
  -2   5  -2  561.97   10.58
   3  -5   2  183.06    3.72
  -3  -5  -2  183.27    3.70
   3   5   2  183.84    3.74
  -3   5  -2  182.60    3.68
  -4  -5  -2   37.04    1.13
   4  -5   2   37.54    1.15
  -4   5  -2   36.81    1.11
   4   5   2   34.60    1.13
  -5  -5  -2   39.73    1.29
   5  -5   2   40.74    1.31
  -5   5  -2   40.12    1.26
   5   5   2   39.65    1.30
   6  -5   2   15.64    0.92
  -6  -5  -2   17.81    0.91
  -6   5  -2   15.28    0.85
   6   5   2   16.83    0.92
   7  -5   2   57.65    1.84
  -7  -5  -2   54.54    1.78
   7   5   2   55.45    1.79
  -7   5  -2   57.60    1.79
   8  -5   2    4.00    0.66
  -8  -5  -2    4.27    0.65
  -8   5  -2    4.51    0.64
  -9  -5  -2    8.13    0.86
   9  -5   2    4.88    0.72
  -9   5  -2    7.60    0.86
 -10  -6   2    1.39    0.53
 -10   6   2    1.74    0.60
   9  -6  -2    4.66    0.78
  -9  -6   2    3.79    0.64
  -9   6   2    3.55    0.63
   8  -6  -2    1.87    0.60
   8  -6  -2    2.36    0.45
  -8  -6   2    0.96    0.42
  -8   6   2    1.44    0.45
   7  -6  -2    7.72    0.94
   7  -6  -2   11.61    0.72
  -7  -6   2   11.27    0.75
  -7   6   2   11.00    0.80
   6  -6  -2   91.10    2.19
  -6  -6   2   91.54    2.25
  -6   6   2   94.26    2.29
   5  -6  -2    6.08    0.45
  -5  -6   2    5.82    0.48
  -5   6   2    5.53    0.48
   4  -6  -2   38.33    1.05
  -4  -6   2   37.79    1.06
  -4   6   2   38.90    1.11
  -3  -6   2   58.85    1.36
   3  -6  -2   57.66    1.37
   3   6  -2   59.52    1.28
  -3   6   2   59.96    1.42
  -2  -6   2   36.76    0.89
   2  -6  -2   38.42    0.93
   2   6  -2   38.18    0.84
  -2   6   2   37.69    0.95
   1  -6  -2  655.97   11.95
   1  -6  -2  671.82   11.95
  -1  -6   2  648.77   11.90
   1   6  -2  648.71   11.84
  -1   6   2  653.46   11.97
   0  -6   2    3.78    0.24
   0  -6  -2    4.00    0.28
   0  -6  -2    3.74    0.27
   0   6  -2    3.46    0.20
   0   6  -2    3.86    0.23
  -1  -6  -2  531.10    9.88
   1  -6   2  518.46    9.66
  -1  -6  -2  529.36    9.69
  -1   6  -2  523.82    9.63
  -2  -6  -2   28.78    0.84
   2  -6   2   27.58    0.82
  -2  -6  -2   23.16    0.82
  -2   6  -2   27.22    0.79
   3  -6   2  258.35    4.98
  -3  -6  -2  250.64    4.97
  -3  -6  -2  261.99    4.77
  -3   6  -2  238.32    4.92
  -4  -6  -2   75.07    1.86
   4  -6   2   72.05    1.85
  -4   6  -2   77.07    1.84
   5  -6   2  190.44    4.14
  -5  -6  -2  195.71    4.14
  -5   6  -2  197.22    4.11
   6  -6   2    4.18    0.58
  -6  -6  -2    3.78    0.53
  -6   6  -2    2.75    0.48
   7  -6   2   11.45    0.90
  -7  -6  -2   13.23    0.91
  -7   6  -2   12.33    0.87
  -8  -6  -2   27.27    1.31
   8  -6   2   27.70    1.34
  -8   6  -2   27.29    1.29
   9  -6   2    9.59    0.92
  -9  -6  -2    9.16    0.92
  -9   6  -2   11.13    1.00
 -10  -7   2    4.78    0.74
 -10   7   2    4.83    0.75
  -9  -7   2    8.75    0.86
   9  -7  -2   10.23    1.08
  -9   7   2    9.83    0.93
   8  -7  -2   25.96    1.11
  -8  -7   2   27.88    1.22
   8  -7  -2   24.36    1.46
  -8   7   2   29.02    1.26
   7  -7  -2   44.10    1.41
   7  -7  -2   46.23    1.90
  -7  -7   2   45.43    1.49
  -7   7   2   44.48    1.52
  -6  -7   2   32.07    1.14
   6  -7  -2   34.87    1.13
  -6   7   2   34.52    1.22
  -5  -7   2   67.44    1.68
   5  -7  -2   63.18    1.63
  -5   7   2   67.55    1.72
  -4  -7   2    8.26    0.49
   4  -7  -2    9.16    0.50
  -4   7   2    8.96    0.56
   3  -7  -2   79.50    1.77
  -3  -7   2   81.48    1.76
   3   7  -2   81.47    1.68
  -3   7   2   76.88    1.80
  -2  -7   2    0.42    0.17
   2  -7  -2    0.34    0.18
   2   7  -2    0.43    0.15
  -2   7   2    0.19    0.19
  -1  -7   2  204.66    3.86
   1  -7  -2  199.01    3.89
   1  -7  -2  201.74    3.87
   1   7  -2  208.21    3.80
  -1   7   2  200.93    3.93
   0  -7   2  153.09    2.97
   0  -7  -2  151.00    3.00
   0  -7  -2  158.07    3.02
   0   7  -2  148.97    2.85
   0   7  -2  151.71    2.93
  -1  -7  -2   17.24    0.60
  -1  -7  -2   13.99    0.73
   1  -7   2   16.46    0.57
  -1   7  -2   16.15    0.54
  -2  -7  -2   58.28    1.42
  -2  -7  -2   58.64    1.47
   2  -7   2   57.76    1.41
  -2   7  -2   55.99    1.37
  -3  -7  -2   16.05    0.68
   3  -7   2   16.63    0.70
  -3  -7  -2   17.49    0.59
  -3   7  -2   16.14    0.67
  -4  -7  -2    7.56    0.55
   4  -7   2    9.19    0.59
  -4   7  -2    8.37    0.56
  -5  -7  -2   14.15    0.76
   5  -7   2   14.29    0.79
  -5   7  -2   12.92    0.73
  -6  -7  -2   17.14    0.91
   6  -7   2   15.89    0.94
  -6   7  -2   15.83    0.88
   7  -7   2    2.07    0.51
  -7  -7  -2    1.28    0.43
  -7   7  -2    1.30    0.45
   8  -7   2   21.77    1.17
  -8  -7  -2   19.31    1.13
  -8   7  -2   21.98    1.17
   9  -7   2    9.41    0.94
  -9  -7  -2   10.73    0.99
  -9   7  -2   10.67    1.00
 -10  -8   2    5.20    0.77
 -10   8   2    4.79    0.75
   9  -8  -2    2.37    0.69
  -9  -8   2    1.79    0.51
  -9   8   2    2.04    0.55
   8  -8  -2   83.69    2.79
   8  -8  -2   76.56    2.15
  -8  -8   2   80.28    2.29
  -8   8   2   79.09    2.31
  -7  -8   2    1.43    0.40
   7  -8  -2    1.57    0.40
  -7   8   2    1.10    0.42
  -6  -8   2    7.59    0.63
   6  -8  -2    8.07    0.59
  -6   8   2    7.40    0.64
  -5  -8   2   24.75    0.91
   5  -8  -2   25.26    0.91
  -5   8   2   27.47    0.99
  -4  -8   2   16.74    0.67
   4  -8  -2   15.48    0.66
   4   8  -2   17.32    0.61
  -4   8   2   16.47    0.72
  -3  -8   2    0.23    0.20
   3  -8  -2    0.33    0.21
  -3   8   2    0.24    0.24
   3   8  -2    0.32    0.18
   2  -8  -2   14.82    0.57
  -2  -8   2   14.10    0.54
   2   8  -2   15.04    0.50
  -2   8   2   14.29    0.61
  -1  -8   2    6.04    0.35
   1  -8  -2    6.27    0.38
   1  -8  -2    5.96    0.34
   1   8  -2    6.40    0.32
  -1   8   2    5.66    0.39
   0  -8  -2  138.28    2.82
   0  -8   2  137.15    2.79
   0  -8  -2  142.85    2.80
   0   8   2  140.66    2.85
   0   8  -2  139.76    2.75
   0   8  -2  142.44    2.63
   1  -8   2   65.64    1.50
  -1  -8  -2   65.68    1.52
  -1   8  -2   64.80    1.33
  -1   8  -2   63.84    1.45
  -2  -8  -2   29.34    0.99
  -2  -8  -2   29.19    0.90
   2  -8   2   28.36    0.90
  -2   8  -2   28.69    0.86
  -3  -8  -2   13.38    0.57
  -3  -8  -2   14.28    0.65
   3  -8   2   13.23    0.64
  -3   8  -2   13.93    0.63
  -4  -8  -2   85.13    2.06
   4  -8   2   80.76    2.05
  -4   8  -2   83.96    2.03
   5  -8   2    0.71    0.36
  -5  -8  -2    0.49    0.32
  -5   8  -2    0.88    0.32
   6  -8   2    9.65    0.79
  -6  -8  -2    8.22    0.70
  -6   8  -2    9.10    0.74
   7  -8   2    2.62    0.53
  -7  -8  -2    2.65    0.51
  -7   8  -2    3.31    0.57
   8  -8   2   16.40    1.08
  -8  -8  -2   18.11    1.10
  -8   8  -2   18.02    1.09
  -9  -8  -2    8.12    0.89
   9  -8   2    8.51    0.91
  -9   8  -2    8.76    0.91
 -10  -9   2    2.02    0.58
 -10   9   2    2.60    0.66
   9  -9  -2    0.01    0.55
  -9  -9   2    0.18    0.40
  -9   9   2   -0.27    0.40
   8  -9  -2   16.12    1.35
   8  -9  -2   17.92    0.96
  -8  -9   2   18.05    1.02
  -8   9   2   19.21    1.11
  -7  -9   2    4.11    0.56
   7  -9  -2    4.54    0.55
  -7   9   2    4.05    0.59
   6  -9  -2    7.97    0.61
  -6  -9   2    7.19    0.60
  -6   9   2    8.46    0.70
   5  -9  -2   57.45    1.54
  -5  -9   2   59.31    1.58
  -5   9   2   56.76    1.61
   5   9  -2   58.96    1.45
   4  -9  -2    7.89    0.51
  -4  -9   2    7.85    0.50
  -4   9   2    7.71    0.53
   4   9  -2    8.23    0.44
   3  -9  -2   13.60    0.59
  -3  -9   2   13.51    0.58
   3   9  -2   14.15    0.53
  -3   9   2   14.10    0.64
  -2  -9   2    0.90    0.22
   2  -9  -2    1.13    0.26
   2   9  -2    0.32    0.18
  -2   9   2    0.19    0.24
   1  -9  -2   32.35    0.93
  -1  -9   2   33.12    0.90
   1  -9  -2   33.92    0.85
  -1   9   2   33.04    0.96
   1   9  -2   33.16    0.84
   0  -9  -2   11.89    0.53
   0  -9   2   11.88    0.51
   0  -9  -2   11.67    0.49
   0   9   2   11.77    0.57
   0   9  -2   12.05    0.49
  -1  -9  -2    1.50    0.27
   1  -9   2    2.11    0.30
  -1   9  -2    1.70    0.27
  -1   9  -2    1.74    0.17
  -2  -9  -2   52.11    1.34
  -2  -9  -2   50.90    1.45
   2  -9   2   50.89    1.33
  -2   9  -2   50.10    1.29
  -3  -9  -2   79.96    1.83
  -3  -9  -2   78.19    1.89
   3  -9   2   75.89    1.89
  -3   9  -2   78.01    1.86
   4  -9   2   13.77    0.72
  -4  -9  -2   11.13    0.40
  -4  -9  -2   12.74    0.69
  -4   9  -2   12.66    0.68
   5  -9   2   39.02    1.34
  -5  -9  -2   39.61    1.33
  -5   9  -2   39.83    1.31
  -6  -9  -2    1.16    0.42
   6  -9   2    1.48    0.44
  -6   9  -2    1.45    0.43
   7  -9   2   13.14    0.93
  -7  -9  -2   11.39    0.88
  -7   9  -2   11.17    0.87
   8  -9   2    1.19    0.52
  -8  -9  -2    1.15    0.48
  -8   9  -2    1.67    0.52
   9  -9   2   11.23    1.03
  -9  -9  -2   13.54    1.08
  -9   9  -2   14.03    1.10
 -10 -10   2    5.26    0.77
 -10  10   2    4.47    0.74
   9 -10  -2    3.50    0.85
  -9 -10   2    3.37    0.62
  -9  10   2    3.18    0.64
   8 -10  -2   12.70    0.85
  -8 -10   2   12.16    0.90
   8 -10  -2    7.93    1.13
  -8  10   2   12.03    0.92
  -7 -10   2    1.51    0.43
   7 -10  -2    1.18    0.38
  -7  10   2    2.06    0.48
  -6 -10   2    6.33    0.58
   6 -10  -2    8.76    0.64
  -6  10   2    7.15    0.65
  -5 -10   2  113.67    2.63
   5 -10  -2  115.26    2.60
  -5  10   2  115.08    2.69
   5  10  -2  113.86    2.49
   4 -10  -2   14.20    0.66
  -4 -10   2   13.41    0.63
   4  10  -2   14.91    0.58
  -4  10   2   13.40    0.69
   3 -10  -2   63.66    1.55
  -3 -10   2   64.13    1.54
  -3  10   2   62.17    1.59
   3  10  -2   61.36    1.43
  -2 -10   2   27.63    0.84
   2 -10  -2   25.05    0.84
  -2  10   2   26.11    0.88
   2  10  -2   27.40    0.77
  -1 -10   2   63.81    1.51
   1 -10  -2   66.32    1.43
   1 -10  -2   63.71    1.53
   1  10  -2   65.87    1.45
  -1  10   2   65.60    1.58
   0 -10   2    0.17    0.21
   0 -10  -2    0.23    0.22
   0 -10  -2    0.45    0.20
   0  10  -2    0.47    0.21
   0  10   2    0.21    0.24
   1 -10   2   14.77    0.62
  -1 -10  -2   15.33    0.64
  -1  10  -2   14.52    0.39
  -1  10  -2   14.37    0.59
  -2 -10  -2   90.32    2.09
   2 -10   2   92.95    2.10
  -2  10  -2   89.45    2.04
  -3 -10  -2   16.18    0.71
   3 -10   2   16.61    0.73
  -3 -10  -2   12.49    0.65
  -3  10  -2   13.89    0.66
  -4 -10  -2   11.03    0.66
  -4 -10  -2   10.43    0.45
   4 -10   2    9.98    0.66
  -4  10  -2   10.87    0.66
   5 -10   2   78.18    2.11
  -5 -10  -2   79.99    2.11
  -5  10  -2   78.44    2.07
  -6 -10  -2   34.80    1.34
   6 -10   2   34.35    1.34
  -6  10  -2   33.23    1.29
  -7 -10  -2    6.76    0.72
   7 -10   2    8.49    0.82
  -7  10  -2    7.95    0.78
  -8 -10  -2    0.12    0.44
   8 -10   2    0.84    0.52
  -8  10  -2    1.00    0.49
  -9 -10  -2    7.42    0.88
   9 -10   2    9.38    0.98
  -9  10  -2    9.10    0.95
 -10 -11   2   14.57    1.16
 -10  11   2   13.94    1.13
  -9 -11   2    3.78    0.64
   9 -11  -2    2.70    0.85
  -9  11   2    3.16    0.64
   8 -11  -2   10.59    0.91
  -8 -11   2   10.37    0.87
  -8  11   2    7.40    0.79
  -7 -11   2   10.08    0.77
   7 -11  -2   10.56    0.74
  -7  11   2   11.73    0.89
  -6 -11   2    2.75    0.45
   6 -11  -2    3.38    0.47
  -6  11   2    2.77    0.49
   6  11  -2    3.32    0.41
  -5 -11   2   24.28    0.96
   5 -11  -2   26.59    0.98
  -5  11   2   24.90    1.03
   5  11  -2   26.06    0.88
   4 -11  -2    9.65    0.56
  -4 -11   2    8.14    0.56
   4  11  -2    9.06    0.49
  -4  11   2    9.60    0.62
  -3 -11   2    1.41    0.28
   3 -11  -2    1.99    0.32
   3  11  -2    2.25    0.28
  -3  11   2    2.38    0.37
  -2 -11   2  140.48    2.97
   2 -11  -2  144.31    3.01
   2  11  -2  146.99    2.90
  -2  11   2  142.01    3.03
   1 -11  -2   34.85    1.00
  -1 -11   2   32.16    0.96
   1 -11  -2   33.91    0.87
  -1  11   2   33.28    1.02
   1  11  -2   33.18    0.91
   0 -11  -2    1.42    0.23
   0 -11   2    1.18    0.25
   0 -11  -2    1.36    0.27
   0  11   2    1.39    0.32
   0  11  -2    1.80    0.27
   1 -11   2    0.82    0.25
  -1 -11  -2    0.76    0.26
  -1  11  -2    0.52    0.22
   1  11   2    0.49    0.26
   2 -11   2   24.87    0.89
  -2 -11  -2   26.27    0.90
  -2  11  -2   24.29    0.85
  -3 -11  -2   90.66    2.14
   3 -11   2   81.15    2.07
  -3 -11  -2   84.80    2.08
  -3  11  -2   86.30    2.05
  -4 -11  -2   32.62    1.15
   4 -11   2   31.14    1.14
  -4 -11  -2   32.99    0.96
  -4  11  -2   33.94    1.13
   5 -11   2   59.00    1.79
  -5 -11  -2   59.47    1.79
  -5  11  -2   63.77    1.78
  -6 -11  -2   65.42    1.94
   6 -11   2   62.92    1.92
  -6  11  -2   59.21    1.85
   7 -11   2    1.78    0.50
  -7 -11  -2    1.67    0.49
  -7  11  -2    2.23    0.53
   8 -11   2    1.84    0.56
  -8 -11  -2    1.74    0.55
  -8  11  -2    1.69    0.54
  -9 -11  -2    3.52    0.69
   9 -11   2    3.72    0.70
  -9  11  -2    3.19    0.66
   9 -12  -2    9.48    1.29
  -9 -12   2    7.65    0.84
  -9  12   2   10.54    1.01
  -8 -12   2    4.30    0.66
  -8  12   2    3.24    0.63
   7 -12  -2    0.35    0.37
  -7 -12   2    0.60    0.38
  -7  12   2    1.23    0.45
  -6 -12   2   43.40    1.45
   6 -12  -2   42.31    1.40
   6  12  -2   44.58    1.37
  -6  12   2   43.15    1.48
  -5 -12   2    0.64    0.29
   5 -12  -2    0.89    0.33
  -5  12   2    0.61    0.35
   5  12  -2    0.65    0.26
   4 -12  -2    0.97    0.29
  -4 -12   2    0.51    0.27
  -4  12   2    0.79    0.32
   4  12  -2    1.05    0.26
  -3 -12   2    8.88    0.54
   3 -12  -2    9.38    0.55
  -3  12   2    9.43    0.60
   3  12  -2   10.05    0.49
  -2 -12   2   82.23    1.95
   2 -12  -2   86.53    1.99
   2  12  -2   85.18    1.86
  -2  12   2   84.27    2.01
   1 -12  -2   14.59    0.64
   1 -12  -2   14.93    0.52
  -1 -12   2   14.16    0.63
  -1  12   2   15.14    0.70
   1  12  -2   15.25    0.58
   0 -12   2   50.75    1.33
   0 -12  -2   49.97    1.35
   0 -12  -2   51.97    1.23
   0  12  -2   51.85    1.28
   0  12   2   50.31    1.38
  -1 -12  -2   24.19    0.84
   1 -12   2   24.08    0.85
  -1  12  -2   22.29    0.78
   1  12   2   22.49    0.86
   2 -12   2   47.13    1.35
  -2 -12  -2   46.36    1.34
  -2  12  -2   49.68    1.30
  -3 -12  -2   38.93    1.25
   3 -12   2   40.10    1.27
  -3 -12  -2   39.96    1.31
  -3  12  -2   40.84    1.22
   4 -12   2    2.88    0.47
  -4 -12  -2    2.82    0.38
  -4 -12  -2    2.82    0.44
  -4  12  -2    2.17    0.40
   5 -12   2   17.49    0.95
  -5 -12  -2   17.02    0.93
  -5  12  -2   18.47    0.93
   6 -12   2   18.07    1.01
  -6 -12  -2   15.47    0.99
  -6  12  -2   18.64    1.00
  -7 -12  -2    1.74    0.51
   7 -12   2    1.93    0.52
  -7  12  -2    1.93    0.52
   8 -12   2    7.76    0.88
  -8 -12  -2    7.04    0.85
  -8  12  -2    6.94    0.81
  -9 -12  -2    1.91    0.62
   9 -12   2    1.16    0.55
  -9  12  -2    0.34    0.49
  -9 -13   2    2.44    0.58
   9 -13  -2    0.36    0.74
  -9  13   2    2.18    0.61
  -8 -13   2    6.67    0.77
  -8  13   2    8.37    0.88
  -7 -13   2   30.36    1.29
   7 -13  -2   30.03    1.23
  -7  13   2   30.91    1.33
  -6 -13   2   34.84    1.31
   6 -13  -2   35.73    1.28
  -6  13   2   35.80    1.36
   5 -13  -2   17.59    0.87
  -5 -13   2   18.19    0.87
   5  13  -2   18.67    0.77
  -5  13   2   19.87    0.96
   4 -13  -2   61.19    1.67
  -4 -13   2   63.03    1.69
  -4  13   2   61.85    1.73
   4  13  -2   61.91    1.54
  -3 -13   2   78.41    1.95
   3 -13  -2   79.23    1.96
   3  13  -2   81.50    1.84
  -3  13   2   83.15    2.03
  -2 -13   2   70.56    1.74
   2 -13  -2   71.32    1.76
   2  13  -2   71.82    1.64
  -2  13   2   68.71    1.78
   1 -13  -2   67.90    1.69
   1 -13  -2   67.66    1.50
  -1 -13   2   72.08    1.70
  -1  13   2   66.79    1.73
   1  13  -2   68.03    1.60
   0 -13  -2    2.73    0.28
   0 -13   2    2.44    0.34
   0 -13  -2    2.71    0.35
   0  13   2    2.96    0.40
   0  13  -2    2.30    0.31
   1 -13   2    8.62    0.56
  -1 -13  -2    8.96    0.57
   1  13   2    8.64    0.58
  -1  13  -2    8.89    0.51
   2 -13   2    9.50    0.61
  -2 -13  -2   10.12    0.62
  -2  13  -2   10.56    0.57
  -2  13  -2    9.76    0.32
   2  13   2    9.17    0.60
  -3 -13  -2   97.32    2.46
  -3 -13  -2   92.01    2.33
   3 -13   2   98.57    2.37
  -3  13  -2   98.65    2.30
  -4 -13  -2   12.45    0.76
   4 -13   2   11.84    0.76
  -4 -13  -2   12.94    0.68
  -4  13  -2   12.64    0.76
  -5 -13  -2   53.61    1.72
   5 -13   2   54.60    1.74
  -5  13  -2   57.60    1.71
  -6 -13  -2   27.39    1.26
   6 -13   2   26.92    1.24
  -6  13  -2   30.29    1.24
  -7 -13  -2    1.09    0.46
   7 -13   2    1.87    0.51
  -7  13  -2    1.76    0.50
  -8 -13  -2   10.09    0.94
   8 -13   2    9.27    0.93
  -8  13  -2    9.69    0.94
   9 -14  -2   -0.03    0.70
  -9 -14   2    0.24    0.46
  -9  14   2    0.62    0.51
  -8 -14   2    9.01    0.85
  -8  14   2   12.08    1.01
   7 -14  -2   10.84    0.82
  -7 -14   2    8.48    0.78
  -7  14   2   11.86    0.95
  -6 -14   2    8.29    0.74
   6 -14  -2    8.18    0.68
  -6  14   2    6.74    0.70
  -5 -14   2   28.32    1.13
   5 -14  -2   26.40    1.08
  -5  14   2   26.96    1.15
   5  14  -2   28.88    0.99
  -4 -14   2    7.72    0.60
   4 -14  -2    7.41    0.60
  -4  14   2    6.56    0.61
   4  14  -2    7.06    0.51
  -3 -14   2   33.96    1.12
   3 -14  -2   35.27    1.15
  -3  14   2   35.51    1.19
   3  14  -2   33.97    1.02
   2 -14  -2    2.49    0.36
  -2 -14   2    2.86    0.37
   2  14  -2    2.94    0.33
  -2  14   2    2.19    0.36
   1 -14  -2   11.84    0.62
  -1 -14   2   12.77    0.63
   1 -14  -2   10.95    0.45
   1  14  -2   12.11    0.56
  -1  14   2   11.14    0.66
   0 -14  -2    3.35    0.30
   0 -14  -2    3.15    0.40
   0 -14   2    3.48    0.41
   0  14   2    3.37    0.41
   0  14  -2    3.49    0.37
  -1 -14  -2  174.81    3.64
  -1 -14  -2  173.65    3.49
   1 -14   2  169.52    3.62
   1  14   2  164.43    3.63
  -1  14  -2  172.82    3.56
   2 -14   2    1.57    0.35
  -2 -14  -2    1.78    0.35
   2  14   2    2.09    0.38
  -2  14  -2    1.65    0.34
   3 -14   2   10.13    0.69
  -3 -14  -2   11.23    0.71
  -3  14  -2   11.02    0.68
  -4 -14  -2   15.04    0.80
   4 -14   2   16.08    0.88
  -4 -14  -2   14.27    0.83
  -4  14  -2   14.33    0.80
  -5 -14  -2   23.20    1.10
   5 -14   2   21.27    1.07
  -5  14  -2   22.30    1.06
  -6 -14  -2    2.82    0.53
   6 -14   2    3.44    0.58
  -6  14  -2    2.95    0.53
   7 -14   2    2.89    0.62
  -7 -14  -2    3.24    0.63
  -7  14  -2    3.83    0.63
   8 -14   2   15.78    1.13
  -8 -14  -2   14.48    1.08
  -8  14  -2   13.49    1.07
  -9 -15   2    1.48    0.57
   9 -15  -2    0.62    0.86
  -9  15   2    2.22    0.66
  -8 -15   2    9.15    0.90
  -8  15   2   10.59    0.99
   7 -15  -2   60.17    1.86
  -7 -15   2   59.80    1.93
  -7  15   2   56.93    1.95
   6 -15  -2    2.03    0.45
  -6 -15   2    3.01    0.51
  -6  15   2    1.79    0.48
   5 -15  -2   42.68    1.42
  -5 -15   2   42.90    1.46
   5  15  -2   44.63    1.49
  -5  15   2   44.12    1.53
  -4 -15   2    4.38    0.52
   4 -15  -2    4.20    0.49
   4  15  -2    4.78    0.44
  -4  15   2    4.66    0.57
  -3 -15   2    5.20    0.51
   3 -15  -2    4.04    0.46
   3  15  -2    4.63    0.43
  -3  15   2    3.47    0.46
  -2 -15   2    0.48    0.26
   2 -15  -2    0.25    0.26
  -2  15   2    0.45    0.31
   2  15  -2    0.34    0.23
   1 -15  -2    6.59    0.36
  -1 -15   2    6.71    0.53
   1 -15  -2    6.57    0.52
   1  15  -2    6.16    0.45
  -1  15   2    6.72    0.56
   0 -15   2    4.36    0.46
   0 -15  -2    3.97    0.33
   0 -15  -2    4.59    0.47
   0  15   2    3.57    0.43
   0  15  -2    4.74    0.43
  -1 -15  -2    2.81    0.33
  -1 -15  -2    3.11    0.42
   1 -15   2    3.06    0.40
   1  15   2    2.48    0.40
  -1  15  -2    2.78    0.37
  -2 -15  -2   20.52    0.91
   2 -15   2   22.15    0.93
  -2  15  -2   23.12    0.90
   2  15   2   22.58    0.96
  -3 -15  -2   20.33    0.94
   3 -15   2   20.24    0.93
   3  15   2   20.94    0.95
  -3  15  -2   18.51    0.89
   4 -15   2   39.69    1.40
  -4 -15  -2   36.45    1.33
  -4 -15  -2   39.24    1.38
  -4  15  -2   39.09    1.33
  -5 -15  -2   29.45    1.26
   5 -15   2   31.41    1.31
  -5  15  -2   30.14    1.23
   6 -15   2    6.50    0.75
  -6 -15  -2    5.94    0.70
  -6  15  -2    7.41    0.74
  -7 -15  -2   12.70    1.02
   7 -15   2   14.34    1.02
  -7  15  -2   12.94    1.00
  -8 -15  -2    6.95    0.84
   8 -15   2    5.81    0.82
  -8  15  -2    8.07    0.91
  -9 -16   2   11.01    1.06
  -9  16   2   10.46    1.04
  -8 -16   2   28.92    1.42
  -8  16   2   29.73    1.48
  -7 -16   2    7.57    0.79
   7 -16  -2    8.18    0.78
  -7  16   2    6.79    0.80
  -6 -16   2    0.23    0.36
   6 -16  -2    0.38    0.37
  -6  16   2   -0.13    0.37
  -5 -16   2   48.84    1.60
   5 -16  -2   49.64    1.58
  -5  16   2   47.86    1.64
  -4 -16   2   50.67    1.57
   4 -16  -2   50.38    1.56
  -4  16   2   54.39    1.66
   4  16  -2   51.17    1.43
  -3 -16   2    7.49    0.61
   3 -16  -2    7.65    0.63
  -3  16   2    6.76    0.65
   3  16  -2    7.81    0.54
   2 -16  -2   22.35    0.93
  -2 -16   2   22.61    0.94
   2  16  -2   22.95    0.84
  -2  16   2   22.78    0.97
  -1 -16   2    1.81    0.35
   1 -16  -2    2.44    0.26
   1 -16  -2    2.60    0.39
   1  16  -2    1.98    0.32
  -1  16   2    1.82    0.39
   0 -16  -2   18.19    0.62
   0 -16   2   18.64    0.82
   0 -16  -2   17.20    0.80
   0  16   2   16.82    0.83
   0  16  -2   18.20    0.76
  -1 -16  -2   11.87    0.73
   1 -16   2   11.88    0.71
  -1 -16  -2   13.65    0.60
  -1  16  -2   13.83    0.69
   1  16   2   13.66    0.76
   2 -16   2    1.89    0.41
  -2 -16  -2    1.54    0.38
   2  16   2    1.48    0.40
  -2  16  -2    1.53    0.35
  -3 -16  -2    7.63    0.65
   3 -16   2    6.64    0.61
  -3  16  -2    7.36    0.63
   3  16   2    5.88    0.60
  -3  16  -2    6.67    0.34
  -4 -16  -2   44.41    1.53
  -4 -16  -2   44.80    1.53
   4 -16   2   44.51    1.52
  -4  16  -2   43.03    1.45
   4  16   2   45.14    1.53
  -5 -16  -2   10.42    0.84
   5 -16   2    9.42    0.83
  -5  16  -2    9.30    0.80
   6 -16   2    1.17    0.48
  -6 -16  -2    0.87    0.44
  -6  16  -2    1.05    0.43
   7 -16   2   20.28    1.19
  -7 -16  -2   18.99    1.16
  -7  16  -2   18.11    1.13
  -8 -16  -2   11.47    1.05
   8 -16   2   12.58    1.08
  -8 -17   2    6.36    0.79
  -8  17   2    7.47    0.85
   7 -17  -2    5.88    0.69
  -7 -17   2    6.44    0.75
  -7  17   2    7.98    0.87
  -6 -17   2    0.05    0.35
   6 -17  -2    0.72    0.42
  -6  17   2    0.69    0.45
   5 -17  -2   15.35    0.88
  -5 -17   2   15.17    0.92
  -5  17   2   14.49    0.97
  -4 -17   2  246.30    5.27
   4 -17  -2  250.18    5.27
   4  17  -2  253.77    5.13
  -4  17   2  256.09    5.35
  -3 -17   2   88.16    2.27
   3 -17  -2   89.34    2.27
  -3  17   2   88.94    2.32
   3  17  -2   86.87    2.10
   2 -17  -2    1.31    0.36
  -2 -17   2    1.20    0.35
  -2  17   2    1.13    0.36
   2  17  -2    1.73    0.33
   1 -17  -2    3.12    0.44
  -1 -17   2    1.99    0.38
   1 -17  -2    2.23    0.24
   1  17  -2    2.16    0.35
  -1  17   2    2.25    0.43
   0 -17  -2    8.29    0.43
   0 -17   2    9.28    0.64
   0 -17  -2    8.53    0.62
   0  17  -2    8.83    0.59
   0  17   2    9.52    0.68
  -1 -17  -2    6.11    0.45
  -1 -17  -2    5.24    0.53
   1 -17   2    5.36    0.54
  -1  17  -2    5.85    0.52
   1  17   2    5.26    0.54
   2 -17   2   41.55    1.39
  -2 -17  -2   40.77    1.36
   2  17   2   41.14    1.39
  -2  17  -2   39.01    1.30
  -3 -17  -2    3.06    0.48
   3 -17   2    3.31    0.51
  -3  17  -2    3.00    0.46
   3  17   2    3.66    0.53
  -4 -17  -2    0.08    0.38
   4 -17   2    0.22    0.37
  -4 -17  -2    0.30    0.37
   4  17   2    0.40    0.36
  -4  17  -2    0.46    0.34
   5 -17   2   22.20    1.13
  -5 -17  -2   22.06    1.13
   5  17   2   22.14    1.11
  -5  17  -2   22.07    1.11
  -6 -17  -2   27.42    1.30
   6 -17   2   28.84    1.38
  -6  17  -2   27.94    1.29
  -7 -17  -2   25.79    1.37
   7 -17   2   27.42    1.41
  -7  17  -2   27.92    1.35
  -8 -17  -2    3.59    0.72
   8 -17   2    4.27    0.74
  -8 -18   2    1.46    0.53
  -8  18   2    1.13    0.53
   7 -18  -2    0.39    0.40
  -7 -18   2   -0.21    0.37
  -7  18   2    0.18    0.44
  -6 -18   2   10.51    0.89
   6 -18  -2   12.62    0.88
  -6  18   2   10.91    0.92
  -5 -18   2    7.37    0.72
   5 -18  -2    6.57    0.69
  -5  18   2    6.45    0.74
  -4 -18   2   13.23    0.86
   4 -18  -2   10.10    0.79
  -4  18   2   10.77    0.87
   3 -18  -2   13.92    0.85
  -3 -18   2   15.04    0.87
   3  18  -2   14.11    0.72
  -3  18   2   14.41    0.89
  -2 -18   2    0.76    0.34
   2 -18  -2    0.25    0.31
  -2  18   2    0.03    0.33
   2  18  -2    0.58    0.28
   1 -18  -2    2.83    0.46
  -1 -18   2    2.65    0.45
   1  18  -2    2.19    0.37
  -1  18   2    2.53    0.46
   0 -18  -2   13.52    0.55
   0 -18  -2   15.09    0.80
   0 -18   2   13.91    0.79
   0  18  -2   12.88    0.72
   0  18   2   14.30    0.85
  -1 -18  -2   16.14    0.88
   1 -18   2   17.23    0.90
  -1 -18  -2   15.01    0.66
  -1  18  -2   16.04    0.80
   1  18   2   15.08    0.85
   2 -18   2   62.08    1.84
  -2 -18  -2   61.83    1.82
  -2  18  -2   61.06    1.74
   2  18   2   62.95    1.84
  -3 -18  -2   21.74    1.06
   3 -18   2   22.41    1.09
  -3  18  -2   23.62    1.03
   3  18   2   22.65    1.07
  -4 -18  -2    2.27    0.55
   4 -18   2    2.32    0.51
  -4 -18  -2    2.44    0.52
   4  18   2    2.06    0.49
  -4  18  -2    2.24    0.45
  -5 -18  -2    5.12    0.66
   5 -18   2    3.27    0.58
   5  18   2    5.01    0.64
  -5  18  -2    4.29    0.63
   6 -18   2   31.97    1.46
  -6 -18  -2   28.24    1.37
   6  18   2   27.23    1.32
  -6  18  -2   28.13    1.32
  -7 -18  -2    7.11    0.85
   7 -18   2    6.12    0.81
  -8 -19   2   13.78    1.11
  -8  19   2   13.49    1.11
  -7 -19   2    6.27    0.76
  -7  19   2    4.40    0.71
   6 -19  -2   18.95    1.04
  -6 -19   2   14.58    0.99
  -6  19   2   17.50    1.10
   5 -19  -2    2.61    0.52
  -5 -19   2    3.41    0.55
  -5  19   2    3.91    0.61
  -4 -19   2   48.34    1.63
   4 -19  -2   46.21    1.61
  -4  19   2   50.68    1.69
  -3 -19   2   23.88    1.08
   3 -19  -2   22.08    1.04
  -3  19   2   21.43    1.07
   2 -19  -2    4.24    0.53
  -2 -19   2    4.30    0.54
  -2  19   2    5.17    0.61
   2  19  -2    4.47    0.48
  -1 -19   2    1.71    0.43
   1 -19  -2    1.23    0.40
   1  19  -2    2.41    0.40
  -1  19   2    1.77    0.43
   0 -19   2    0.61    0.36
   0 -19  -2    0.61    0.33
   0 -19  -2    0.43    0.21
   0  19  -2    0.68    0.33
   0  19   2    0.25    0.34
  -1 -19  -2   36.34    1.08
  -1 -19  -2   37.25    1.35
   1 -19   2   38.11    1.38
  -1  19  -2   38.38    1.27
   1  19   2   38.63    1.37
   2 -19   2   15.48    0.92
  -2 -19  -2   14.43    0.90
  -2 -19  -2   15.18    0.72
   2  19   2   14.15    0.91
  -2  19  -2   13.95    0.82
   3 -19   2    4.15    0.60
  -3 -19  -2    3.89    0.57
   3  19   2    4.20    0.60
  -3  19  -2    4.84    0.59
   4 -19   2    4.77    0.67
  -4 -19  -2    3.58    0.67
  -4 -19  -2    3.91    0.58
  -4  19  -2    3.15    0.53
   4  19   2    3.99    0.58
  -5 -19  -2    3.63    0.62
   5 -19   2    4.13    0.66
   5  19   2    4.38    0.62
  -5  19  -2    3.20    0.58
  -6 -19  -2   55.46    1.95
   6 -19   2   51.62    1.94
   6  19   2   56.21    1.92
  -6  19  -2   55.84    2.33
   7 -19   2    1.31    0.56
  -7 -19  -2    1.17    0.52
  -8 -20   2    9.28    0.96
  -8  20   2    9.63    1.02
  -7 -20   2    2.17    0.56
  -7  20   2    2.52    0.65
   6 -20  -2    1.55    0.49
  -6 -20   2    1.61    0.49
  -6  20   2    1.32    0.52
  -5 -20   2   56.87    1.92
   5 -20  -2   60.34    1.90
  -5  20   2   59.44    1.99
  -4 -20   2   22.26    1.12
   4 -20  -2   24.03    1.15
  -4  20   2   22.37    1.15
  -3 -20   2   16.77    0.95
   3 -20  -2   16.16    0.95
  -3  20   2   17.00    1.01
  -2 -20   2   13.28    0.86
   2 -20  -2   12.68    0.83
  -2  20   2   13.96    0.89
   2  20  -2   13.74    0.83
   1 -20  -2   14.43    0.89
  -1 -20   2   14.86    0.85
   1  20  -2   14.85    0.78
  -1  20   2   13.63    0.86
   0 -20  -2    6.37    0.65
   0 -20   2    7.11    0.70
   0  20   2    5.72    0.64
   0  20  -2    6.50    0.61
   1 -20   2   47.83    1.61
  -1 -20  -2   48.04    1.28
  -1 -20  -2   50.02    1.62
   1  20   2   49.66    1.61
  -1  20  -2   43.98    1.46
  -2 -20  -2   16.71    0.78
   2 -20   2   17.95    0.98
  -2 -20  -2   16.37    0.96
  -2  20  -2   17.94    0.93
   2  20   2   17.40    0.97
  -3 -20  -2   24.24    1.15
   3 -20   2   24.82    1.18
   3  20   2   24.33    1.16
  -3  20  -2   22.88    1.08
  -4 -20  -2   16.57    1.39
   4 -20   2   14.81    1.00
  -4 -20  -2   18.56    1.07
  -4  20  -2   15.54    0.95
   4  20   2   16.48    1.03
  -5 -20  -2    6.43    0.76
   5 -20   2    5.78    0.75
   5  20   2    4.57    0.66
  -5  20  -2    4.41    0.65
   6 -20   2    3.08    0.66
  -6 -20  -2    5.00    0.75
   6  20   2    4.06    0.70
   7 -20   2    3.93    0.74
  -7 -20  -2    4.19    0.73
  -7 -21   2    0.96    0.49
  -7  21   2    1.13    0.56
  -6 -21   2   18.77    1.16
   6 -21  -2   23.26    1.20
  -6  21   2   23.47    1.31
  -5 -21   2   31.36    1.40
   5 -21  -2   30.78    1.34
  -5  21   2   29.50    1.39
  -4 -21   2    3.26    0.56
   4 -21  -2    2.86    0.55
  -4  21   2    4.04    0.62
   3 -21  -2   10.92    0.86
  -3 -21   2   11.05    0.85
  -3  21   2   10.67    0.85
   2 -21  -2    5.49    0.63
  -2 -21   2    5.70    0.65
  -2  21   2    6.02    0.70
  -1 -21   2   14.96    0.90
   1 -21  -2   14.72    0.92
  -1  21   2   16.76    0.99
   1  21  -2   16.15    1.00
   0 -21   2    2.65    0.50
   0 -21  -2    2.42    0.45
   0  21  -2    2.91    0.48
   0  21   2    3.06    0.53
   1 -21   2   17.91    1.01
  -1 -21  -2   18.14    0.99
  -1  21  -2   18.77    0.93
   1  21   2   18.47    1.01
  -2 -21  -2    1.24    0.45
   2 -21   2    1.23    0.45
  -2 -21  -2    1.14    0.31
   2  21   2    1.51    0.45
  -2  21  -2    0.71    0.38
  -3 -21  -2    6.33    0.69
   3 -21   2    6.54    0.73
  -3  21  -2    6.06    0.65
   3  21   2    5.56    0.66
  -4 -21  -2    1.01    0.45
   4 -21   2    2.13    0.53
  -4  21  -2    2.23    0.58
   4  21   2    2.14    0.52
   5 -21   2    1.80    0.55
  -5 -21  -2    1.79    0.54
   5  21   2    2.28    0.55
  -6 -21  -2    1.39    0.55
   6 -21   2    2.32    0.63
  -7 -22   2    3.85    0.70
  -7  22   2    4.19    0.76
   6 -22  -2   20.05    1.15
  -6 -22   2   18.55    1.17
  -6  22   2   18.84    1.21
   5 -22  -2   10.10    0.86
  -5 -22   2    9.02    0.85
  -5  22   2   11.85    1.01
   4 -22  -2   31.91    1.38
  -4 -22   2   29.23    1.35
  -4  22   2   31.71    1.44
  -3 -22   2    0.41    0.38
   3 -22  -2    2.35    0.52
  -3  22   2    1.52    0.46
   2 -22  -2    0.15    0.37
  -2 -22   2    0.58    0.40
  -2  22   2    0.94    0.46
   1 -22  -2    5.06    0.63
  -1 -22   2    4.78    0.62
  -1  22   2    4.41    0.61
   0 -22  -2   12.29    0.88
   0 -22   2   14.02    0.92
   0  22   2   14.06    0.92
  -1 -22  -2    0.05    0.35
   1 -22   2    0.13    0.38
   1  22   2   -0.09    0.35
  -2 -22  -2   25.16    1.22
   2 -22   2   25.70    1.22
   2  22   2   26.58    1.24
  -3 -22  -2    2.79    0.55
   3 -22   2    4.51    0.66
   3  22   2    3.76    0.61
  -4 -22  -2   14.31    1.01
   4 -22   2   12.11    0.98
   4  22   2   11.78    0.93
   5 -22   2   37.43    1.62
  -5 -22  -2   37.79    1.61
   5  22   2   37.60    1.57
  -6 -22  -2    5.64    0.80
   6 -22   2    4.96    0.81
  -6 -23   2    2.40    0.61
  -6  23   2    2.01    0.62
  -5 -23   2    5.43    0.76
   5 -23  -2    4.78    0.66
  -5  23   2    5.89    0.79
   4 -23  -2    7.35    0.79
  -4 -23   2    6.76    0.76
  -4  23   2    5.91    0.75
   3 -23  -2   38.01    1.51
  -3 -23   2   37.24    1.51
  -3  23   2   36.20    1.50
   2 -23  -2    1.12    0.46
  -2 -23   2    0.80    0.46
  -2  23   2    1.01    0.45
  -1 -23   2    8.86    0.84
   1 -23  -2    7.37    0.75
  -1  23   2    9.49    0.87
   0 -23   2    0.32    0.38
   0 -23  -2    0.53    0.42
   0  23   2    0.05    0.41
   1 -23   2    1.03    0.45
  -1 -23  -2    1.20    0.45
   1  23   2    0.92    0.46
   2 -23   2   18.36    1.10
  -2 -23  -2   16.04    1.02
   2  23   2   17.49    1.07
  -3 -23  -2    2.02    0.53
   3 -23   2    1.99    0.52
   3  23   2    2.30    0.53
  -4 -23  -2    0.94    0.46
   4 -23   2   -0.10    0.41
   4  23   2    1.39    0.52
   5 -23   2    9.15    0.96
  -5 -23  -2    8.97    0.96
  -6 -24   2   37.83    1.69
  -6  24   2   39.05    1.73
   5 -24  -2    3.28    0.64
  -5 -24   2    2.64    0.61
  -5  24   2    3.21    0.68
  -4 -24   2    8.61    0.87
   4 -24  -2    9.58    0.90
  -4  24   2   10.11    0.98
  -3 -24   2    0.39    0.40
   3 -24  -2    0.52    0.42
  -3  24   2    0.45    0.45
  -2 -24   2    4.76    0.69
   2 -24  -2    4.48    0.65
  -2  24   2    5.73    0.71
  -1 -24   2    1.00    0.45
   1 -24  -2    0.72    0.42
  -1  24   2    0.15    0.41
   0 -24   2   19.36    1.12
   0 -24  -2   18.42    1.06
   0  24   2   18.10    1.08
  -1 -24  -2    1.74    0.50
   1 -24   2    1.38    0.48
   1  24   2    1.99    0.55
  -2 -24  -2    0.91    0.45
   2 -24   2    1.12    0.47
   2  24   2    0.53    0.45
   3 -24   2    2.12    0.56
  -3 -24  -2    3.14    0.61
   3  24   2    4.10    0.67
   4 -24   2   15.13    1.15
  -4 -24  -2   16.70    1.14
   4  24   2   16.05    1.06
  -5 -24  -2    5.42    0.80
   5 -24   2    5.19    0.81
   5 -25  -2    9.35    0.92
  -5 -25   2    6.13    0.85
  -5  25   2    7.79    0.92
  -4 -25   2   51.57    1.90
   4 -25  -2   52.72    1.91
  -4  25   2   51.08    1.92
  -3 -25   2    0.25    0.43
   3 -25  -2    0.13    0.38
  -3  25   2    0.11    0.44
   2 -25  -2    0.22    0.39
  -2 -25   2    0.07    0.41
  -2  25   2   -0.49    0.39
   1 -25  -2   -0.02    0.40
  -1 -25   2    0.67    0.43
  -1  25   2   -0.17    0.39
   0 -25  -2   18.37    1.09
   0 -25   2   17.89    1.09
   0  25   2   19.24    1.14
   1 -25   2    0.54    0.45
  -1 -25  -2    1.24    0.47
   1  25   2    1.28    0.50
   2 -25   2   16.72    1.13
  -2 -25  -2   17.34    1.12
   2  25   2   16.51    1.11
   3 -25   2    3.81    0.68
  -3 -25  -2    3.48    0.68
   3  25   2    3.19    0.66
  -4 -25  -2    5.24    0.76
   4 -25   2    4.14    0.72
  -5 -26   2   11.67    1.08
  -5  26   2   13.11    1.12
  -4 -26   2    1.15    0.51
   4 -26  -2    0.93    0.48
  -4  26   2    1.31    0.55
   3 -26  -2   24.68    1.29
  -3 -26   2   22.09    1.26
  -3  26   2   20.06    1.22
   2 -26  -2    2.86    0.58
  -2 -26   2    3.79    0.64
  -2  26   2    2.48    0.62
  -1 -26   2    2.39    0.57
   1 -26  -2    3.47    0.63
  -1  26   2    5.43    0.76
   0 -26   2    5.72    0.75
   0 -26  -2    5.73    0.73
   0  26   2    5.13    0.73
   1 -26   2   10.37    0.98
  -1 -26  -2    8.58    0.89
   1  26   2    8.78    0.89
  -2 -26  -2    7.49    0.83
   2 -26   2    7.90    0.87
   2  26   2    7.47    0.84
  -3 -26  -2    9.86    0.99
   3 -26   2   10.64    1.03
   3  26   2   12.78    1.68
   4 -26   2    0.32    0.49
  -4 -26  -2   -0.38    0.43
   4 -27  -2    5.66    0.82
  -4 -27   2    6.71    0.88
  -4  27   2    7.48    0.92
  -3 -27   2    6.95    0.86
   3 -27  -2    7.84    0.84
  -3  27   2    6.12    0.85
   2 -27  -2    2.85    0.60
  -2 -27   2    2.53    0.60
  -2  27   2    2.63    0.61
  -1 -27   2   11.46    0.99
   1 -27  -2   12.49    1.04
  -1  27   2   11.85    1.01
   0 -27   2    0.00    0.41
   0 -27  -2    0.77    0.47
   0  27   2    0.62    0.49
  -1 -27  -2    2.01    0.56
   1 -27   2    2.47    0.62
   1  27   2    2.32    0.58
  -2 -27  -2   -0.02    0.42
   2 -27   2    0.44    0.48
   2  27   2    0.35    0.50
   3 -27   2    4.69    0.76
  -3 -27  -2    6.59    0.85
   3 -28  -2   13.55    1.09
  -3 -28   2   12.92    1.11
  -3  28   2   14.34    1.14
   2 -28  -2    7.15    0.87
  -2 -28   2    7.53    0.91
  -2  28   2    7.40    0.86
  -1 -28   2    2.20    0.62
   1 -28  -2    2.44    0.63
  -1  28   2    1.97    0.57
   0 -28  -2    0.26    0.47
   0 -28   2    0.28    0.48
   0  28   2   -0.18    0.42
  -1 -28  -2    9.24    0.94
   1 -28   2    7.50    0.90
   1  28   2    9.09    1.08
  -2 -28  -2    8.78    0.98
   2 -28   2    8.48    0.97
 -11   0   3    1.23    0.57
 -10   0   3    2.36    0.57
  -9   0   3   -0.29    0.36
   8   0  -3   38.25    1.42
  -8   0   3   34.12    1.32
   7   0  -3    9.98    0.78
  -7   0   3   12.33    0.75
  -6   0   3    2.03    0.34
   6   0  -3    2.15    0.44
   5   0  -3    0.10    0.27
  -5   0   3    0.06    0.21
   4   0  -3    0.33    0.32
  -4   0   3    0.56    0.21
  -3   0   3    3.56    0.24
   3   0  -3    2.34    0.40
  -3   0   3    3.56    0.24
   2   0  -3    7.39    0.54
   1   0  -3    1.16    0.28
   1   0  -3    1.62    0.22
   0   0  -3  222.96    4.51
   0   0   3  224.92    4.07
   0   0  -3  221.40    4.29
   0   0   3  223.21    4.07
   1   0   3    0.25    0.14
  -1   0  -3    0.31    0.12
  -2   0  -3  177.95    3.43
   2   0   3  174.47    3.49
  -3   0  -3   12.43    0.57
   3   0   3   13.97    0.65
   4   0   3    2.49    0.36
  -4   0  -3    3.27    0.38
  -5   0  -3   12.30    0.70
   5   0   3   12.31    0.75
   6   0   3   54.51    1.73
  -6   0  -3   54.35    1.65
  -7   0  -3    9.07    0.77
   7   0   3   10.38    0.86
  -8   0  -3   16.03    1.04
   8   0   3   18.60    1.14
  -9   0  -3   10.05    0.94
   9   0   3    8.82    0.97
 -11  -1   3    1.91    0.61
 -11   1   3    2.20    0.65
 -10  -1   3   -0.22    0.40
 -10   1   3    0.74    0.44
  -9  -1   3    1.76    0.50
  -9   1   3    2.17    0.52
   8  -1  -3    5.73    0.69
  -8  -1   3    4.97    0.60
  -8   1   3    5.27    0.62
   8   1  -3    5.40    0.62
   7  -1  -3   53.28    1.75
  -7  -1   3   52.49    1.57
   7  -1  -3   50.67    1.40
  -7   1   3   55.10    1.58
   7   1  -3   52.04    1.64
  -6  -1   3   35.14    1.10
   6  -1  -3   34.08    0.98
   6  -1  -3   32.43    1.28
  -6   1   3   33.58    1.10
   6   1  -3   32.79    1.22
  -5  -1   3   75.16    1.76
   5  -1  -3   76.09    1.66
   5  -1  -3   75.81    2.09
  -5   1   3   75.41    1.78
   5   1  -3   76.89    2.03
   4  -1  -3   92.61    2.33
  -4  -1   3   87.62    1.91
   4  -1  -3   92.23    1.82
  -4   1   3   87.07    1.92
   4   1  -3   92.39    2.27
  -3  -1   3  135.78    2.59
   3  -1  -3  137.97    3.07
  -3  -1   3  133.19    2.58
  -3   1   3  136.30    2.62
  -3   1   3  131.41    2.61
   3   1  -3  135.44    3.01
   2  -1  -3   67.91    1.76
   2  -1  -3   66.20    1.54
  -2   1   3   68.23    1.28
   2   1  -3   69.02    1.74
  -2   1   3   67.21    1.28
   1  -1  -3   45.09    1.10
   1  -1  -3   45.06    1.30
   1   1  -3   45.56    1.09
   1   1  -3   45.64    1.31
   0  -1  -3   84.08    1.97
   0  -1   3   82.32    1.55
   0  -1  -3   82.81    1.79
   0  -1   3   81.53    1.55
   0   1   3   82.48    1.59
   0   1   3   83.36    1.59
   1  -1   3   27.03    0.68
  -1  -1  -3   26.35    0.65
  -1   1  -3   26.71    0.63
   1   1   3   25.55    0.68
   2  -1   3   42.70    1.08
  -2  -1  -3   42.22    1.05
  -2   1  -3   41.54    1.03
   2   1   3   43.53    1.10
  -3  -1  -3   56.41    1.38
   3  -1   3   54.79    1.43
   3   1   3   55.53    1.43
  -3   1  -3   56.23    1.37
   4  -1   3   18.21    0.80
  -4  -1  -3   19.54    0.76
   4   1   3   19.65    0.83
  -4   1  -3   19.58    0.76
  -5  -1  -3    1.61    0.34
   5  -1   3    0.89    0.35
  -5   1  -3    1.63    0.35
   5   1   3    1.54    0.37
   6  -1   3   34.71    1.33
  -6  -1  -3   36.24    1.29
   6   1   3   34.01    1.33
  -6   1  -3   35.07    1.28
  -7  -1  -3   32.15    1.32
   7  -1   3   34.50    1.41
  -7   1  -3   32.68    1.32
   7   1   3   32.45    1.37
  -8  -1  -3    9.30    0.84
   8  -1   3    8.67    0.85
  -8   1  -3    8.93    0.84
  -9  -1  -3    9.65    0.95
   9  -1   3    9.74    0.98
  -9   1  -3   11.31    0.99
   9   1   3    8.44    0.91
 -10  -2   3    3.30    0.64
 -10   2   3    5.36    0.74
  -9  -2   3   13.97    0.94
  -9   2   3   15.16    0.98
  -8  -2   3   39.27    1.42
   8  -2  -3   41.60    1.60
   8   2  -3   40.60    1.66
  -8   2   3   40.89    1.46
   7  -2  -3    0.40    0.27
   7  -2  -3    0.88    0.42
  -7  -2   3    0.72    0.32
  -7   2   3    0.85    0.35
   7   2  -3    0.50    0.33
   6  -2  -3   42.09    1.53
   6  -2  -3   42.67    1.14
  -6  -2   3   40.86    1.23
   6   2  -3   39.60    1.33
  -6   2   3   40.15    1.24
   5  -2  -3    9.72    0.45
  -5  -2   3    9.29    0.51
   5  -2  -3    8.10    0.70
  -5   2   3    8.67    0.52
   5   2  -3    8.83    0.62
  -4  -2   3    1.78    0.25
   4  -2  -3    1.80    0.44
   4  -2  -3    2.12    0.23
   4   2  -3    1.77    0.39
  -4   2   3    1.36    0.26
  -3  -2   3   11.16    0.38
   3  -2  -3   10.44    0.71
  -3   2   3   11.18    0.41
   3   2  -3   10.57    0.64
   2  -2  -3  986.72   18.02
   2  -2  -3  990.12   18.32
  -2   2   3 1000.00   17.86
  -2   2   3  991.33   17.86
   2   2  -3  979.13   18.26
   1  -2  -3   42.94    1.28
   1  -2  -3   42.31    1.05
  -1   2   3   42.49    0.84
   1   2  -3   43.14    1.04
  -1   2   3   41.98    0.83
   0  -2  -3   16.19    0.70
   0  -2   3   14.67    0.35
   0  -2   3   15.31    0.35
   0   2   3   15.25    0.42
   0   2   3   15.39    0.41
   0   2  -3   14.88    0.52
  -1  -2  -3  120.13    2.58
   1  -2   3  115.55    2.31
  -1  -2  -3  119.26    2.30
   1   2   3  117.88    2.34
  -1   2  -3  113.87    2.25
   2  -2   3  105.89    2.24
  -2  -2  -3  105.86    2.21
  -2   2  -3  107.40    2.19
   2   2   3  107.34    2.26
  -3  -2  -3    3.23    0.34
   3  -2   3    3.21    0.38
   3   2   3    3.05    0.38
  -3   2  -3    3.26    0.33
   4  -2   3   11.77    0.65
  -4  -2  -3   10.13    0.57
  -4   2  -3   10.34    0.57
   4   2   3   10.62    0.63
  -5  -2  -3    7.43    0.59
   5  -2   3    7.21    0.63
   5   2   3    7.87    0.65
  -5   2  -3    8.14    0.58
   6  -2   3    9.55    0.79
  -6  -2  -3   11.30    0.74
  -6   2  -3   10.96    0.76
   6   2   3   10.45    0.83
   7  -2   3   17.53    1.04
  -7  -2  -3   18.30    0.99
  -7   2  -3   19.30    1.01
   7   2   3   18.54    1.09
  -8  -2  -3    2.00    0.52
   8  -2   3    1.29    0.50
  -8   2  -3    1.26    0.50
   8   2   3    1.90    0.55
   9  -2   3    8.88    0.96
  -9  -2  -3   11.63    1.00
   9   2   3   12.28    1.09
  -9   2  -3   11.67    1.02
 -10  -3   3   24.73    1.29
 -10   3   3   25.47    1.34
  -9  -3   3   15.62    1.00
  -9   3   3   14.65    1.00
   8  -3  -3   18.57    1.12
  -8  -3   3   18.74    0.98
  -8   3   3   16.75    0.95
  -7  -3   3    7.87    0.64
   7  -3  -3    6.40    0.52
   7  -3  -3    8.23    0.82
   7   3  -3    7.03    0.59
  -7   3   3    6.34    0.61
   6  -3  -3   64.46    1.56
  -6  -3   3   62.63    1.66
   6  -3  -3   63.38    2.01
  -6   3   3   66.04    1.71
   6   3  -3   64.21    1.76
   5  -3  -3    3.98    0.57
   5  -3  -3    3.57    0.33
  -5  -3   3    4.31    0.39
  -5   3   3    3.78    0.38
   5   3  -3    3.55    0.44
   4  -3  -3   22.82    1.07
  -4  -3   3   24.37    0.73
   4  -3  -3   24.54    0.68
  -4   3   3   24.98    0.78
   4   3  -3   24.13    0.95
   3  -3  -3   16.84    0.89
   3  -3  -3   17.54    0.48
  -3  -3   3   17.05    0.50
   3   3  -3   17.52    0.80
  -3   3   3   17.10    0.55
   2  -3  -3  728.15   13.70
   2  -3  -3  750.05   14.05
  -2   3   3  752.74   13.55
  -2   3   3  759.59   13.52
   1  -3  -3  754.03   14.03
   1  -3  -3  742.34   13.72
  -1   3   3  754.84   13.53
   1   3  -3  751.27   13.68
   0  -3   3    6.42    0.22
   0  -3   3    6.46    0.22
   0  -3  -3    5.21    0.47
   0  -3  -3    6.15    0.23
   0   3  -3    6.22    0.33
   0   3   3    5.54    0.27
  -1  -3  -3    9.57    0.55
  -1  -3  -3   10.39    0.39
   1  -3   3    9.81    0.38
   1   3   3   10.80    0.43
  -1   3  -3    9.85    0.34
   2  -3   3    7.76    0.46
  -2  -3  -3    7.55    0.42
   2   3   3    6.92    0.46
  -2   3  -3    7.52    0.40
   3  -3   3    7.90    0.51
  -3  -3  -3    8.47    0.49
  -3   3  -3    9.00    0.47
   3   3   3    8.03    0.53
   4  -3   3   43.57    1.29
  -4  -3  -3   42.62    1.24
   4   3   3   45.10    1.32
  -4   3  -3   41.80    1.21
   5  -3   3    0.38    0.32
  -5  -3  -3    0.87    0.31
   5   3   3    0.71    0.33
  -5   3  -3    0.02    0.26
   6  -3   3   58.98    1.80
  -6  -3  -3   58.50    1.73
  -6   3  -3   56.95    1.71
   6   3   3   59.89    1.82
  -7  -3  -3    9.11    0.78
   7  -3   3    6.97    0.73
   7   3   3    7.74    0.77
  -7   3  -3    7.70    0.75
   8  -3   3    1.04    0.48
  -8  -3  -3    0.84    0.46
  -8   3  -3    0.65    0.45
   8   3   3    1.01    0.48
   9  -3   3    4.31    0.71
  -9  -3  -3    4.87    0.74
  -9   3  -3    5.32    0.76
   9   3   3    6.08    0.82
 -10  -4   3    4.12    0.68
 -10   4   3    4.27    0.70
  -9  -4   3    8.46    0.79
   9  -4  -3    7.91    0.90
  -9   4   3    8.59    0.81
   8  -4  -3   10.43    0.96
  -8  -4   3   10.46    0.81
  -8   4   3   11.47    0.85
  -7  -4   3    2.99    0.44
   7  -4  -3    2.77    0.58
   7  -4  -3    4.10    0.45
  -7   4   3    4.32    0.53
   6  -4  -3    0.45    0.24
  -6  -4   3    0.73    0.27
   6  -4  -3    0.71    0.43
  -6   4   3    0.53    0.29
   5  -4  -3    5.85    0.39
  -5  -4   3    5.86    0.43
   5  -4  -3    5.76    0.68
  -5   4   3    6.55    0.48
   4  -4  -3  106.58    2.74
  -4  -4   3  104.17    2.20
   4  -4  -3  103.68    2.15
  -4   4   3  106.13    2.26
   3  -4  -3  350.41    6.94
   3  -4  -3  339.54    6.28
  -3  -4   3  335.48    6.28
  -3   4   3  335.90    6.36
  -2  -4   3  175.12    3.19
   2  -4  -3  174.17    3.24
   2  -4  -3  173.82    3.82
  -2  -4   3  175.35    3.19
   2  -4  -3  169.83    3.45
  -2   4   3  173.94    3.31
   1  -4  -3   28.11    1.05
   1  -4  -3   30.37    0.83
   1  -4  -3   29.28    0.65
   1   4  -3   31.18    0.79
   0  -4  -3   20.09    0.52
   0  -4  -3   21.12    0.85
   0  -4   3   20.04    0.49
   0  -4  -3   20.66    0.67
   0  -4   3   19.64    0.49
   0   4  -3   20.70    0.61
  -1  -4  -3   47.40    1.08
   1  -4   3   45.96    1.07
  -1  -4  -3   47.40    1.32
   1   4   3   46.78    1.12
  -1   4  -3   46.40    1.01
  -2  -4  -3   37.53    1.00
  -2  -4  -3   38.81    1.11
   2  -4   3   36.81    1.02
  -2   4  -3   38.00    0.96
   2   4   3   38.66    1.07
   3  -4   3    2.33    0.34
  -3  -4  -3    2.67    0.32
   3   4   3    2.06    0.33
  -3   4  -3    2.28    0.30
   4  -4   3    4.56    0.45
  -4  -4  -3    3.60    0.40
   4   4   3    3.76    0.43
  -4   4  -3    3.77    0.39
  -5  -4  -3   39.68    1.28
   5  -4   3   38.82    1.31
  -5   4  -3   39.35    1.24
   5   4   3   37.14    1.29
  -6  -4  -3   58.84    1.76
   6  -4   3   58.21    1.80
  -6   4  -3   59.00    1.72
   6   4   3   57.35    1.79
  -7  -4  -3    0.86    0.40
   7  -4   3    0.67    0.42
   7   4   3    0.08    0.41
  -7   4  -3    0.09    0.36
   8  -4   3    9.56    0.92
  -8  -4  -3    9.28    0.88
   8   4   3    9.09    0.89
  -8   4  -3    9.16    0.87
  -9  -4  -3    2.75    0.61
   9  -4   3    2.69    0.65
  -9   4  -3    2.56    0.61
 -10  -5   3    8.62    0.87
 -10   5   3    9.51    0.92
   9  -5  -3    2.62    0.65
  -9  -5   3    1.33    0.46
  -9   5   3    1.69    0.49
   8  -5  -3   43.91    1.83
  -8  -5   3   46.31    1.57
  -8   5   3   47.44    1.61
  -7  -5   3    0.78    0.35
   7  -5  -3    0.98    0.49
   7  -5  -3    0.64    0.32
  -7   5   3    1.08    0.40
  -6  -5   3   32.35    1.09
   6  -5  -3   34.05    1.03
   6  -5  -3   32.45    1.47
  -6   5   3   33.60    1.13
   5  -5  -3   16.32    0.62
  -5  -5   3   15.67    0.65
   5  -5  -3   16.75    1.02
  -5   5   3   16.54    0.70
   4  -5  -3   20.16    1.07
  -4  -5   3   18.44    0.64
   4  -5  -3   19.32    0.63
  -4   5   3   18.59    0.70
   3  -5  -3    1.52    0.48
   3  -5  -3    1.28    0.21
  -3  -5   3    1.28    0.20
  -3   5   3    1.14    0.24
   2  -5  -3   13.68    0.56
   2  -5  -3   13.36    0.43
  -2  -5   3   14.87    0.39
   2  -5  -3   12.63    0.78
  -2  -5   3   14.43    0.39
  -2   5   3   13.74    0.48
   1  -5  -3  115.96    2.70
   1  -5  -3  109.79    2.33
  -1  -5   3  111.68    2.11
   1  -5  -3  111.72    2.18
  -1  -5   3  113.64    2.12
   1   5  -3  112.18    2.28
   0  -5  -3    3.82    0.46
   0  -5   3    4.98    0.25
   0  -5   3    4.45    0.24
   0  -5  -3    4.53    0.27
   0  -5  -3    4.72    0.36
   0   5  -3    4.74    0.31
  -1  -5  -3    3.30    0.43
  -1  -5  -3    3.55    0.30
   1  -5   3    4.29    0.31
  -1   5  -3    4.31    0.26
  -2  -5  -3   20.07    0.78
   2  -5   3   21.79    0.73
  -2  -5  -3   19.80    0.69
  -2   5  -3   20.64    0.66
   2   5   3   21.14    0.75
   3  -5   3   16.68    0.71
  -3  -5  -3   15.54    0.66
   3   5   3   15.47    0.70
  -3   5  -3   15.20    0.62
   4  -5   3    0.03    0.25
  -4  -5  -3    0.13    0.22
  -4   5  -3   -0.01    0.20
   4   5   3    0.18    0.25
   5  -5   3   26.26    1.08
  -5  -5  -3   26.98    1.04
  -5   5  -3   25.56    0.99
   5   5   3   26.04    1.07
  -6  -5  -3    9.79    0.74
   6  -5   3    9.98    0.80
   6   5   3   10.19    0.83
  -6   5  -3   11.64    0.78
   7  -5   3    6.59    0.72
  -7  -5  -3    8.06    0.76
  -7   5  -3    8.08    0.76
   7   5   3    8.04    0.82
  -8  -5  -3    9.74    0.91
   8  -5   3    8.92    0.87
  -8   5  -3    7.60    0.78
   9  -5   3    0.34    0.49
  -9  -5  -3   -0.30    0.42
  -9   5  -3    0.28    0.48
 -10  -6   3    0.12    0.44
 -10   6   3    0.71    0.50
  -9  -6   3   15.53    1.01
   9  -6  -3   15.02    1.17
  -9   6   3   15.77    1.02
  -8  -6   3   81.81    2.24
   8  -6  -3   79.53    2.65
  -8   6   3   78.61    2.25
  -7  -6   3    2.28    0.43
   7  -6  -3    2.29    0.65
   7  -6  -3    2.29    0.39
  -7   6   3    2.10    0.44
   6  -6  -3    7.32    0.84
  -6  -6   3    8.19    0.58
   6  -6  -3    8.97    0.55
  -6   6   3    8.85    0.64
   5  -6  -3   29.88    1.38
   5  -6  -3   29.24    0.89
  -5  -6   3   28.89    0.92
   5   6  -3   28.23    0.77
  -5   6   3   27.63    0.96
   4  -6  -3    4.06    0.35
  -4  -6   3    4.85    0.37
   4  -6  -3    4.87    0.69
  -4   6   3    4.77    0.41
   3  -6  -3    0.81    0.46
  -3  -6   3    1.27    0.21
   3  -6  -3    1.61    0.24
  -3   6   3    1.26    0.26
   2  -6  -3  139.48    2.85
  -2  -6   3  139.35    2.67
  -2  -6   3  139.05    2.67
   2  -6  -3  137.75    2.71
   2  -6  -3  145.71    3.35
  -2   6   3  134.72    2.77
  -1  -6   3    5.45    0.25
   1  -6  -3    5.93    0.30
   1  -6  -3    5.26    0.60
  -1  -6   3    5.86    0.26
   1  -6  -3    4.97    0.36
  -1   6   3    5.28    0.33
   1   6  -3    5.24    0.34
   0  -6  -3   50.14    1.26
   0  -6   3   49.42    1.10
   0  -6  -3   51.50    1.52
   0  -6  -3   52.02    1.15
   0   6  -3   50.56    1.14
  -1  -6  -3   28.61    0.79
  -1  -6  -3   26.66    1.02
   1  -6   3   27.40    0.77
  -1   6  -3   26.93    0.77
  -1   6  -3   27.77    0.71
  -2  -6  -3  112.39    2.50
   2  -6   3  110.38    2.38
  -2  -6  -3  110.95    2.37
  -2   6  -3  111.72    2.31
  -3  -6  -3   66.73    1.63
  -3  -6  -3   66.48    1.57
   3  -6   3   63.20    1.64
   3   6   3   67.94    1.69
  -3   6  -3   65.71    1.58
   4  -6   3    4.05    0.44
  -4  -6  -3    3.72    0.41
   4   6   3    4.52    0.49
  -4   6  -3    4.35    0.42
  -5  -6  -3   68.45    1.83
   5  -6   3   67.21    1.88
   5   6   3   67.98    1.89
  -5   6  -3   64.72    1.78
  -6  -6  -3    8.62    0.70
   6  -6   3    7.04    0.70
   6   6   3    8.49    0.77
  -6   6  -3    8.43    0.71
  -7  -6  -3    8.32    0.78
   7  -6   3    8.16    0.82
  -7   6  -3    7.20    0.72
  -8  -6  -3    2.73    0.57
   8  -6   3    2.38    0.57
  -8   6  -3    2.18    0.54
  -9  -6  -3    3.58    0.68
   9  -6   3    2.92    0.65
  -9   6  -3    3.29    0.66
 -10  -7   3    5.73    0.80
 -10   7   3    8.00    0.90
  -9  -7   3   13.77    0.95
   9  -7  -3   14.30    1.20
  -9   7   3   14.91    1.02
  -8  -7   3    1.49    0.44
   8  -7  -3    1.79    0.66
  -8   7   3    2.19    0.50
  -7  -7   3   22.72    1.00
   7  -7  -3   22.07    1.38
   7  -7  -3   21.72    0.91
  -7   7   3   22.06    1.02
   6  -7  -3    1.10    0.53
   6  -7  -3    1.16    0.29
  -6  -7   3    0.22    0.27
  -6   7   3    1.08    0.33
  -5  -7   3    4.81    0.43
   5  -7  -3    5.78    0.42
   5  -7  -3    4.53    0.72
   5   7  -3    5.50    0.35
  -5   7   3    4.56    0.45
  -4  -7   3    3.57    0.33
   4  -7  -3    3.99    0.69
   4  -7  -3    4.07    0.35
  -4   7   3    3.43    0.36
   3  -7  -3    0.47    0.48
   3  -7  -3   -0.09    0.18
  -3  -7   3   -0.05    0.16
  -3   7   3    0.24    0.23
  -2  -7   3    9.90    0.40
   2  -7  -3   11.30    0.89
   2  -7  -3    9.79    0.52
  -2  -7   3   10.68    0.46
   2  -7  -3   10.45    0.45
  -2   7   3   10.33    0.50
  -1  -7   3    5.49    0.29
   1  -7  -3    5.49    0.38
  -1  -7   3    5.26    0.30
   1  -7  -3    4.41    0.59
   1  -7  -3    5.54    0.33
  -1   7   3    4.83    0.37
   0  -7  -3  144.14    2.81
   0  -7  -3  140.13    3.25
   0  -7  -3  142.54    2.91
   0  -7   3  139.48    2.76
   0   7  -3  139.72    2.75
   0   7  -3  141.26    2.67
  -1  -7  -3   18.85    0.88
  -1  -7  -3   18.59    0.65
   1  -7   3   17.88    0.63
  -1   7  -3   18.48    0.57
  -1   7  -3   18.33    0.59
  -2  -7  -3   64.31    1.69
   2  -7   3   65.14    1.58
  -2  -7  -3   67.26    1.58
  -2   7  -3   66.97    1.51
  -3  -7  -3   23.98    0.79
   3  -7   3   20.86    0.82
  -3  -7  -3   22.24    0.82
  -3   7  -3   23.66    0.80
  -4  -7  -3   17.03    0.77
   4  -7   3   17.66    0.80
  -4   7  -3   17.61    0.75
  -5  -7  -3    4.34    0.52
   5  -7   3    3.95    0.53
  -5   7  -3    3.69    0.47
  -6  -7  -3    7.01    0.68
   6  -7   3    6.78    0.69
  -6   7  -3    5.53    0.60
  -7  -7  -3    3.10    0.53
   7  -7   3    1.78    0.49
  -7   7  -3    2.70    0.52
  -8  -7  -3   15.78    1.04
   8  -7   3   16.49    1.12
  -8   7  -3   15.88    1.01
  -9  -7  -3    7.16    0.85
   9  -7   3    7.37    0.88
  -9   7  -3    9.37    1.08
 -10  -8   3    0.18    0.45
 -10   8   3    0.58    0.52
  -9  -8   3    1.17    0.46
   9  -8  -3    2.50    0.71
  -9   8   3    1.58    0.52
   8  -8  -3    3.63    0.79
  -8  -8   3    4.58    0.60
  -8   8   3    3.85    0.60
  -7  -8   3   12.05    0.78
   7  -8  -3   11.39    0.70
   7  -8  -3   11.67    1.12
  -7   8   3   10.91    0.82
  -6  -8   3   27.52    1.04
   6  -8  -3   28.05    1.51
   6  -8  -3   29.13    1.00
   6   8  -3   30.19    0.88
  -6   8   3   30.39    1.13
  -5  -8   3   14.97    0.67
   5  -8  -3   14.11    0.62
   5  -8  -3   13.12    1.07
  -5   8   3   12.81    0.69
   5   8  -3   13.67    0.52
  -4  -8   3    2.92    0.32
   4  -8  -3    2.69    0.31
  -4   8   3    3.52    0.39
   4   8  -3    3.15    0.26
  -3  -8   3   15.91    0.58
   3  -8  -3   16.26    0.59
  -3   8   3   15.75    0.66
  -2  -8   3   20.70    0.63
   2  -8  -3   20.59    0.72
   2  -8  -3   20.94    0.66
  -2   8   3   19.92    0.72
   1  -8  -3   60.48    1.89
  -1  -8   3   59.01    1.32
   1  -8  -3   60.06    1.37
   1  -8  -3   59.47    1.42
  -1   8   3   59.12    1.41
   0  -8  -3   38.66    1.01
   0  -8  -3   39.03    1.08
   0  -8  -3   36.92    1.38
   0  -8   3   40.40    0.99
   0   8  -3   39.97    0.93
   0   8  -3   40.10    0.90
  -1  -8  -3  135.47    2.76
   1  -8   3  127.21    2.72
  -1  -8  -3  139.25    3.10
  -1   8  -3  130.75    2.64
  -1   8  -3  132.86    2.65
  -2  -8  -3  178.24    3.71
   2  -8   3  182.54    3.72
  -2  -8  -3  192.18    3.91
  -2   8  -3  182.52    3.65
  -3  -8  -3   28.30    0.95
   3  -8   3   28.50    0.97
  -3  -8  -3   27.50    0.91
  -3   8  -3   28.81    0.91
  -4  -8  -3   13.91    0.71
   4  -8   3   12.88    0.73
  -4   8  -3   13.09    0.67
  -5  -8  -3    9.23    0.69
   5  -8   3   10.62    0.75
  -5   8  -3    9.57    0.69
   6  -8   3   24.44    1.16
  -6  -8  -3   22.59    1.08
  -6   8  -3   24.23    1.07
   7  -8   3   11.75    0.93
  -7  -8  -3   13.04    0.92
  -7   8  -3   13.28    0.91
   8  -8   3   22.40    1.27
  -8  -8  -3   18.48    1.11
  -8   8  -3   21.39    1.15
   9  -8   3    5.17    0.80
  -9  -8  -3    5.55    0.78
 -10  -9   3    2.37    0.62
 -10   9   3    2.86    0.65
  -9  -9   3   10.57    0.87
   9  -9  -3   11.03    1.23
  -9   9   3   12.33    0.97
   8  -9  -3    1.05    0.65
  -8  -9   3    1.22    0.42
  -8   9   3    0.75    0.44
  -7  -9   3   24.42    1.06
   7  -9  -3   23.19    0.97
   7  -9  -3   19.53    1.44
  -7   9   3   23.07    1.09
  -6  -9   3   36.85    1.24
   6  -9  -3   38.22    1.18
   6  -9  -3   37.32    1.79
  -6   9   3   37.16    1.31
  -5  -9   3   23.84    0.87
   5  -9  -3   23.52    0.85
  -5   9   3   23.93    0.93
   5   9  -3   22.62    0.71
  -4  -9   3    5.62    0.42
   4  -9  -3    5.28    0.41
   4   9  -3    4.82    0.31
  -4   9   3    5.77    0.49
  -3  -9   3    0.77    0.21
   3  -9  -3    0.49    0.21
  -3   9   3    0.80    0.26
   2  -9  -3   98.32    2.05
   2  -9  -3   95.30    2.08
  -2  -9   3   92.64    2.00
  -2   9   3   94.15    2.10
   1  -9  -3   11.15    0.50
   1  -9  -3   11.27    0.52
  -1  -9   3   10.30    0.45
   1   9  -3    9.37    0.38
  -1   9   3   10.18    0.54
   0  -9  -3   79.65    1.74
   0  -9  -3   76.28    2.17
   0  -9  -3   76.12    1.77
   0  -9   3   77.06    1.70
   0   9  -3   77.36    1.58
   0   9  -3   75.51    1.60
  -1  -9  -3   17.29    0.92
  -1  -9  -3   16.30    0.64
   1  -9   3   16.93    0.64
  -1   9  -3   16.65    0.58
  -1   9  -3   16.81    0.53
   2  -9   3   16.29    0.67
  -2  -9  -3   17.16    0.68
  -2  -9  -3   13.37    0.74
  -2   9  -3   14.98    0.60
   3  -9   3   11.02    0.61
  -3  -9  -3   10.03    0.58
  -3  -9  -3   10.79    0.61
  -3   9  -3   10.79    0.56
  -4  -9  -3   45.37    1.39
   4  -9   3   46.35    1.41
  -4   9  -3   44.62    1.32
  -5  -9  -3   13.36    0.79
   5  -9   3   12.49    0.80
  -5   9  -3   12.61    0.77
   6  -9   3    8.92    0.77
  -6  -9  -3    7.04    0.68
  -6   9  -3    8.37    0.73
   7  -9   3   24.10    1.24
  -7  -9  -3   24.87    1.21
  -7   9  -3   27.87    1.21
  -8  -9  -3    3.95    0.66
   8  -9   3    5.21    0.73
  -8   9  -3    5.10    0.71
   9  -9   3    1.02    0.58
  -9  -9  -3    1.61    0.58
  10 -10  -3    3.27    0.85
 -10 -10   3    2.61    0.62
 -10  10   3    5.35    0.80
   9 -10  -3   18.60    1.49
  -9 -10   3   20.77    1.15
  -9  10   3   20.01    1.21
   8 -10  -3    6.00    1.03
  -8 -10   3    6.34    0.70
  -8  10   3    4.87    0.66
   7 -10  -3   59.40    1.69
   7 -10  -3   58.67    2.40
  -7 -10   3   59.50    1.79
  -7  10   3   60.53    1.85
  -6 -10   3    3.73    0.47
   6 -10  -3    4.24    0.46
  -6  10   3    3.97    0.54
  -5 -10   3   18.44    0.80
   5 -10  -3   19.40    0.78
   5  10  -3   19.22    0.66
  -5  10   3   19.02    0.86
   4 -10  -3   28.18    0.91
  -4 -10   3   27.95    0.91
  -4  10   3   27.10    0.97
   4  10  -3   26.85    0.75
  -3 -10   3   16.59    0.64
   3 -10  -3   17.44    0.66
   3  10  -3   16.52    0.52
  -3  10   3   18.25    0.75
   2 -10  -3   18.55    0.67
  -2 -10   3   18.66    0.64
   2 -10  -3   17.29    0.66
   2  10  -3   18.08    0.54
  -2  10   3   18.51    0.73
  -1 -10   3   55.86    1.34
   1 -10  -3   56.79    1.38
   1 -10  -3   57.07    1.37
  -1  10   3   58.03    1.45
   1  10  -3   55.45    1.23
   0 -10  -3    6.05    0.43
   0 -10  -3    7.03    0.45
   0 -10   3    6.57    0.42
   0  10  -3    6.22    0.31
   0  10  -3    6.08    0.36
   0  10   3    6.64    0.48
  -1 -10  -3   13.06    0.60
   1 -10   3   12.66    0.59
  -1 -10  -3   13.99    0.87
  -1  10  -3   13.12    0.45
  -1  10  -3   13.06    0.52
  -2 -10  -3    8.33    0.65
  -2 -10  -3    8.81    0.52
   2 -10   3    9.22    0.53
  -2  10  -3    8.69    0.48
  -3 -10  -3   13.10    0.67
  -3 -10  -3   11.69    0.66
   3 -10   3   13.77    0.70
  -3  10  -3   13.70    0.64
   4 -10   3   12.99    0.76
  -4 -10  -3   12.36    0.56
  -4 -10  -3   13.08    0.72
  -4  10  -3   12.79    0.70
  -5 -10  -3   57.70    1.74
   5 -10   3   58.46    1.77
  -5  10  -3   59.62    1.71
  -6 -10  -3    6.94    0.69
   6 -10   3    7.23    0.74
  -6  10  -3    5.43    0.63
  -7 -10  -3   11.32    0.89
   7 -10   3   10.58    0.91
  -7  10  -3   10.50    0.82
   8 -10   3    2.98    0.66
  -8 -10  -3    3.32    0.62
  -8  10  -3    2.64    0.59
   9 -10   3    0.48    0.54
 -10 -11   3   28.53    1.46
  10 -11  -3   30.29    1.90
 -10  11   3   28.31    1.53
  -9 -11   3    4.39    0.68
   9 -11  -3    2.64    0.81
  -9  11   3    3.83    0.67
   8 -11  -3    1.02    0.69
  -8 -11   3    1.26    0.45
  -8  11   3    1.14    0.47
   7 -11  -3   30.16    1.16
   7 -11  -3   33.31    1.89
  -7 -11   3   33.49    1.28
  -7  11   3   31.59    1.32
  -6 -11   3   55.35    1.64
   6 -11  -3   55.69    1.57
  -6  11   3   57.28    1.73
  -5 -11   3    0.56    0.29
   5 -11  -3    0.30    0.27
   5  11  -3    0.31    0.19
  -5  11   3    0.29    0.32
  -4 -11   3  114.92    2.58
   4 -11  -3  114.61    2.57
  -4  11   3  119.82    2.69
   4  11  -3  118.10    2.39
  -3 -11   3   11.89    0.57
   3 -11  -3   12.82    0.59
  -3  11   3   12.52    0.64
   3  11  -3   12.85    0.47
  -2 -11   3   54.98    1.36
   2 -11  -3   54.81    1.39
   2 -11  -3   54.06    1.34
  -2  11   3   56.02    1.45
   2  11  -3   55.42    1.23
   1 -11  -3   53.90    1.37
  -1 -11   3   54.59    1.35
   1 -11  -3   55.25    1.35
  -1  11   3   55.40    1.45
   1  11  -3   55.85    1.24
   0 -11   3   62.85    1.52
   0 -11  -3   64.89    1.54
   0 -11  -3   61.45    1.54
   0  11   3   64.00    1.60
   0  11  -3   63.55    1.42
   1 -11   3    6.69    0.47
  -1 -11  -3    6.64    0.46
  -1 -11  -3    5.48    0.66
  -1  11  -3    7.38    0.42
  -1  11  -3    7.00    0.31
   2 -11   3    6.12    0.50
  -2 -11  -3    7.97    0.66
  -2 -11  -3    6.03    0.49
  -2  11  -3    6.74    0.46
  -3 -11  -3   18.81    0.86
   3 -11   3   18.65    0.84
  -3 -11  -3   18.97    0.83
  -3  11  -3   19.51    0.78
  -4 -11  -3   14.61    0.80
   4 -11   3   15.76    0.84
  -4 -11  -3   13.91    0.63
  -4  11  -3   13.53    0.73
   5 -11   3   23.12    1.10
  -5 -11  -3   24.56    1.08
  -5  11  -3   23.30    1.02
  -6 -11  -3   11.88    0.87
   6 -11   3   11.69    0.90
  -6  11  -3   12.51    0.86
   7 -11   3    1.14    0.49
  -7 -11  -3    1.75    0.51
  -7  11  -3    1.20    0.47
  -8 -11  -3    3.51    0.67
   8 -11   3    3.89    0.70
  -8  11  -3    3.81    0.93
  10 -12  -3    5.54    1.09
 -10 -12   3    6.82    0.86
 -10  12   3    7.36    0.89
  -9 -12   3    0.99    0.46
   9 -12  -3    0.73    0.70
  -9  12   3    0.86    0.52
   8 -12  -3    2.43    0.84
  -8 -12   3    3.43    0.57
  -8  12   3    1.97    0.55
   7 -12  -3    0.87    0.36
  -7 -12   3    1.17    0.40
  -7  12   3    0.92    0.42
   6 -12  -3    3.05    0.46
  -6 -12   3    3.26    0.49
  -6  12   3    3.81    0.56
   5 -12  -3   16.43    0.77
  -5 -12   3   15.41    0.78
   5  12  -3   14.92    0.66
  -5  12   3   16.49    0.87
   4 -12  -3    3.53    0.40
  -4 -12   3    3.38    0.40
   4  12  -3    3.14    0.30
  -4  12   3    3.22    0.44
  -3 -12   3    1.59    0.27
   3 -12  -3    1.55    0.29
   3  12  -3    1.60    0.22
  -3  12   3    1.15    0.31
   2 -12  -3   76.55    1.74
   2 -12  -3   79.02    1.82
  -2 -12   3   74.28    1.78
  -2  12   3   76.27    1.88
   2  12  -3   74.88    1.64
   1 -12  -3  182.38    3.58
   1 -12  -3  174.48    3.64
  -1 -12   3  176.30    3.60
  -1  12   3  178.35    3.71
   1  12  -3  178.13    3.47
   0 -12   3    2.17    0.30
   0 -12  -3    2.77    0.33
   0 -12  -3    3.19    0.36
   0  12  -3    2.87    0.30
   0  12   3    3.03    0.39
  -1 -12  -3  175.06    4.06
   1 -12   3  169.99    3.58
  -1 -12  -3  173.33    3.60
  -1 -12  -3  170.37    3.58
  -1  12  -3  173.76    3.48
  -1  12  -3  172.99    3.26
   1  12   3  172.99    3.64
   2 -12   3   31.19    1.05
  -2 -12  -3   31.14    1.25
  -2 -12  -3   30.55    1.03
  -2  12  -3   30.19    0.80
  -2  12  -3   30.05    0.95
   3 -12   3   47.07    1.43
  -3 -12  -3   45.67    1.42
  -3 -12  -3   49.82    1.50
  -3  12  -3   47.22    1.35
  -4 -12  -3   31.44    1.03
  -4 -12  -3   29.50    1.14
   4 -12   3   31.88    1.18
  -4  12  -3   29.14    1.09
  -5 -12  -3   40.55    1.45
   5 -12   3   41.50    1.48
  -5  12  -3   42.85    1.42
  -6 -12  -3   11.14    0.84
   6 -12   3    9.00    0.84
  -6  12  -3   10.04    0.81
  -7 -12  -3   15.01    1.00
   7 -12   3   15.64    1.07
  -7  12  -3   13.89    0.98
  -8 -12  -3    5.12    0.74
   8 -12   3    7.71    0.89
  -9 -13   3   16.69    1.08
   9 -13  -3   13.57    1.51
  -9  13   3   16.62    1.15
  -8 -13   3    9.04    0.84
   8 -13  -3   10.91    1.42
  -8  13   3   10.49    0.91
  -7 -13   3    6.26    0.68
   7 -13  -3    7.72    0.69
  -7  13   3    4.55    0.62
   6 -13  -3   27.16    1.08
  -6 -13   3   29.84    1.15
  -6  13   3   28.23    1.20
   5 -13  -3    9.30    0.65
  -5 -13   3    9.47    0.67
  -5  13   3   10.23    0.76
  -4 -13   3   19.99    0.84
   4 -13  -3   19.67    0.83
  -4  13   3   19.48    0.89
   4  13  -3   20.12    0.69
   3 -13  -3    0.52    0.25
  -3 -13   3    0.46    0.25
   3  13  -3    0.61    0.19
  -3  13   3    0.27    0.27
   2 -13  -3   37.11    1.13
   2 -13  -3   38.69    1.05
  -2 -13   3   38.54    1.12
   2  13  -3   39.06    0.99
  -2  13   3   38.46    1.20
   1 -13  -3    9.57    0.53
  -1 -13   3    7.78    0.50
   1 -13  -3    8.46    0.46
  -1  13   3    8.46    0.56
   1  13  -3    7.79    0.42
   0 -13   3   31.08    0.98
   0 -13  -3   30.12    0.94
   0 -13  -3   30.93    1.00
   0  13  -3   31.86    0.90
   0  13   3   31.63    1.05
  -1 -13  -3   16.38    0.70
  -1 -13  -3   16.63    0.73
   1 -13   3   16.45    0.73
  -1  13  -3   16.38    0.65
  -1  13  -3   15.83    0.43
   1  13   3   15.85    0.77
  -2 -13  -3    9.70    0.82
  -2 -13  -3   12.35    0.67
   2 -13   3   12.18    0.69
  -2  13  -3   11.86    0.44
  -2  13  -3   12.36    0.60
  -3 -13  -3    4.58    0.58
   3 -13   3    6.54    0.60
  -3 -13  -3    5.94    0.56
  -3  13  -3    6.14    0.53
  -4 -13  -3   25.79    1.07
  -4 -13  -3   26.64    0.99
   4 -13   3   25.26    1.11
  -4  13  -3   27.36    1.05
  -5 -13  -3   10.35    0.80
   5 -13   3   10.26    0.84
  -5  13  -3   10.86    0.76
  -6 -13  -3   29.48    1.29
   6 -13   3   28.66    1.33
  -6  13  -3   29.37    1.24
  -7 -13  -3    8.05    0.81
   7 -13   3    7.44    0.82
  -7  13  -3    8.81    0.82
  -8 -13  -3    1.15    0.54
   8 -13   3    2.06    0.62
   9 -14  -3    7.91    1.30
  -9 -14   3    8.03    0.85
  -9  14   3    8.47    0.93
  -8 -14   3    5.14    0.68
   8 -14  -3    5.45    1.11
  -8  14   3    4.58    0.69
  -7 -14   3    4.68    0.59
  -7  14   3    6.12    0.72
  -6 -14   3    6.79    0.67
   6 -14  -3    7.24    0.66
  -6  14   3    7.16    0.74
   5 -14  -3   75.04    1.97
  -5 -14   3   75.10    2.00
  -5  14   3   72.99    2.07
  -4 -14   3  171.77    3.70
   4 -14  -3  172.04    3.69
  -4  14   3  174.39    3.80
   4  14  -3  171.84    3.47
  -3 -14   3    5.42    0.49
   3 -14  -3    5.92    0.49
  -3  14   3    4.64    0.50
   3  14  -3    5.71    0.39
   2 -14  -3   28.73    0.99
  -2 -14   3   29.79    0.98
   2 -14  -3   29.05    0.88
  -2  14   3   27.81    1.05
   2  14  -3   31.64    0.87
  -1 -14   3    3.88    0.40
   1 -14  -3    3.27    0.39
   1 -14  -3    4.52    0.37
   1  14  -3    3.46    0.32
  -1  14   3    4.23    0.45
   0 -14  -3    9.01    0.57
   0 -14  -3    9.79    0.52
   0 -14   3    8.85    0.56
   0  14   3    8.99    0.61
   0  14  -3    8.99    0.48
  -1 -14  -3   11.83    0.62
   1 -14   3   13.07    0.68
  -1 -14  -3   11.72    0.65
   1  14   3   12.68    0.73
  -1  14  -3   11.93    0.58
   2 -14   3   98.02    2.36
  -2 -14  -3   94.68    2.35
  -2 -14  -3   97.86    2.69
  -2  14  -3   98.88    2.26
   2  14   3   98.77    2.40
  -2  14  -3   97.09    1.95
  -3 -14  -3    4.43    0.60
  -3 -14  -3    6.18    0.60
   3 -14   3    4.56    0.52
  -3  14  -3    5.63    0.53
  -4 -14  -3   15.57    0.89
  -4 -14  -3   13.51    0.77
   4 -14   3   14.48    0.88
  -4  14  -3   15.17    0.81
  -5 -14  -3    0.72    0.39
   5 -14   3    1.16    0.43
  -5  14  -3    0.79    0.37
  -6 -14  -3    2.65    0.54
   6 -14   3    3.07    0.58
  -6  14  -3    2.33    0.51
  -7 -14  -3    1.52    0.54
   7 -14   3    1.85    0.55
   8 -14   3   -0.16    0.44
  -8 -14  -3    0.67    0.47
  -9 -15   3   17.17    1.13
   9 -15  -3   12.72    1.61
  -9  15   3   14.30    1.18
   8 -15  -3   -0.50    0.73
  -8 -15   3    0.66    0.44
  -8  15   3    0.46    0.46
  -7 -15   3    5.33    0.66
  -7  15   3    6.41    0.73
  -6 -15   3    0.35    0.35
   6 -15  -3    1.12    0.37
  -6  15   3    0.57    0.42
   5 -15  -3   27.59    1.09
  -5 -15   3   26.61    1.10
  -5  15   3   26.99    1.17
  -4 -15   3    1.55    0.36
   4 -15  -3    2.56    0.40
  -4  15   3    2.55    0.47
  -3 -15   3    5.72    0.52
   3 -15  -3    4.82    0.49
   3  15  -3    5.59    0.42
  -3  15   3    5.54    0.56
   2 -15  -3   56.98    1.54
  -2 -15   3   53.39    1.50
   2  15  -3   54.88    1.35
  -2  15   3   54.31    1.59
   1 -15  -3   41.77    1.13
  -1 -15   3   43.25    1.28
   1 -15  -3   41.71    1.27
  -1  15   3   42.29    1.33
   1  15  -3   44.81    1.16
   0 -15   3    4.22    0.43
   0 -15  -3    5.62    0.43
   0 -15  -3    5.65    0.49
   0  15  -3    5.63    0.42
   0  15   3    5.70    0.57
  -1 -15  -3   47.60    1.34
  -1 -15  -3   45.61    1.40
   1 -15   3   50.17    1.45
  -1  15  -3   48.28    1.31
   1  15   3   48.48    1.48
  -2 -15  -3   47.07    1.76
  -2 -15  -3   48.23    1.46
   2 -15   3   48.37    1.47
  -2  15  -3   44.37    1.32
  -2  15  -3   47.40    1.00
   2  15   3   46.25    1.48
  -3 -15  -3  181.61    4.13
  -3 -15  -3  173.91    3.89
   3 -15   3  173.34    3.91
  -3  15  -3  178.47    3.80
  -3  15  -3  175.70    3.47
   4 -15   3    1.58    0.44
  -4 -15  -3    1.28    0.40
  -4 -15  -3    2.08    0.44
  -4  15  -3    2.09    0.44
  -5 -15  -3    8.54    0.80
   5 -15   3    7.69    0.77
  -5  15  -3    7.33    0.72
  -6 -15  -3    0.44    0.42
   6 -15   3    0.43    0.43
  -6  15  -3    0.53    0.41
  -7 -15  -3    9.40    0.91
   7 -15   3    8.88    0.93
   8 -15   3    1.28    0.56
  -8 -15  -3    0.35    0.49
   9 -16  -3    0.45    0.84
  -9 -16   3    1.40    0.55
  -9  16   3    0.71    0.55
  -8 -16   3    1.13    0.47
   8 -16  -3    1.42    0.88
  -8  16   3    1.44    0.55
  -7 -16   3   14.38    0.97
  -7  16   3   13.09    1.00
   6 -16  -3    1.46    0.42
  -6 -16   3    1.06    0.41
  -6  16   3    1.85    0.49
  -5 -16   3    1.67    0.41
   5 -16  -3    1.52    0.39
  -5  16   3    1.72    0.49
   4 -16  -3    9.12    0.68
  -4 -16   3    9.90    0.70
  -4  16   3    7.38    0.68
   3 -16  -3   20.70    0.89
  -3 -16   3   18.05    0.86
  -3  16   3   19.70    0.95
   3  16  -3   19.26    0.88
  -2 -16   3    3.74    0.45
   2 -16  -3    3.67    0.45
  -2  16   3    4.34    0.52
   2  16  -3    4.28    0.38
   1 -16  -3    0.96    0.31
   1 -16  -3    0.45    0.22
  -1 -16   3    0.74    0.30
  -1  16   3    1.12    0.37
   1  16  -3    0.89    0.25
   0 -16  -3    4.76    0.42
   0 -16  -3    5.35    0.53
   0 -16   3    4.28    0.47
   0  16  -3    4.24    0.41
   0  16   3    3.60    0.47
  -1 -16  -3   87.92    2.17
  -1 -16  -3   86.08    2.05
   1 -16   3   84.46    2.16
   1  16   3   86.21    2.21
  -1  16  -3   80.51    2.00
  -2 -16  -3    7.48    0.89
  -2 -16  -3    8.07    0.66
   2 -16   3    6.49    0.60
   2  16   3    8.49    0.73
  -2  16  -3    7.71    0.57
   3 -16   3   99.81    2.58
  -3 -16  -3  101.27    2.58
  -3 -16  -3  103.03    2.82
   3  16   3  104.66    2.63
  -3  16  -3  104.90    2.49
   4 -16   3    4.59    0.60
  -4 -16  -3    4.44    0.60
  -4 -16  -3    4.88    0.60
  -4  16  -3    5.01    0.57
  -5 -16  -3    2.33    0.51
   5 -16   3    2.43    0.53
  -5  16  -3    2.66    0.49
   6 -16   3    7.18    0.80
  -6 -16  -3    8.11    0.80
  -7 -16  -3    8.42    0.87
   7 -16   3    7.77    0.87
   9 -17  -3    4.35    1.18
  -8 -17   3    0.12    0.40
  -8  17   3    0.21    0.49
  -7 -17   3    7.04    0.75
  -7  17   3    7.12    0.84
  -6 -17   3   11.17    0.81
   6 -17  -3   11.26    0.82
  -6  17   3   10.87    0.90
   5 -17  -3    1.17    0.39
  -5 -17   3    1.48    0.41
  -5  17   3    2.16    0.51
  -4 -17   3   10.68    0.75
   4 -17  -3    9.91    0.73
  -4  17   3   10.69    0.81
   3 -17  -3   24.11    1.01
  -3 -17   3   23.94    1.00
  -3  17   3   24.31    1.10
   2 -17  -3   15.86    0.81
  -2 -17   3   13.94    0.78
   2  17  -3   15.74    0.68
  -2  17   3   15.83    0.88
   1 -17  -3   47.13    1.23
   1 -17  -3   48.38    1.46
  -1 -17   3   48.13    1.45
   1  17  -3   47.01    1.29
  -1  17   3   46.13    1.49
   0 -17   3   29.11    1.10
   0 -17  -3   30.90    1.12
   0 -17  -3   31.10    0.96
   0  17  -3   30.11    1.00
   0  17   3   32.57    1.19
   1 -17   3    1.81    0.40
  -1 -17  -3    1.43    0.33
  -1 -17  -3    1.42    0.37
   1  17   3    1.41    0.42
  -1  17  -3    1.16    0.32
  -2 -17  -3    9.28    0.70
   2 -17   3    9.77    0.72
   2  17   3    9.44    0.74
  -2  17  -3   10.25    0.66
   3 -17   3   14.60    0.90
  -3 -17  -3   14.67    0.90
  -3 -17  -3   16.46    1.09
  -3  17  -3   13.85    0.80
   3  17   3   15.54    0.95
  -4 -17  -3   14.38    0.96
   4 -17   3   13.56    0.92
  -4 -17  -3   12.30    0.86
   4  17   3   12.54    0.92
  -4  17  -3   14.63    0.85
   5 -17   3   13.80    0.98
  -5 -17  -3   11.42    0.89
  -5  17  -3   11.95    0.91
  -6 -17  -3   17.97    1.09
   6 -17   3   17.82    1.16
   7 -17   3   10.10    0.98
  -7 -17  -3    9.59    0.97
  -8 -18   3    4.39    0.68
  -8  18   3    3.63    0.71
  -7 -18   3    8.64    0.84
  -7  18   3    8.24    0.87
  -6 -18   3   21.87    1.11
   6 -18  -3   20.70    1.08
  -6  18   3   23.45    1.24
  -5 -18   3    5.49    0.65
   5 -18  -3    6.13    0.64
  -5  18   3    5.14    0.69
  -4 -18   3   41.06    1.43
   4 -18  -3   41.21    1.41
  -4  18   3   40.18    1.48
   3 -18  -3    6.35    0.61
  -3 -18   3    6.17    0.62
  -3  18   3    7.71    0.73
  -2 -18   3    0.17    0.29
   2 -18  -3    0.11    0.31
  -2  18   3    0.09    0.35
  -1 -18   3   33.61    1.20
   1 -18  -3   30.67    1.15
   1 -18  -3   31.28    0.93
  -1  18   3   30.57    1.23
   1  18  -3   30.90    1.02
   0 -18  -3   13.99    0.63
   0 -18   3   11.89    0.74
   0 -18  -3   13.11    0.78
   0  18   3   11.96    0.80
   0  18  -3   11.56    0.64
  -1 -18  -3    1.59    0.33
  -1 -18  -3    1.43    0.39
   1 -18   3    1.85    0.42
  -1  18  -3    1.14    0.35
   1  18   3    2.16    0.46
  -2 -18  -3    8.63    0.64
   2 -18   3    7.46    0.70
  -2 -18  -3    8.68    0.74
   2  18   3    9.79    0.78
  -2  18  -3    9.83    0.67
  -3 -18  -3   20.72    1.25
  -3 -18  -3   20.48    1.04
   3 -18   3   22.02    1.09
  -3  18  -3   20.10    0.95
   3  18   3   22.17    1.09
   4 -18   3    0.42    0.40
  -4 -18  -3    0.22    0.38
  -4  18  -3    0.02    0.36
   4  18   3    0.99    0.44
   5 -18   3   16.44    1.05
  -5 -18  -3   16.63    1.05
   5  18   3   14.95    1.01
  -6 -18  -3    4.54    0.68
   6 -18   3    2.37    0.60
  -7 -18  -3    5.76    0.79
   7 -18   3    4.86    0.77
  -8 -19   3    1.59    0.53
  -8  19   3    1.15    0.58
  -7 -19   3    2.39    0.55
  -7  19   3    1.61    0.57
   6 -19  -3   13.72    1.18
  -6 -19   3   14.00    0.98
  -6  19   3   14.78    1.06
   5 -19  -3   32.81    1.31
  -5 -19   3   33.16    1.34
  -5  19   3   35.06    1.47
   4 -19  -3   26.84    1.15
  -4 -19   3   26.58    1.16
  -4  19   3   23.99    1.20
  -3 -19   3    4.36    0.56
   3 -19  -3    3.75    0.51
  -3  19   3    4.31    0.59
  -2 -19   3    1.84    0.42
   2 -19  -3    2.55    0.46
  -2  19   3    2.08    0.47
   1 -19  -3   35.67    1.27
  -1 -19   3   35.67    1.28
   1 -19  -3   33.46    0.99
  -1  19   3   34.34    1.34
   0 -19  -3   68.01    1.65
   0 -19  -3   69.41    1.92
   0 -19   3   64.33    1.89
   0  19  -3   65.75    1.86
   0  19   3   68.91    1.98
   1 -19   3    8.52    0.74
  -1 -19  -3    8.58    0.73
  -1 -19  -3    8.02    0.56
  -1  19  -3    8.14    0.63
   1  19   3    7.56    0.71
  -2 -19  -3   37.29    1.39
  -2 -19  -3   39.89    1.30
   2 -19   3   39.03    1.44
   2  19   3   36.30    1.41
  -2  19  -3   39.30    1.32
  -3 -19  -3   60.98    2.17
  -3 -19  -3   54.90    1.82
   3 -19   3   57.90    1.87
   3  19   3   59.97    1.89
   4 -19   3    6.45    0.71
  -4 -19  -3    5.52    0.67
   4  19   3    7.25    0.78
  -5 -19  -3   21.52    1.19
   5 -19   3   19.49    1.17
   5  19   3   21.38    1.19
   6 -19   3    5.98    0.81
  -6 -19  -3    4.46    0.71
   6  19   3    6.59    0.81
   7 -19   3    1.10    0.58
  -7 -19  -3    1.95    0.58
  -8 -20   3    7.22    0.88
  -8  20   3    6.97    0.93
  -7 -20   3    0.82    0.45
  -7  20   3    0.14    0.47
  -6 -20   3    1.02    0.44
  -6  20   3    0.56    0.46
   5 -20  -3   27.93    1.24
  -5 -20   3   28.71    1.29
  -5  20   3   29.02    1.36
  -4 -20   3   17.56    0.99
   4 -20  -3   19.10    1.01
  -4  20   3   19.07    1.10
  -3 -20   3   51.27    1.67
   3 -20  -3   52.80    1.67
  -3  20   3   51.78    1.74
   2 -20  -3    1.91    0.44
  -2 -20   3    1.72    0.44
  -2  20   3    1.56    0.46
   1 -20  -3   10.68    0.57
   1 -20  -3   11.41    0.81
  -1 -20   3   10.90    0.79
  -1  20   3   12.48    0.89
   0 -20   3    6.71    0.67
   0 -20  -3    6.95    0.50
   0 -20  -3    5.61    0.60
   0  20   3    6.06    0.65
  -1 -20  -3   50.67    1.43
   1 -20   3   50.11    1.67
  -1 -20  -3   50.06    1.63
   1  20   3   51.48    1.70
  -2 -20  -3    9.09    0.81
   2 -20   3   10.37    0.84
  -2 -20  -3    9.42    0.66
   2  20   3    8.57    0.79
   3 -20   3   40.33    1.52
  -3 -20  -3   41.42    1.53
  -3 -20  -3   38.19    1.77
   3  20   3   39.80    1.53
   4 -20   3    4.55    0.67
  -4 -20  -3    4.34    0.63
   4  20   3    3.82    0.62
  -5 -20  -3   21.05    1.21
   5 -20   3   21.39    1.21
   5  20   3   20.85    1.21
   6 -20   3    2.20    0.62
  -6 -20  -3    2.08    0.57
   6  20   3    2.02    0.59
  -7 -21   3    4.57    0.72
  -7  21   3    2.87    0.66
  -6 -21   3    4.12    0.65
  -6  21   3    3.53    0.68
   5 -21  -3   38.54    1.47
  -5 -21   3   37.15    1.50
  -5  21   3   35.14    1.56
  -4 -21   3    9.72    0.84
   4 -21  -3   11.48    0.87
  -4  21   3   11.20    0.92
   3 -21  -3    9.53    0.77
  -3 -21   3   11.41    0.84
  -3  21   3   11.33    0.88
  -2 -21   3    8.42    0.77
   2 -21  -3    8.62    0.75
  -2  21   3    8.67    0.81
   1 -21  -3   37.52    1.41
  -1 -21   3   39.42    1.43
  -1  21   3   38.32    1.46
   0 -21   3    4.61    0.59
   0 -21  -3    5.46    0.62
   0  21   3    5.85    0.70
   1 -21   3   24.35    1.17
  -1 -21  -3   25.41    0.93
  -1 -21  -3   24.88    1.14
   1  21   3   24.08    1.17
  -2 -21  -3    6.18    0.70
  -2 -21  -3    6.95    0.63
   2 -21   3    7.55    0.77
   2  21   3    6.95    0.77
  -3 -21  -3   38.10    1.81
   3 -21   3   37.93    1.51
  -3 -21  -3   36.95    1.35
  -3 -21  -3   38.59    1.49
   3  21   3   36.52    1.49
  -4 -21  -3    5.51    0.70
   4 -21   3    5.35    0.74
   4  21   3    6.38    0.76
  -5 -21  -3    0.55    0.47
   5 -21   3    0.67    0.49
   5  21   3   -0.30    0.37
  -6 -21  -3    5.85    0.80
   6 -21   3    9.04    0.98
   6  21   3    6.31    0.84
  -7 -22   3   -0.01    0.42
  -7  22   3   -0.35    0.48
  -6 -22   3    8.61    0.90
  -6  22   3    7.82    0.91
   5 -22  -3    7.63    0.78
  -5 -22   3    7.71    0.80
  -5  22   3    7.80    0.86
   4 -22  -3   26.86    1.23
  -4 -22   3   26.01    1.27
  -4  22   3   26.17    1.30
  -3 -22   3    9.71    0.82
   3 -22  -3    9.22    0.78
  -3  22   3   10.99    0.89
   2 -22  -3    8.98    0.77
  -2 -22   3   10.52    0.85
  -2  22   3   10.30    0.89
   1 -22  -3   14.03    0.90
  -1 -22   3   13.72    0.92
  -1  22   3   14.90    0.97
   0 -22  -3    0.38    0.36
   0 -22   3    0.53    0.38
   0  22   3    0.46    0.41
  -1 -22  -3   17.42    1.01
   1 -22   3   16.78    1.02
   1  22   3   18.34    1.07
  -2 -22  -3   25.17    1.23
  -2 -22  -3   25.15    1.03
   2 -22   3   25.21    1.25
   2  22   3   24.65    1.24
  -3 -22  -3    7.07    1.01
  -3 -22  -3    8.33    0.74
   3 -22   3   11.28    0.91
  -3 -22  -3    8.67    0.83
   3  22   3    7.31    0.79
   4 -22   3    1.47    0.54
  -4 -22  -3    1.33    0.48
   4  22   3    2.39    0.58
  -5 -22  -3    0.72    0.47
   5 -22   3    0.99    0.54
   5  22   3    1.49    0.51
  -6 -23   3    1.05    0.51
  -6  23   3    1.63    0.58
  -5 -23   3   12.10    0.96
  -5  23   3   12.71    1.09
  -4 -23   3    0.36    0.40
   4 -23  -3    0.54    0.40
  -4  23   3    0.24    0.42
  -3 -23   3   23.96    1.21
   3 -23  -3   24.65    1.19
  -3  23   3   25.71    1.30
  -2 -23   3    0.63    0.40
   2 -23  -3   -0.19    0.34
  -2  23   3   -0.24    0.38
   1 -23  -3   49.39    1.70
  -1 -23   3   48.54    1.69
  -1  23   3   46.82    1.71
   0 -23   3    9.67    0.86
   0 -23  -3    9.69    0.83
   0  23   3    9.76    0.89
  -1 -23  -3   12.60    0.90
   1 -23   3   12.85    0.94
   1  23   3   13.68    0.98
  -2 -23  -3   38.87    1.52
   2 -23   3   39.59    1.55
   2  23   3   33.20    1.48
  -3 -23  -3   38.94    1.95
  -3 -23  -3   36.43    1.61
   3 -23   3   40.51    1.62
  -3 -23  -3   40.31    1.59
   3  23   3   34.47    1.54
  -4 -23  -3    6.84    0.82
   4 -23   3    6.60    0.82
   4  23   3    6.64    0.80
   5 -23   3    6.10    0.82
  -5 -23  -3    8.13    0.88
   5  23   3    7.25    0.87
  -6 -24   3    1.63    0.56
  -6  24   3    1.15    0.58
  -5 -24   3   46.26    1.81
  -5  24   3   45.70    1.88
  -4 -24   3    0.28    0.41
   4 -24  -3    0.27    0.44
  -4  24   3   -0.13    0.43
  -3 -24   3   -0.24    0.40
   3 -24  -3   -0.48    0.32
  -3  24   3    0.33    0.43
   2 -24  -3   40.99    1.58
  -2 -24   3   41.39    1.59
  -2  24   3   40.19    1.63
  -1 -24   3    2.01    0.52
   1 -24  -3    2.30    0.52
  -1  24   3    2.84    0.57
   0 -24  -3    2.61    0.56
   0 -24   3    3.32    0.59
   0  24   3    2.48    0.57
  -1 -24  -3    9.41    0.87
   1 -24   3    7.69    0.81
   1  24   3    7.62    0.82
   2 -24   3   17.68    1.11
  -2 -24  -3   18.25    1.09
   2  24   3   17.17    1.11
  -3 -24  -3    3.35    0.64
   3 -24   3    2.69    0.61
  -3 -24  -3    2.60    0.80
   3  24   3    4.06    0.66
  -4 -24  -3   27.29    1.42
   4 -24   3   29.45    1.47
   4  24   3   29.61    1.47
  -5 -25   3    0.77    0.47
  -5  25   3    1.15    0.55
   4 -25  -3    3.44    0.94
  -4 -25   3    3.64    0.65
  -4  25   3    3.55    0.70
   3 -25  -3    5.02    0.68
  -3 -25   3    4.21    0.66
  -3  25   3    3.89    0.66
  -2 -25   3    8.35    0.85
   2 -25  -3    7.88    0.81
  -2  25   3    9.78    0.93
  -1 -25   3    0.12    0.40
   1 -25  -3    0.75    0.44
  -1  25   3    1.41    0.52
   0 -25  -3   21.62    1.15
   0 -25   3   21.76    1.19
   0  25   3   22.23    1.22
   1 -25   3    2.04    0.56
  -1 -25  -3    2.70    0.56
   1  25   3    2.47    0.57
  -2 -25  -3    4.23    0.68
   2 -25   3    3.41    0.64
   2  25   3    3.05    0.63
   3 -25   3    7.90    0.89
  -3 -25  -3    9.43    1.33
  -3 -25  -3   10.09    0.97
   3  25   3   11.80    1.02
   4 -25   3    0.78    0.52
  -4 -25  -3    0.73    0.50
   4  25   3    0.63    0.51
  -4 -26   3    0.69    0.47
  -4  26   3   -0.27    0.47
   3 -26  -3    1.52    0.54
  -3 -26   3    1.75    0.56
  -3  26   3    2.14    0.58
  -2 -26   3   17.02    1.11
   2 -26  -3   16.98    1.07
  -2  26   3   17.78    1.18
   1 -26  -3   17.37    1.11
  -1 -26   3   17.26    1.13
  -1  26   3   15.00    1.12
   0 -26   3    5.17    0.74
   0 -26  -3    3.50    0.63
   0  26   3    4.51    0.71
   1 -26   3   31.08    1.49
  -1 -26  -3   29.80    1.41
   1  26   3   28.88    1.43
  -2 -26  -3   21.65    1.23
   2 -26   3   20.49    1.27
   2  26   3   23.30    1.29
  -3 -26  -3   -0.39    0.43
   3 -26   3    0.55    0.48
   3  26   3    0.03    0.47
  -4 -27   3    0.33    0.48
  -4  27   3    0.48    0.55
  -3 -27   3    0.39    0.46
  -3  27   3    1.17    0.56
   2 -27  -3    1.07    0.48
  -2 -27   3    0.80    0.47
  -2  27   3    0.60    0.49
  -1 -27   3    9.85    0.98
   1 -27  -3   10.87    0.99
  -1  27   3    9.41    0.94
   0 -27   3    6.30    0.82
   0 -27  -3    4.18    0.69
   0  27   3    6.04    0.80
  -1 -27  -3    6.17    0.81
   1 -27   3    5.07    0.78
   1  27   3    5.46    0.78
  -2 -27  -3    6.68    0.84
   2 -27   3    5.14    0.78
   2  27   3    5.57    0.81
   2 -28  -3   13.55    1.41
  -2 -28   3   16.79    1.18
  -2  28   3   12.85    1.13
   1 -28  -3    5.62    0.79
  -1 -28   3    4.34    0.72
  -1  28   3    4.90    0.77
   0 -28   3    3.37    0.66
   0 -28  -3    3.08    0.66
   0  28   3    3.12    0.68
   1 -28   3   35.60    1.68
  -1 -28  -3   38.84    1.67
   1  28   3   34.63    1.63
 -11   0   4   -0.53    0.44
 -10   0   4    2.61    0.58
  -9   0   4    3.85    0.59
  -8   0   4   21.72    1.00
   8   0  -4   21.97    1.16
   7   0  -4    0.95    0.44
  -7   0   4    0.46    0.30
   6   0  -4    7.95    0.74
  -6   0   4    7.29    0.53
   5   0  -4   14.92    0.91
  -5   0   4   19.74    0.67
   4   0  -4  128.68    3.13
  -4   0   4  128.63    2.57
  -4   0   4  129.89    2.75
  -3   0   4    5.26    0.24
  -3   0   4    5.23    0.23
   3   0  -4    3.78    0.53
   2   0  -4  401.00    7.85
   2   0  -4  390.15    7.48
   1   0  -4    7.11    0.43
   1   0  -4    5.66    0.57
   0   0  -4   18.02    0.86
   0   0  -4   17.52    0.66
   0   0   4   16.76    0.44
   0   0   4   17.23    0.44
  -1   0  -4   18.10    0.49
   1   0   4   18.77    0.59
  -2   0  -4  519.72    9.63
   2   0   4  526.19    9.74
   3   0   4    3.44    0.39
  -3   0  -4    4.15    0.37
  -4   0  -4    0.71    0.25
   4   0   4    1.23    0.32
  -5   0  -4   61.22    1.67
   5   0   4   57.38    1.75
   6   0   4    5.91    0.67
  -6   0  -4    4.59    0.56
  -7   0  -4   16.18    0.97
   7   0   4   15.63    1.07
  -8   0  -4    4.35    0.65
   8   0   4    5.19    0.77
   9   0   4    5.26    0.79
 -11  -1   4    0.29    0.48
 -11   1   4   -0.47    0.43
 -10  -1   4    0.78    0.45
 -10   1   4    1.64    0.52
  -9  -1   4   46.27    1.64
  -9   1   4   46.63    1.64
   8  -1  -4    0.63    0.43
  -8  -1   4    0.45    0.33
  -8   1   4    0.95    0.38
   8   1  -4    0.41    0.39
  -7  -1   4   27.48    1.06
   7  -1  -4   27.62    1.31
   7   1  -4   28.56    1.25
  -7   1   4   28.99    1.08
  -6  -1   4   46.50    1.31
   6  -1  -4   46.75    1.67
   6   1  -4   47.95    1.63
  -6   1   4   46.69    1.32
   5  -1  -4    4.70    0.62
  -5  -1   4    3.83    0.35
  -5   1   4    3.98    0.36
   5   1  -4    4.15    0.57
  -4  -1   4   23.15    0.65
  -4  -1   4   23.63    0.67
   4  -1  -4   23.41    1.10
   4   1  -4   22.34    1.05
  -4   1   4   23.01    0.68
  -3  -1   4   94.23    1.79
   3  -1  -4   95.49    2.47
  -3   1   4   94.05    1.84
  -3   1   4   94.61    1.84
   3   1  -4   94.88    2.43
   2  -1  -4  170.79    3.46
   2  -1  -4  168.81    3.79
   2   1  -4  168.95    3.77
   2   1  -4  170.65    3.45
   1  -1  -4   40.40    1.09
   1  -1  -4   40.96    1.34
   1   1  -4   40.48    1.33
   1   1  -4   40.33    1.08
   0  -1   4    3.77    0.19
   0  -1   4    3.52    0.18
   0  -1  -4    3.07    0.31
   0  -1  -4    3.08    0.46
   0   1   4    3.64    0.21
   0   1   4    3.87    0.22
   0   1  -4    3.61    0.34
  -1  -1  -4    7.97    0.32
   1  -1   4    8.57    0.40
   1   1   4    8.32    0.41
  -1   1  -4    8.12    0.37
   2  -1   4  105.88    2.30
  -2  -1  -4  109.83    2.23
   2   1   4  106.23    2.31
  -2   1  -4  108.57    2.21
  -3  -1  -4   22.69    0.76
   3  -1   4   23.37    0.85
  -3   1  -4   21.34    0.74
   3   1   4   22.25    0.83
  -4  -1  -4    2.79    0.38
   4  -1   4    3.18    0.44
  -4   1  -4    2.71    0.36
   4   1   4    2.17    0.37
  -5  -1  -4   42.43    1.32
   5  -1   4   42.05    1.42
  -5   1  -4   40.69    1.31
   5   1   4   41.34    1.43
  -6  -1  -4    6.12    0.62
   6  -1   4    6.04    0.69
   6   1   4    4.84    0.63
  -6   1  -4    5.51    0.59
  -7  -1  -4   24.94    1.15
   7  -1   4   24.89    1.25
   7   1   4   25.23    1.26
  -7   1  -4   23.95    1.15
   8  -1   4    1.63    0.55
  -8  -1  -4    1.52    0.52
  -8   1  -4    2.41    0.54
   8   1   4    1.69    0.57
   9  -1   4    6.10    0.87
   9   1   4    4.94    0.84
 -11  -2   4    2.21    0.61
 -11   2   4    2.03    0.60
 -10  -2   4    5.87    0.73
 -10   2   4    6.89    0.79
  -9  -2   4    4.78    0.61
   9  -2  -4    6.02    0.81
  -9   2   4    6.11    0.68
   8  -2  -4    1.95    0.55
  -8  -2   4    1.84    0.42
   8   2  -4    2.21    0.49
  -8   2   4    2.08    0.45
  -7  -2   4   20.33    0.91
   7  -2  -4   20.69    1.18
   7   2  -4   22.41    1.09
  -7   2   4   21.85    0.94
   6  -2  -4   29.53    1.33
  -6  -2   4   32.08    1.01
   6   2  -4   30.11    1.24
  -6   2   4   29.56    1.01
   5  -2  -4    9.07    0.78
  -5  -2   4    9.69    0.49
   5   2  -4    8.30    0.68
  -5   2   4   10.07    0.52
  -4  -2   4   56.43    1.25
   4  -2  -4   57.96    1.82
  -4  -2   4   55.12    1.25
   4   2  -4   58.82    1.74
  -4   2   4   54.43    1.29
   3  -2  -4   15.20    0.91
  -3  -2   4   13.77    0.36
  -3   2   4   13.94    0.44
  -3   2   4   13.22    0.44
   3   2  -4   14.12    0.83
   2  -2  -4  147.07    3.07
   2  -2  -4  151.11    3.44
  -2   2   4  149.99    2.74
   2   2  -4  149.11    3.06
   2   2  -4  144.49    3.36
   1  -2  -4   93.74    2.35
   1  -2  -4   91.21    2.03
  -1   2   4   92.15    1.73
   1   2  -4   89.36    2.00
  -1   2   4   93.02    1.73
   0  -2  -4    1.16    0.36
   0  -2   4    0.90    0.11
   0  -2  -4    0.96    0.25
   0  -2   4    1.18    0.12
   0   2   4    0.97    0.15
   0   2  -4    1.00    0.23
   0   2   4    0.96    0.15
  -1  -2  -4   31.92    1.16
   1  -2   4   35.17    0.87
  -1  -2  -4   33.81    0.81
   1   2   4   34.40    0.89
  -1   2  -4   34.30    1.01
   2  -2   4   21.38    0.75
  -2  -2  -4   22.42    0.69
   2   2   4   21.66    0.76
  -2   2  -4   20.67    0.65
  -3  -2  -4    8.51    0.48
   3  -2   4    9.10    0.56
   3   2   4    9.40    0.58
  -3   2  -4    8.97    0.47
   4  -2   4   27.36    1.00
  -4  -2  -4   25.01    0.91
  -4   2  -4   25.76    0.90
   4   2   4   25.81    0.99
  -5  -2  -4    8.92    0.65
   5  -2   4    8.22    0.70
  -5   2  -4    9.01    0.64
   5   2   4    9.63    0.77
  -6  -2  -4    7.12    0.67
   6  -2   4    7.06    0.71
  -6   2  -4    6.54    0.64
   6   2   4    4.61    0.62
   7  -2   4    4.45    0.68
  -7  -2  -4    4.06    0.59
  -7   2  -4    4.50    0.62
   7   2   4    3.91    0.63
  -8  -2  -4    5.83    0.73
   8  -2   4    5.33    0.75
  -8   2  -4    5.24    0.70
   8   2   4    4.86    0.75
   9  -2   4    3.55    0.74
   9   2   4    3.51    0.72
 -10  -3   4    1.73    0.51
 -10   3   4    1.40    0.51
  -9  -3   4    7.09    0.74
   9  -3  -4    7.62    0.93
  -9   3   4    6.56    0.74
  -8  -3   4   25.06    1.07
   8  -3  -4   21.58    1.28
  -8   3   4   23.85    1.09
  -7  -3   4    7.51    0.61
   7  -3  -4    8.24    0.87
   7   3  -4    8.40    0.71
  -7   3   4    7.41    0.64
   6  -3  -4   37.84    0.98
   6  -3  -4   37.53    1.54
  -6  -3   4   37.63    1.13
   6   3  -4   37.08    1.36
  -6   3   4   36.68    1.16
  -5  -3   4   30.52    0.90
   5  -3  -4   29.96    1.32
   5   3  -4   31.01    1.21
  -5   3   4   30.59    0.94
  -4  -3   4    6.84    0.36
   4  -3  -4    6.36    0.72
  -4  -3   4    6.46    0.35
  -4   3   4    6.34    0.40
   4   3  -4    7.34    0.64
   3  -3  -4   48.17    1.62
  -3  -3   4   45.35    0.94
  -3   3   4   47.05    1.05
  -3   3   4   45.26    1.05
   3   3  -4   46.15    1.51
   2  -3  -4   86.86    1.97
   2  -3  -4   85.32    2.29
   2   3  -4   86.94    1.95
  -2   3   4   87.13    1.69
   1  -3  -4   19.46    0.70
   1  -3  -4   18.20    0.92
  -1   3   4   19.75    0.50
  -1   3   4   19.62    0.49
   1   3  -4   19.61    0.68
   0  -3  -4   17.64    0.86
   0  -3   4   18.14    0.45
   0  -3  -4   18.86    0.71
   0  -3   4   17.60    0.45
   0   3   4   17.79    0.53
   0   3  -4   18.03    0.66
  -1  -3  -4   48.42    1.46
  -1  -3  -4   46.46    1.06
   1  -3   4   47.04    1.10
  -1   3  -4   46.20    1.24
   1   3   4   46.76    1.15
  -2  -3  -4   62.38    1.43
   2  -3   4   61.00    1.48
   2   3   4   62.44    1.52
  -2   3  -4   61.73    1.38
  -3  -3  -4    2.33    0.31
   3  -3   4    2.70    0.35
   3   3   4    2.28    0.36
  -3   3  -4    2.90    0.32
   4  -3   4   26.93    1.03
  -4  -3  -4   28.10    0.96
  -4   3  -4   26.79    0.93
   4   3   4   28.95    1.06
  -5  -3  -4   76.31    1.98
   5  -3   4   75.27    2.06
  -5   3  -4   76.60    1.97
   5   3   4   76.15    2.08
   6  -3   4    3.99    0.58
  -6  -3  -4    4.37    0.55
  -6   3  -4    5.34    0.59
   6   3   4    4.56    0.63
  -7  -3  -4    5.38    0.65
   7  -3   4    6.04    0.74
   7   3   4    5.85    0.73
  -7   3  -4    6.01    0.69
  -8  -3  -4   14.27    1.02
   8  -3   4   16.41    1.11
   8   3   4   15.88    1.10
  -8   3  -4   16.75    1.04
   9  -3   4    8.12    0.96
   9   3   4    8.30    0.99
 -10  -4   4    1.43    0.51
 -10   4   4    2.47    0.60
   9  -4  -4    3.70    0.73
  -9  -4   4    2.45    0.51
  -9   4   4    3.46    0.60
  -8  -4   4    3.23    0.50
   8  -4  -4    4.49    0.77
  -8   4   4    4.32    0.57
   7  -4  -4   21.97    1.30
  -7  -4   4   23.35    0.95
  -7   4   4   21.96    0.98
   6  -4  -4   13.81    0.98
   6  -4  -4   13.48    0.56
  -6  -4   4   13.11    0.66
  -6   4   4   13.20    0.69
   5  -4  -4    3.65    0.59
   5  -4  -4    4.38    0.31
  -5  -4   4    4.68    0.38
  -5   4   4    4.22    0.40
   4  -4  -4    7.06    0.75
  -4  -4   4    8.02    0.39
  -4   4   4    8.04    0.45
  -3  -4   4  267.77    4.89
   3  -4  -4  265.84    5.69
  -3   4   4  264.25    5.01
   2  -4  -4   17.70    1.00
   2  -4  -4   18.89    0.73
  -2   4   4   18.23    0.54
  -2   4   4   20.24    0.54
   1  -4  -4  169.54    3.72
   1  -4  -4  161.04    3.35
   1   4  -4  158.63    3.28
  -1   4   4  167.42    3.12
   0  -4  -4   21.97    0.80
   0  -4  -4   22.77    0.99
   0  -4   4   21.94    0.55
   0  -4   4   22.36    0.55
   0  -4  -4   21.41    0.55
   0   4  -4   21.47    0.73
   0   4   4   22.14    0.64
  -1  -4  -4   31.67    1.13
  -1  -4  -4   29.33    0.79
   1  -4   4   29.95    0.81
   1   4   4   29.79    0.87
  -1   4  -4   31.87    0.94
  -2  -4  -4   34.94    1.16
   2  -4   4   34.76    0.99
  -2  -4  -4   34.81    0.95
  -2   4  -4   34.79    0.90
   2   4   4   33.95    1.01
   3  -4   4   64.47    1.62
  -3  -4  -4   61.02    1.55
   3   4   4   66.25    1.66
  -3   4  -4   62.93    1.52
  -4  -4  -4    6.61    0.51
   4  -4   4    6.18    0.55
  -4   4  -4    6.29    0.50
   4   4   4    5.86    0.56
  -5  -4  -4   87.45    2.16
   5  -4   4   85.10    2.24
  -5   4  -4   83.25    2.11
   5   4   4   80.77    2.22
   6  -4   4    6.82    0.73
  -6  -4  -4    5.09    0.58
  -6   4  -4    7.36    0.67
   6   4   4    7.72    0.77
  -7  -4  -4    7.33    0.75
   7  -4   4    7.26    0.80
   7   4   4    5.98    0.74
  -7   4  -4    7.79    0.75
   8  -4   4    5.60    0.77
  -8  -4  -4    6.96    0.76
  -8   4  -4    6.97    0.81
   8   4   4    7.47    0.86
   9  -4   4   18.69    1.30
 -10  -5   4    9.14    0.90
 -10   5   4    8.07    0.84
   9  -5  -4   25.50    1.49
  -9  -5   4   26.27    1.22
  -9   5   4   24.56    1.21
  -8  -5   4    0.79    0.37
   8  -5  -4    1.63    0.61
  -8   5   4    0.83    0.41
   7  -5  -4    0.79    0.51
  -7  -5   4    0.59    0.32
  -7   5   4    0.42    0.34
  -6  -5   4   11.20    0.62
   6  -5  -4   11.13    0.97
   6  -5  -4   12.72    0.56
  -6   5   4   10.56    0.65
   5  -5  -4   11.94    0.48
   5  -5  -4   12.55    0.93
  -5  -5   4   12.38    0.56
  -5   5   4   12.84    0.61
   4  -5  -4    1.00    0.47
  -4  -5   4    0.97    0.19
   4  -5  -4    1.12    0.18
  -4   5   4    0.99    0.24
  -3  -5   4  181.55    3.35
  -3  -5   4  177.84    3.35
   3  -5  -4  177.69    4.14
  -3   5   4  175.30    3.48
   2  -5  -4  218.75    4.72
   2  -5  -4  208.69    4.25
  -2   5   4  213.28    4.06
  -1  -5   4   14.91    0.34
  -1  -5   4   14.69    0.34
   1  -5  -4   14.94    0.65
   1  -5  -4   14.09    0.89
   1   5  -4   14.40    0.58
   0  -5   4   36.87    0.84
   0  -5  -4   36.87    0.85
   0  -5  -4   36.33    1.08
   0  -5  -4   34.33    1.29
   0  -5   4   37.30    0.84
   0   5  -4   37.33    1.00
  -1  -5  -4   10.18    0.71
   1  -5   4   11.19    0.48
  -1  -5  -4   11.33    0.46
  -1   5  -4   11.07    0.53
   1   5   4   10.27    0.53
  -2  -5  -4    3.87    0.46
  -2  -5  -4    4.03    0.36
   2  -5   4    3.80    0.35
  -2   5  -4    3.83    0.32
   2   5   4    3.75    0.39
   3  -5   4   26.96    0.92
  -3  -5  -4   26.16    0.88
  -3   5  -4   26.13    0.83
   3   5   4   25.29    0.95
   4  -5   4   10.55    0.69
  -4  -5  -4   10.75    0.63
  -4   5  -4   10.82    0.60
   4   5   4   12.26    0.72
   5  -5   4    6.01    0.64
  -5  -5  -4    5.56    0.55
   5   5   4    5.42    0.62
  -5   5  -4    4.55    0.50
   6  -5   4   18.08    1.01
  -6  -5  -4   16.26    0.92
   6   5   4   18.13    1.02
  -6   5  -4   17.71    0.91
   7  -5   4    9.24    0.86
  -7  -5  -4   10.45    0.84
  -7   5  -4   12.18    0.86
   7   5   4   11.75    0.96
   8  -5   4    3.60    0.68
  -8  -5  -4    3.28    0.59
   8   5   4    4.63    0.72
   9  -5   4    9.90    1.03
 -10  -6   4   11.38    0.97
 -10   6   4   11.64    1.05
  -9  -6   4    9.96    0.81
   9  -6  -4    7.70    0.99
  -9   6   4    7.21    0.77
   8  -6  -4   -0.03    0.47
  -8  -6   4    0.10    0.32
  -8   6   4    0.15    0.38
   7  -6  -4    3.18    0.68
  -7  -6   4    2.84    0.44
  -7   6   4    2.98    0.47
  -6  -6   4    2.06    0.35
   6  -6  -4    1.91    0.55
   6  -6  -4    2.62    0.32
  -6   6   4    2.34    0.39
   5  -6  -4   12.50    0.98
   5  -6  -4   14.21    0.54
  -5  -6   4   13.81    0.59
  -5   6   4   12.46    0.63
   4  -6  -4    3.25    0.28
   4  -6  -4    3.02    0.59
  -4  -6   4    3.52    0.30
  -4   6   4    3.40    0.35
  -3  -6   4    2.43    0.22
  -3  -6   4    2.26    0.21
   3  -6  -4    2.94    0.63
   3  -6  -4    2.43    0.22
  -3   6   4    3.38    0.33
  -2  -6   4   23.24    0.55
   2  -6  -4   22.37    1.17
   2  -6  -4   23.36    0.60
  -2  -6   4   23.14    0.55
   2  -6  -4   23.45    0.83
  -2   6   4   23.63    0.71
   1  -6  -4   31.50    1.27
  -1  -6   4   33.89    0.74
   1  -6  -4   34.19    1.01
   1  -6  -4   33.90    0.79
  -1  -6   4   33.88    0.74
   1   6  -4   32.52    0.92
   0  -6  -4   30.07    1.23
   0  -6  -4   30.58    0.78
   0  -6  -4   30.29    0.97
   0  -6   4   31.07    0.77
   0  -6   4   29.00    0.75
   0   6  -4   31.13    0.87
  -1  -6  -4   14.62    0.83
   1  -6   4   16.17    0.57
  -1  -6  -4   15.23    0.56
  -1   6  -4   14.43    0.60
  -1   6  -4   14.86    0.46
   2  -6   4   72.11    1.74
  -2  -6  -4   77.46    1.96
  -2  -6  -4   74.22    1.71
   2   6   4   75.13    1.80
  -2   6  -4   74.26    1.63
  -3  -6  -4   60.10    1.52
   3  -6   4   58.47    1.56
   3   6   4   58.84    1.59
  -3   6  -4   59.19    1.45
   4  -6   4   10.20    0.67
  -4  -6  -4    9.97    0.61
  -4   6  -4    9.89    0.58
   4   6   4   10.49    0.69
   5  -6   4    5.60    0.61
  -5  -6  -4    7.55    0.66
  -5   6  -4    7.21    0.61
   5   6   4    6.68    0.69
  -6  -6  -4    9.74    0.76
   6  -6   4   11.08    0.85
   6   6   4    8.10    0.76
  -6   6  -4    8.78    0.71
   7  -6   4    6.98    0.80
  -7  -6  -4    6.13    0.69
  -7   6  -4    5.14    0.65
  -8  -6  -4    1.38    0.49
   8  -6   4    1.26    0.56
   9  -6   4    3.81    0.71
 -10  -7   4    9.00    0.89
 -10   7   4    8.10    0.90
  -9  -7   4   22.64    1.14
   9  -7  -4   24.19    1.52
  -9   7   4   23.22    1.19
  -8  -7   4    1.74    0.44
   8  -7  -4    2.13    0.67
  -8   7   4    1.34    0.46
   7  -7  -4    4.61    0.80
  -7  -7   4    4.63    0.52
  -7   7   4    4.79    0.56
   6  -7  -4    3.71    0.75
   6  -7  -4    3.68    0.38
  -6  -7   4    3.64    0.42
  -6   7   4    3.27    0.46
   5  -7  -4   72.71    1.65
  -5  -7   4   71.85    1.71
   5  -7  -4   70.00    2.37
  -5   7   4   73.65    1.81
  -4  -7   4   11.00    0.48
   4  -7  -4   10.75    0.45
   4  -7  -4   10.83    0.94
  -4   7   4   10.97    0.56
  -3  -7   4    0.93    0.18
   3  -7  -4    0.46    0.47
   3  -7  -4    0.68    0.18
  -3  -7   4    0.78    0.17
  -3   7   4    0.64    0.24
   2  -7  -4    2.90    0.35
   2  -7  -4    3.17    0.27
  -2  -7   4    3.11    0.25
   2  -7  -4    2.88    0.57
  -2  -7   4    3.23    0.24
  -2   7   4    2.61    0.30
   1  -7  -4   17.72    0.73
   1  -7  -4   19.20    1.07
   1  -7  -4   19.29    0.57
  -1  -7   4   19.44    0.54
  -1  -7   4   18.49    0.53
   1   7  -4   18.97    0.66
   0  -7  -4    2.82    0.27
   0  -7  -4    2.90    0.56
   0  -7   4    2.70    0.25
   0  -7  -4    2.98    0.37
   0   7  -4    2.78    0.30
  -1  -7  -4   78.02    1.72
  -1  -7  -4   78.73    2.10
   1  -7   4   77.68    1.72
  -1   7  -4   75.68    1.58
  -1   7  -4   76.22    1.75
   2  -7   4   23.81    0.80
  -2  -7  -4   19.32    0.90
  -2  -7  -4   23.93    0.79
  -2   7  -4   22.96    0.70
  -3  -7  -4   20.86    0.84
   3  -7   4   19.96    0.81
  -3  -7  -4   20.73    0.80
  -3   7  -4   21.02    0.75
   4  -7   4    7.02    0.60
  -4  -7  -4    6.95    0.56
  -4   7  -4    6.74    0.52
  -5  -7  -4   31.07    1.15
   5  -7   4   29.32    1.19
  -5   7  -4   28.36    1.08
   6  -7   4    9.05    0.83
  -6  -7  -4    7.80    0.73
  -6   7  -4    7.27    0.67
  -7  -7  -4   14.55    0.94
   7  -7   4   17.17    1.11
  -7   7  -4   15.48    0.96
  -8  -7  -4    1.73    0.53
   8  -7   4    1.63    0.56
  10  -8  -4   10.30    1.18
 -10  -8   4    9.72    0.95
 -10   8   4    8.72    0.96
   9  -8  -4   39.54    1.96
  -9  -8   4   41.27    1.56
  -9   8   4   40.06    1.58
  -8  -8   4   42.56    1.50
   8  -8  -4   42.00    2.00
  -8   8   4   44.62    1.58
  -7  -8   4    1.15    0.36
   7  -8  -4    1.79    0.67
  -7   8   4    1.81    0.43
  -6  -8   4   19.76    0.83
   6  -8  -4   18.46    0.75
   6  -8  -4   20.36    1.36
  -6   8   4   20.89    0.92
   5  -8  -4    4.53    0.80
   5  -8  -4    4.83    0.38
  -5  -8   4    4.13    0.39
  -5   8   4    4.48    0.45
  -4  -8   4   13.68    0.56
   4  -8  -4   13.37    1.00
   4  -8  -4   14.27    0.55
  -4   8   4   15.29    0.67
  -3  -8   4    1.17    0.20
   3  -8  -4    0.69    0.49
  -3  -8   4    0.84    0.26
   3  -8  -4    1.07    0.21
  -3   8   4    0.93    0.26
   2  -8  -4  255.92    4.85
   2  -8  -4  252.15    5.03
  -2  -8   4  254.58    4.80
  -2  -8   4  255.78    4.80
   2  -8  -4  258.44    5.68
  -2   8   4  257.56    4.96
   1  -8  -4   12.81    0.61
   1  -8  -4   13.84    0.98
  -1  -8   4   12.89    0.46
  -1  -8   4   13.37    0.46
   1  -8  -4   13.25    0.50
   1   8  -4   13.05    0.54
  -1   8   4   12.32    0.57
   0  -8  -4    5.93    0.72
   0  -8   4    7.26    0.39
   0  -8  -4    7.08    0.50
   0  -8  -4    6.73    0.39
   0   8  -4    7.48    0.41
  -1  -8  -4   14.42    0.68
  -1  -8  -4   11.79    0.80
   1  -8   4   13.10    0.56
  -1  -8  -4   14.03    0.57
  -1   8  -4   13.99    0.46
  -1   8  -4   13.97    0.56
   2  -8   4   57.70    1.50
  -2  -8  -4   58.16    1.48
  -2  -8  -4   60.65    1.72
  -2   8  -4   60.82    1.39
  -3  -8  -4    3.70    0.46
   3  -8   4    4.01    0.44
  -3  -8  -4    4.98    0.46
  -3   8  -4    4.75    0.40
   4  -8   4    6.75    0.60
  -4  -8  -4    7.21    0.56
  -4   8  -4    8.16    0.55
  -5  -8  -4   21.05    0.98
   5  -8   4   20.16    1.01
  -5   8  -4   20.45    0.91
   6  -8   4   34.09    1.40
  -6  -8  -4   33.99    1.31
  -6   8  -4   32.27    1.25
   7  -8   4   21.45    1.22
  -7  -8  -4   21.03    1.12
  -7   8  -4   20.74    1.11
  -8  -8  -4    2.77    0.60
   8  -8   4    2.80    0.64
 -10  -9   4    4.21    0.69
  10  -9  -4    3.88    0.88
 -10   9   4    3.49    0.68
  -9  -9   4    9.15    0.85
   9  -9  -4    9.51    1.15
  -9   9   4   10.60    0.91
   8  -9  -4    5.72    0.96
  -8  -9   4    6.32    0.67
  -8   9   4    6.09    0.68
   7  -9  -4    4.39    0.87
  -7  -9   4    4.12    0.53
  -7   9   4    3.83    0.53
  -6  -9   4    1.45    0.34
   6  -9  -4    1.55    0.31
   6  -9  -4    1.38    0.60
  -6   9   4    1.28    0.39
   5  -9  -4   14.16    1.17
   5  -9  -4   13.46    0.60
  -5  -9   4   13.52    0.65
  -5   9   4   13.25    0.72
   4  -9  -4   33.54    0.95
  -4  -9   4   33.78    0.97
   4  -9  -4   34.10    1.58
  -4   9   4   35.38    1.09
   3  -9  -4   17.62    1.17
  -3  -9   4   18.05    0.61
   3  -9  -4   17.92    0.62
  -3   9   4   18.50    0.72
   2  -9  -4   89.40    2.65
   2  -9  -4   91.12    2.07
  -2  -9   4   89.47    1.89
   2  -9  -4   88.70    1.92
  -2   9   4   92.72    2.04
   1  -9  -4   23.23    0.71
   1  -9  -4   23.34    1.22
  -1  -9   4   22.93    0.68
   1  -9  -4   23.44    0.82
  -1   9   4   23.81    0.81
   0  -9  -4  129.74    2.80
   0  -9   4  127.02    2.62
   0  -9  -4  129.04    3.21
   0  -9  -4  129.23    2.66
   0   9  -4  128.17    2.60
  -1  -9  -4   46.57    1.55
  -1  -9  -4   44.09    1.18
  -1  -9  -4   44.07    1.31
   1  -9   4   47.01    1.20
  -1   9  -4   44.25    1.13
  -1   9  -4   45.70    1.06
  -2  -9  -4    7.62    0.48
  -2  -9  -4    7.44    0.63
   2  -9   4    6.72    0.48
  -2   9  -4    6.83    0.44
  -2   9  -4    7.86    0.43
  -3  -9  -4    8.36    0.60
   3  -9   4    8.76    0.60
  -3  -9  -4    8.84    0.56
  -3   9  -4    9.40    0.53
  -4  -9  -4   18.27    0.86
   4  -9   4   20.73    0.95
  -4   9  -4   19.54    0.82
  -5  -9  -4    1.76    0.42
   5  -9   4    2.80    0.49
  -5   9  -4    2.23    0.41
  -6  -9  -4   25.34    1.17
   6  -9   4   26.12    1.22
  -6   9  -4   26.17    1.12
   7  -9   4   17.19    1.13
  -7  -9  -4   16.47    1.01
  -8  -9  -4    2.57    0.61
   8  -9   4    2.96    0.66
 -10 -10   4   21.62    1.24
  10 -10  -4   18.33    1.50
 -10  10   4   15.63    1.15
   9 -10  -4    1.61    0.70
  -9 -10   4    3.50    0.59
  -9  10   4    2.71    0.59
  -8 -10   4    0.58    0.37
   8 -10  -4    0.16    0.57
  -8  10   4    0.31    0.40
  -7 -10   4   20.82    0.98
   7 -10  -4   20.42    1.50
  -7  10   4   20.83    1.03
  -6 -10   4    9.98    0.65
   6 -10  -4   10.68    1.16
   6 -10  -4    9.04    0.57
  -6  10   4   10.06    0.73
   5 -10  -4   97.98    3.13
  -5 -10   4  100.31    2.28
   5 -10  -4   98.72    2.22
  -5  10   4   98.46    2.38
   4 -10  -4   21.62    0.74
  -4 -10   4   20.64    0.75
   4 -10  -4   20.15    1.32
  -4  10   4   20.59    0.83
   3 -10  -4   13.24    0.55
  -3 -10   4   12.68    0.53
   3 -10  -4   13.70    1.09
  -3  10   4   11.26    0.62
  -2 -10   4  108.60    2.27
   2 -10  -4  107.84    2.41
   2 -10  -4  108.79    2.30
   2 -10  -4  112.24    3.10
  -2  10   4  108.76    2.41
   1 -10  -4    0.76    0.21
  -1 -10   4    1.01    0.21
   1 -10  -4    1.14    0.26
   1 -10  -4    0.85    0.46
  -1  10   4    0.56    0.26
   0 -10  -4   12.23    0.54
   0 -10   4   12.08    0.53
   0 -10  -4   12.16    0.90
   0 -10  -4   12.23    0.62
   0  10  -4   13.26    0.50
  -1 -10  -4   10.60    0.62
  -1 -10  -4   10.07    0.78
  -1 -10  -4   10.30    0.53
   1 -10   4    9.84    0.53
  -1  10  -4   10.59    0.46
  -1  10  -4   10.24    0.43
  -2 -10  -4    4.10    0.54
  -2 -10  -4    3.73    0.38
   2 -10   4    3.28    0.38
  -2  10  -4    4.07    0.35
  -2  10  -4    3.44    0.34
  -3 -10  -4    1.58    0.38
  -3 -10  -4    2.23    0.37
   3 -10   4    1.89    0.37
  -3  10  -4    1.54    0.30
   4 -10   4   15.10    0.85
  -4 -10  -4   16.41    0.72
  -4 -10  -4   16.38    0.83
  -4  10  -4   14.89    0.75
   5 -10   4   12.65    0.85
  -5 -10  -4   12.19    0.80
  -5  10  -4   12.43    0.74
   6 -10   4   48.96    1.72
  -6 -10  -4   49.13    1.67
  -6  10  -4   47.03    1.57
   7 -10   4   11.87    1.04
  -7 -10  -4   11.17    0.91
  -8 -10  -4    2.30    0.58
   8 -10   4    2.22    0.61
 -10 -11   4    9.48    0.93
  10 -11  -4    9.16    1.27
 -10  11   4    9.78    0.98
   9 -11  -4    5.57    1.06
  -9 -11   4    5.57    0.70
  -9  11   4    5.41    0.77
  -8 -11   4    1.34    0.43
   8 -11  -4    1.33    0.70
  -8  11   4    1.66    0.49
   7 -11  -4   17.01    1.45
  -7 -11   4   17.62    0.91
  -7  11   4   16.80    0.99
  -6 -11   4   26.97    1.05
   6 -11  -4   27.82    1.70
   6 -11  -4   27.44    0.99
  -6  11   4   27.85    1.15
   5 -11  -4    3.39    0.84
   5 -11  -4    3.64    0.40
  -5 -11   4    3.06    0.40
  -5  11   4    2.75    0.43
  -4 -11   4   42.28    1.20
   4 -11  -4   44.85    1.97
   4 -11  -4   43.64    1.20
  -4  11   4   43.16    1.31
   3 -11  -4    5.96    0.89
  -3 -11   4    5.70    0.40
   3 -11  -4    5.99    0.41
  -3  11   4    5.59    0.50
   2 -11  -4   66.81    2.27
  -2 -11   4   64.66    1.51
   2 -11  -4   64.39    1.62
   2 -11  -4   63.92    1.55
  -2  11   4   64.50    1.63
   1 -11  -4   33.21    1.51
   1 -11  -4   33.10    0.96
   1 -11  -4   31.72    1.01
  -1 -11   4   33.66    0.93
  -1  11   4   32.58    1.03
   0 -11  -4   17.10    1.05
   0 -11  -4   16.82    0.66
   0 -11   4   16.09    0.63
   0 -11  -4   16.06    0.71
   0  11  -4   16.69    0.55
   1 -11   4  110.10    2.46
  -1 -11  -4  112.56    2.58
  -1 -11  -4  111.76    2.92
  -1 -11  -4  108.28    2.45
  -1  11  -4  114.58    2.31
  -1  11  -4  112.55    2.31
  -2 -11  -4   51.24    1.39
  -2 -11  -4   49.17    1.65
   2 -11   4   47.65    1.37
  -2  11  -4   48.68    1.24
  -2  11  -4   49.37    1.26
  -3 -11  -4   23.92    1.02
   3 -11   4   23.76    0.95
  -3 -11  -4   23.32    0.94
  -3  11  -4   24.00    0.86
   4 -11   4   17.08    0.89
  -4 -11  -4   16.32    0.84
  -4 -11  -4   15.81    0.74
  -4  11  -4   15.93    0.79
   5 -11   4    4.59    0.60
  -5 -11  -4    6.67    0.67
  -5  11  -4    5.01    0.55
  -6 -11  -4   29.69    1.26
   6 -11   4   26.34    1.30
  -6  11  -4   27.67    1.23
  -7 -11  -4    1.75    0.49
   7 -11   4    2.10    0.57
  -8 -11  -4    5.26    0.75
   8 -11   4    5.73    0.81
 -10 -12   4    3.17    0.66
  10 -12  -4    2.61    0.85
 -10  12   4    2.44    0.66
   9 -12  -4    3.40    0.91
  -9 -12   4    3.18    0.57
  -9  12   4    3.26    0.67
  -8 -12   4    4.36    0.59
   8 -12  -4    4.79    1.04
  -8  12   4    5.12    0.69
  -7 -12   4    5.12    0.58
   7 -12  -4    4.85    0.98
  -7  12   4    4.51    0.62
   6 -12  -4    5.44    0.51
   6 -12  -4    6.48    1.10
  -6 -12   4    5.49    0.56
  -6  12   4    4.46    0.59
  -5 -12   4   28.09    0.99
   5 -12  -4   26.63    1.67
   5 -12  -4   25.58    0.93
  -5  12   4   25.79    1.07
  -4 -12   4    2.01    0.32
   4 -12  -4    2.34    0.34
   4 -12  -4    2.25    0.69
  -4  12   4    2.54    0.42
  -3 -12   4    5.73    0.43
   3 -12  -4    5.75    0.44
  -3  12   4    5.01    0.47
   2 -12  -4   25.88    0.86
   2 -12  -4   28.11    1.50
  -2 -12   4   24.72    0.83
   2 -12  -4   26.60    0.89
  -2  12   4   26.14    0.94
   1 -12  -4  158.41    3.99
   1 -12  -4  153.97    3.26
   1 -12  -4  153.50    3.22
  -1 -12   4  157.46    3.20
  -1  12   4  152.70    3.31
   0 -12  -4    3.72    0.37
   0 -12   4    3.89    0.37
   0 -12  -4    4.40    0.69
   0 -12  -4    4.01    0.41
   0  12   4    4.20    0.46
   0  12  -4    3.66    0.29
   0  12  -4    3.20    0.28
   1 -12   4  105.48    2.37
  -1 -12  -4  103.33    2.44
  -1 -12  -4  107.04    2.38
  -1 -12  -4  101.37    2.83
  -1  12  -4  101.64    2.14
  -1  12  -4  105.79    2.21
  -2 -12  -4   34.30    1.36
   2 -12   4   33.35    1.11
  -2 -12  -4   34.23    1.12
  -2  12  -4   34.76    0.96
  -2  12  -4   33.41    0.99
  -3 -12  -4   60.42    1.69
  -3 -12  -4   63.94    1.84
   3 -12   4   57.13    1.69
  -3  12  -4   61.52    1.58
  -4 -12  -4   12.81    0.76
   4 -12   4   12.91    0.83
  -4 -12  -4   12.16    0.69
  -4  12  -4   11.96    0.70
   5 -12   4    4.19    0.61
  -5 -12  -4    5.66    0.63
  -5  12  -4    5.08    0.58
  -6 -12  -4    4.28    0.60
   6 -12   4    3.35    0.60
  -7 -12  -4   10.22    0.88
   7 -12   4    9.41    0.92
   8 -12   4    4.17    0.72
  -8 -12  -4    4.59    0.72
   9 -13  -4    3.65    0.98
  -9 -13   4    4.95    0.71
  -9  13   4    5.05    0.76
   8 -13  -4    0.65    0.71
  -8 -13   4    0.74    0.40
  -8  13   4    0.00    0.43
   7 -13  -4    1.76    0.78
  -7 -13   4    2.82    0.50
  -7  13   4    1.96    0.51
  -6 -13   4   92.46    2.35
   6 -13  -4   90.92    3.28
   6 -13  -4   94.79    2.30
  -6  13   4   92.80    2.46
  -5 -13   4   14.43    0.76
   5 -13  -4   13.54    0.70
   5 -13  -4   13.75    1.37
  -5  13   4   15.57    0.85
  -4 -13   4  102.35    2.35
   4 -13  -4  100.64    2.32
  -4  13   4  100.31    2.46
   3 -13  -4   15.96    0.69
  -3 -13   4   14.31    0.66
  -3  13   4   15.32    0.77
   2 -13  -4   32.77    1.03
  -2 -13   4   33.14    1.00
   2 -13  -4   32.77    1.02
  -2  13   4   32.27    1.09
  -1 -13   4    6.01    0.45
   1 -13  -4    6.04    0.89
   1 -13  -4    5.42    0.46
   1 -13  -4    5.47    0.45
  -1  13   4    4.88    0.49
   0 -13  -4    7.60    0.53
   0 -13  -4    7.55    0.50
   0 -13  -4    6.91    0.84
   0 -13   4    7.89    0.51
   0  13  -4    7.08    0.38
   0  13   4    7.62    0.58
  -1 -13  -4    5.89    0.52
  -1 -13  -4    4.07    0.44
   1 -13   4    4.55    0.44
  -1 -13  -4    4.19    0.66
  -1  13  -4    5.19    0.32
  -1  13  -4    4.76    0.38
  -2 -13  -4   18.57    0.83
   2 -13   4   18.23    0.84
  -2 -13  -4   19.32    1.06
  -2  13  -4   18.61    0.73
  -2  13  -4   18.25    0.64
  -3 -13  -4   19.94    0.90
   3 -13   4   21.75    0.97
  -3 -13  -4   17.39    0.97
  -3  13  -4   18.73    0.80
  -3  13  -4   18.89    0.73
  -4 -13  -4   23.64    0.97
   4 -13   4   23.83    1.06
  -4 -13  -4   21.27    1.02
  -4  13  -4   23.58    0.97
  -5 -13  -4    0.69    0.38
   5 -13   4    1.07    0.44
  -5  13  -4    1.58    0.44
   6 -13   4   14.35    1.00
  -6 -13  -4   14.31    0.96
  -7 -13  -4   11.72    0.94
   7 -13   4   14.95    1.12
  -8 -13  -4    0.20    0.47
   8 -13   4   -0.64    0.47
  -9 -14   4    0.43    0.43
   9 -14  -4    0.00    0.64
  -9  14   4    0.58    0.52
  -8 -14   4    5.26    0.66
   8 -14  -4    5.37    1.13
  -8  14   4    5.74    0.74
   7 -14  -4    0.56    0.71
  -7 -14   4    0.39    0.35
  -7  14   4    0.43    0.42
  -6 -14   4    6.39    0.63
   6 -14  -4    6.30    1.14
  -6  14   4    7.72    0.75
  -5 -14   4   16.52    0.83
   5 -14  -4   16.01    0.79
  -5  14   4   17.01    0.94
  -4 -14   4   50.81    1.44
   4 -14  -4   49.02    1.42
  -4  14   4   50.86    1.55
   3 -14  -4    0.75    0.28
  -3 -14   4    0.79    0.26
  -3  14   4    0.92    0.33
   2 -14  -4    3.51    0.40
  -2 -14   4    2.18    0.33
   2 -14  -4    2.69    0.35
  -2  14   4    2.99    0.45
   1 -14  -4    2.69    0.67
  -1 -14   4    2.48    0.34
   1 -14  -4    2.78    0.36
   1 -14  -4    3.45    0.38
  -1  14   4    2.84    0.42
   0 -14   4   56.06    1.52
   0 -14  -4   59.08    2.15
   0 -14  -4   56.37    1.52
   0 -14  -4   58.49    1.55
   0  14   4   57.18    1.63
   0  14  -4   57.89    1.35
   1 -14   4    4.55    0.46
  -1 -14  -4    4.00    0.68
  -1 -14  -4    4.72    0.49
  -1 -14  -4    6.03    0.53
   1  14   4    5.20    0.56
  -1  14  -4    4.72    0.30
  -1  14  -4    4.74    0.40
  -2 -14  -4   18.89    1.11
  -2 -14  -4   19.32    0.86
   2 -14   4   18.17    0.87
  -2  14  -4   18.15    0.62
  -2  14  -4   19.36    0.75
  -3 -14  -4    3.15    0.57
  -3 -14  -4    2.29    0.43
   3 -14   4    2.90    0.49
  -3  14  -4    2.65    0.40
  -3  14  -4    2.86    0.33
   4 -14   4   22.83    1.09
  -4 -14  -4   23.03    1.05
  -4 -14  -4   20.68    0.98
  -4  14  -4   23.72    0.97
   5 -14   4    1.82    0.49
  -5 -14  -4    2.26    0.49
  -6 -14  -4   19.33    1.08
   6 -14   4   18.38    1.12
  -7 -14  -4    9.72    0.92
   7 -14   4    8.45    0.90
   9 -15  -4    3.69    1.04
  -9 -15   4    3.10    0.60
  -9  15   4    5.49    0.81
  -8 -15   4    4.89    0.65
   8 -15  -4    3.92    1.06
  -8  15   4    5.76    0.78
   7 -15  -4   10.39    1.46
  -7 -15   4   10.97    0.84
  -7  15   4   11.80    0.95
   6 -15  -4    5.71    1.14
  -6 -15   4    6.30    0.64
  -6  15   4    6.99    0.72
  -5 -15   4   55.47    1.64
   5 -15  -4   54.96    1.59
  -5  15   4   55.09    1.75
  -4 -15   4    5.92    0.55
   4 -15  -4    7.67    0.58
  -4  15   4    5.68    0.61
   3 -15  -4   19.14    0.83
  -3 -15   4   19.64    0.84
  -3  15   4   22.23    0.96
  -2 -15   4    1.11    0.30
   2 -15  -4    1.23    0.30
   2 -15  -4    0.95    0.29
  -2  15   4    1.00    0.36
   1 -15  -4    7.40    0.53
  -1 -15   4    7.09    0.54
   1 -15  -4    7.17    0.52
   1  15  -4    6.81    0.42
  -1  15   4    7.07    0.61
   0 -15  -4    3.32    0.40
   0 -15  -4    3.89    0.43
   0 -15  -4    3.85    0.78
   0 -15   4    3.76    0.43
   0  15   4    2.95    0.45
   0  15  -4    3.69    0.34
   1 -15   4   43.72    1.37
  -1 -15  -4   47.94    1.41
  -1 -15  -4   45.40    1.85
  -1 -15  -4   44.08    1.37
   1  15   4   44.05    1.45
  -1  15  -4   46.88    1.24
  -1  15  -4   44.84    1.00
  -2 -15  -4   23.82    0.99
   2 -15   4   24.85    1.03
  -2 -15  -4   24.01    1.28
  -2  15  -4   24.21    0.89
  -2  15  -4   23.29    0.69
  -3 -15  -4    4.45    0.66
  -3 -15  -4    4.33    0.53
   3 -15   4    4.08    0.53
  -3  15  -4    4.97    0.40
  -3  15  -4    4.36    0.49
   4 -15   4   10.14    0.80
  -4 -15  -4   11.71    0.81
  -5 -15  -4    1.47    0.46
   5 -15   4    1.98    0.53
  -6 -15  -4    5.02    0.65
   6 -15   4    5.58    0.75
   7 -15   4   10.38    1.03
  -7 -15  -4   11.00    0.97
  -9 -16   4    0.88    0.50
   9 -16  -4    0.17    0.74
  -9  16   4   -0.23    0.48
   8 -16  -4    5.08    1.18
  -8 -16   4    6.20    0.74
  -8  16   4    8.69    0.91
  -7 -16   4    0.47    0.37
   7 -16  -4   -0.21    0.71
  -7  16   4   -0.02    0.43
  -6 -16   4    0.71    0.37
  -6  16   4    0.74    0.45
   5 -16  -4    2.38    0.43
  -5 -16   4    2.16    0.43
  -5  16   4    1.77    0.47
   4 -16  -4   31.90    1.13
  -4 -16   4   30.95    1.14
  -4  16   4   32.06    1.27
  -3 -16   4   63.37    1.71
   3 -16  -4   63.37    1.70
  -3  16   4   61.43    1.80
  -2 -16   4   17.00    0.80
   2 -16  -4   18.05    0.75
   2 -16  -4   18.04    0.82
  -2  16   4   17.53    0.89
  -1 -16   4    4.56    0.48
   1 -16  -4    3.74    0.45
   1 -16  -4    3.88    0.41
  -1  16   4    3.54    0.51
   0 -16  -4   53.95    1.49
   0 -16  -4   55.52    2.21
   0 -16  -4   53.04    1.52
   0 -16   4   53.50    1.53
   0  16   4   53.21    1.63
   0  16  -4   52.06    1.44
  -1 -16  -4    2.12    0.65
  -1 -16  -4    3.51    0.46
   1 -16   4    3.01    0.44
  -1 -16  -4    3.27    0.44
  -1  16  -4    3.74    0.40
   1  16   4    2.69    0.47
  -2 -16  -4   57.83    1.72
   2 -16   4   62.44    1.78
  -2 -16  -4   60.11    1.76
  -2 -16  -4   62.77    2.16
  -2  16  -4   61.60    1.82
   2  16   4   58.25    1.81
  -3 -16  -4    1.79    0.52
   3 -16   4    2.66    0.50
  -3 -16  -4    2.23    0.45
  -4 -16  -4   16.45    0.96
   4 -16   4   15.76    0.98
  -5 -16  -4    0.86    0.45
   5 -16   4    1.75    0.52
  -6 -16  -4   16.02    1.07
   6 -16   4   17.06    1.14
  -7 -16  -4   12.78    1.03
   7 -16   4   13.34    1.14
   8 -17  -4    9.93    1.57
  -8 -17   4    8.55    0.87
  -8  17   4   11.73    1.06
  -7 -17   4    6.69    0.74
   7 -17  -4    6.48    1.26
  -7  17   4    5.94    0.78
  -6 -17   4    4.17    0.57
  -6  17   4    3.97    0.62
  -5 -17   4    0.55    0.34
   5 -17  -4    0.31    0.32
  -5  17   4    0.10    0.37
  -4 -17   4   37.32    1.30
   4 -17  -4   37.12    1.26
  -4  17   4   37.42    1.41
  -3 -17   4   -0.18    0.28
   3 -17  -4    0.61    0.31
  -3  17   4    0.42    0.35
   2 -17  -4    9.23    0.66
   2 -17  -4   10.76    0.60
  -2 -17   4   10.06    0.67
  -2  17   4   10.35    0.77
   1 -17  -4   11.04    0.70
   1 -17  -4   12.20    0.64
  -1 -17   4   11.36    0.71
  -1  17   4   11.31    0.77
   0 -17  -4   25.43    0.95
   0 -17   4   24.90    1.03
   0 -17  -4   27.02    1.04
   0 -17  -4   24.67    1.57
   0  17   4   26.68    1.12
   1 -17   4   15.90    0.85
  -1 -17  -4   14.90    0.80
  -1 -17  -4   13.82    1.22
  -1 -17  -4   14.82    0.78
   1  17   4   15.27    0.92
  -2 -17  -4   10.45    0.76
  -2 -17  -4    8.33    0.96
   2 -17   4   10.18    0.77
  -2 -17  -4   10.72    0.74
   2  17   4    9.88    0.80
  -3 -17  -4    3.72    0.68
  -3 -17  -4    4.23    0.56
   3 -17   4    4.37    0.58
   3  17   4    4.05    0.59
  -4 -17  -4   27.36    1.24
   4 -17   4   27.29    1.25
  -5 -17  -4    0.44    0.41
   5 -17   4    0.58    0.44
   6 -17   4   12.13    1.01
  -6 -17  -4   12.23    1.00
   7 -17   4   11.20    1.07
  -7 -17  -4   12.35    1.04
  -8 -18   4    0.66    0.45
   8 -18  -4    0.07    0.85
  -8  18   4    2.22    0.59
   7 -18  -4   15.47    1.75
  -7 -18   4   17.33    1.03
  -7  18   4   18.89    1.17
  -6 -18   4    0.38    0.37
  -6  18   4    0.46    0.45
   5 -18  -4    0.87    0.37
  -5 -18   4    0.62    0.36
  -5  18   4    0.95    0.43
  -4 -18   4    1.13    0.39
   4 -18  -4    1.48    0.38
  -4  18   4    1.06    0.43
  -3 -18   4  107.66    2.64
   3 -18  -4  106.00    2.61
  -3  18   4  110.17    2.76
   2 -18  -4    8.49    0.56
   2 -18  -4    8.88    0.68
  -2 -18   4    9.10    0.68
  -2  18   4    8.83    0.76
  -1 -18   4  173.03    3.78
   1 -18  -4  173.30    3.80
   1 -18  -4  174.28    3.62
  -1  18   4  169.50    3.89
   0 -18  -4    1.08    0.36
   0 -18   4    0.97    0.35
   0 -18  -4    0.89    0.29
   0  18   4    0.84    0.41
  -1 -18  -4    8.37    0.63
  -1 -18  -4    9.06    1.11
  -1 -18  -4    8.51    0.69
   1 -18   4    7.67    0.69
   1  18   4    9.46    0.81
  -2 -18  -4   26.93    1.09
  -2 -18  -4   25.82    1.47
   2 -18   4   26.69    1.14
  -2 -18  -4   25.83    1.10
   2  18   4   23.46    1.15
   3 -18   4   14.11    0.93
  -3 -18  -4   14.27    1.06
  -3 -18  -4   13.19    0.87
   3  18   4   12.71    0.91
   4 -18   4    0.48    0.40
  -4 -18  -4   -0.01    0.35
   4  18   4    0.58    0.43
  -5 -18  -4    5.46    0.68
   5 -18   4    4.82    0.70
  -6 -18  -4    1.93    0.57
   6 -18   4    1.66    0.57
   8 -19  -4   10.54    1.59
  -8 -19   4   12.26    0.99
  -8  19   4   10.72    1.06
  -7 -19   4    1.02    0.45
   7 -19  -4    0.29    0.83
  -7  19   4    0.53    0.51
  -6 -19   4   13.57    0.92
  -6  19   4   12.69    0.99
  -5 -19   4   18.98    1.00
  -5  19   4   20.10    1.11
   4 -19  -4    2.82    0.47
  -4 -19   4    2.48    0.47
  -4  19   4    2.09    0.51
  -3 -19   4    3.43    0.53
   3 -19  -4    4.08    0.52
  -3  19   4    3.81    0.59
  -2 -19   4   25.04    1.08
   2 -19  -4   26.18    1.09
  -2  19   4   26.30    1.21
   1 -19  -4   53.66    1.65
  -1 -19   4   55.62    1.66
   1 -19  -4   54.68    1.47
  -1  19   4   52.02    1.72
   0 -19   4   18.64    0.94
   0 -19  -4   16.95    0.78
   0 -19  -4   18.08    0.91
   0  19   4   17.89    0.99
  -1 -19  -4    2.37    0.75
  -1 -19  -4    1.91    0.39
   1 -19   4    1.60    0.42
  -1 -19  -4    1.39    0.39
   1  19   4    1.87    0.49
  -2 -19  -4   15.34    0.84
  -2 -19  -4   12.77    1.18
  -2 -19  -4   14.20    0.88
   2 -19   4   14.41    0.92
   2  19   4   13.97    0.96
  -3 -19  -4    4.58    0.76
   3 -19   4    3.05    0.55
  -3 -19  -4    3.78    0.58
   3  19   4    2.94    0.56
   4 -19   4    8.68    0.86
  -4 -19  -4    7.30    0.76
   4  19   4    9.08    0.85
  -5 -19  -4   10.15    0.92
   5 -19   4    7.85    0.85
   5  19   4    8.52    0.89
   6 -19   4    2.12    0.62
  -6 -19  -4    2.69    0.62
   8 -20  -4    2.69    1.11
  -8 -20   4    2.34    0.59
  -8  20   4    2.23    0.63
   7 -20  -4   11.34    1.74
  -7 -20   4   11.56    0.96
  -7  20   4   13.62    1.11
  -6 -20   4    9.26    0.84
  -6  20   4    8.98    0.93
  -5 -20   4    4.19    0.59
  -5  20   4    4.54    0.68
   4 -20  -4    6.57    0.66
  -4 -20   4    6.62    0.69
  -4  20   4    5.31    0.68
  -3 -20   4    2.56    0.48
   3 -20  -4    2.58    0.48
  -3  20   4    2.98    0.56
  -2 -20   4    2.27    0.48
   2 -20  -4    3.21    0.50
  -2  20   4    2.53    0.51
   1 -20  -4   -0.02    0.23
   1 -20  -4   -0.21    0.29
  -1 -20   4    0.01    0.29
  -1  20   4    0.31    0.38
   0 -20  -4   35.50    1.16
   0 -20  -4   33.62    1.28
   0 -20   4   35.08    1.33
   0  20   4   35.96    1.40
  -1 -20  -4    4.29    0.50
  -1 -20  -4    3.08    0.84
   1 -20   4    3.66    0.54
  -1 -20  -4    3.61    0.54
   1  20   4    3.36    0.56
  -2 -20  -4   24.02    1.51
  -2 -20  -4   21.86    1.10
  -2 -20  -4   21.01    1.02
   2 -20   4   21.81    1.13
   2  20   4   21.83    1.14
  -3 -20  -4   24.54    1.18
  -3 -20  -4   21.54    1.35
  -3 -20  -4   21.91    1.11
   3 -20   4   22.47    1.16
   3  20   4   24.14    1.23
  -4 -20  -4    5.84    0.73
   4 -20   4    5.34    0.72
   4  20   4    4.67    0.68
  -5 -20  -4   16.39    1.11
   5 -20   4   15.76    1.11
   5  20   4   16.22    1.10
  -6 -20  -4    1.55    0.55
   6 -20   4    1.28    0.58
   6  20   4    1.72    0.59
  -7 -21   4   10.01    0.94
   7 -21  -4   11.26    1.74
  -7  21   4   13.07    1.10
  -6 -21   4   16.01    1.05
  -6  21   4   15.84    1.16
  -5 -21   4    4.02    0.63
  -5  21   4    4.72    0.71
   4 -21  -4   11.40    0.88
  -4 -21   4   12.03    0.85
  -4  21   4   12.25    0.95
   3 -21  -4   25.55    1.14
  -3 -21   4   26.51    1.18
  -3  21   4   26.69    1.26
  -2 -21   4   24.42    1.12
   2 -21  -4   22.65    1.06
  -2  21   4   23.66    1.17
   1 -21  -4    0.65    0.38
   1 -21  -4    0.64    0.36
  -1 -21   4    0.22    0.35
  -1  21   4    0.93    0.46
   0 -21  -4   26.91    1.17
   0 -21  -4   25.90    0.98
   0 -21   4   26.84    1.19
   0  21   4   28.56    1.28
  -1 -21  -4   18.52    1.01
  -1 -21  -4   18.44    1.52
   1 -21   4   20.02    1.07
  -1 -21  -4   19.49    0.89
   1  21   4   19.47    1.10
  -2 -21  -4    8.36    0.79
  -2 -21  -4    6.08    1.00
  -2 -21  -4    8.12    0.72
   2 -21   4    6.54    0.72
   2  21   4    7.45    0.79
  -3 -21  -4   16.34    1.03
   3 -21   4   18.41    1.10
  -3 -21  -4   17.86    1.29
  -3 -21  -4   14.44    0.94
   3  21   4   17.24    1.10
  -4 -21  -4    4.94    0.70
   4 -21   4    4.64    0.71
   4  21   4    4.21    0.66
  -5 -21  -4    1.17    0.51
   5 -21   4    2.72    0.63
   5  21   4    2.09    0.61
  -7 -22   4   -0.53    0.38
   7 -22  -4    0.41    0.98
  -7  22   4    0.27    0.54
  -6 -22   4    3.80    0.65
  -6  22   4    3.45    0.71
  -5 -22   4    0.60    0.42
  -5  22   4    0.66    0.50
  -4 -22   4   26.06    1.24
  -4  22   4   25.52    1.33
  -3 -22   4    9.90    0.84
   3 -22  -4   10.82    0.83
  -3  22   4   11.43    0.93
   2 -22  -4   18.67    1.02
  -2 -22   4   19.72    1.06
  -2  22   4   21.51    1.14
   1 -22  -4   -0.17    0.33
  -1 -22   4   -0.36    0.32
  -1  22   4    0.19    0.42
   0 -22  -4   18.26    1.01
   0 -22   4   17.10    1.00
   0  22   4   18.26    1.10
   1 -22   4   16.50    1.02
  -1 -22  -4   16.70    1.52
  -1 -22  -4   16.36    0.98
  -1 -22  -4   16.91    0.84
   1  22   4   17.39    1.07
  -2 -22  -4   45.18    2.15
   2 -22   4   47.26    1.70
  -2 -22  -4   45.57    1.65
  -2 -22  -4   46.48    1.52
   2  22   4   41.52    1.68
   3 -22   4    2.27    0.55
  -3 -22  -4    3.15    0.53
  -3 -22  -4    2.32    0.71
  -3 -22  -4    2.58    0.56
   3  22   4    2.25    0.58
  -4 -22  -4    0.46    0.45
   4 -22   4    2.00    0.55
  -4 -22  -4    1.34    0.45
   4  22   4    1.14    0.52
  -5 -22  -4    0.65    0.46
   5 -22   4    0.39    0.50
   5  22   4   -0.22    0.43
  -6 -23   4    2.73    0.60
  -6  23   4    2.54    0.67
  -5 -23   4   11.27    0.94
  -5  23   4   12.14    1.03
  -4 -23   4    2.54    0.56
  -4  23   4    3.45    0.64
  -3 -23   4   10.81    0.90
   3 -23  -4   10.85    0.91
  -3  23   4   12.63    0.99
   2 -23  -4    5.00    0.64
  -2 -23   4    3.75    0.59
  -2  23   4    4.76    0.67
  -1 -23   4    2.92    0.56
   1 -23  -4    3.00    0.54
  -1  23   4    2.84    0.58
   0 -23   4   24.34    1.19
   0 -23  -4   27.02    1.22
   0  23   4   25.26    1.30
   1 -23   4    6.61    0.76
  -1 -23  -4    8.87    0.82
  -1 -23  -4    7.26    1.18
   1  23   4    9.21    0.86
  -2 -23  -4    8.12    1.13
  -2 -23  -4    6.17    1.04
   2 -23   4    6.38    0.75
  -2 -23  -4    6.58    0.75
   2  23   4    7.13    0.84
  -3 -23  -4    4.53    0.70
  -3 -23  -4    3.99    0.88
  -3 -23  -4    4.12    0.61
   3 -23   4    5.14    0.72
   3  23   4    4.69    0.71
   4 -23   4    1.34    0.54
  -4 -23  -4    1.84    0.53
  -4 -23  -4    0.63    0.47
   4  23   4    2.16    0.59
  -6 -24   4    6.42    0.82
  -6  24   4    5.69    0.87
  -5 -24   4    1.06    0.49
  -5  24   4    1.64    0.60
  -4 -24   4    6.02    0.75
  -4  24   4    7.73    0.89
  -3 -24   4    1.63    0.49
  -3  24   4    2.01    0.55
   2 -24  -4   25.99    1.23
  -2 -24   4   26.36    1.25
  -2  24   4   26.49    1.33
   1 -24  -4    1.63    0.49
  -1 -24   4    1.69    0.48
  -1  24   4    1.57    0.53
   0 -24   4    9.35    0.88
   0 -24  -4   10.26    0.86
   0  24   4   10.29    0.95
  -1 -24  -4   13.65    1.52
   1 -24   4   15.68    1.08
  -1 -24  -4   14.82    0.98
   1  24   4   16.30    1.12
  -2 -24  -4   17.14    1.10
  -2 -24  -4   16.86    1.48
   2 -24   4   15.26    1.07
   2  24   4   16.62    1.09
   3 -24   4    8.78    0.90
  -3 -24  -4   11.16    1.00
   3  24   4   10.90    1.03
  -4 -24  -4    7.07    0.84
   4 -24   4    7.47    0.92
   4  24   4    5.67    0.78
  -5 -25   4    6.37    0.82
  -5  25   4    5.89    0.86
  -4 -25   4    9.27    0.92
  -4  25   4    7.75    0.88
  -3 -25   4    7.43    0.81
  -3  25   4    8.25    0.89
  -2 -25   4   35.81    1.52
  -2  25   4   36.54    1.59
  -1 -25   4    4.18    0.66
   1 -25  -4    3.52    0.62
  -1  25   4    4.81    0.73
   0 -25  -4   58.84    1.98
   0 -25   4   59.43    2.02
   0  25   4   60.64    2.10
  -1 -25  -4    5.06    1.14
  -1 -25  -4    4.73    0.68
   1 -25   4    7.03    0.84
   1  25   4    7.41    0.85
   2 -25   4    4.31    0.72
  -2 -25  -4    4.50    0.67
  -2 -25  -4    4.37    0.99
   2  25   4    5.21    0.76
   3 -25   4    0.72    0.50
  -3 -25  -4    1.80    0.53
   3  25   4    0.89    0.51
  -4 -26   4    0.09    0.45
  -4  26   4    0.30    0.51
  -3 -26   4    1.25    0.52
  -3  26   4    1.40    0.55
  -2 -26   4    2.64    0.59
  -2  26   4    2.89    0.64
  -1 -26   4   21.24    1.23
  -1  26   4   25.71    1.33
   0 -26   4    2.10    0.56
   0 -26  -4    2.03    0.55
   0  26   4    1.96    0.61
  -1 -26  -4    2.50    0.99
  -1 -26  -4    3.79    0.67
   1 -26   4    4.29    0.69
   1  26   4    3.03    0.68
  -2 -26  -4    0.44    0.43
  -2 -26  -4   -0.23    0.67
   2 -26   4    0.26    0.45
   2  26   4    1.02    0.54
  -3 -27   4    0.35    0.44
  -3  27   4    0.08    0.46
  -2 -27   4   26.49    1.40
  -2  27   4   26.56    1.45
  -1 -27   4    0.92    0.49
  -1  27   4    1.57    0.58
   0 -27   4    3.31    0.67
   0 -27  -4    1.74    1.08
   0  27   4    1.96    0.60
  -1 -27  -4    0.77    0.89
   1 -27   4    2.12    0.60
   1  27   4    1.78    0.61
  -1 -28   4    8.05    0.92
  -1  28   4    7.73    0.94
 -11   0   5    0.28    0.46
 -10   0   5    3.94    0.64
  -9   0   5    2.50    0.50
   9   0  -5    2.42    0.60
  -8   0   5    9.59    0.73
   8   0  -5    9.15    0.90
  -7   0   5    0.81    0.33
   7   0  -5    0.53    0.45
  -6   0   5   15.19    0.68
   6   0  -5   16.35    1.04
  -5   0   5    0.24    0.19
   5   0  -5    0.79    0.39
   4   0  -5  121.34    3.12
  -4   0   5  121.69    2.39
  -4   0   5  121.74    2.38
   3   0  -5    0.34    0.38
   2   0  -5  123.19    3.05
   2   0  -5  117.57    2.64
   1   0  -5   10.85    0.60
   1   0  -5    8.12    0.78
   0   0  -5    3.23    0.37
   0   0   5    4.18    0.25
   0   0   5    4.12    0.26
   1   0   5    1.90    0.25
  -1   0  -5    1.39    0.32
   2   0   5   25.55    0.85
  -2   0  -5   26.41    0.73
   3   0   5    1.47    0.32
  -3   0  -5    2.29    0.29
   4   0   5   25.85    1.03
  -4   0  -5   26.38    0.92
  -5   0  -5    1.72    0.37
   5   0   5    1.47    0.44
   6   0   5   -0.34    0.36
  -6   0  -5    0.56    0.34
   7   0   5   -0.12    0.42
   8   0   5   -0.31    0.46
 -11  -1   5    6.47    0.83
 -11   1   5    5.41    0.76
 -10  -1   5    3.12    0.59
 -10   1   5    2.28    0.55
   9  -1  -5   22.00    1.31
  -9  -1   5   22.29    1.11
   9   1  -5   22.49    1.60
  -9   1   5   22.49    1.12
  -8  -1   5    3.50    0.51
   8  -1  -5    4.48    0.74
  -8   1   5    2.82    0.48
   8   1  -5    4.36    0.71
  -7  -1   5    5.20    0.51
   7  -1  -5    5.99    0.80
  -7   1   5    5.73    0.55
   7   1  -5    4.67    0.70
   6  -1  -5   -0.49    0.34
  -6  -1   5   -0.31    0.22
   6   1  -5    0.10    0.35
  -6   1   5   -0.03    0.22
   5  -1  -5  164.29    4.00
  -5  -1   5  163.17    3.28
  -5   1   5  162.47    3.30
   5   1  -5  167.85    3.95
  -4  -1   5    5.02    0.28
   4  -1  -5    5.73    0.69
  -4  -1   5    5.03    0.27
  -4   1   5    4.36    0.28
   4   1  -5    4.12    0.59
  -4   1   5    3.94    0.29
   3  -1  -5    4.73    0.68
   3   1  -5    3.92    0.62
  -3   1   5    5.13    0.21
  -3   1   5    5.32    0.21
   2  -1  -5   66.30    2.03
   2  -1  -5   68.70    1.71
   2   1  -5   67.81    1.70
   2   1  -5   68.56    2.05
   1  -1  -5  237.80    4.85
   1  -1  -5  245.06    5.26
   1   1  -5  249.88    5.30
   1   1  -5  244.47    4.85
   0  -1   5   96.93    1.86
   0  -1  -5   96.67    2.22
   0  -1  -5   96.05    2.51
   0  -1   5   94.45    1.86
   0   1  -5   93.52    2.18
   0   1   5   94.92    1.91
   0   1   5   94.35    1.89
   1  -1   5    9.78    0.45
  -1  -1  -5    9.74    0.61
   1   1   5    9.35    0.46
   2  -1   5    1.54    0.27
  -2  -1  -5    1.93    0.23
   2   1   5    1.65    0.29
  -2   1  -5    1.74    0.22
   3  -1   5    4.00    0.43
  -3  -1  -5    4.50    0.37
   3   1   5    4.75    0.46
  -3   1  -5    4.64    0.37
   4  -1   5   49.90    1.53
  -4  -1  -5   49.70    1.38
  -4   1  -5   50.59    1.38
   4   1   5   49.23    1.51
  -5  -1  -5    1.75    0.37
   5  -1   5    1.13    0.41
  -5   1  -5    1.30    0.35
   5   1   5    1.57    0.44
   6  -1   5   -0.02    0.39
  -6  -1  -5    0.04    0.30
   6   1   5   -0.32    0.37
  -6   1  -5    0.01    0.31
   7  -1   5    5.92    0.77
  -7  -1  -5    5.63    0.84
   7   1   5    6.00    0.77
   8  -1   5   -0.49    0.42
   8   1   5   -0.17    0.51
 -11  -2   5    5.31    0.77
 -11   2   5    5.40    0.77
 -10  -2   5    4.04    0.63
 -10   2   5    2.70    0.56
   9  -2  -5    0.56    0.50
  -9  -2   5    0.38    0.38
  -9   2   5    0.76    0.40
  -8  -2   5    0.42    0.32
   8  -2  -5    0.20    0.45
  -8   2   5    0.41    0.35
   8   2  -5    0.59    0.42
  -7  -2   5   17.39    0.83
   7  -2  -5   18.43    1.19
  -7   2   5   19.97    0.88
   7   2  -5   18.37    1.09
   6  -2  -5    4.46    0.69
  -6  -2   5    4.73    0.43
  -6   2   5    4.23    0.42
   6   2  -5    4.13    0.64
  -5  -2   5   25.79    0.78
   5  -2  -5   25.41    1.26
  -5   2   5   26.94    0.82
   5   2  -5   24.78    1.19
   4  -2  -5    4.56    0.63
  -4  -2   5    5.22    0.28
  -4  -2   5    5.67    0.29
  -4   2   5    5.20    0.33
   4   2  -5    5.38    0.67
  -4   2   5    5.31    0.31
   3  -2  -5   34.82    1.42
   3  -2  -5   33.83    1.11
  -3   2   5   33.51    0.75
  -3   2   5   33.21    0.76
   3   2  -5   33.76    1.36
   2  -2  -5  114.68    2.95
   2  -2  -5  112.39    2.54
   2   2  -5  110.93    2.51
   2   2  -5  114.16    2.91
  -2   2   5  114.60    2.09
   1  -2  -5  123.86    2.76
   1  -2  -5  125.85    3.12
  -1   2   5  127.80    2.38
   1   2  -5  126.90    2.73
  -1   2   5  127.68    2.38
   0  -2  -5    6.21    0.52
   0  -2   5    5.89    0.28
   0  -2   5    5.81    0.27
   0  -2  -5    5.34    0.66
   0   2   5    5.87    0.32
   0   2   5    5.73    0.33
   0   2  -5    6.15    0.49
   1  -2   5    4.02    0.32
  -1   2  -5    3.87    0.41
   1   2   5    3.48    0.32
  -2  -2  -5    3.42    0.30
   2  -2   5    3.35    0.35
   2   2   5    3.65    0.37
  -2   2  -5    3.26    0.27
  -3  -2  -5   32.01    0.96
   3  -2   5   31.58    1.06
   3   2   5   33.01    1.09
  -3   2  -5   33.36    0.95
   4  -2   5   35.78    1.25
  -4  -2  -5   37.33    1.14
  -4   2  -5   36.48    1.13
   4   2   5   38.18    1.28
  -5  -2  -5    5.40    0.52
   5  -2   5    4.94    0.61
   5   2   5    4.88    0.60
  -5   2  -5    5.06    0.52
  -6  -2  -5   11.29    0.76
   6  -2   5   11.21    0.90
  -6   2  -5   10.70    0.75
   6   2   5   10.78    0.91
   7  -2   5    1.81    0.54
  -7  -2  -5    1.12    0.44
   7   2   5    1.16    0.53
   8  -2   5    1.64    0.58
   8   2   5    0.58    0.55
 -10  -3   5    0.70    0.44
 -10   3   5    0.98    0.45
   9  -3  -5    2.22    0.64
  -9  -3   5    2.36    0.49
  -9   3   5    2.12    0.50
  -8  -3   5   40.69    1.37
   8  -3  -5   38.94    1.76
  -8   3   5   36.90    1.35
   7  -3  -5    0.06    0.44
  -7  -3   5    0.19    0.28
   7   3  -5   -0.05    0.36
  -7   3   5   -0.12    0.28
   6  -3  -5   55.56    2.00
  -6  -3   5   53.37    1.43
  -6   3   5   55.06    1.48
   6   3  -5   56.29    1.87
  -5  -3   5    1.26    0.23
   5  -3  -5    0.45    0.42
  -5   3   5    1.12    0.25
   5   3  -5    1.51    0.43
   4  -3  -5   20.10    1.12
  -4  -3   5   21.23    0.57
  -4   3   5   19.90    0.63
  -4   3   5   20.15    0.85
   4   3  -5   21.54    1.09
   3  -3  -5   15.69    0.75
   3  -3  -5   15.42    1.00
  -3   3   5   14.96    0.47
  -3   3   5   15.95    0.47
   2  -3  -5  251.02    5.17
   2  -3  -5  259.57    5.63
  -2   3   5  264.80    4.80
   2   3  -5  265.97    5.16
   1  -3  -5   15.44    0.99
   1  -3  -5   18.98    0.78
   1   3  -5   18.56    0.75
  -1   3   5   18.56    0.50
  -1   3   5   18.56    0.51
   0  -3   5    1.60    0.17
   0  -3  -5    1.36    0.42
   0  -3  -5    1.22    0.34
   0  -3   5    1.22    0.16
   0   3   5    1.34    0.22
   0   3  -5    1.30    0.28
  -1  -3  -5   60.02    1.80
  -1  -3  -5   59.06    1.25
   1  -3   5   56.88    1.33
  -1  -3  -5   57.42    1.59
  -1   3  -5   58.54    1.53
   1   3   5   58.81    1.40
   2  -3   5    0.18    0.20
  -2  -3  -5    0.48    0.18
   2   3   5    0.87    0.26
  -2   3  -5    0.22    0.14
  -3  -3  -5   22.42    0.77
   3  -3   5   21.60    0.85
   3   3   5   21.10    0.87
  -3   3  -5   22.42    0.74
   4  -3   5   42.49    1.37
  -4  -3  -5   41.35    1.24
  -4   3  -5   42.36    1.23
   4   3   5   41.54    1.39
  -5  -3  -5    4.33    0.50
   5  -3   5    3.78    0.56
   5   3   5    4.16    0.58
  -5   3  -5    4.00    0.47
   6  -3   5    8.17    0.78
  -6  -3  -5    7.27    0.66
  -6   3  -5    7.47    0.67
   6   3   5    5.65    0.70
  -7  -3  -5    5.69    0.66
   7  -3   5    5.19    0.72
   7   3   5    5.99    0.79
   8  -3   5    9.97    1.01
   8   3   5    9.21    0.96
 -10  -4   5    3.06    0.57
 -10   4   5    2.75    0.58
  -9  -4   5   21.64    1.10
   9  -4  -5   24.74    1.48
  -9   4   5   23.44    1.16
   8  -4  -5   11.15    1.06
  -8  -4   5   12.56    0.78
  -8   4   5   12.38    0.82
   7  -4  -5   50.68    2.00
  -7  -4   5   48.81    1.44
  -7   4   5   48.03    1.48
   6  -4  -5    4.49    0.74
  -6  -4   5    5.57    0.47
  -6   4   5    5.45    0.49
   5  -4  -5   36.84    1.59
  -5  -4   5   36.26    0.99
  -5   4   5   37.85    1.05
  -4  -4   5    2.83    0.23
   4  -4  -5    3.49    0.65
  -4   4   5    2.74    0.28
   3  -4  -5   83.49    2.07
   3  -4  -5   86.51    2.50
  -3   4   5   84.16    1.76
  -3   4   5   86.21    1.76
   2  -4  -5   12.04    0.95
   2  -4  -5   16.11    0.73
  -2   4   5   16.59    0.48
   2   4  -5   17.28    0.73
   1  -4  -5  120.96    3.03
   1  -4  -5  118.11    2.62
  -1   4   5  116.72    2.32
   1   4  -5  115.43    2.55
   0  -4   5   45.14    1.00
   0  -4  -5   45.10    1.32
   0  -4   5   45.72    1.00
   0  -4  -5   47.68    1.59
   0   4   5   46.34    1.11
   0   4  -5   45.55    1.25
  -1  -4  -5   33.95    1.29
   1  -4   5   31.40    0.87
  -1  -4  -5   31.85    0.81
  -1  -4  -5   33.57    1.12
  -1   4  -5   32.95    1.03
   1   4   5   32.97    0.95
  -2  -4  -5    5.04    0.36
   2  -4   5    4.92    0.42
   2   4   5    4.33    0.42
  -2   4  -5    4.57    0.30
   3  -4   5   27.69    0.98
  -3  -4  -5   27.85    0.89
  -3   4  -5   28.07    0.85
   3   4   5   28.37    1.01
   4  -4   5    0.61    0.34
  -4  -4  -5    1.56    0.32
  -4   4  -5    0.57    0.27
   4   4   5    1.11    0.36
  -5  -4  -5   11.74    0.73
   5  -4   5   11.89    0.82
  -5   4  -5   11.74    0.70
   5   4   5   11.33    0.85
  -6  -4  -5    3.78    0.54
   6  -4   5    3.37    0.58
   6   4   5    2.80    0.56
  -6   4  -5    3.95    0.53
   7  -4   5    3.43    0.63
  -7  -4  -5    5.80    0.67
   7   4   5    7.09    0.83
   8  -4   5   18.22    1.21
   8   4   5   19.33    1.27
 -10  -5   5   10.80    0.92
 -10   5   5   11.89    0.97
  -9  -5   5    2.29    0.51
   9  -5  -5    2.33    0.67
  -9   5   5    1.83    0.48
  -8  -5   5    5.69    0.59
   8  -5  -5    6.17    0.92
  -8   5   5    5.11    0.61
   7  -5  -5    3.30    0.73
  -7  -5   5    3.69    0.45
  -7   5   5    3.81    0.49
  -6  -5   5   94.39    2.16
   6  -5  -5   95.53    2.91
  -6   5   5   91.89    2.22
  -5  -5   5    6.22    0.40
   5  -5  -5    5.60    0.77
  -5   5   5    5.36    0.44
   4  -5  -5   92.84    2.72
  -4  -5   5   89.69    1.85
  -4   5   5   90.37    1.98
  -3  -5   5    2.54    0.16
   3  -5  -5    2.54    0.58
   3  -5  -5    2.61    0.39
  -3  -5   5    2.66    0.16
  -3   5   5    2.55    0.27
   2  -5  -5  316.87    6.56
   2  -5  -5  298.97    6.01
   2   5  -5  303.97    5.96
  -2   5   5  304.51    5.71
   1  -5  -5  214.73    4.74
   1  -5  -5  209.54    4.30
   1   5  -5  207.53    4.21
   0  -5   5    3.58    0.26
   0  -5  -5    2.82    0.37
   0  -5   5    3.32    0.26
   0  -5  -5    3.04    0.55
   0   5  -5    3.76    0.39
  -1  -5  -5   16.05    0.54
  -1  -5  -5   16.96    0.91
   1  -5   5   15.66    0.58
   1   5   5   16.34    0.65
  -1   5  -5   15.99    0.70
   2  -5   5   22.28    0.78
  -2  -5  -5   23.11    0.74
  -2  -5  -5   21.73    0.99
   2   5   5   22.09    0.82
  -2   5  -5   22.31    0.64
   3  -5   5    3.49    0.42
  -3  -5  -5    3.51    0.37
   3   5   5    3.54    0.45
  -3   5  -5    3.50    0.34
   4  -5   5    6.84    0.61
  -4  -5  -5    9.07    0.58
  -4   5  -5    8.09    0.56
   4   5   5    7.62    0.66
  -5  -5  -5    3.34    0.46
   5  -5   5    2.21    0.47
   5   5   5    2.92    0.54
  -5   5  -5    2.74    0.43
   6  -5   5   20.25    1.09
  -6  -5  -5   19.09    0.98
   6   5   5   18.22    1.08
  -6   5  -5   18.74    1.29
  -7  -5  -5    8.00    0.79
   7  -5   5    7.76    0.84
   7   5   5    6.26    0.77
   8  -5   5   31.54    1.57
   8   5   5   31.78    1.56
  10  -6  -5    2.39    0.75
 -10  -6   5    2.04    0.55
 -10   6   5    1.27    0.50
   9  -6  -5    3.70    0.78
  -9  -6   5    3.16    0.55
  -9   6   5    3.09    0.57
  -8  -6   5    0.03    0.32
   8  -6  -5    0.15    0.52
  -8   6   5    0.09    0.36
   7  -6  -5   22.82    1.43
  -7  -6   5   22.46    0.94
  -7   6   5   22.96    1.00
  -6  -6   5   11.12    0.61
   6  -6  -5   12.88    1.11
  -6   6   5   11.60    0.68
  -5  -6   5   35.80    0.98
   5  -6  -5   33.32    1.58
  -5   6   5   34.92    1.06
  -4  -6   5   20.19    0.60
   4  -6  -5   20.82    1.20
  -4   6   5   19.68    0.70
   3  -6  -5   15.64    1.02
  -3  -6   5   16.79    0.45
   3  -6  -5   16.33    0.77
  -3  -6   5   16.94    0.45
  -3   6   5   17.25    0.60
   2  -6  -5  666.23   12.36
   2  -6  -5  661.90   12.93
   2   6  -5  650.83   12.27
   1  -6  -5   37.92    1.53
  -1  -6   5   41.32    0.86
   1  -6  -5   40.25    1.21
  -1  -6   5   41.22    0.86
   1   6  -5   40.26    1.14
   0  -6   5    9.66    0.39
   0  -6   5    9.52    0.39
   0  -6  -5    9.55    0.59
   0  -6  -5    7.67    0.78
   0  -6  -5    9.52    0.37
   0   6  -5   10.08    0.54
  -1  -6  -5    5.11    0.61
   1  -6   5    5.99    0.39
  -1  -6  -5    5.71    0.53
  -1  -6  -5    5.89    0.35
  -1   6  -5    6.28    0.47
   2  -6   5   63.51    1.59
  -2  -6  -5   69.30    1.92
  -2  -6  -5   64.55    1.54
  -2   6  -5   64.75    1.68
  -2   6  -5   63.21    1.43
   2   6   5   65.20    1.67
   3  -6   5    7.63    0.56
  -3  -6  -5    7.66    0.51
   3   6   5    6.51    0.56
  -3   6  -5    6.88    0.45
  -4  -6  -5    3.11    0.41
   4  -6   5    2.95    0.45
   4   6   5    3.21    0.51
  -4   6  -5    3.27    0.40
   5  -6   5   30.46    1.25
  -5  -6  -5   31.35    1.17
   5   6   5   29.50    1.28
  -5   6  -5   30.90    1.12
  -6  -6  -5   12.94    0.83
   6  -6   5   13.27    0.94
   6   6   5   12.82    0.95
  -7  -6  -5    9.87    0.83
   7  -6   5   12.29    1.02
   7   6   5   12.25    0.99
   8  -6   5   19.90    1.28
  10  -7  -5    4.85    0.94
 -10  -7   5    3.98    0.64
 -10   7   5    5.14    0.73
  -9  -7   5   36.02    1.43
   9  -7  -5   36.20    1.90
  -9   7   5   36.10    1.49
  -8  -7   5    3.61    0.50
   8  -7  -5    4.12    0.88
  -8   7   5    3.43    0.55
  -7  -7   5    3.29    0.44
   7  -7  -5    2.46    0.72
  -7   7   5    3.11    0.48
   6  -7  -5   20.44    1.37
  -6  -7   5   22.16    0.84
  -6   7   5   21.72    0.91
   5  -7  -5  190.99    4.77
  -5  -7   5  193.96    3.84
  -5   7   5  192.05    3.96
  -4  -7   5    0.52    0.17
   4  -7  -5    0.49    0.42
  -4   7   5    0.40    0.22
  -3  -7   5   40.93    0.93
   3  -7  -5   41.66    1.27
   3  -7  -5   41.95    1.69
  -3  -7   5   42.96    0.93
  -3   7   5   39.84    1.09
  -2  -7   5    5.12    0.25
  -2  -7   5    4.97    0.24
   2  -7  -5    4.04    0.70
   2  -7  -5    4.97    0.48
  -2   7   5    5.09    0.40
   1  -7  -5  106.73    2.44
  -1  -7   5  109.38    2.09
   1  -7  -5  111.23    2.91
  -1  -7   5  111.73    2.09
   1  -7  -5   95.01    2.25
   1   7  -5  105.06    2.32
   0  -7   5   84.29    1.75
   0  -7   5   81.63    1.74
   0  -7  -5   81.08    2.02
   0  -7  -5   85.17    2.38
   0  -7  -5   82.51    1.74
   0   7  -5   82.01    1.89
   1  -7   5   33.46    0.95
  -1  -7  -5   34.42    0.92
  -1  -7  -5   34.54    1.34
  -1  -7  -5   36.08    1.17
  -1   7  -5   32.23    1.02
   2  -7   5   35.26    1.05
  -2  -7  -5   33.36    1.28
  -2  -7  -5   33.39    0.99
  -2   7  -5   34.57    1.10
  -2   7  -5   35.51    0.89
   3  -7   5    4.83    0.49
  -3  -7  -5    5.64    0.48
  -3   7  -5    5.18    0.40
   4  -7   5    5.06    0.57
  -4  -7  -5    6.12    0.55
   4   7   5    5.08    0.58
  -4   7  -5    5.60    0.49
  -5  -7  -5   63.43    1.83
   5  -7   5   65.37    1.93
   5   7   5   63.95    1.96
  -5   7  -5   65.79    1.78
   6  -7   5    0.52    0.42
  -6  -7  -5    0.54    0.38
   7  -7   5    7.04    0.82
  -7  -7  -5   10.76    0.88
   8  -7   5    0.78    0.55
 -10  -8   5    7.61    0.84
  10  -8  -5    7.75    1.14
 -10   8   5    7.35    0.84
   9  -8  -5   12.35    1.28
  -9  -8   5   14.37    0.95
  -9   8   5   12.94    0.99
  -8  -8   5    2.90    0.50
   8  -8  -5    2.70    0.74
  -8   8   5    2.95    0.54
  -7  -8   5    0.25    0.30
   7  -8  -5    0.42    0.55
  -7   8   5    0.86    0.39
   6  -8  -5    1.44    0.63
  -6  -8   5    2.72    0.38
  -6   8   5    2.47    0.43
   5  -8  -5   23.06    0.71
   5  -8  -5   22.74    1.41
  -5  -8   5   23.36    0.80
  -5   8   5   24.26    0.90
   4  -8  -5   65.88    2.31
  -4  -8   5   67.37    1.49
  -4   8   5   63.30    1.61
  -3  -8   5   31.84    0.81
   3  -8  -5   32.24    1.09
   3  -8  -5   33.41    1.51
  -3  -8   5   31.92    0.80
  -3   8   5   32.86    0.96
   2  -8  -5   40.62    1.23
  -2  -8   5   41.71    0.93
  -2  -8   5   40.38    0.92
   2  -8  -5   39.98    0.95
   2  -8  -5   40.31    1.63
  -2   8   5   39.40    1.09
   1  -8  -5   30.67    0.79
   1  -8  -5   30.24    1.02
   1  -8  -5   32.11    1.41
  -1  -8   5   31.87    0.78
  -1  -8   5   30.49    0.77
   1   8  -5   28.97    0.92
   0  -8  -5   98.92    2.05
   0  -8  -5   96.93    2.31
   0  -8   5   97.49    2.05
   0  -8  -5   99.28    2.70
   0   8  -5   96.72    2.16
  -1  -8  -5    5.57    0.38
  -1  -8  -5    6.16    0.68
   1  -8   5    5.53    0.41
  -1  -8  -5    6.04    0.57
  -1   8  -5    4.87    0.42
  -2  -8  -5    4.79    0.60
  -2  -8  -5    4.90    0.41
   2  -8   5    4.65    0.43
  -2   8  -5    5.23    0.47
  -2   8  -5    4.49    0.33
  -3  -8  -5    0.07    0.27
   3  -8   5    0.53    0.28
  -3  -8  -5    0.24    0.25
  -3   8  -5    0.43    0.21
   4  -8   5   33.93    1.26
  -4  -8  -5   35.59    1.20
  -4   8  -5   34.23    1.10
  -5  -8  -5   22.92    1.00
   5  -8   5   20.81    1.05
  -5   8  -5   21.32    1.16
   6  -8   5    3.89    0.62
  -6  -8  -5    4.24    0.60
  -7  -8  -5   12.92    1.00
   7  -8   5   11.96    1.04
   8  -8   5    4.63    0.76
  10  -9  -5    2.24    0.76
 -10  -9   5    0.71    0.45
 -10   9   5    0.56    0.49
  -9  -9   5   45.08    1.63
   9  -9  -5   43.55    2.20
  -9   9   5   47.46    1.74
   8  -9  -5    0.48    0.58
  -8  -9   5    0.02    0.34
  -8   9   5    0.17    0.39
   7  -9  -5    2.91    0.78
  -7  -9   5    2.21    0.42
  -7   9   5    2.75    0.49
   6  -9  -5   17.44    1.36
  -6  -9   5   19.82    0.82
  -6   9   5   18.72    0.90
  -5  -9   5  149.80    3.16
   5  -9  -5  155.14    4.20
   5  -9  -5  146.13    3.04
  -5   9   5  154.95    3.31
   4  -9  -5    9.88    0.44
   4  -9  -5    9.67    0.96
  -4  -9   5    9.95    0.47
  -4   9   5    9.86    0.58
   3  -9  -5  226.19    4.63
  -3  -9   5  229.78    4.31
  -3  -9   5  222.48    4.30
   3  -9  -5  230.61    5.37
   3  -9  -5  219.76    4.29
  -3   9   5  221.58    4.48
  -2  -9   5    0.65    0.16
   2  -9  -5    0.65    0.26
  -2  -9   5    0.73    0.17
   2  -9  -5    0.30    0.40
   2  -9  -5    0.70    0.17
  -2   9   5    0.59    0.23
  -1  -9   5   13.43    0.49
  -1  -9   5   12.67    0.48
   1  -9  -5   13.79    0.68
   1  -9  -5   13.34    0.50
   1  -9  -5   13.77    0.99
   1   9  -5   13.70    0.60
   0  -9  -5   72.51    1.87
   0  -9  -5   74.73    2.29
   0  -9   5   72.97    1.65
   0  -9  -5   74.04    1.64
   0   9  -5   72.69    1.71
  -1  -9  -5    1.08    0.42
  -1  -9  -5    1.19    0.23
  -1  -9  -5    1.13    0.31
   1  -9   5    1.26    0.25
  -1   9  -5    1.15    0.24
  -2  -9  -5   12.40    0.83
  -2  -9  -5   12.60    0.60
   2  -9   5   13.65    0.67
  -2   9  -5   13.05    0.63
  -2   9  -5   12.16    0.50
  -3  -9  -5   10.25    0.63
  -3  -9  -5   10.12    0.74
   3  -9   5   10.67    0.67
  -3   9  -5   11.40    0.55
   4  -9   5   24.45    1.06
  -4  -9  -5   22.89    0.96
  -4   9  -5   21.48    0.87
   5  -9   5    8.08    0.75
  -5  -9  -5    7.31    0.66
  -6  -9  -5   16.31    0.94
   6  -9   5   15.18    1.01
   7  -9   5    3.80    0.70
  -7  -9  -5    5.25    0.82
   8  -9   5   17.71    1.24
 -10 -10   5   52.61    1.88
  10 -10  -5   47.04    2.41
 -10  10   5   50.61    1.91
  -9 -10   5    0.34    0.39
   9 -10  -5    0.33    0.59
  -9  10   5    0.25    0.45
   8 -10  -5    1.18    0.66
  -8 -10   5    1.26    0.41
  -8  10   5    0.80    0.43
  -7 -10   5    2.29    0.44
   7 -10  -5    1.75    0.73
  -7  10   5    1.80    0.45
  -6 -10   5    0.04    0.26
   6 -10  -5    0.76    0.62
  -6  10   5   -0.05    0.30
   5 -10  -5    1.72    0.62
  -5 -10   5    2.47    0.34
   5 -10  -5    2.46    0.30
  -5  10   5    2.18    0.40
   4 -10  -5    1.59    0.24
  -4 -10   5    1.48    0.25
   4 -10  -5    1.80    0.65
  -4  10   5    1.51    0.31
   3 -10  -5   26.08    1.46
   3 -10  -5   27.40    0.99
   3 -10  -5   25.46    0.76
  -3 -10   5   25.29    0.77
  -3  10   5   26.39    0.91
   2 -10  -5    1.66    0.31
  -2 -10   5    1.58    0.22
  -2 -10   5    1.64    0.22
   2 -10  -5    1.12    0.52
   2 -10  -5    2.08    0.25
  -2  10   5    1.54    0.30
   1 -10  -5    7.00    0.82
  -1 -10   5    6.46    0.37
   1 -10  -5    5.77    0.38
   1 -10  -5    6.94    0.53
  -1  10   5    6.85    0.49
   1  10  -5    6.35    0.44
   0 -10  -5   38.04    1.02
   0 -10   5   36.82    1.02
   0 -10  -5   37.57    1.54
   0 -10  -5   36.67    1.20
   0  10  -5   36.60    1.03
  -1 -10  -5   77.69    2.27
  -1 -10  -5   72.32    1.93
  -1 -10  -5   72.68    1.73
   1 -10   5   71.61    1.74
  -1  10  -5   72.86    1.73
  -2 -10  -5   68.63    1.74
   2 -10   5   70.59    1.78
  -2 -10  -5   71.42    2.10
  -2  10  -5   68.80    1.73
  -2  10  -5   69.99    1.58
   3 -10   5   18.01    0.86
  -3 -10  -5   18.43    0.82
  -3 -10  -5   20.04    0.98
  -3  10  -5   18.87    0.73
  -4 -10  -5    3.93    0.49
   4 -10   5    3.36    0.51
  -4  10  -5    3.44    0.56
   5 -10   5   13.72    0.92
  -5 -10  -5   13.63    0.83
   6 -10   5   11.06    0.89
  -6 -10  -5    8.36    0.77
   7 -10   5    7.97    0.88
   8 -10   5   15.61    1.24
 -10 -11   5    4.29    0.69
  10 -11  -5    3.17    0.91
 -10  11   5    4.02    0.74
   9 -11  -5    7.53    1.18
  -9 -11   5    6.85    0.73
  -9  11   5    7.75    0.84
  -8 -11   5    4.18    0.57
   8 -11  -5    4.30    0.97
  -8  11   5    4.66    0.64
  -7 -11   5    6.24    0.61
   7 -11  -5    6.60    1.07
  -7  11   5    7.68    0.72
  -6 -11   5   54.80    1.56
   6 -11  -5   57.63    2.44
  -6  11   5   53.07    1.66
   5 -11  -5   26.33    1.03
  -5 -11   5   25.85    0.91
   5 -11  -5   24.21    1.59
  -5  11   5   25.50    1.03
   4 -11  -5   10.98    1.14
   4 -11  -5   11.40    0.53
  -4 -11   5   10.97    0.55
  -4  11   5   10.47    0.64
   3 -11  -5    4.72    0.48
  -3 -11   5    4.23    0.36
   3 -11  -5    4.49    0.78
   3 -11  -5    4.55    0.37
  -3  11   5    4.12    0.42
   2 -11  -5   56.75    2.12
   2 -11  -5   54.50    1.36
   2 -11  -5   58.81    1.57
  -2 -11   5   59.44    1.37
  -2  11   5   56.00    1.50
   1 -11  -5   24.65    1.35
   1 -11  -5   26.17    0.81
   1 -11  -5   26.54    0.95
  -1 -11   5   26.16    0.80
  -1  11   5   25.38    0.91
   0 -11  -5    9.41    0.87
   0 -11   5   10.11    0.51
   0 -11  -5    9.10    0.49
   0 -11  -5    9.92    0.62
   0  11  -5    9.42    0.48
  -1 -11  -5   30.35    1.40
  -1 -11  -5   38.67    1.09
   1 -11   5   35.40    1.07
  -1 -11  -5   37.18    1.24
  -1  11  -5   36.49    1.02
   2 -11   5   13.88    0.72
  -2 -11  -5   14.24    0.68
  -2 -11  -5   11.36    0.86
  -2  11  -5   13.05    0.64
  -2  11  -5   14.91    0.56
  -3 -11  -5    1.19    0.40
   3 -11   5    1.43    0.37
  -3 -11  -5    1.26    0.34
  -3  11  -5    1.20    0.33
  -3  11  -5    1.47    0.32
   4 -11   5    2.46    0.48
  -4 -11  -5    2.40    0.43
  -4 -11  -5    3.20    0.47
   5 -11   5    1.96    0.49
  -5 -11  -5    2.09    0.45
  -6 -11  -5    3.06    0.54
   6 -11   5    1.95    0.54
   7 -11   5    7.67    0.90
  10 -12  -5    1.60    0.74
 -10 -12   5    1.52    0.52
 -10  12   5    0.15    0.53
   9 -12  -5    1.20    0.75
  -9 -12   5    0.87    0.43
  -9  12   5    0.64    0.48
   8 -12  -5    2.99    0.89
  -8 -12   5    2.44    0.50
  -8  12   5    2.44    0.52
  -7 -12   5   36.60    1.32
   7 -12  -5   37.58    2.10
  -7  12   5   37.06    1.44
  -6 -12   5   12.37    0.72
   6 -12  -5   12.01    1.35
  -6  12   5   11.48    0.80
   5 -12  -5    0.55    0.64
  -5 -12   5    1.05    0.30
  -5  12   5    0.87    0.36
   4 -12  -5    9.88    0.53
   4 -12  -5   10.18    1.16
  -4 -12   5   10.35    0.56
  -4  12   5    9.93    0.67
   3 -12  -5   72.39    1.70
   3 -12  -5   73.98    2.61
   3 -12  -5   73.23    1.88
  -3 -12   5   72.95    1.72
  -3  12   5   71.96    1.85
  -2 -12   5    6.77    0.43
   2 -12  -5    7.01    0.44
   2 -12  -5    6.09    0.52
   2 -12  -5    6.75    0.93
  -2  12   5    5.77    0.51
  -1 -12   5  110.66    2.38
   1 -12  -5  108.19    2.38
   1 -12  -5  109.50    3.20
   1 -12  -5  111.54    2.56
  -1  12   5  110.40    2.53
   0 -12   5   12.43    0.60
   0 -12  -5   13.97    1.03
   0 -12  -5   13.16    0.60
   0 -12  -5   12.70    0.70
   0  12  -5   12.78    0.54
  -1 -12  -5   27.91    1.08
  -1 -12  -5   28.03    1.36
  -1 -12  -5   27.92    0.94
   1 -12   5   27.04    0.95
  -1  12  -5   26.60    0.85
  -2 -12  -5   11.90    0.66
   2 -12   5   11.99    0.69
  -2 -12  -5    9.60    0.85
  -2  12  -5   13.21    0.58
  -2  12  -5   11.57    0.59
   3 -12   5    1.33    0.38
  -3 -12  -5    1.85    0.39
  -3 -12  -5    1.57    0.46
  -3  12  -5    1.90    0.34
   4 -12   5    0.72    0.38
  -4 -12  -5    1.60    0.40
  -4 -12  -5    1.43    0.39
  -5 -12  -5    1.65    0.43
   5 -12   5    1.88    0.49
   6 -12   5    1.40    0.54
  -6 -12  -5    1.64    0.47
   7 -12   5   12.04    1.10
   9 -13  -5    0.67    0.70
  -9 -13   5    0.48    0.41
  -9  13   5    0.50    0.48
  -8 -13   5   -0.05    0.35
   8 -13  -5    1.24    0.77
  -8  13   5    0.83    0.45
  -7 -13   5    0.94    0.38
   7 -13  -5    1.51    0.75
  -7  13   5    1.21    0.46
  -6 -13   5   27.14    1.05
   6 -13  -5   25.17    1.78
  -6  13   5   25.72    1.14
  -5 -13   5    4.68    0.48
   5 -13  -5    3.67    0.90
  -5  13   5    2.89    0.49
   4 -13  -5    4.44    0.42
  -4 -13   5    4.44    0.43
   4 -13  -5    3.17    0.83
  -4  13   5    4.60    0.53
   3 -13  -5    6.87    0.57
   3 -13  -5    6.23    1.01
   3 -13  -5    5.88    0.45
  -3 -13   5    6.50    0.47
  -3  13   5    5.55    0.53
   2 -13  -5    9.61    1.01
   2 -13  -5    9.64    0.61
   2 -13  -5   10.26    0.56
  -2 -13   5   10.03    0.54
  -2  13   5    9.93    0.65
   1 -13  -5    9.92    1.03
   1 -13  -5   10.60    0.64
  -1 -13   5   10.12    0.55
   1 -13  -5    9.47    0.53
  -1  13   5    8.41    0.64
   0 -13  -5   22.86    0.82
   0 -13   5   21.22    0.82
   0 -13  -5   23.31    1.32
   0 -13  -5   21.82    0.91
   0  13  -5   20.79    0.71
   0  13   5   22.10    0.93
   1 -13   5   13.08    0.69
  -1 -13  -5   14.28    0.78
  -1 -13  -5   12.92    1.01
  -1 -13  -5   13.19    0.68
  -1  13  -5   13.26    0.56
   2 -13   5   70.05    1.85
  -2 -13  -5   69.39    1.97
  -2 -13  -5   66.76    1.79
  -2 -13  -5   66.50    2.18
  -2  13  -5   70.07    1.67
  -3 -13  -5    9.24    0.81
  -3 -13  -5   10.35    0.68
   3 -13   5    9.96    0.74
  -3  13  -5   10.29    0.60
   4 -13   5    2.48    0.48
  -4 -13  -5    3.44    0.52
   5 -13   5   21.03    1.12
  -5 -13  -5   21.24    1.07
  -6 -13  -5    6.61    0.74
   6 -13   5    6.72    0.78
   7 -13   5    8.94    0.99
   9 -14  -5    5.78    1.18
  -9 -14   5    4.78    0.68
  -9  14   5    5.33    0.77
  -8 -14   5    0.81    0.41
   8 -14  -5    1.48    0.78
  -8  14   5    0.94    0.47
   7 -14  -5    0.43    0.74
  -7 -14   5    1.63    0.42
  -7  14   5    1.19    0.46
  -6 -14   5    0.62    0.32
   6 -14  -5    0.97    0.73
  -6  14   5    0.78    0.41
  -5 -14   5   21.49    0.92
   5 -14  -5   20.20    1.63
  -5  14   5   21.51    1.04
  -4 -14   5   12.19    0.66
   4 -14  -5   11.90    0.63
   4 -14  -5   12.23    1.33
  -4  14   5   12.34    0.77
  -3 -14   5    2.98    0.37
   3 -14  -5    3.22    0.39
   3 -14  -5    4.12    0.89
  -3  14   5    3.47    0.50
   2 -14  -5    1.63    0.34
  -2 -14   5    1.43    0.30
   2 -14  -5    1.68    0.32
   2 -14  -5    1.72    0.70
  -2  14   5    1.63    0.37
   1 -14  -5   10.15    1.07
   1 -14  -5    9.84    0.64
   1 -14  -5   10.24    0.58
  -1 -14   5   10.18    0.58
  -1  14   5   10.07    0.70
   0 -14  -5   44.10    1.38
   0 -14  -5   45.27    1.91
   0 -14   5   42.82    1.28
   0 -14  -5   44.28    1.29
   0  14   5   45.32    1.43
   1 -14   5   29.83    1.07
  -1 -14  -5   30.81    1.05
  -1 -14  -5   28.55    1.45
  -1 -14  -5   30.16    1.16
  -1  14  -5   30.50    0.87
  -2 -14  -5  129.96    3.01
   2 -14   5  135.43    3.07
  -2 -14  -5  138.88    3.52
  -2 -14  -5  131.17    3.18
  -2  14  -5  129.67    2.79
  -3 -14  -5   13.19    0.79
   3 -14   5   14.62    0.85
  -3 -14  -5   14.66    0.97
  -3  14  -5   14.18    0.68
   4 -14   5    0.65    0.38
  -4 -14  -5    1.15    0.38
  -4  14  -5    0.60    0.30
  -5 -14  -5   13.78    0.91
   5 -14   5   13.53    0.98
  -6 -14  -5   11.44    0.90
   6 -14   5   10.25    0.95
   7 -14   5    9.68    0.99
  -9 -15   5    6.20    0.76
   9 -15  -5    6.18    1.21
  -9  15   5    7.98    0.93
  -8 -15   5    0.65    0.41
   8 -15  -5    1.16    0.81
  -8  15   5    0.84    0.47
  -7 -15   5    7.75    0.73
   7 -15  -5    7.52    1.23
  -7  15   5   11.15    0.92
  -6 -15   5   15.64    0.87
   6 -15  -5   17.90    1.65
  -6  15   5   16.51    0.98
   5 -15  -5   35.90    2.10
  -5 -15   5   36.64    1.24
  -5  15   5   35.22    1.37
   4 -15  -5    1.32    0.33
   4 -15  -5    0.92    0.73
  -4 -15   5    1.25    0.33
  -4  15   5    0.70    0.37
  -3 -15   5   57.16    1.57
   3 -15  -5   55.92    1.54
   3 -15  -5   57.95    2.49
  -3  15   5   59.40    1.72
  -2 -15   5    0.17    0.24
   2 -15  -5    0.27    0.27
   2 -15  -5   -0.19    0.61
   2 -15  -5    0.29    0.27
  -2  15   5    0.41    0.32
   1 -15  -5    2.38    0.40
  -1 -15   5    2.71    0.38
   1 -15  -5    2.23    0.72
   1 -15  -5    2.39    0.37
  -1  15   5    1.77    0.39
   0 -15  -5   13.11    0.69
   0 -15  -5   12.00    0.71
   0 -15   5   12.73    0.69
   0 -15  -5    9.41    1.09
   0  15   5   14.61    0.82
   1 -15   5    9.98    0.68
  -1 -15  -5    8.70    0.63
  -1 -15  -5    8.16    0.67
  -1 -15  -5    8.16    0.97
  -1  15  -5    8.37    0.43
   1  15   5    7.37    0.67
   2 -15   5   22.06    0.99
  -2 -15  -5   21.30    0.94
  -2 -15  -5   18.66    1.24
  -2 -15  -5   20.65    1.02
  -2  15  -5   20.98    0.72
  -3 -15  -5    2.48    0.44
  -3 -15  -5    3.25    0.60
   3 -15   5    1.84    0.44
  -3  15  -5    2.54    0.35
  -4 -15  -5   15.65    0.90
   4 -15   5   16.24    0.96
  -4  15  -5   16.37    0.78
  -5 -15  -5    8.74    0.80
   5 -15   5    6.83    0.78
   6 -15   5    4.18    0.69
  -6 -15  -5    5.72    0.76
   7 -15   5    6.49    0.88
   9 -16  -5    1.12    0.85
  -9 -16   5    0.44    0.45
  -9  16   5    0.80    0.55
  -8 -16   5    6.21    0.75
   8 -16  -5    5.70    1.18
  -8  16   5    4.14    0.71
   7 -16  -5    4.67    1.15
  -7 -16   5    3.76    0.57
  -7  16   5    2.27    0.54
   6 -16  -5   29.50    2.04
  -6 -16   5   29.01    1.19
  -6  16   5   28.93    1.29
  -5 -16   5    1.62    0.39
   5 -16  -5    1.19    0.80
  -5  16   5    1.70    0.48
   4 -16  -5   52.84    1.57
   4 -16  -5   55.39    2.55
  -4 -16   5   51.79    1.54
  -4  16   5   53.17    1.69
   3 -16  -5   94.16    2.24
  -3 -16   5   91.16    2.25
   3 -16  -5   91.89    3.27
  -3  16   5   96.30    2.43
   2 -16  -5    1.01    0.33
   2 -16  -5    2.06    0.37
   2 -16  -5    1.51    0.72
  -2 -16   5    1.43    0.34
  -2  16   5    1.51    0.41
   1 -16  -5    7.27    0.56
   1 -16  -5    9.01    1.15
  -1 -16   5    8.33    0.60
   1 -16  -5    7.27    0.61
  -1  16   5    7.96    0.70
   0 -16   5  147.88    3.24
   0 -16  -5  147.59    3.23
   0 -16  -5  147.57    4.07
   0 -16  -5  143.02    3.27
   0  16   5  139.58    3.34
  -1 -16  -5   17.58    0.82
  -1 -16  -5   17.04    0.88
  -1 -16  -5   16.99    1.23
   1 -16   5   16.28    0.85
   1  16   5   16.51    0.93
  -1  16  -5   15.87    0.61
  -2 -16  -5    4.57    0.74
  -2 -16  -5    5.14    0.60
   2 -16   5    3.71    0.52
  -2 -16  -5    5.15    0.56
  -3 -16  -5   14.35    1.02
  -3 -16  -5   13.09    0.81
   3 -16   5   13.56    0.89
  -4 -16  -5   36.34    1.39
   4 -16   5   37.74    1.47
   5 -16   5    1.91    0.53
  -5 -16  -5    1.64    0.48
   6 -16   5   19.08    1.24
  -8 -17   5    2.39    0.55
   8 -17  -5    1.83    0.92
  -8  17   5    2.62    0.63
   7 -17  -5   -0.44    0.71
  -7 -17   5    0.48    0.40
  -7  17   5    0.05    0.41
   6 -17  -5    1.47    0.82
  -6 -17   5    1.27    0.39
  -6  17   5    1.06    0.48
  -5 -17   5    5.55    0.61
   5 -17  -5    7.57    1.33
  -5  17   5    5.82    0.70
   4 -17  -5    6.97    1.23
  -4 -17   5    7.50    0.65
  -4  17   5    8.16    0.75
   3 -17  -5   11.77    1.39
  -3 -17   5   12.40    0.74
   3 -17  -5   10.47    0.67
  -3  17   5   11.37    0.81
   2 -17  -5   22.94    1.69
  -2 -17   5   20.76    0.91
   2 -17  -5   21.31    0.92
   2 -17  -5   22.06    0.92
  -2  17   5   22.61    1.06
   1 -17  -5   32.17    1.11
   1 -17  -5   30.25    1.09
  -1 -17   5   29.96    1.10
   1 -17  -5   26.58    1.71
  -1  17   5   29.91    1.22
   0 -17  -5   16.20    1.38
   0 -17  -5   17.81    0.84
   0 -17   5   15.37    0.82
   0 -17  -5   16.57    0.84
   0  17   5   16.34    0.94
  -1 -17  -5   36.66    1.79
  -1 -17  -5   36.43    1.25
  -1 -17  -5   33.71    1.26
   1 -17   5   34.76    1.26
   1  17   5   34.01    1.36
   2 -17   5   14.66    0.90
  -2 -17  -5   16.26    0.89
  -2 -17  -5   16.15    0.92
  -2 -17  -5   16.62    1.20
   2  17   5   15.16    0.96
  -3 -17  -5    8.39    0.91
   3 -17   5    7.71    0.76
  -3 -17  -5    9.60    0.74
  -3 -17  -5    7.82    0.77
  -4 -17  -5   32.19    1.33
   4 -17   5   29.79    1.34
  -5 -17  -5    8.99    0.85
   5 -17   5    7.15    0.83
   6 -17   5   15.89    1.18
   8 -18  -5    2.62    1.07
  -8 -18   5    3.37    0.62
  -8  18   5    4.48    0.75
  -7 -18   5   16.13    1.00
   7 -18  -5   18.52    1.85
  -7  18   5   14.94    1.08
   6 -18  -5    3.42    1.02
  -6 -18   5    4.41    0.59
  -6  18   5    3.52    0.60
   5 -18  -5    9.42    1.41
  -5 -18   5   12.27    0.81
  -5  18   5   11.90    0.90
  -4 -18   5    4.72    0.56
   4 -18  -5    5.52    1.16
  -4  18   5    5.10    0.64
  -3 -18   5   33.86    1.23
   3 -18  -5   34.42    1.20
   3 -18  -5   31.78    2.02
  -3  18   5   33.37    1.34
  -2 -18   5   49.74    1.53
   2 -18  -5   51.86    1.49
   2 -18  -5   49.70    1.51
   2 -18  -5   49.46    2.40
  -2  18   5   50.32    1.65
   1 -18  -5   74.64    2.88
   1 -18  -5   73.58    1.98
  -1 -18   5   75.07    2.01
   1 -18  -5   75.52    1.96
  -1  18   5   77.85    2.14
   0 -18  -5   15.25    0.80
   0 -18  -5   16.19    1.38
   0 -18   5   14.30    0.83
   0 -18  -5   16.10    0.83
   0  18   5   15.81    0.94
   1 -18   5    3.70    0.53
  -1 -18  -5    4.94    0.55
  -1 -18  -5    3.12    0.48
  -1 -18  -5    2.82    0.76
   1  18   5    3.37    0.56
  -2 -18  -5    9.09    1.02
  -2 -18  -5   10.01    0.77
   2 -18   5   10.30    0.80
  -2 -18  -5   10.68    0.79
   2  18   5   11.24    0.88
   3 -18   5    5.80    0.69
  -3 -18  -5    5.43    0.69
  -3 -18  -5    6.32    0.82
  -3 -18  -5    6.39    0.67
   3  18   5    6.02    0.72
   4 -18   5    6.73    0.75
  -4 -18  -5    5.90    0.67
   5 -18   5    9.38    0.92
  -5 -18  -5    8.94    0.87
   6 -18   5   11.11    1.05
   8 -19  -5    0.70    0.89
  -8 -19   5    3.08    0.61
  -8  19   5    2.74    0.70
   7 -19  -5    4.42    1.25
  -7 -19   5    4.15    0.63
  -7  19   5    5.54    0.78
  -6 -19   5    7.12    0.71
   6 -19  -5    7.27    1.40
  -6  19   5    6.89    0.80
   5 -19  -5    2.90    0.97
  -5 -19   5    3.34    0.53
  -5  19   5    4.08    0.63
  -4 -19   5    1.19    0.40
   4 -19  -5    1.78    0.81
  -4  19   5    1.58    0.48
  -3 -19   5    0.60    0.35
   3 -19  -5   -0.07    0.68
   3 -19  -5    0.77    0.41
  -3  19   5    0.07    0.39
   2 -19  -5   94.14    3.47
   2 -19  -5   95.61    2.34
   2 -19  -5   96.02    2.42
  -2 -19   5  100.47    2.48
  -2  19   5   98.42    2.59
   1 -19  -5    3.31    0.49
   1 -19  -5    2.53    0.84
   1 -19  -5    2.40    0.42
  -1 -19   5    3.52    0.50
  -1  19   5    2.86    0.55
   0 -19  -5   13.49    0.78
   0 -19   5   14.20    0.85
   0 -19  -5   10.93    1.28
   0 -19  -5   14.70    0.83
   0  19   5   14.70    0.93
   1 -19   5   15.27    0.91
  -1 -19  -5   13.48    1.27
  -1 -19  -5   14.04    0.81
  -1 -19  -5   12.86    0.81
   1  19   5   12.90    0.94
   2 -19   5   17.49    0.99
  -2 -19  -5   14.03    0.89
  -2 -19  -5   15.39    1.23
  -2 -19  -5   13.14    0.88
   2  19   5   14.72    0.98
   3 -19   5   10.10    0.84
  -3 -19  -5    9.58    0.81
  -3 -19  -5   10.31    1.02
  -3 -19  -5    9.79    0.85
   3  19   5    9.56    0.90
   4 -19   5    5.73    0.75
  -4 -19  -5    6.29    0.72
   4  19   5    5.63    0.74
   5 -19   5    2.87    0.66
   6 -19   5   -0.16    0.50
   7 -20  -5    7.63    1.43
  -7 -20   5    9.51    0.89
  -7  20   5   11.43    1.06
   6 -20  -5    6.36    1.33
  -6 -20   5    6.75    0.72
  -6  20   5    6.72    0.82
   5 -20  -5    1.99    1.00
  -5 -20   5    3.31    0.56
  -5  20   5    2.58    0.57
   4 -20  -5    7.69    1.40
  -4 -20   5    6.89    0.69
  -4  20   5    7.78    0.82
  -3 -20   5    1.43    0.42
   3 -20  -5    1.48    0.92
  -3  20   5    1.65    0.47
   2 -20  -5    6.61    0.58
   2 -20  -5    7.52    0.67
   2 -20  -5    5.88    1.12
  -2 -20   5    6.34    0.66
  -2  20   5    7.96    0.80
   1 -20  -5    0.03    0.29
  -1 -20   5    0.13    0.31
   1 -20  -5    0.31    0.68
   1 -20  -5    0.17    0.32
  -1  20   5    0.88    0.42
   0 -20   5    7.45    0.69
   0 -20  -5    7.13    0.65
   0 -20  -5    7.83    0.70
   0 -20  -5    8.22    1.17
   0  20   5    6.78    0.72
  -1 -20  -5   11.89    0.79
   1 -20   5   13.50    0.88
  -1 -20  -5   11.98    1.23
  -1 -20  -5   12.12    0.81
   1  20   5   13.70    0.96
  -2 -20  -5    2.65    0.52
  -2 -20  -5    2.82    0.73
   2 -20   5    4.62    0.63
  -2 -20  -5    2.17    0.49
   2  20   5    4.58    0.68
  -3 -20  -5   30.43    1.32
  -3 -20  -5   30.20    1.34
   3 -20   5   33.46    1.41
  -3 -20  -5   30.71    1.61
   3  20   5   30.41    1.41
   4 -20   5    3.42    0.64
  -4 -20  -5    3.03    0.56
  -4 -20  -5    3.90    0.63
   4  20   5    5.17    0.72
   5 -20   5    0.30    0.47
   5  20   5    0.06    0.47
   7 -21  -5    3.44    1.24
  -7 -21   5    3.96    0.66
  -7  21   5    4.50    0.76
   6 -21  -5   -0.44    0.84
  -6 -21   5    0.07    0.40
  -6  21   5   -0.05    0.46
  -5 -21   5    0.77    0.40
   5 -21  -5    0.31    0.85
  -5  21   5    0.53    0.45
   4 -21  -5   11.78    1.59
  -4 -21   5   14.33    0.92
  -4  21   5   14.99    1.02
  -3 -21   5    0.83    0.39
   3 -21  -5    1.15    0.90
  -3  21   5    0.95    0.47
   2 -21  -5   46.06    1.41
   2 -21  -5   45.83    2.47
  -2 -21   5   46.03    1.58
  -2  21   5   45.14    1.66
   1 -21  -5    0.73    0.31
   1 -21  -5    0.46    0.74
  -1 -21   5    0.27    0.34
   1 -21  -5    0.54    0.36
  -1  21   5    0.44    0.41
   0 -21   5    1.02    0.40
   0 -21  -5    0.68    0.71
   0 -21  -5    0.18    0.31
   0 -21  -5    1.39    0.40
   0  21   5    0.26    0.39
  -1 -21  -5   18.44    0.99
  -1 -21  -5   18.29    1.47
  -1 -21  -5   19.11    0.95
   1 -21   5   17.54    1.03
   1  21   5   18.06    1.12
  -2 -21  -5    5.56    0.69
  -2 -21  -5    4.76    0.63
   2 -21   5    3.84    0.62
  -2 -21  -5    5.00    0.91
   2  21   5    5.15    0.74
   3 -21   5    8.06    0.83
  -3 -21  -5    7.66    1.21
  -3 -21  -5    9.03    0.85
  -3 -21  -5    9.98    0.90
   3  21   5    8.35    0.90
   4 -21   5    7.93    0.89
  -4 -21  -5    6.51    0.79
   4  21   5    6.74    0.82
   5 -21   5    1.63    0.59
   5  21   5    2.13    0.61
  -7 -22   5    1.36    0.50
   7 -22  -5   -0.50    0.86
  -7  22   5    0.97    0.59
  -6 -22   5    1.78    0.53
   6 -22  -5    0.87    0.95
  -6  22   5    1.85    0.60
   5 -22  -5   14.39    1.76
  -5 -22   5   13.90    0.97
  -5  22   5   14.22    1.08
  -4 -22   5   15.09    0.95
   4 -22  -5   10.52    1.55
  -4  22   5   13.40    1.04
  -3 -22   5    6.20    0.69
   3 -22  -5    6.84    1.28
  -3  22   5    6.40    0.77
  -2 -22   5    0.34    0.37
   2 -22  -5    1.31    0.87
  -2  22   5    0.95    0.48
  -1 -22   5   11.57    0.87
   1 -22  -5   12.18    1.49
   1 -22  -5   12.37    1.24
  -1  22   5   11.35    0.93
   0 -22  -5    0.71    0.34
   0 -22  -5    1.14    0.40
   0 -22   5    0.25    0.37
   0 -22  -5    0.52    0.68
   0  22   5    0.25    0.42
   1 -22   5   19.95    1.11
  -1 -22  -5   18.05    0.94
  -1 -22  -5   18.44    1.02
  -1 -22  -5   16.42    1.50
   1  22   5   18.72    1.14
  -2 -22  -5    2.41    0.49
  -2 -22  -5    2.61    0.54
   2 -22   5    2.92    0.58
  -2 -22  -5    2.00    0.73
   2  22   5    2.73    0.59
   3 -22   5    0.66    0.46
  -3 -22  -5    1.31    0.47
   3  22   5    0.68    0.46
  -4 -22  -5    6.72    0.82
   4 -22   5    6.67    0.82
   4  22   5    5.00    0.75
   6 -23  -5   -0.72    0.83
  -6 -23   5    0.21    0.44
  -6  23   5    0.82    0.58
  -5 -23   5    0.47    0.42
   5 -23  -5    0.56    0.92
  -5  23   5    0.56    0.50
   4 -23  -5    6.76    1.34
  -4 -23   5    7.51    0.76
  -4  23   5    6.86    0.80
  -3 -23   5   -0.40    0.35
   3 -23  -5   -0.70    0.75
  -3  23   5    0.44    0.46
  -2 -23   5    5.68    0.67
   2 -23  -5    7.45    1.39
  -2  23   5    7.53    0.84
  -1 -23   5   22.11    1.11
   1 -23  -5   20.50    1.80
  -1  23   5   23.32    1.27
   0 -23   5    7.16    0.77
   0 -23  -5    7.50    1.23
   0  23   5    7.75    0.83
  -1 -23  -5   51.79    2.45
   1 -23   5   51.50    1.84
   1  23   5   54.34    1.93
   2 -23   5    0.41    0.43
  -2 -23  -5    1.20    0.66
  -2 -23  -5    0.96    0.40
   2  23   5    1.03    0.53
  -3 -23  -5    2.62    0.57
   3 -23   5    1.95    0.57
   3  23   5    2.57    0.62
  -4 -23  -5    1.04    0.48
   4 -23   5    1.29    0.55
   4  23   5    1.59    0.59
   5 -24  -5   13.35    1.89
  -5 -24   5   14.72    1.07
  -5  24   5   15.23    1.16
   4 -24  -5   -0.48    0.84
  -4 -24   5    0.50    0.44
  -4  24   5    0.11    0.45
  -3 -24   5   17.43    1.07
   3 -24  -5   15.80    1.83
  -3  24   5   15.97    1.11
   2 -24  -5    2.70    1.09
  -2 -24   5    2.63    0.54
  -2  24   5    2.47    0.60
   1 -24  -5    1.53    0.95
  -1 -24   5    1.75    0.49
  -1  24   5    2.64    0.61
   0 -24   5   18.11    1.08
   0 -24  -5   17.66    1.70
   0  24   5   17.87    1.18
  -1 -24  -5    9.00    1.30
   1 -24   5    9.59    0.90
   1  24   5    9.13    0.92
   2 -24   5    5.76    0.76
  -2 -24  -5    5.26    1.00
   2  24   5    3.84    0.71
   3 -24   5    0.41    0.47
   3  24   5    0.63    0.50
  -5 -25   5    4.08    0.70
   5 -25  -5    4.38    1.35
  -5  25   5    4.27    0.77
  -4 -25   5    2.09    0.53
   4 -25  -5    1.27    1.06
  -4  25   5    1.22    0.55
  -3 -25   5    4.78    0.70
   3 -25  -5    3.40    1.23
  -3  25   5    4.88    0.73
   2 -25  -5   18.05    1.94
  -2 -25   5   17.45    1.10
  -2  25   5   17.94    1.18
  -1 -25   5   10.29    0.89
   1 -25  -5   11.35    1.61
  -1  25   5   11.97    1.09
   0 -25   5    4.40    0.68
   0 -25  -5    3.58    1.06
   0  25   5    4.50    0.74
   1 -25   5    0.20    0.42
  -1 -25  -5    0.29    0.69
   1  25   5    0.15    0.48
  -2 -25  -5   26.10    1.79
   2 -25   5   30.79    1.50
   2  25   5   29.03    1.49
   4 -26  -5    8.28    1.56
  -4 -26   5    8.24    0.89
  -4  26   5    7.73    0.91
  -3 -26   5    4.21    0.68
   3 -26  -5    3.53    1.16
  -3  26   5    5.55    0.82
  -2 -26   5    2.82    0.60
   2 -26  -5    1.67    1.09
  -2  26   5    3.10    0.68
  -1 -26   5    0.62    0.46
   1 -26  -5    0.56    0.90
  -1  26   5    1.04    0.53
   0 -26   5    1.32    0.52
   0 -26  -5    0.53    0.82
   0  26   5    0.69    0.53
   1 -26   5    5.27    0.78
  -1 -26  -5    2.76    0.95
   1  26   5    4.59    0.78
   2 -26   5   23.76    1.38
  -2 -26  -5   20.25    1.65
   2 -27  -5   23.86    2.26
  -2 -27   5   29.77    1.46
  -2  27   5   25.27    1.46
   1 -27  -5   27.28    2.19
  -1 -27   5   30.07    1.46
  -1  27   5   27.19    1.50
   0 -27  -5    0.88    0.89
   0 -27   5    0.10    0.46
   0  27   5    1.23    0.59
 -10   0   6    5.62    0.71
   9   0  -6    0.38    0.50
  -9   0   6    1.24    0.45
  -8   0   6    0.12    0.32
   8   0  -6   -0.45    0.40
   7   0  -6    1.95    0.59
  -7   0   6    2.45    0.40
   6   0  -6   13.73    1.06
  -6   0   6   12.54    0.61
  -5   0   6    0.77    0.20
  -5   0   6    0.92    0.19
   5   0  -6    0.25    0.42
  -4   0   6   39.92    0.87
   4   0  -6   38.90    1.60
  -4   0   6   40.54    0.88
   3   0  -6    1.38    0.47
   3   0  -6    1.22    0.35
   2   0  -6    1.12    0.46
   2   0  -6    1.55    0.34
   1   0  -6   14.14    0.70
   1   0  -6   11.26    0.90
   0   0   6   63.71    1.37
   0   0   6   64.13    1.36
   0   0  -6   63.52    1.71
   1   0   6    0.25    0.19
  -1   0  -6    0.32    0.26
   2   0   6  132.73    2.86
  -3   0  -6    1.45    0.26
   3   0   6    1.75    0.37
  -4   0  -6   21.67    0.84
   4   0   6   24.14    1.04
   5   0   6    9.98    0.84
   6   0   6    0.16    0.42
   7   0   6    0.50    0.48
   8   0   6    4.44    0.78
 -10  -1   6    0.49    0.42
 -10   1   6    0.87    0.45
   9  -1  -6    0.23    0.45
  -9  -1   6   -0.08    0.34
  -9   1   6   -0.41    0.33
   9   1  -6    0.23    0.43
  -8  -1   6   37.23    1.31
   8  -1  -6   40.01    1.80
   8   1  -6   38.55    1.72
  -8   1   6   35.72    1.30
  -7  -1   6   31.46    1.08
   7  -1  -6   33.45    1.61
  -7   1   6   29.99    1.08
   7   1  -6   32.56    1.55
  -6  -1   6   14.14    0.62
   6  -1  -6   11.33    1.02
  -6   1   6   13.32    0.62
   6   1  -6   11.77    1.00
   5  -1  -6   68.47    2.30
  -5  -1   6   69.16    1.53
  -5  -1   6   70.99    1.56
  -5   1   6   72.02    1.58
   5   1  -6   72.67    2.31
  -5   1   6   69.74    1.57
  -4  -1   6  137.37    2.57
  -4  -1   6  136.97    2.57
   4  -1  -6  132.48    3.53
   4   1  -6  136.84    3.55
  -4   1   6  136.63    2.63
  -4   1   6  136.99    2.63
   3  -1  -6    9.87    0.90
   3  -1  -6   13.51    0.73
   3   1  -6   10.85    0.90
   3   1  -6   12.75    0.71
   2  -1  -6    6.99    0.57
   2  -1  -6    5.88    0.74
   2   1  -6    3.41    0.57
   2   1  -6    4.43    0.45
   1  -1  -6  149.43    3.32
   1  -1  -6  158.17    3.80
   1   1  -6  152.24    3.32
  -1   1   6  153.23    2.85
  -1   1   6  153.38    2.85
   0  -1  -6   46.20    1.38
   0  -1  -6   44.56    1.67
   0  -1   6   45.06    1.02
   0  -1   6   45.94    1.03
   0   1  -6   48.12    1.38
   0   1   6   44.99    1.05
   0   1   6   45.30    1.06
   1  -1   6   23.31    0.73
  -1  -1  -6   21.79    0.92
   1   1   6   21.79    0.73
   2  -1   6   39.81    1.17
  -2  -1  -6   39.40    0.98
  -2   1  -6   42.52    1.36
   2   1   6   41.00    1.18
  -3  -1  -6    8.25    0.47
   3  -1   6    8.44    0.62
   3   1   6    9.16    0.64
  -3   1  -6    7.38    0.44
   4  -1   6   25.79    1.09
  -4  -1  -6   26.37    0.93
   4   1   6   26.24    1.12
  -4   1  -6   27.58    0.93
   5  -1   6   11.78    0.88
   5   1   6   10.31    0.82
   6  -1   6    1.70    0.52
   6   1   6    0.98    0.48
   7  -1   6   -0.49    0.41
   7   1   6    0.23    0.48
   8  -1   6   13.00    1.20
   8   1   6   14.03    1.18
 -10  -2   6    9.29    0.86
 -10   2   6    9.60    0.88
  -9  -2   6   13.31    0.89
   9  -2  -6   13.36    1.16
  -9   2   6   14.05    0.91
   9   2  -6   13.26    1.08
  -8  -2   6    9.22    0.72
   8  -2  -6   10.80    1.06
  -8   2   6   11.81    0.78
   8   2  -6   10.66    1.00
   7  -2  -6    4.66    0.81
  -7  -2   6    4.09    0.46
   7   2  -6    4.94    0.77
  -7   2   6    4.47    0.49
  -6  -2   6   56.00    1.44
   6  -2  -6   59.76    2.17
   6   2  -6   55.38    2.02
  -6   2   6   58.58    1.49
  -5  -2   6    2.21    0.24
  -5  -2   6    2.12    0.24
   5  -2  -6    2.31    0.56
   5   2  -6    1.89    0.53
  -5   2   6    1.86    0.26
  -5   2   6    2.10    0.35
   4  -2  -6    2.23    0.55
  -4  -2   6    3.16    0.19
  -4   2   6    3.11    0.24
   4   2  -6    2.16    0.52
  -4   2   6    3.04    0.25
   3  -2  -6  127.32    2.94
   3  -2  -6  131.57    3.42
  -3   2   6  129.98    2.44
   3   2  -6  129.59    2.94
   3   2  -6  129.29    3.37
   2  -2  -6   97.35    2.36
   2  -2  -6   99.46    2.80
  -2   2   6   99.85    1.85
   2   2  -6   99.75    2.34
   1  -2  -6  107.50    2.51
   1  -2  -6  107.16    2.91
  -1   2   6  106.36    2.09
   1   2  -6  105.88    2.47
  -1   2   6  111.43    2.09
   0  -2   6   62.36    1.30
   0  -2  -6   61.52    1.99
   0  -2   6   60.82    1.31
   0  -2  -6   60.78    1.68
   0   2   6   59.86    1.37
   0   2   6   62.75    1.36
   0   2  -6   63.69    1.67
   1  -2   6   47.09    1.19
  -1   2  -6   48.57    1.44
   1   2   6   49.22    1.23
  -2  -2  -6    6.95    0.37
   2  -2   6    7.22    0.50
  -2   2  -6    7.77    0.63
   2   2   6    8.10    0.53
  -3  -2  -6   27.55    0.87
   3  -2   6   27.20    1.01
   3   2   6   27.54    1.04
  -3   2  -6   27.32    0.83
  -4  -2  -6   22.84    0.87
   4  -2   6   21.71    1.00
  -4   2  -6   21.08    0.91
   4   2   6   22.78    1.05
   5  -2   6    3.56    0.56
   5   2   6    3.90    0.59
   6  -2   6   12.54    0.97
   6   2   6   13.06    0.97
   7  -2   6    2.68    0.61
   7   2   6    4.00    0.72
   8  -2   6   26.48    1.48
   8   2   6   26.11    1.51
  10  -3  -6   14.25    1.96
 -10  -3   6   14.06    0.98
 -10   3   6   15.49    1.04
   9  -3  -6    6.92    0.99
  -9  -3   6    5.77    0.65
  -9   3   6    6.51    0.70
  -8  -3   6   53.21    1.60
   8  -3  -6   51.36    2.14
  -8   3   6   51.08    1.61
   7  -3  -6    0.70    0.53
  -7  -3   6    1.14    0.33
   7   3  -6    1.22    0.50
  -7   3   6    0.71    0.33
   6  -3  -6   34.28    1.66
  -6  -3   6   33.69    1.02
   6   3  -6   36.89    1.58
  -6   3   6   35.98    1.09
  -5  -3   6   29.95    0.81
  -5  -3   6   31.48    0.83
   5  -3  -6   31.43    1.51
  -5   3   6   29.83    0.89
   5   3  -6   30.37    1.43
  -4  -3   6    6.10    0.24
   4  -3  -6    7.02    0.81
  -4   3   6    7.25    0.34
   4   3  -6    5.70    0.72
  -4   3   6    6.52    0.36
   3  -3  -6   23.06    1.22
   3  -3  -6   22.51    0.94
  -3   3   6   22.39    0.58
   2  -3  -6   26.84    1.02
   2  -3  -6   29.72    1.38
   2   3  -6   29.16    1.01
  -2   3   6   27.87    0.66
   1  -3  -6   88.14    2.15
   1  -3  -6   83.12    2.50
  -1   3   6   88.01    1.76
  -1   3   6   88.34    1.77
   1   3  -6   87.31    2.10
   0  -3  -6   20.39    1.11
   0  -3  -6   20.71    0.88
   0  -3   6   19.80    0.56
   0  -3   6   19.97    0.56
   0   3   6   20.48    0.64
   0   3  -6   18.89    0.81
   1  -3   6   47.50    1.19
  -1  -3  -6   49.53    1.71
  -1  -3  -6   46.48    1.45
   1   3   6   46.84    1.23
  -1   3  -6   47.58    1.42
   2  -3   6   26.59    0.91
  -2  -3  -6   26.89    0.76
   2   3   6   26.00    0.93
  -2   3  -6   27.58    1.06
   3  -3   6   20.48    0.86
  -3  -3  -6   19.49    0.73
   3   3   6   18.35    0.85
  -3   3  -6   20.11    0.68
   4  -3   6   11.43    0.77
  -4  -3  -6   12.00    0.66
   4   3   6   12.77    0.82
   5  -3   6    5.37    0.64
   5   3   6    3.86    0.59
   6  -3   6    5.17    0.71
   6   3   6    5.43    0.71
   7  -3   6    6.36    0.83
   7   3   6    5.27    0.76
   8  -3   6   12.32    1.13
   8   3   6   12.47    1.17
  10  -4  -6    3.14    0.79
 -10  -4   6    3.47    0.60
 -10   4   6    4.19    0.65
  -9  -4   6    2.30    0.47
   9  -4  -6    2.01    0.67
  -9   4   6    1.36    0.46
  -8  -4   6   13.05    0.78
   8  -4  -6   13.54    1.20
  -8   4   6   12.61    0.83
   7  -4  -6   10.80    1.09
  -7  -4   6   10.90    0.66
  -7   4   6   10.60    0.70
   6  -4  -6    1.64    0.59
  -6  -4   6    1.97    0.31
  -6   4   6    2.24    0.35
  -5  -4   6    3.64    0.32
  -5  -4   6    3.52    0.30
   5  -4  -6    4.06    0.75
  -5   4   6    3.07    0.34
  -4  -4   6    4.84    0.23
   4  -4  -6    4.38    0.69
  -4   4   6    4.57    0.34
  -4   4   6    4.72    0.32
   3  -4  -6    3.09    0.61
   3  -4  -6    3.05    0.46
  -3   4   6    3.57    0.28
  -3   4   6    3.87    0.26
   2  -4  -6   52.14    1.48
   2  -4  -6   47.43    1.82
   2   4  -6   50.61    1.42
  -2   4   6   49.75    1.10
   1  -4  -6   87.60    2.53
   1  -4  -6   84.35    2.11
  -1   4   6   83.43    1.76
  -1   4   6   86.18    1.78
   1   4  -6   83.85    2.05
   0  -4  -6   13.12    0.73
   0  -4  -6   14.16    0.94
   0  -4   6   13.60    0.44
   0  -4   6   12.86    0.45
   0   4   6   14.21    0.55
   0   4  -6   13.39    0.69
  -1  -4  -6    9.25    0.79
  -1  -4  -6   10.33    0.67
   1  -4   6   10.04    0.48
   1   4   6   10.49    0.55
  -1   4  -6   10.95    0.65
  -2  -4  -6   43.37    1.07
   2  -4   6   42.39    1.19
  -2   4  -6   41.38    1.35
   2   4   6   40.15    1.23
  -3  -4  -6   33.37    1.00
   3  -4   6   33.28    1.14
  -3   4  -6   32.71    0.92
   3   4   6   32.90    1.17
  -4  -4  -6    6.46    0.53
   4  -4   6    5.12    0.59
   4   4   6    5.25    0.60
  -5  -4  -6   14.03    1.00
   5  -4   6   14.12    0.91
   5   4   6   14.90    0.95
   6  -4   6    1.63    0.52
   6   4   6    2.23    0.52
   7  -4   6    5.14    0.74
   7   4   6    4.20    0.70
   8  -4   6    8.50    0.96
   8   4   6    8.45    1.00
  10  -5  -6    0.71    0.57
 -10  -5   6    0.18    0.41
 -10   5   6   -0.42    0.40
  -9  -5   6   11.06    0.83
   9  -5  -6   12.55    1.25
  -9   5   6   10.99    0.88
  -8  -5   6   16.60    0.87
   8  -5  -6   17.57    1.35
  -8   5   6   17.35    0.95
  -7  -5   6    8.32    0.60
   7  -5  -6    7.86    1.02
  -7   5   6    8.71    0.67
  -6  -5   6    8.00    0.51
   6  -5  -6    8.70    1.02
  -6   5   6    7.91    0.58
   5  -5  -6   10.73    1.02
  -5  -5   6   12.61    0.50
  -5   5   6   11.32    0.57
  -4  -5   6  156.84    2.94
   4  -5  -6  153.79    4.01
  -4   5   6  154.34    3.12
   3  -5  -6  156.00    4.00
   3  -5  -6  158.61    3.49
  -3   5   6  158.32    3.10
  -3   5   6  157.99    3.10
   2  -5  -6  108.23    2.56
   2  -5  -6  114.16    3.08
   2   5  -6  105.83    2.49
  -2   5   6  108.61    2.20
   1  -5  -6   62.32    2.05
  -1  -5   6   63.30    1.19
   1  -5  -6   59.63    1.68
   1   5  -6   61.08    1.60
   0  -5   6    0.52    0.15
   0  -5   6    0.86    0.16
   0  -5  -6    0.53    0.39
   0  -5  -6    0.76    0.31
   0   5   6    0.75    0.22
   0   5  -6    0.56    0.27
  -1  -5  -6    0.65    0.39
   1  -5   6    1.12    0.22
  -1  -5  -6    1.65    0.36
  -1   5  -6    1.18    0.31
   1   5   6    0.89    0.26
   2  -5   6    5.99    0.48
  -2  -5  -6    5.70    0.39
   2   5   6    5.79    0.51
  -2   5  -6    6.34    0.58
  -3  -5  -6    5.66    0.46
   3  -5   6    4.51    0.50
   3   5   6    5.41    0.56
  -3   5  -6    4.92    0.40
   4  -5   6   28.64    1.16
  -4  -5  -6   27.42    1.00
   4   5   6   27.33    1.17
   5  -5   6    1.95    0.49
  -5  -5  -6    2.40    0.64
   5   5   6    2.09    0.50
   6  -5   6    5.45    0.70
   6   5   6    6.26    0.76
   7  -5   6    6.37    0.80
   7   5   6    4.82    0.73
   8  -5   6    4.35    0.75
   8   5   6    3.35    0.74
 -10  -6   6   11.73    0.95
  10  -6  -6   11.34    1.23
 -10   6   6   11.28    0.99
  -9  -6   6   26.50    1.20
   9  -6  -6   28.30    1.71
  -9   6   6   29.02    1.29
  -8  -6   6    2.73    0.46
   8  -6  -6    2.91    0.75
  -8   6   6    2.47    0.50
   7  -6  -6   16.37    1.34
  -7  -6   6   19.25    0.83
  -7   6   6   20.52    0.94
   6  -6  -6    8.89    1.03
  -6  -6   6    8.36    0.53
  -6   6   6    8.38    0.60
  -5  -6   6   34.77    0.93
   5  -6  -6   33.48    1.65
  -5   6   6   34.05    1.05
  -4  -6   6   27.82    0.70
   4  -6  -6   27.07    1.46
  -4   6   6   29.76    0.88
   3  -6  -6    9.61    0.65
   3  -6  -6    7.51    0.88
  -3   6   6    8.89    0.44
   2  -6  -6   25.22    1.33
   2  -6  -6   26.46    1.00
   2   6  -6   26.04    0.95
  -1  -6   6    7.32    0.27
  -1  -6   6    7.17    0.27
   1  -6  -6    7.78    0.58
   1  -6  -6    5.18    0.70
   1   6  -6    7.75    0.53
   0  -6  -6   16.94    1.04
   0  -6  -6   15.46    0.79
   0  -6   6   15.91    0.53
   0  -6   6   16.85    0.54
   0   6  -6   15.12    0.71
   1  -6   6   23.82    0.78
  -1  -6  -6   24.45    0.69
  -1  -6  -6   22.09    1.15
   1   6   6   24.73    0.86
  -1   6  -6   25.37    0.93
   2  -6   6    8.37    0.53
  -2  -6  -6    8.31    0.75
  -2  -6  -6    7.64    0.44
   2   6   6    7.47    0.57
  -2   6  -6    7.59    0.59
  -3  -6  -6   17.94    0.74
   3  -6   6   18.61    0.86
   3   6   6   19.50    0.92
  -4  -6  -6   84.52    2.12
   4  -6   6   89.85    2.30
   4   6   6   85.76    2.32
  -5  -6  -6   12.08    1.11
   5  -6   6   12.28    0.90
   5   6   6   12.90    0.91
   6  -6   6    7.02    0.79
   6   6   6    6.55    0.80
   7  -6   6    7.64    0.88
   7   6   6    7.16    0.86
 -10  -7   6   29.27    1.37
  10  -7  -6   30.93    1.85
 -10   7   6   28.71    1.40
  -9  -7   6    7.80    0.73
   9  -7  -6    8.42    1.18
  -9   7   6    7.91    0.80
  -8  -7   6    3.99    0.52
   8  -7  -6    4.64    0.91
  -8   7   6    3.92    0.57
  -7  -7   6    2.66    0.41
   7  -7  -6    1.51    0.68
  -7   7   6    2.53    0.46
   6  -7  -6    0.06    0.52
  -6  -7   6    0.58    0.25
  -6   7   6    0.33    0.29
   5  -7  -6   54.21    2.20
  -5  -7   6   55.28    1.33
  -5   7   6   56.68    1.48
  -4  -7   6    1.21    0.18
   4  -7  -6    0.93    0.55
  -4  -7   6    1.13    0.17
  -4   7   6    1.38    0.28
   3  -7  -6    1.89    0.36
   3  -7  -6    1.74    0.58
  -3  -7   6    2.33    0.18
  -3  -7   6    2.83    0.19
  -3   7   6    2.43    0.29
  -2  -7   6   21.65    0.50
  -2  -7   6   20.84    0.49
   2  -7  -6   20.48    1.19
   2  -7  -6   19.94    0.88
   2   7  -6   20.99    0.83
  -1  -7   6   67.04    1.39
   1  -7  -6   66.63    1.80
  -1  -7   6   67.47    1.39
   1  -7  -6   70.40    2.25
   1   7  -6   64.73    1.69
   0  -7   6   14.71    0.53
   0  -7   6   14.17    0.52
   0  -7  -6   15.51    1.02
   0  -7  -6   16.13    0.80
   0   7  -6   15.43    0.70
  -1  -7  -6   29.58    1.33
  -1  -7  -6   28.68    0.81
  -1  -7  -6   28.38    1.11
   1  -7   6   28.25    0.88
  -1   7  -6   28.21    1.00
  -2  -7  -6   14.09    0.84
  -2  -7  -6   15.03    0.62
   2  -7   6   14.37    0.68
  -2  -7  -6   13.69    0.91
  -2   7  -6   13.93    0.74
  -3  -7  -6    8.91    0.55
   3  -7   6    8.46    0.65
   3   7   6    8.73    0.70
   4  -7   6   44.84    1.51
  -4  -7  -6   45.46    1.39
   4   7   6   46.70    1.57
   5  -7   6   18.51    1.04
  -5  -7  -6   18.92    1.37
   5   7   6   17.52    1.04
   6  -7   6    2.50    0.55
   7  -7   6    4.08    0.73
  10  -8  -6    8.31    1.19
 -10  -8   6    8.05    0.85
 -10   8   6    9.56    0.93
   9  -8  -6    4.38    0.93
  -9  -8   6    4.72    0.64
  -9   8   6    4.97    0.68
  -8  -8   6    4.96    0.56
   8  -8  -6    5.79    0.99
  -8   8   6    4.42    0.59
   7  -8  -6    5.98    1.00
  -7  -8   6    7.05    0.60
  -7   8   6    7.20    0.67
   6  -8  -6   83.42    2.92
  -6  -8   6   82.65    1.97
  -6   8   6   83.61    2.10
   5  -8  -6    4.23    0.86
  -5  -8   6    5.43    0.40
  -5   8   6    4.59    0.47
  -4  -8   6   40.68    1.00
  -4  -8   6   42.61    1.02
   4  -8  -6   40.00    1.84
  -4   8   6   42.08    1.19
  -3  -8   6   12.88    0.42
   3  -8  -6   11.09    1.05
   3  -8  -6   13.28    0.76
  -3  -8   6   12.58    0.41
  -3   8   6   13.12    0.59
   2  -8  -6    9.87    0.95
   2  -8  -6   10.88    0.67
  -2  -8   6    9.96    0.36
  -2  -8   6   10.24    0.36
   2   8  -6   11.25    0.62
  -2   8   6   10.39    0.53
  -1  -8   6   85.87    1.78
   1  -8  -6   86.57    2.18
  -1  -8   6   84.38    1.77
   1  -8  -6   87.54    2.63
   1   8  -6   87.49    2.05
   0  -8  -6   18.48    0.88
   0  -8  -6   20.15    1.16
   0  -8   6   20.39    0.65
   0  -8  -6   19.01    0.59
   0   8  -6   20.54    0.80
  -1  -8  -6    1.87    0.51
   1  -8   6    1.65    0.28
  -1  -8  -6    2.21    0.27
  -1  -8  -6    2.26    0.42
  -1   8  -6    1.80    0.33
   2  -8   6    4.23    0.44
  -2  -8  -6    4.47    0.40
  -2  -8  -6    4.36    0.57
  -2  -8  -6    4.67    0.64
  -2   8  -6    5.20    0.53
   3  -8   6    0.44    0.32
  -3  -8  -6    0.13    0.24
  -3   8  -6    1.07    0.34
  -4  -8  -6    8.00    0.61
   4  -8   6    6.49    0.65
   5  -8   6    8.11    0.78
   6  -8   6    5.79    0.74
   7  -8   6    8.73    0.92
 -10  -9   6    1.37    0.51
  10  -9  -6    1.41    0.74
 -10   9   6    1.22    0.53
   9  -9  -6    3.22    0.87
  -9  -9   6    3.29    0.56
  -9   9   6    3.25    0.58
  -8  -9   6   27.98    1.17
   8  -9  -6   31.02    1.90
  -8   9   6   29.40    1.26
  -7  -9   6    3.12    0.45
   7  -9  -6    3.39    0.84
  -7   9   6    2.85    0.48
   6  -9  -6   20.44    1.48
  -6  -9   6   20.06    0.82
  -6   9   6   21.69    0.94
   5  -9  -6   64.80    2.50
  -5  -9   6   66.91    1.59
  -5   9   6   67.52    1.76
  -4  -9   6   84.69    1.81
  -4  -9   6   84.63    1.82
   4  -9  -6   82.78    2.80
  -4   9   6   84.70    2.01
  -3  -9   6   11.35    0.43
  -3  -9   6   11.01    0.43
   3  -9  -6   12.75    1.09
   3  -9  -6   11.15    0.72
  -3   9   6   11.55    0.59
  -2  -9   6   39.08    0.91
   2  -9  -6   35.53    1.23
   2  -9  -6   38.40    1.73
  -2  -9   6   37.80    0.90
  -2   9   6   36.64    1.09
   1  -9  -6   26.07    1.01
   1  -9  -6   25.24    1.36
  -1  -9   6   24.89    0.72
  -1  -9   6   25.35    0.72
   1   9  -6   26.22    0.90
   0  -9  -6   29.45    0.80
   0  -9  -6   28.93    1.09
   0  -9   6   28.45    0.84
   0  -9  -6   25.39    1.34
   0   9  -6   29.49    0.97
  -1  -9  -6    2.01    0.28
   1  -9   6    2.36    0.33
  -1  -9  -6    1.53    0.49
  -1  -9  -6    1.99    0.43
  -1   9  -6    1.50    0.30
   2  -9   6   22.01    0.87
  -2  -9  -6   21.17    1.03
  -2  -9  -6   22.68    1.16
  -2  -9  -6   21.31    0.79
  -2   9  -6   21.51    0.91
  -3  -9  -6    5.95    0.69
   3  -9   6    7.59    0.65
  -3  -9  -6    6.93    0.54
  -3   9  -6    7.34    0.64
   4  -9   6   19.61    1.01
  -4  -9  -6   19.55    0.90
   5  -9   6   11.42    0.89
   6  -9   6    7.10    0.79
   7  -9   6    4.20    0.72
 -10 -10   6    2.94    0.60
  10 -10  -6    2.36    0.86
 -10  10   6    2.51    0.63
   9 -10  -6   26.17    1.82
  -9 -10   6   22.96    1.16
  -9  10   6   24.78    1.27
   8 -10  -6    1.32    0.71
  -8 -10   6    0.66    0.37
  -8  10   6    0.74    0.42
  -7 -10   6   17.92    0.88
   7 -10  -6   20.01    1.52
  -7  10   6   18.11    0.98
  -6 -10   6   15.86    0.74
   6 -10  -6   14.21    1.31
  -6  10   6   14.72    0.83
  -5 -10   6    2.26    0.31
   5 -10  -6    2.05    0.70
  -5  10   6    2.20    0.41
   4 -10  -6    1.40    0.59
  -4 -10   6    2.18    0.27
  -4  10   6    1.80    0.36
  -3 -10   6   45.78    1.09
   3 -10  -6   44.17    1.94
  -3 -10   6   44.53    1.08
   3 -10  -6   44.03    1.42
  -3  10   6   44.09    1.27
   2 -10  -6   11.02    0.70
  -2 -10   6   10.71    0.44
   2 -10  -6    8.70    0.96
  -2 -10   6   10.83    0.45
  -2  10   6   10.94    0.60
   1 -10  -6    2.26    0.62
   1 -10  -6    3.86    0.30
   1 -10  -6    3.05    0.45
  -1 -10   6    2.84    0.29
  -1 -10   6    3.59    0.30
   1  10  -6    2.71    0.36
   0 -10  -6  139.74    2.86
   0 -10  -6  138.73    3.22
   0 -10   6  138.76    2.91
   0 -10  -6  144.13    3.72
   0  10  -6  141.32    3.01
   1 -10   6   22.45    0.84
  -1 -10  -6   24.18    0.80
  -1 -10  -6   22.46    1.02
  -1 -10  -6   24.95    1.29
  -1  10  -6   23.14    0.88
  -2 -10  -6   10.32    0.58
   2 -10   6    9.68    0.64
  -2 -10  -6   10.02    0.80
  -2 -10  -6    8.97    0.84
  -2  10  -6   10.87    0.65
  -3 -10  -6   27.48    1.02
   3 -10   6   28.27    1.11
  -3 -10  -6   29.93    1.29
  -3  10  -6   28.15    1.10
   4 -10   6   11.49    0.83
  -4 -10  -6   10.03    0.70
   5 -10   6    8.93    0.82
   6 -10   6    6.60    0.78
   7 -10   6    5.23    0.79
  10 -11  -6    7.56    1.22
 -10 -11   6    7.85    0.83
 -10  11   6    9.38    0.95
  -9 -11   6    4.97    0.66
   9 -11  -6    3.69    0.95
  -9  11   6    4.92    0.71
   8 -11  -6    7.87    1.23
  -8 -11   6    6.95    0.67
  -8  11   6    6.99    0.74
   7 -11  -6    1.72    0.78
  -7 -11   6    2.16    0.40
  -7  11   6    1.68    0.45
   6 -11  -6   16.59    1.44
  -6 -11   6   14.68    0.74
  -6  11   6   16.96    0.89
   5 -11  -6   51.36    2.31
  -5 -11   6   52.04    1.38
  -5  11   6   50.37    1.53
  -4 -11   6   62.87    1.51
   4 -11  -6   63.07    2.48
  -4  11   6   61.77    1.69
   3 -11  -6    7.68    0.63
  -3 -11   6    7.73    0.42
  -3 -11   6    7.54    0.42
   3 -11  -6    8.71    1.10
  -3  11   6    6.49    0.54
   2 -11  -6   29.96    0.83
  -2 -11   6   29.93    0.84
  -2 -11   6   28.55    0.84
   2 -11  -6   30.24    1.59
   2 -11  -6   29.99    1.12
  -2  11   6   30.26    1.02
   1 -11  -6    1.44    0.62
   1 -11  -6    1.55    0.24
   1 -11  -6    1.75    0.37
  -1 -11   6    1.35    0.24
   1  11  -6    1.25    0.29
   0 -11  -6   31.23    1.19
   0 -11  -6   32.03    1.54
   0 -11   6   34.67    1.00
   0 -11  -6   33.10    0.95
   0  11  -6   33.61    1.03
   1 -11   6   18.56    0.78
  -1 -11  -6   18.38    0.72
  -1 -11  -6   18.61    0.94
  -1 -11  -6   18.56    1.16
  -1  11  -6   18.04    0.76
  -2 -11  -6    5.98    0.51
  -2 -11  -6    6.61    0.70
  -2 -11  -6    7.37    0.82
   2 -11   6    5.73    0.54
  -2  11  -6    6.10    0.53
  -3 -11  -6    4.09    0.63
  -3 -11  -6    4.59    0.50
   3 -11   6    5.18    0.56
  -3  11  -6    4.02    0.50
  -4 -11  -6    6.94    0.62
   4 -11   6    6.97    0.71
   5 -11   6    1.94    0.52
   6 -11   6    4.11    0.67
   7 -11   6   16.12    1.19
  -9 -12   6   21.65    1.15
   9 -12  -6   22.82    1.81
  -9  12   6   23.11    1.29
  -8 -12   6    0.93    0.39
   8 -12  -6    1.82    0.77
  -8  12   6    1.72    0.51
   7 -12  -6   26.20    1.80
  -7 -12   6   27.52    1.11
  -7  12   6   27.79    1.21
   6 -12  -6   71.69    2.87
  -6 -12   6   68.96    1.83
  -6  12   6   68.67    1.98
   5 -12  -6    3.27    0.87
  -5 -12   6    3.28    0.39
  -5  12   6    2.95    0.48
   4 -12  -6    0.36    0.58
  -4 -12   6    0.49    0.24
  -4  12   6    0.44    0.32
  -3 -12   6   80.50    1.84
   3 -12  -6   82.00    2.87
   3 -12  -6   81.06    2.12
   3 -12  -6   79.73    2.15
  -3  12   6   80.34    2.02
   2 -12  -6    1.03    0.34
   2 -12  -6    1.44    0.24
   2 -12  -6    0.85    0.53
  -2 -12   6    0.64    0.22
  -2  12   6    1.67    0.35
  -1 -12   6    6.69    0.45
   1 -12  -6    6.45    0.43
   1 -12  -6    7.24    0.95
   1 -12  -6    7.40    0.62
  -1  12   6    6.75    0.55
   1  12  -6    6.87    0.50
   0 -12   6    3.47    0.38
   0 -12  -6    2.25    0.64
   0 -12  -6    3.98    0.37
   0 -12  -6    3.82    0.51
   0  12  -6    3.80    0.40
  -1 -12  -6    5.19    0.58
  -1 -12  -6    5.71    0.82
   1 -12   6    4.76    0.48
  -1 -12  -6    5.80    0.47
  -1  12  -6    5.32    0.48
   2 -12   6   30.65    1.10
  -2 -12  -6   29.61    1.26
  -2 -12  -6   28.36    1.40
  -2 -12  -6   28.69    1.02
  -2  12  -6   27.60    1.00
  -3 -12  -6    8.66    0.81
  -3 -12  -6    8.67    0.64
   3 -12   6    8.48    0.71
  -3  12  -6    8.36    0.64
  -4 -12  -6    3.77    0.51
   4 -12   6    3.71    0.55
  -4  12  -6    4.12    0.54
   5 -12   6    0.88    0.44
   6 -12   6    4.07    0.68
   7 -12   6   23.60    1.38
  -9 -13   6   -0.12    0.37
   9 -13  -6    0.21    0.66
  -9  13   6    0.30    0.46
   8 -13  -6    9.72    1.37
  -8 -13   6    9.05    0.77
  -8  13   6   12.20    0.96
  -7 -13   6   10.72    0.76
   7 -13  -6   11.86    1.40
  -7  13   6   10.86    0.87
  -6 -13   6   14.84    0.77
   6 -13  -6   14.61    1.48
  -6  13   6   13.39    0.88
  -5 -13   6   14.47    0.72
   5 -13  -6   16.21    1.49
  -5  13   6   14.58    0.87
   4 -13  -6   87.86    3.17
  -4 -13   6   89.31    2.08
  -4  13   6   89.84    2.26
  -3 -13   6   10.51    0.55
   3 -13  -6   11.96    0.75
   3 -13  -6   10.01    1.21
  -3  13   6   11.90    0.72
   2 -13  -6    0.83    0.58
  -2 -13   6    1.29    0.27
   2 -13  -6    1.57    0.38
   2 -13  -6    1.03    0.24
  -2  13   6    2.01    0.37
   1 -13  -6   27.72    0.89
   1 -13  -6   27.41    1.09
  -1 -13   6   27.35    0.90
   1 -13  -6   27.18    1.54
  -1  13   6   28.26    1.06
   0 -13  -6    6.89    0.65
   0 -13  -6    6.78    0.48
   0 -13  -6    6.48    0.91
   0 -13   6    7.09    0.52
   0  13  -6    6.80    0.48
  -1 -13  -6   58.69    1.54
   1 -13   6   57.34    1.59
  -1 -13  -6   55.56    1.76
  -1 -13  -6   58.91    2.16
  -1  13  -6   56.79    1.49
  -2 -13  -6    6.89    0.84
  -2 -13  -6    6.28    0.66
   2 -13   6    6.30    0.59
  -2 -13  -6    6.41    0.57
  -2  13  -6    6.35    0.52
  -3 -13  -6    8.56    0.83
  -3 -13  -6    8.26    0.63
   3 -13   6    9.00    0.74
  -3  13  -6    7.85    0.62
  -4 -13  -6    5.38    0.94
   4 -13   6    2.82    0.53
  -4  13  -6    3.89    0.52
   5 -13   6   13.55    0.99
   6 -13   6    5.29    0.79
   7 -13   6   12.27    1.13
   9 -14  -6    2.46    0.88
  -9 -14   6    2.05    0.53
  -9  14   6    1.78    0.58
   8 -14  -6   10.05    1.40
  -8 -14   6   12.51    0.88
  -8  14   6   11.33    0.94
   7 -14  -6    1.48    0.79
  -7 -14   6    1.01    0.37
  -7  14   6    0.77    0.43
   6 -14  -6   23.88    1.82
  -6 -14   6   22.25    0.97
  -6  14   6   22.08    1.11
  -5 -14   6    7.87    0.60
   5 -14  -6    7.92    1.15
  -5  14   6    8.11    0.72
  -4 -14   6    1.39    0.32
   4 -14  -6    1.51    0.74
  -4  14   6    1.96    0.43
  -3 -14   6   58.34    1.52
   3 -14  -6   57.58    2.49
   3 -14  -6   58.41    1.71
  -3  14   6   58.93    1.70
  -2 -14   6   38.96    1.13
   2 -14  -6   38.67    1.31
   2 -14  -6   37.57    1.92
   2 -14  -6   36.24    1.08
  -2  14   6   36.83    1.28
  -1 -14   6   48.80    1.36
   1 -14  -6   49.89    1.55
   1 -14  -6   49.78    1.35
   1 -14  -6   50.75    2.14
  -1  14   6   50.70    1.54
   0 -14   6   18.03    0.79
   0 -14  -6   19.12    0.77
   0 -14  -6   18.65    0.92
   0 -14  -6   19.40    1.34
   0  14  -6   17.96    0.73
   0  14   6   18.42    0.93
  -1 -14  -6  109.57    2.51
   1 -14   6  107.66    2.56
  -1 -14  -6  107.28    2.74
  -1 -14  -6  110.55    3.21
  -1  14  -6  107.66    2.39
  -2 -14  -6    5.92    0.65
  -2 -14  -6    6.46    0.57
  -2 -14  -6    6.73    0.87
   2 -14   6    6.55    0.61
  -2  14  -6    7.29    0.53
   3 -14   6   26.72    1.17
  -3 -14  -6   27.44    1.26
  -3 -14  -6   26.85    1.07
  -3 -14  -6   27.64    1.35
  -3  14  -6   25.67    0.98
   4 -14   6    1.11    0.44
  -4  14  -6    2.42    0.43
   5 -14   6   11.11    0.95
  -5  14  -6   10.51    0.79
   6 -14   6   10.81    1.01
  -9 -15   6    4.09    0.65
   9 -15  -6    4.14    1.06
  -9  15   6    4.46    0.73
  -8 -15   6    3.53    0.57
   8 -15  -6    2.78    0.92
  -8  15   6    3.33    0.64
  -7 -15   6    0.70    0.37
   7 -15  -6    1.02    0.80
  -7  15   6    1.25    0.48
   6 -15  -6   11.96    1.47
  -6 -15   6   10.96    0.75
  -6  15   6   10.91    0.87
  -5 -15   6   76.21    1.99
   5 -15  -6   77.85    3.12
  -5  15   6   75.91    2.16
   4 -15  -6   -0.40    0.61
  -4 -15   6    0.12    0.25
  -4  15   6   -0.15    0.33
  -3 -15   6    6.13    0.52
   3 -15  -6    5.13    0.95
   3 -15  -6    5.16    0.57
  -3  15   6    5.28    0.59
   2 -15  -6    2.99    0.80
  -2 -15   6    3.30    0.40
   2 -15  -6    4.05    0.52
  -2  15   6    3.53    0.51
  -1 -15   6   10.51    0.64
   1 -15  -6   11.74    0.75
   1 -15  -6   11.06    1.18
   1 -15  -6   12.48    0.65
  -1  15   6   12.00    0.80
   0 -15   6    5.27    0.50
   0 -15  -6    6.59    0.52
   0 -15  -6    6.03    0.64
   0 -15  -6    3.66    0.78
   0  15   6    5.17    0.60
   0  15  -6    4.83    0.44
   1 -15   6   24.62    1.00
  -1 -15  -6   22.44    1.07
  -1 -15  -6   21.54    1.41
  -1 -15  -6   25.27    0.96
  -1  15  -6   23.03    0.82
  -2 -15  -6    4.27    0.51
   2 -15   6    3.69    0.52
  -2 -15  -6    4.22    0.58
  -2 -15  -6    3.50    0.72
  -2  15  -6    4.90    0.45
  -3 -15  -6    1.12    0.38
  -3 -15  -6    0.54    0.40
  -3 -15  -6    1.46    0.53
   3 -15   6    0.76    0.39
  -3  15  -6    0.83    0.30
   4 -15   6    2.23    0.51
  -4  15  -6    1.46    0.39
   5 -15   6    9.04    0.90
   6 -15   6   17.43    1.22
  -9 -16   6    3.18    0.61
   9 -16  -6    2.79    0.97
  -9  16   6    3.08    0.66
   8 -16  -6    1.08    0.80
  -8 -16   6    0.71    0.43
  -8  16   6    0.62    0.50
   7 -16  -6    2.16    0.95
  -7 -16   6    1.88    0.45
  -7  16   6    1.85    0.54
   6 -16  -6    2.13    0.85
  -6 -16   6    1.86    0.43
  -6  16   6    2.15    0.52
  -5 -16   6    0.56    0.31
   5 -16  -6   -0.22    0.69
  -5  16   6    0.25    0.37
  -4 -16   6   20.51    0.89
   4 -16  -6   20.29    1.69
  -4  16   6   22.47    1.06
   3 -16  -6   16.88    1.53
   3 -16  -6   16.45    0.87
  -3 -16   6   16.59    0.79
  -3  16   6   17.21    0.92
  -2 -16   6    5.76    0.53
   2 -16  -6    6.09    0.60
   2 -16  -6    5.54    0.97
  -2  16   6    7.05    0.67
   1 -16  -6   -0.14    0.58
   1 -16  -6    0.36    0.29
  -1 -16   6    0.55    0.28
   1 -16  -6    0.90    0.35
  -1  16   6    0.62    0.38
   0 -16   6   55.13    1.59
   0 -16  -6   54.76    2.26
   0 -16  -6   54.66    1.54
   0 -16  -6   54.38    1.69
   0  16   6   55.23    1.74
  -1 -16  -6   15.46    0.91
  -1 -16  -6   14.44    0.76
   1 -16   6   14.75    0.81
  -1 -16  -6   14.74    1.24
   1  16   6   13.80    0.90
  -1  16  -6   14.00    0.65
   2 -16   6    7.72    0.69
  -2 -16  -6    6.90    0.72
  -2 -16  -6    8.50    0.67
  -2 -16  -6    8.00    0.97
  -3 -16  -6   10.62    0.97
  -3 -16  -6    8.15    0.83
   3 -16   6   10.93    0.84
   4 -16   6    2.82    0.55
   5 -16   6    4.97    0.75
   6 -16   6   15.48    1.20
   8 -17  -6   17.99    1.86
  -8 -17   6   19.68    1.13
  -8  17   6   19.29    1.26
   7 -17  -6    0.42    0.83
  -7 -17   6    0.54    0.38
  -7  17   6    0.35    0.44
   6 -17  -6   12.54    1.65
  -6 -17   6   10.27    0.76
  -6  17   6   11.89    0.91
  -5 -17   6   31.05    1.20
   5 -17  -6   33.89    2.18
  -5  17   6   32.92    1.37
   4 -17  -6    4.72    1.07
  -4 -17   6    4.68    0.52
  -4  17   6    5.76    0.65
  -3 -17   6    0.78    0.32
   3 -17  -6    1.25    0.38
   3 -17  -6    0.41    0.72
  -3  17   6    0.85    0.40
  -2 -17   6    3.65    0.47
   2 -17  -6    4.25    0.54
   2 -17  -6    4.03    0.97
  -2  17   6    3.32    0.52
   1 -17  -6   44.83    2.19
   1 -17  -6   42.96    1.45
  -1 -17   6   44.28    1.39
  -1  17   6   44.02    1.54
   0 -17   6    1.54    0.39
   0 -17  -6    1.36    0.68
   0 -17  -6    1.48    0.41
   0 -17  -6    1.55    0.41
   0  17   6    1.17    0.44
   1 -17   6   14.27    0.84
  -1 -17  -6   11.24    1.17
  -1 -17  -6   13.92    0.87
  -1 -17  -6   14.33    0.89
   1  17   6   14.28    0.95
  -2 -17  -6    4.88    0.83
   2 -17   6    3.71    0.55
  -2 -17  -6    4.32    0.63
   3 -17   6    2.95    0.54
  -3 -17  -6    2.71    0.64
  -3 -17  -6    2.67    0.58
   4 -17   6   11.89    0.94
   5 -17   6    6.71    0.82
   6 -17   6    5.44    0.82
  -8 -18   6    1.62    0.51
   8 -18  -6    1.09    0.91
  -8  18   6    0.95    0.55
  -7 -18   6   36.00    1.44
   7 -18  -6   37.64    2.44
  -7  18   6   38.14    1.63
  -6 -18   6    1.83    0.46
   6 -18  -6    1.10    0.88
  -6  18   6    1.74    0.50
   5 -18  -6   -0.35    0.67
  -5 -18   6    0.25    0.32
  -5  18   6    0.13    0.42
  -4 -18   6    2.99    0.46
   4 -18  -6    2.54    0.98
  -4  18   6    3.46    0.58
   3 -18  -6   14.06    1.53
  -3 -18   6   14.26    0.81
  -3  18   6   13.90    0.94
   2 -18  -6    5.10    1.02
  -2 -18   6    5.11    0.55
   2 -18  -6    6.13    0.61
  -2  18   6    5.20    0.64
   1 -18  -6   13.07    1.36
   1 -18  -6   15.49    0.84
  -1 -18   6   13.59    0.79
  -1  18   6   14.49    0.92
   0 -18  -6    7.42    1.11
   0 -18  -6    7.73    0.70
   0 -18   6    8.61    0.70
   0  18   6    8.42    0.78
   1 -18   6   32.72    1.26
  -1 -18  -6   31.15    1.28
  -1 -18  -6   33.31    1.77
   1  18   6   30.03    1.32
  -2 -18  -6    3.51    0.60
  -2 -18  -6    3.41    0.73
   2 -18   6    3.07    0.52
   2  18   6    2.96    0.59
   3 -18   6    1.41    0.46
  -3 -18  -6    1.16    0.54
  -3 -18  -6    0.76    0.42
  -4 -18  -6    7.80    0.87
   4 -18   6    8.95    0.88
   5 -18   6    5.01    0.76
   8 -19  -6    6.28    1.34
  -8 -19   6    7.06    0.81
  -8  19   6    6.56    0.89
  -7 -19   6    7.57    0.77
   7 -19  -6    6.35    1.34
  -7  19   6    8.16    0.90
   6 -19  -6    7.59    1.43
  -6 -19   6    7.14    0.73
  -6  19   6    7.73    0.83
  -5 -19   6    6.89    0.68
   5 -19  -6    6.92    1.23
  -5  19   6    8.99    0.87
   4 -19  -6    9.76    1.47
  -4 -19   6    8.45    0.70
  -4  19   6    7.43    0.75
  -3 -19   6    1.11    0.37
   3 -19  -6    0.97    0.81
  -3  19   6    2.02    0.51
   2 -19  -6    5.12    0.58
   2 -19  -6    3.59    0.95
  -2 -19   6    3.63    0.51
  -2  19   6    3.23    0.56
   1 -19  -6    3.07    0.86
  -1 -19   6    2.13    0.44
   1 -19  -6    2.54    0.47
  -1  19   6    3.00    0.56
   0 -19  -6    6.69    1.04
   0 -19   6    7.21    0.68
   0 -19  -6    7.16    0.68
   0  19   6    7.03    0.78
  -1 -19  -6    2.27    0.74
   1 -19   6    2.00    0.46
  -1 -19  -6    3.02    0.54
   1  19   6    2.18    0.52
   2 -19   6    3.60    0.57
  -2 -19  -6    3.86    0.81
  -2 -19  -6    3.71    0.60
   2  19   6    3.26    0.61
   3 -19   6   11.00    0.90
  -3 -19  -6   13.21    0.98
  -3 -19  -6   13.61    1.50
   3  19   6   12.29    0.98
   4 -19   6    2.99    0.62
  -4 -19  -6    3.74    0.67
   5 -19   6    2.54    0.66
  -7 -20   6   13.27    0.99
   7 -20  -6   12.09    1.78
  -7  20   6   15.27    1.17
   6 -20  -6   20.14    1.96
  -6 -20   6   21.42    1.12
  -6  20   6   20.39    1.21
   5 -20  -6    0.84    0.84
  -5 -20   6    0.43    0.37
  -5  20   6    0.49    0.44
   4 -20  -6    1.93    0.89
  -4 -20   6    2.39    0.47
  -4  20   6    1.59    0.51
  -3 -20   6   53.71    1.69
   3 -20  -6   58.02    2.80
  -3  20   6   53.62    1.84
  -2 -20   6    9.07    0.74
   2 -20  -6    8.67    0.70
   2 -20  -6    6.93    1.18
  -2  20   6    8.97    0.85
   1 -20  -6    0.53    0.35
   1 -20  -6    0.87    0.73
  -1 -20   6    0.56    0.35
  -1  20   6    0.61    0.42
   0 -20  -6    8.55    0.72
   0 -20  -6    9.33    1.26
   0 -20   6    8.09    0.75
   0  20   6    6.44    0.73
  -1 -20  -6    9.86    0.78
  -1 -20  -6   10.22    1.18
   1 -20   6    7.95    0.75
   1  20   6    7.77    0.79
  -2 -20  -6    9.15    1.14
   2 -20   6    7.31    0.75
  -2 -20  -6    7.61    0.79
   2  20   6    8.64    0.87
  -3 -20  -6   17.43    1.11
   3 -20   6   16.96    1.08
   3  20   6   17.91    1.14
  -4 -20  -6    2.28    0.61
   4 -20   6    2.71    0.62
   4  20   6    3.75    0.71
   7 -21  -6    0.83    0.94
  -7 -21   6    2.10    0.56
  -7  21   6    3.19    0.70
   6 -21  -6   22.62    2.10
  -6 -21   6   24.18    1.22
  -6  21   6   23.92    1.32
   5 -21  -6   18.39    1.86
  -5 -21   6   18.07    1.04
  -5  21   6   18.85    1.16
   4 -21  -6   17.71    1.81
  -4 -21   6   19.83    1.05
  -4  21   6   20.83    1.18
   3 -21  -6    3.48    1.02
  -3 -21   6    2.99    0.52
  -3  21   6    4.38    0.65
   2 -21  -6    5.06    1.14
  -2 -21   6    6.15    0.65
   2 -21  -6    5.85    0.62
  -2  21   6    5.85    0.72
  -1 -21   6    1.15    0.41
   1 -21  -6    0.66    0.38
   1 -21  -6    0.88    0.72
  -1  21   6    1.25    0.48
   0 -21   6    0.84    0.42
   0 -21  -6    1.63    0.42
   0 -21  -6    1.26    0.75
   0  21   6    1.87    0.53
   1 -21   6    5.80    0.68
  -1 -21  -6    4.56    0.61
  -1 -21  -6    5.15    0.99
   1  21   6    4.87    0.72
  -2 -21  -6    0.86    0.46
  -2 -21  -6    1.33    0.67
   2 -21   6    1.19    0.45
   2  21   6    1.87    0.56
   3 -21   6    2.37    0.58
  -3 -21  -6    3.15    0.62
   3  21   6    2.34    0.59
   4 -21   6    2.81    0.64
  -4 -21  -6    3.60    0.67
   4  21   6    2.81    0.68
  -6 -22   6   26.98    1.32
   6 -22  -6   26.02    2.25
  -6  22   6   26.38    1.42
   5 -22  -6    1.05    0.96
  -5 -22   6    1.51    0.48
  -5  22   6    0.99    0.52
  -4 -22   6    0.83    0.41
   4 -22  -6    0.25    0.78
  -4  22   6    0.67    0.47
   3 -22  -6    1.95    0.95
  -3 -22   6    1.67    0.43
  -3  22   6    0.51    0.46
   2 -22  -6   21.76    1.87
  -2 -22   6   22.54    1.11
  -2  22   6   22.86    1.26
   1 -22  -6    3.13    0.50
  -1 -22   6    1.90    0.47
   1 -22  -6    2.58    0.95
  -1  22   6    2.55    0.57
   0 -22  -6    0.21    0.35
   0 -22  -6    1.01    0.72
   0 -22   6    0.03    0.36
   0  22   6    0.00    0.42
  -1 -22  -6    1.68    0.47
   1 -22   6    2.17    0.52
  -1 -22  -6    1.88    0.77
   1  22   6    2.82    0.60
  -2 -22  -6    7.98    0.81
  -2 -22  -6    6.90    1.07
   2 -22   6    6.52    0.75
   2  22   6    6.67    0.83
   3 -22   6    3.41    0.69
  -3 -22  -6    3.81    0.65
   3  22   6    4.44    0.72
   4 -22   6    5.99    0.83
  -4 -22  -6    5.10    0.75
   6 -23  -6    0.37    0.89
  -6 -23   6    0.63    0.45
  -6  23   6    0.73    0.56
   5 -23  -6   25.22    2.19
  -5 -23   6   25.55    1.27
  -5  23   6   21.03    1.31
   4 -23  -6    5.33    1.29
  -4 -23   6    4.11    0.63
  -4  23   6    4.69    0.78
  -3 -23   6    2.42    0.52
   3 -23  -6    1.65    0.97
  -3  23   6    3.20    0.63
   2 -23  -6   11.76    1.67
  -2 -23   6   11.73    0.88
  -2  23   6    9.39    0.92
  -1 -23   6   35.08    1.43
   1 -23  -6   32.83    2.19
  -1  23   6   35.11    1.53
   0 -23  -6    3.76    1.00
   0 -23   6    3.35    0.59
   0  23   6    4.04    0.70
  -1 -23  -6    8.75    0.79
   1 -23   6    8.14    0.83
  -1 -23  -6    9.69    1.31
   1  23   6   10.76    1.02
   2 -23   6    0.34    0.43
  -2 -23  -6    0.76    0.64
  -2 -23  -6    0.22    0.38
   2  23   6    0.05    0.45
  -3 -23  -6    3.22    0.64
   3 -23   6    2.53    0.62
   3  23   6    2.69    0.67
  -5 -24   6    3.27    0.63
   5 -24  -6    2.74    1.09
  -5  24   6    4.42    0.73
  -4 -24   6    6.01    0.73
   4 -24  -6    6.23    1.41
  -4  24   6    5.98    0.85
   3 -24  -6    2.90    1.14
  -3 -24   6    4.39    0.65
  -3  24   6    2.94    0.64
   2 -24  -6    5.76    1.30
  -2 -24   6    5.73    0.71
  -2  24   6    7.04    0.85
  -1 -24   6    4.22    0.64
   1 -24  -6    4.10    1.08
  -1  24   6    5.49    0.77
   0 -24   6    3.03    0.60
   0 -24  -6    2.37    0.91
   0  24   6    2.85    0.66
  -1 -24  -6   31.56    1.99
   1 -24   6   28.15    1.41
   1  24   6   32.29    1.53
   2 -24   6    0.36    0.45
  -2 -24  -6    0.82    0.66
   2  24   6   -0.65    0.43
   4 -25  -6   15.10    1.95
  -4 -25   6   13.84    1.02
  -4  25   6   14.68    1.15
   3 -25  -6    0.18    0.89
  -3 -25   6    0.26    0.43
  -3  25   6   -0.04    0.47
   2 -25  -6   -0.09    0.85
  -2 -25   6    2.41    0.55
  -2  25   6    2.63    0.64
   1 -25  -6   23.24    1.97
  -1 -25   6   25.40    1.30
  -1  25   6   26.36    1.42
   0 -25   6   11.43    0.98
   0 -25  -6   14.05    1.63
   0  25   6   12.94    1.10
   1 -25   6    6.74    0.81
  -1 -25  -6    6.42    1.17
   1  25   6    9.08    0.97
   3 -26  -6    5.60    1.35
  -3 -26   6    5.54    0.75
  -3  26   6    5.34    0.82
  -2 -26   6    7.20    0.84
   2 -26  -6    9.15    1.60
  -2  26   6    8.74    0.98
  -1 -26   6    2.01    0.54
   1 -26  -6    2.09    1.00
  -1  26   6    2.03    0.62
   0 -26   6    1.87    0.56
   0 -26  -6    2.99    1.03
   0  26   6    2.12    0.61
 -10   0   7    1.27    0.46
  -9   0   7    2.74    0.50
   9   0  -7    2.51    0.71
   8   0  -7    4.39    0.82
  -8   0   7    4.03    0.51
  -7   0   7    2.38    0.39
   7   0  -7    1.92    0.63
   6   0  -7    7.03    0.92
  -6   0   7    6.28    0.46
  -5   0   7    2.36    0.25
   5   0  -7    1.45    0.56
  -5   0   7    3.00    0.26
  -4   0   7   30.71    0.66
   4   0  -7   30.19    1.52
  -4   0   7   31.23    0.66
   3   0  -7    4.66    0.50
   3   0  -7    5.45    0.80
   2   0  -7   59.40    2.11
   2   0  -7   58.91    1.69
  -1   0   7    1.50    0.15
   1   0  -7    1.47    0.35
  -1   0   7    1.38    0.14
   1   0  -7    0.58    0.45
   0   0   7    1.75    0.22
   0   0  -7    1.13    0.33
   0   0   7    1.73    0.21
   1   0   7   19.45    0.72
  -1   0  -7   19.54    0.95
  -2   0  -7    6.28    0.66
   2   0   7    6.23    0.52
   3   0   7    6.35    0.60
   4   0   7   13.88    0.88
   5   0   7   40.27    1.53
   6   0   7    0.45    0.46
   7   0   7    5.56    0.83
 -10  -1   7    4.33    0.64
  10  -1  -7    3.82    1.07
 -10   1   7    4.74    0.66
   9  -1  -7    5.81    0.94
  -9  -1   7    5.14    0.63
   9   1  -7    5.31    0.87
  -9   1   7    3.33    0.54
   8  -1  -7   28.42    1.62
  -8  -1   7   26.45    1.07
  -8   1   7   27.41    1.11
   8   1  -7   28.78    1.59
   7  -1  -7  121.75    3.58
  -7  -1   7  119.89    2.69
   7   1  -7  121.41    3.53
  -7   1   7  120.00    2.72
   6  -1  -7    0.48    0.51
  -6  -1   7    0.55    0.23
   6   1  -7    0.34    0.49
  -6   1   7    0.45    0.23
  -5  -1   7  106.61    2.16
  -5  -1   7  106.71    2.16
   5  -1  -7  104.92    3.18
  -5   1   7  108.70    2.20
   5   1  -7  107.86    3.16
  -5   1   7  106.07    2.20
   4  -1  -7  109.45    3.19
  -4   1   7  110.21    2.11
   4   1  -7  110.42    3.17
  -4   1   7  106.21    2.10
   3  -1  -7   29.11    1.46
   3  -1  -7   27.47    1.10
   3   1  -7   29.11    1.44
   2  -1  -7    5.50    0.56
   2  -1  -7    6.31    0.82
   2   1  -7    4.38    0.70
  -1  -1   7   15.42    0.39
   1  -1  -7   15.97    0.81
   1  -1  -7   15.47    1.07
  -1  -1   7   15.44    0.38
   1   1  -7   14.82    0.80
  -1   1   7   15.44    0.44
  -1   1   7   15.60    0.45
   0  -1   7    9.74    0.42
   0  -1  -7    9.09    0.66
   0  -1   7   10.53    0.41
   0   1  -7   10.64    0.68
   0   1   7    9.84    0.44
   0   1   7    9.49    0.42
   1  -1   7   28.49    0.89
  -1  -1  -7   31.73    1.20
   1   1   7   29.67    0.92
  -1   1  -7   30.22    1.16
   2  -1   7   10.42    0.63
  -2  -1  -7    9.62    0.75
  -2   1  -7   10.84    0.77
   2   1   7   10.48    0.62
   3  -1   7   40.65    1.34
   3   1   7   40.82    1.34
   4  -1   7    6.95    0.69
   4   1   7    5.93    0.64
   5  -1   7   39.38    1.52
   5   1   7   42.06    1.55
   6  -1   7    9.70    0.94
   6   1   7    9.61    0.93
   7  -1   7    8.93    0.95
   7   1   7    9.81    1.02
  10  -2  -7   17.36    1.38
 -10  -2   7   15.30    1.00
 -10   2   7   16.66    1.04
  -9  -2   7    2.54    0.49
   9  -2  -7    3.08    0.78
   9   2  -7    3.00    0.72
  -9   2   7    2.67    0.51
   8  -2  -7    6.45    0.98
  -8  -2   7    6.63    0.61
   8   2  -7    5.31    0.88
  -8   2   7    5.31    0.58
  -7  -2   7    1.17    0.31
   7  -2  -7    1.26    0.59
  -7   2   7    1.49    0.35
   7   2  -7    1.39    0.57
  -6  -2   7   83.39    1.88
   6  -2  -7   82.84    2.77
   6   2  -7   80.27    2.69
  -6   2   7   86.42    1.94
  -5  -2   7    0.95    0.19
   5  -2  -7    1.00    0.54
  -5  -2   7    1.19    0.18
  -5   2   7    1.19    0.22
   5   2  -7    1.07    0.52
  -5   2   7    0.99    0.20
   4  -2  -7    6.37    0.83
  -4   2   7    7.31    0.31
  -4   2   7    7.38    0.33
   4   2  -7    6.59    0.86
   3  -2  -7   68.13    1.91
   3  -2  -7   67.44    2.34
  -3   2   7   70.75    1.36
   3   2  -7   70.45    2.37
   3   2  -7   70.80    1.91
   2  -2  -7   13.90    1.05
   2  -2  -7   14.79    0.79
  -2   2   7   14.67    0.39
   2   2  -7   14.88    0.77
  -2   2   7   15.51    0.39
   1  -2  -7   29.11    1.11
   1  -2  -7   28.79    1.42
   1   2  -7   28.87    1.08
  -1   2   7   29.62    0.72
  -1   2   7   29.12    0.73
   0  -2   7   89.51    1.82
   0  -2  -7   86.25    2.64
   0  -2  -7   87.14    2.26
   0  -2   7   86.40    1.83
   0   2  -7   88.23    2.23
   0   2   7   89.40    1.93
   0   2   7   87.10    1.89
  -1  -2  -7    1.93    0.38
   1  -2   7    2.24    0.30
   1   2   7    2.79    0.34
  -1   2  -7    2.58    0.44
   2  -2   7   11.62    0.64
  -2  -2  -7   12.67    0.84
   2   2   7   11.08    0.65
  -2   2  -7   10.95    0.78
   3  -2   7   24.36    1.03
   3   2   7   26.35    1.07
   4  -2   7    2.77    0.50
   4   2   7    2.61    0.49
   5  -2   7   14.87    0.99
   5   2   7   14.52    0.97
   6  -2   7   12.16    0.98
   6   2   7   10.50    0.95
   7  -2   7   12.00    1.11
   7   2   7   12.58    1.12
 -10  -3   7    2.79    0.54
  10  -3  -7    2.31    0.73
 -10   3   7    1.78    0.52
   9  -3  -7    9.86    1.15
  -9  -3   7   10.05    0.78
  -9   3   7    9.09    0.79
  -8  -3   7   65.10    1.81
   8  -3  -7   66.24    2.57
  -8   3   7   66.35    1.87
   7  -3  -7    4.65    0.85
  -7  -3   7    3.41    0.41
  -7   3   7    4.12    0.48
   7   3  -7    3.79    0.77
  -6  -3   7   40.09    1.08
   6  -3  -7   39.23    1.85
  -6   3   7   36.87    1.12
   6   3  -7   39.48    1.78
  -5  -3   7    2.35    0.24
   5  -3  -7    2.45    0.68
  -5  -3   7    2.92    0.24
   5   3  -7    2.55    0.66
  -5   3   7    2.89    0.30
   4  -3  -7   40.37    1.79
  -4   3   7   38.05    0.94
  -4   3   7   38.52    0.93
   3  -3  -7   43.25    1.82
   3  -3  -7   45.70    1.46
  -3   3   7   46.21    0.99
   3   3  -7   44.92    1.44
   2  -3  -7   25.50    1.04
   2  -3  -7   28.68    1.43
   2   3  -7   25.03    1.00
  -2   3   7   26.50    0.65
  -2   3   7   27.81    0.67
   1  -3  -7   65.98    2.25
   1  -3  -7   65.34    1.84
  -1   3   7   67.69    1.43
   1   3  -7   66.77    1.81
  -1   3   7   67.19    1.45
   0  -3   7  110.11    2.24
   0  -3  -7  106.72    2.68
   0  -3  -7  114.19    3.13
   0  -3   7  110.84    2.23
   0   3   7  110.02    2.33
   0   3  -7  111.37    2.65
   1  -3   7    6.98    0.45
  -1  -3  -7    7.68    0.70
  -1   3  -7    7.00    0.61
   1   3   7    6.80    0.49
   2  -3   7   60.95    1.60
  -2  -3  -7   60.74    1.89
   2   3   7   61.07    1.65
  -2   3  -7   62.20    1.83
   3  -3   7    3.66    0.49
  -3   3  -7    2.62    0.48
   3   3   7    3.15    0.48
   4  -3   7    1.89    0.46
   4   3   7    1.33    0.44
   5  -3   7    0.64    0.44
   5   3   7    0.26    0.43
   6  -3   7    6.71    0.81
   6   3   7    5.06    0.77
   7  -3   7   13.60    1.13
   7   3   7   11.26    1.07
  10  -4  -7    1.68    0.71
 -10  -4   7    1.60    0.48
 -10   4   7    2.05    0.53
  -9  -4   7   18.37    0.99
   9  -4  -7   18.63    1.46
  -9   4   7   20.23    1.07
  -8  -4   7    0.06    0.28
   8  -4  -7    0.43    0.57
  -8   4   7   -0.18    0.31
   7  -4  -7    7.37    1.01
  -7  -4   7    7.74    0.57
  -7   4   7    7.75    0.63
  -6  -4   7   16.25    0.65
   6  -4  -7   16.15    1.27
  -6   4   7   15.87    0.71
   5  -4  -7   28.15    1.56
  -5  -4   7   28.24    0.74
  -5   4   7   27.70    0.86
   4  -4  -7    1.07    0.56
  -4   4   7    0.80    0.20
  -4   4   7    1.04    0.19
   3  -4  -7   14.03    1.10
   3  -4  -7   12.90    0.78
  -3   4   7   14.05    0.46
   3   4  -7   13.93    0.78
   2  -4  -7    2.11    0.38
   2  -4  -7    2.63    0.60
   2   4  -7    2.84    0.41
  -2   4   7    2.52    0.22
   1  -4  -7    3.90    0.47
  -1  -4   7    3.77    0.18
  -1  -4   7    4.05    0.18
   1  -4  -7    4.36    0.73
   1   4  -7    3.79    0.46
  -1   4   7    4.36    0.29
  -1   4   7    4.05    0.32
   0  -4   7    3.97    0.31
   0  -4  -7    4.31    0.52
   0  -4   7    4.61    0.30
   0  -4  -7    4.01    0.68
   0   4  -7    4.69    0.50
   0   4   7    4.40    0.38
   1  -4   7    0.69    0.23
  -1  -4  -7    0.88    0.45
  -1  -4  -7    0.56    0.35
  -1   4  -7    0.73    0.32
   1   4   7    0.34    0.24
   2  -4   7   34.88    1.08
  -2  -4  -7   30.57    1.28
   2   4   7   29.81    1.09
  -2   4  -7   30.24    1.21
   3  -4   7   46.77    1.46
   3   4   7   44.42    1.48
  -3   4  -7   48.93    1.63
   4  -4   7   27.93    1.19
   4   4   7   29.78    1.26
   5  -4   7    3.21    0.57
   5   4   7    4.64    0.66
   6  -4   7    2.06    0.56
   6   4   7    2.63    0.59
   7  -4   7    7.17    0.87
   7   4   7    7.20    0.89
  10  -5  -7    0.50    0.61
 -10  -5   7    1.03    0.45
 -10   5   7    1.40    0.50
  -9  -5   7    1.32    0.41
   9  -5  -7    0.94    0.67
  -9   5   7    1.17    0.45
  -8  -5   7   16.30    0.85
   8  -5  -7   17.54    1.41
  -8   5   7   15.62    0.89
  -7  -5   7   19.69    0.82
   7  -5  -7   17.65    1.39
  -7   5   7   22.44    0.93
  -6  -5   7   30.54    0.91
   6  -5  -7   29.11    1.66
  -6   5   7   28.54    0.99
  -5  -5   7    0.53    0.18
   5  -5  -7    0.40    0.54
  -5   5   7    0.53    0.23
   4  -5  -7   56.11    2.19
  -4   5   7   56.65    1.32
  -4   5   7   54.61    1.32
   3  -5  -7    7.95    0.93
   3  -5  -7    8.69    0.69
   3   5  -7    8.02    0.65
  -3   5   7    7.62    0.37
   2  -5  -7    1.09    0.55
   2  -5  -7    0.86    0.34
  -2   5   7    1.28    0.19
   2   5  -7    0.80    0.30
  -1  -5   7    4.06    0.20
   1  -5  -7    3.52    0.62
   1  -5  -7    4.53    0.54
  -1  -5   7    3.50    0.20
   1   5  -7    4.57    0.50
   0  -5   7    0.89    0.19
   0  -5  -7    0.63    0.33
   0  -5  -7    0.65    0.44
   0  -5   7    1.20    0.19
   0   5  -7    0.88    0.32
   0   5   7    1.01    0.25
   1  -5   7   11.09    0.54
  -1  -5  -7   11.18    0.79
  -1  -5  -7   11.39    0.96
  -1   5  -7   11.03    0.71
   1   5   7   10.37    0.61
   2  -5   7    6.95    0.56
  -2  -5  -7    7.44    0.76
   2   5   7    7.03    0.60
  -2   5  -7    6.74    0.65
   3  -5   7  178.88    3.87
  -3   5  -7  178.66    4.07
   3   5   7  175.04    3.92
   4  -5   7   27.94    1.18
   4   5   7   29.97    1.25
   5  -5   7   11.42    0.92
   5   5   7   13.21    0.95
   6  -5   7    1.22    0.50
   6   5   7    1.18    0.51
   7  -5   7    8.20    0.93
   7   5   7    7.56    0.92
 -10  -6   7    2.86    0.56
  10  -6  -7    3.76    0.92
 -10   6   7    3.03    0.60
  -9  -6   7   13.99    0.90
   9  -6  -7   16.07    1.42
  -9   6   7   14.13    0.97
  -8  -6   7    2.00    0.40
   8  -6  -7    1.62    0.72
  -8   6   7    2.24    0.46
  -7  -6   7    0.08    0.25
   7  -6  -7    0.61    0.59
  -7   6   7    0.30    0.31
  -6  -6   7   23.27    0.79
   6  -6  -7   22.16    1.50
  -6   6   7   22.34    0.89
  -5  -6   7   19.66    0.62
   5  -6  -7   19.23    1.39
  -5   6   7   19.36    0.76
  -4  -6   7    5.94    0.25
   4  -6  -7    4.47    0.80
  -4  -6   7    6.18    0.25
  -4   6   7    6.70    0.44
   3  -6  -7    4.13    0.78
   3  -6  -7    6.24    0.63
  -3   6   7    5.39    0.39
  -3   6   7    5.76    0.35
   2  -6  -7   32.52    1.20
   2  -6  -7   31.53    1.57
   2   6  -7   33.46    1.15
   1  -6  -7   15.03    0.83
  -1  -6   7   15.55    0.45
  -1  -6   7   15.71    0.45
   1  -6  -7   15.14    1.10
   1   6  -7   15.42    0.77
   0  -6  -7    3.46    0.51
   0  -6   7    3.80    0.31
   0  -6   7    3.57    0.31
   0  -6  -7    3.50    0.67
   0   6  -7    2.92    0.42
  -1  -6  -7   78.58    2.16
   1  -6   7   73.41    1.76
  -1  -6  -7   75.54    2.39
  -1   6  -7   73.68    1.98
   1   6   7   74.51    1.86
  -2  -6  -7   31.94    1.31
   2  -6   7   33.20    1.08
   2   6   7   30.53    1.12
  -2   6  -7   30.21    1.20
   3  -6   7   99.02    2.41
  -3   6  -7   96.22    2.56
   3   6   7   94.69    2.45
   4  -6   7    0.93    0.39
   4   6   7    0.80    0.43
   5  -6   7    6.10    0.72
   5   6   7    7.24    0.78
   6  -6   7    0.65    0.46
   6   6   7    0.04    0.46
   7  -6   7    5.17    0.79
 -10  -7   7    1.76    0.51
  10  -7  -7    1.29    0.73
 -10   7   7    1.43    0.54
  -9  -7   7    9.12    0.80
   9  -7  -7    9.09    1.24
  -9   7   7    9.32    0.84
   8  -7  -7    0.37    0.61
  -8  -7   7    0.91    0.35
  -8   7   7    1.18    0.40
   7  -7  -7    7.89    1.13
  -7  -7   7    6.19    0.54
  -7   7   7    5.85    0.59
  -6  -7   7   16.24    0.67
   6  -7  -7   15.75    1.33
  -6   7   7   15.73    0.78
   5  -7  -7   11.01    1.16
  -5  -7   7   10.84    0.47
  -5   7   7   10.64    0.61
  -4  -7   7  117.36    2.27
   4  -7  -7  118.03    3.50
  -4  -7   7  117.37    2.27
  -4   7   7  114.47    2.51
   3  -7  -7   66.31    2.41
   3  -7  -7   66.04    1.88
  -3   7   7   65.56    1.56
   2  -7  -7    6.82    0.88
   2  -7  -7    5.89    0.57
   2   7  -7    7.52    0.59
   1  -7  -7   38.27    1.69
  -1  -7   7   36.92    0.86
  -1  -7   7   35.46    0.86
   1  -7  -7   36.71    1.30
   1   7  -7   35.65    1.19
   0  -7  -7    8.30    0.88
   0  -7   7    7.54    0.41
   0  -7  -7    7.76    0.66
   0  -7   7    8.10    0.42
   0   7  -7    7.49    0.58
  -1  -7  -7   87.76    2.66
  -1  -7  -7   85.16    2.35
   1  -7   7   86.93    1.99
  -1   7  -7   87.13    2.21
  -2  -7  -7   33.40    1.47
   2  -7   7   30.09    1.06
  -2  -7  -7   30.99    1.32
  -2   7  -7   30.54    1.19
   2   7   7   30.94    1.14
   3  -7   7    1.98    0.43
  -3   7  -7    2.77    0.51
   3   7   7    2.30    0.46
   4  -7   7   26.68    1.18
   4   7   7   27.05    1.24
   5  -7   7    5.89    0.72
   5   7   7    5.11    0.69
   6  -7   7   -0.33    0.42
   7  -7   7    2.74    0.68
  10  -8  -7    1.75    0.79
 -10  -8   7    1.85    0.51
 -10   8   7    1.70    0.58
   9  -8  -7    6.71    1.11
  -9  -8   7    6.18    0.68
  -9   8   7    5.60    0.69
  -8  -8   7   56.23    1.66
   8  -8  -7   53.36    2.45
  -8   8   7   56.43    1.78
   7  -8  -7    0.25    0.60
  -7  -8   7    0.53    0.29
  -7   8   7    0.83    0.37
   6  -8  -7   11.56    1.24
  -6  -8   7   11.27    0.58
  -6   8   7    9.54    0.67
  -5  -8   7   22.76    0.72
   5  -8  -7   22.58    1.53
  -5   8   7   22.96    0.89
  -4  -8   7   27.47    0.72
  -4  -8   7   28.46    0.72
   4  -8  -7   25.76    1.58
  -4   8   7   27.59    0.93
  -3  -8   7   42.12    0.93
  -3  -8   7   42.36    0.94
   3  -8  -7   44.88    1.47
   3  -8  -7   45.95    1.94
  -3   8   7   43.19    1.19
   2  -8  -7    9.08    0.69
  -2  -8   7    9.12    0.33
  -2  -8   7    8.47    0.33
   2  -8  -7    9.57    1.00
   2   8  -7   10.09    0.65
   1  -8  -7    1.43    0.37
  -1  -8   7    1.63    0.21
   1  -8  -7    0.85    0.53
  -1  -8   7    1.60    0.20
   1   8  -7    1.66    0.34
   0  -8  -7    2.04    0.58
   0  -8  -7    1.35    0.40
   0  -8   7    1.53    0.25
   0  -8   7    1.03    0.22
   0   8  -7    1.29    0.34
  -1  -8  -7   23.19    1.30
  -1  -8  -7   22.68    1.09
   1  -8   7   22.59    0.83
  -1   8  -7   23.38    0.96
  -2  -8  -7    6.82    0.83
   2  -8   7    7.74    0.59
  -2  -8  -7    8.60    0.77
  -2   8  -7    7.95    0.65
   3  -8   7   14.98    0.86
  -3   8  -7   15.79    0.91
   4  -8   7   82.25    2.26
  -4   8  -7   80.00    2.33
   5  -8   7   15.22    1.02
   6  -8   7    1.43    0.53
   7  -8   7    1.36    0.58
 -10  -9   7    0.77    0.46
  10  -9  -7    0.22    0.67
 -10   9   7    0.32    0.47
   9  -9  -7    5.66    1.08
  -9  -9   7    6.02    0.67
  -9   9   7    4.85    0.67
   8  -9  -7   14.96    1.45
  -8  -9   7   15.90    0.86
  -8   9   7   15.41    0.96
  -7  -9   7   39.99    1.26
   7  -9  -7   36.87    2.04
  -7   9   7   40.06    1.39
   6  -9  -7    0.21    0.62
  -6  -9   7    0.27    0.24
  -6   9   7    0.48    0.33
  -5  -9   7    3.06    0.32
   5  -9  -7    2.87    0.83
  -5   9   7    3.11    0.43
  -4  -9   7   27.15    0.75
  -4  -9   7   27.59    0.76
   4  -9  -7   28.84    1.66
  -4   9   7   26.51    0.95
   3  -9  -7    2.83    0.76
   3  -9  -7    3.88    0.54
  -3  -9   7    4.15    0.28
  -3  -9   7    3.98    0.27
  -3   9   7    4.18    0.42
  -2  -9   7    2.00    0.21
  -2  -9   7    2.10    0.22
   2  -9  -7    1.75    0.42
   2  -9  -7    1.75    0.66
   2   9  -7    1.72    0.37
  -1  -9   7    8.53    0.41
  -1  -9   7    8.43    0.41
   1  -9  -7    8.54    0.96
   1  -9  -7    7.87    0.66
   1   9  -7    8.62    0.61
   0  -9   7   10.37    0.51
   0  -9  -7   11.52    0.78
   0  -9  -7    8.94    0.96
   0   9  -7    9.58    0.63
  -1  -9  -7    6.72    0.86
   1  -9   7    9.27    0.57
  -1  -9  -7    8.69    0.75
  -1   9  -7    9.03    0.65
   2  -9   7    9.80    0.66
  -2  -9  -7   11.69    0.86
  -2  -9  -7   10.68    0.98
  -2   9  -7   11.93    0.74
  -3  -9  -7   19.72    1.12
   3  -9   7   20.60    0.98
  -3   9  -7   21.80    1.02
   4  -9   7   48.33    1.63
  -4   9  -7   47.54    1.67
   5  -9   7   11.45    0.93
   6  -9   7    2.19    0.59
   7  -9   7    2.75    0.68
  10 -10  -7   14.74    1.54
 -10 -10   7   14.59    1.03
 -10  10   7   15.10    1.12
   9 -10  -7   28.14    1.92
  -9 -10   7   26.11    1.22
  -9  10   7   27.06    1.32
   8 -10  -7    0.82    0.68
  -8 -10   7    0.11    0.32
  -8  10   7    0.02    0.38
  -7 -10   7   14.15    0.76
   7 -10  -7   13.28    1.45
  -7  10   7   13.09    0.86
   6 -10  -7   46.30    2.28
  -6 -10   7   46.53    1.30
  -6  10   7   42.94    1.43
  -5 -10   7    9.61    0.51
   5 -10  -7    9.10    1.25
  -5  10   7    8.59    0.66
   4 -10  -7    2.12    0.74
  -4 -10   7    2.45    0.28
  -4  10   7    2.99    0.40
  -3 -10   7   28.07    0.77
  -3 -10   7   28.55    0.78
   3 -10  -7   28.60    1.65
   3 -10  -7   28.68    1.18
  -3  10   7   27.96    0.98
  -2 -10   7   13.37    0.50
  -2 -10   7   13.45    0.50
   2 -10  -7   12.63    0.80
   2 -10  -7   11.81    1.14
  -2  10   7   12.87    0.66
   2  10  -7   13.14    0.74
   1 -10  -7    9.50    0.72
   1 -10  -7    9.52    1.02
  -1 -10   7    9.50    0.46
   1  10  -7   10.28    0.64
   0 -10  -7   47.43    1.94
   0 -10   7   47.05    1.25
   0 -10  -7   46.12    1.56
   0  10  -7   47.95    1.40
  -1 -10  -7  189.57    4.63
  -1 -10  -7  184.49    4.20
   1 -10   7  181.11    3.82
  -1  10  -7  182.96    3.94
  -2 -10  -7    6.44    0.72
  -2 -10  -7    5.29    0.77
   2 -10   7    7.26    0.60
  -2  10  -7    7.64    0.64
  -3 -10  -7   19.34    1.16
  -3 -10  -7   18.62    1.10
   3 -10   7   18.73    0.96
  -3  10  -7   19.28    0.97
   4 -10   7   41.16    1.51
  -4  10  -7   42.73    1.55
   5 -10   7    3.67    0.61
   6 -10   7    2.29    0.58
  -9 -11   7    2.19    0.49
   9 -11  -7    2.57    0.89
  -9  11   7    3.03    0.60
  -8 -11   7   21.73    1.03
   8 -11  -7   23.65    1.83
  -8  11   7   22.10    1.15
   7 -11  -7    1.12    0.75
  -7 -11   7    1.40    0.36
  -7  11   7    1.70    0.45
  -6 -11   7    0.31    0.25
   6 -11  -7    0.03    0.62
  -6  11   7    0.12    0.33
  -5 -11   7   21.27    0.77
   5 -11  -7   18.02    1.52
  -5  11   7   19.75    0.92
  -4 -11   7   58.52    1.41
   4 -11  -7   60.69    2.51
  -4  11   7   58.09    1.62
  -3 -11   7   18.63    0.64
   3 -11  -7   17.32    1.36
   3 -11  -7   18.83    0.97
  -3  11   7   18.83    0.83
   2 -11  -7   25.62    1.55
  -2 -11   7   24.21    0.75
   2 -11  -7   25.67    1.10
  -2  11   7   24.12    0.93
   1 -11  -7   12.34    1.12
  -1 -11   7   11.78    0.54
   1 -11  -7   10.31    0.74
   1  11  -7   11.61    0.68
   0 -11   7   20.55    0.77
   0 -11  -7   19.82    1.00
   0 -11  -7   20.00    1.34
   0  11  -7   20.58    0.87
  -1 -11  -7   85.11    2.37
   1 -11   7   83.08    2.04
  -1 -11  -7   84.81    2.73
  -1  11  -7   86.13    2.13
   2 -11   7    7.50    0.63
  -2 -11  -7    8.77    0.91
  -2 -11  -7    6.86    0.75
  -2  11  -7    8.76    0.66
   3 -11   7   14.92    0.87
  -3 -11  -7   13.66    1.01
  -3 -11  -7   13.02    1.00
  -3  11  -7   13.78    0.84
   4 -11   7    4.81    0.64
  -4  11  -7    5.32    0.64
   5 -11   7    1.83    0.51
  -5  11  -7    2.07    0.51
   6 -11   7    4.99    0.76
   9 -12  -7   24.82    1.89
  -9 -12   7   26.77    1.23
  -9  12   7   23.55    1.28
  -8 -12   7    3.83    0.54
   8 -12  -7    2.94    0.94
  -8  12   7    2.22    0.54
  -7 -12   7    0.25    0.31
   7 -12  -7    0.69    0.70
  -7  12   7    0.69    0.40
   6 -12  -7    0.47    0.68
  -6 -12   7    0.51    0.28
  -6  12   7    0.51    0.36
   5 -12  -7   46.31    2.27
  -5 -12   7   44.59    1.26
  -5  12   7   45.00    1.46
  -4 -12   7    9.15    0.52
   4 -12  -7    8.98    1.20
  -4  12   7    9.97    0.70
   3 -12  -7   25.86    1.69
   3 -12  -7   32.10    1.25
  -3 -12   7   30.39    0.89
  -3  12   7   30.08    1.10
   2 -12  -7    4.63    0.90
   2 -12  -7    6.47    0.66
  -2 -12   7    6.27    0.42
  -2  12   7    6.34    0.57
   1 -12  -7    5.53    0.61
   1 -12  -7    5.11    0.88
  -1 -12   7    5.16    0.43
   1  12  -7    4.54    0.48
   0 -12  -7   11.48    0.80
   0 -12   7   11.60    0.62
   0 -12  -7   11.93    1.15
   0  12  -7   11.73    0.67
  -1 -12  -7   35.32    1.40
  -1 -12  -7   37.69    1.74
   1 -12   7   36.03    1.18
  -1  12  -7   35.92    1.19
  -2 -12  -7   18.17    1.20
  -2 -12  -7   16.42    1.03
   2 -12   7   17.63    0.87
  -2  12  -7   17.13    0.84
  -3 -12  -7   47.08    1.75
  -3 -12  -7   45.90    1.78
   3 -12   7   43.49    1.51
  -3  12  -7   42.56    1.46
   4 -12   7    8.74    0.80
  -4  12  -7    9.21    0.75
   5 -12   7    5.76    0.74
  -5  12  -7    7.62    0.80
   6 -12   7   12.14    1.03
  -9 -13   7    2.34    0.54
   9 -13  -7    2.46    0.95
  -9  13   7    2.74    0.61
  -8 -13   7   13.14    0.86
   8 -13  -7   12.01    1.55
  -8  13   7   11.99    0.96
  -7 -13   7   20.87    0.97
   7 -13  -7   21.08    1.73
  -7  13   7   21.26    1.11
   6 -13  -7    0.53    0.70
  -6 -13   7    1.63    0.36
  -6  13   7    1.47    0.45
  -5 -13   7    1.49    0.32
   5 -13  -7    0.67    0.66
  -5  13   7    1.64    0.42
   4 -13  -7   60.11    2.59
  -4 -13   7   58.29    1.50
  -4  13   7   59.55    1.73
   3 -13  -7   39.77    2.04
  -3 -13   7   38.46    1.08
   3 -13  -7   34.50    1.35
  -3  13   7   37.68    1.27
  -2 -13   7    3.86    0.38
   2 -13  -7    3.35    0.86
   2 -13  -7    4.75    0.59
  -2  13   7    4.51    0.51
   1 -13  -7   24.77    1.54
  -1 -13   7   24.70    0.87
   1 -13  -7   23.83    1.11
  -1  13   7   26.66    1.05
   1  13  -7   24.32    0.95
   0 -13  -7   17.98    0.98
   0 -13   7   18.64    0.80
   0 -13  -7   18.80    1.37
   0  13  -7   20.10    0.83
   1 -13   7    4.44    0.50
  -1 -13  -7    4.73    0.81
  -1 -13  -7    4.27    0.59
  -1  13  -7    4.67    0.49
  -2 -13  -7   14.05    1.13
  -2 -13  -7   15.05    0.98
   2 -13   7   16.38    0.87
  -2  13  -7   14.92    0.79
   3 -13   7   36.47    1.37
  -3 -13  -7   31.20    1.53
  -3 -13  -7   38.12    1.59
  -3  13  -7   37.85    1.30
   4 -13   7   19.89    1.08
  -4  13  -7   19.29    1.02
   5 -13   7    7.05    0.80
  -5  13  -7    9.01    0.85
   6 -13   7   10.01    1.00
  -6  13  -7    8.33    0.87
  -9 -14   7   10.50    0.88
   9 -14  -7   11.63    1.61
  -9  14   7    8.99    0.93
   8 -14  -7    8.49    1.39
  -8 -14   7    7.03    0.70
  -8  14   7    7.81    0.86
  -7 -14   7    1.16    0.38
   7 -14  -7    0.77    0.79
  -7  14   7    0.91    0.45
  -6 -14   7   35.35    1.23
   6 -14  -7   39.75    2.25
  -6  14   7   37.60    1.43
  -5 -14   7    5.71    0.52
   5 -14  -7    6.53    1.16
  -5  14   7    5.57    0.62
  -4 -14   7    2.56    0.36
   4 -14  -7    2.54    0.85
  -4  14   7    2.65    0.47
   3 -14  -7   26.31    1.16
   3 -14  -7   28.66    1.79
  -3 -14   7   27.18    0.92
  -3  14   7   27.82    1.12
   2 -14  -7   18.45    1.40
  -2 -14   7   19.49    0.76
   2 -14  -7   18.34    0.98
  -2  14   7   18.29    0.91
  -1 -14   7   71.83    1.82
   1 -14  -7   74.54    2.11
   1 -14  -7   74.57    2.77
  -1  14   7   74.67    2.03
   0 -14  -7   30.02    1.69
   0 -14   7   33.33    1.10
   0 -14  -7   32.26    1.31
   0  14  -7   32.24    1.07
  -1 -14  -7    2.86    0.72
  -1 -14  -7    1.74    0.46
   1 -14   7    2.67    0.43
  -1  14  -7    2.94    0.41
  -2 -14  -7    3.65    0.74
   2 -14   7    2.88    0.49
  -2 -14  -7    3.28    0.60
  -2  14  -7    3.18    0.44
  -3 -14  -7   30.12    1.48
  -3 -14  -7   30.26    1.43
   3 -14   7   28.89    1.23
  -3  14  -7   29.56    1.14
  -4 -14  -7   24.46    1.33
   4 -14   7   25.31    1.22
  -4  14  -7   23.04    1.10
   5 -14   7   14.36    1.08
  -5  14  -7   14.89    0.95
   6 -14   7    9.81    0.97
   9 -15  -7    3.43    1.07
  -9 -15   7    4.54    0.66
  -9  15   7    2.92    0.66
  -8 -15   7   14.07    0.93
   8 -15  -7   13.05    1.57
  -8  15   7   14.27    1.05
   7 -15  -7   13.17    1.55
  -7 -15   7   12.61    0.83
  -7  15   7   11.19    0.90
  -6 -15   7    1.09    0.35
   6 -15  -7    1.16    0.80
  -6  15   7    0.48    0.43
  -5 -15   7    1.36    0.34
   5 -15  -7    1.90    0.83
  -5  15   7    1.07    0.43
  -4 -15   7   14.94    0.74
   4 -15  -7   16.04    1.45
  -4  15   7   16.33    0.93
  -3 -15   7   14.55    0.70
   3 -15  -7   14.56    1.35
   3 -15  -7   15.60    0.91
  -3  15   7   13.11    0.83
  -2 -15   7    0.81    0.29
   2 -15  -7    0.73    0.69
   2 -15  -7    1.12    0.41
  -2  15   7    0.59    0.36
  -1 -15   7    0.87    0.30
   1 -15  -7    1.49    0.44
   1 -15  -7    0.13    0.60
  -1  15   7    1.69    0.43
   0 -15  -7   63.15    1.98
   0 -15  -7   68.78    2.57
   0 -15   7   64.38    1.78
   0  15   7   69.09    1.97
   0  15  -7   67.55    1.71
  -1 -15  -7   11.47    0.88
  -1 -15  -7   13.58    1.22
   1 -15   7   11.84    0.75
  -1  15  -7   13.44    0.69
  -2 -15  -7    4.16    0.67
  -2 -15  -7    4.34    0.80
   2 -15   7    4.07    0.55
  -2  15  -7    5.03    0.52
   3 -15   7    7.55    0.74
  -3 -15  -7    7.34    0.81
  -3 -15  -7    7.92    0.93
  -3  15  -7    7.98    0.63
   4 -15   7   21.98    1.21
  -4 -15  -7   21.94    1.29
   5 -15   7   28.47    1.42
  -8 -16   7   10.71    0.91
   8 -16  -7    9.32    1.47
  -8  16   7    9.13    0.91
   7 -16  -7    4.27    1.10
  -7 -16   7    5.49    0.63
  -7  16   7    5.12    0.71
   6 -16  -7   11.67    1.58
  -6 -16   7   11.08    0.75
  -6  16   7   11.89    0.92
  -5 -16   7    2.99    0.44
   5 -16  -7    2.01    0.89
  -5  16   7    2.09    0.50
  -4 -16   7   15.53    0.78
   4 -16  -7   17.33    1.59
  -4  16   7   15.16    0.92
   3 -16  -7   15.85    0.91
   3 -16  -7   12.45    1.31
  -3 -16   7   13.67    0.73
  -3  16   7   15.67    0.91
   2 -16  -7    6.67    0.68
  -2 -16   7    6.35    0.55
   2 -16  -7    7.33    1.17
  -2  16   7    7.07    0.67
  -1 -16   7   11.35    0.69
   1 -16  -7   11.29    1.25
   1 -16  -7   12.32    0.84
  -1  16   7   12.25    0.86
   0 -16  -7   71.59    2.69
   0 -16  -7   65.56    2.02
   0 -16   7   67.02    1.84
   0  16  -7   67.87    1.70
   0  16   7   66.80    2.00
  -1 -16  -7    2.99    0.75
  -1 -16  -7    1.91    0.48
   1 -16   7    1.59    0.40
  -1  16  -7    2.72    0.56
   2 -16   7    2.48    0.48
  -2 -16  -7    2.62    0.57
  -2 -16  -7    3.71    0.76
  -3 -16  -7    4.53    0.77
   3 -16   7    3.03    0.54
  -3 -16  -7    2.93    0.59
  -4 -16  -7   22.83    1.33
   4 -16   7   23.12    1.23
   5 -16   7    9.09    0.93
  -8 -17   7    1.05    0.45
   8 -17  -7    1.46    0.85
  -8  17   7    1.13    0.54
  -7 -17   7    5.74    0.65
   7 -17  -7    4.41    1.07
  -7  17   7    5.08    0.73
   6 -17  -7    0.67    0.77
  -6 -17   7    1.12    0.39
  -6  17   7    0.97    0.47
   5 -17  -7    0.93    0.80
  -5 -17   7   -0.09    0.27
  -5  17   7    0.37    0.40
  -4 -17   7    4.25    0.50
   4 -17  -7    5.28    1.13
  -4  17   7    3.97    0.60
   3 -17  -7    5.17    0.63
   3 -17  -7    4.99    1.05
  -3 -17   7    5.00    0.52
  -3  17   7    3.09    0.53
   2 -17  -7    0.18    0.64
   2 -17  -7    0.14    0.33
  -2 -17   7    0.10    0.27
  -2  17   7    0.15    0.36
   1 -17  -7   13.08    1.32
  -1 -17   7   12.90    0.75
   1 -17  -7   12.72    0.87
  -1  17   7   12.40    0.90
   0 -17   7   42.32    1.41
   0 -17  -7   42.47    1.55
   0 -17  -7   46.03    2.18
   0  17   7   44.27    1.57
   1 -17   7    7.76    0.70
  -1 -17  -7    6.57    1.01
  -1 -17  -7    9.69    0.79
   1  17   7    9.17    0.84
  -2 -17  -7    0.84    0.45
  -2 -17  -7    0.97    0.59
   2 -17   7    1.16    0.42
   3 -17   7    4.46    0.63
  -3 -17  -7    2.91    0.60
   4 -17   7   20.67    1.19
  -4 -17  -7   15.88    1.17
  -5 -17  -7    7.92    0.95
   5 -17   7    8.66    0.92
  -8 -18   7    0.61    0.40
   8 -18  -7    0.51    0.74
  -8  18   7    0.15    0.47
   7 -18  -7   -0.08    0.73
  -7 -18   7    0.35    0.38
  -7  18   7    0.37    0.47
  -6 -18   7    6.83    0.67
   6 -18  -7    6.00    1.23
  -6  18   7    5.15    0.70
   5 -18  -7   11.04    1.51
  -5 -18   7   13.17    0.81
  -5  18   7   12.58    0.95
  -4 -18   7    0.84    0.35
   4 -18  -7    0.64    0.75
  -4  18   7    0.47    0.40
   3 -18  -7    3.06    0.94
   3 -18  -7    3.79    0.56
  -3 -18   7    4.06    0.50
  -3  18   7    3.37    0.55
  -2 -18   7    0.76    0.34
   2 -18  -7    1.25    0.72
   2 -18  -7    1.23    0.40
  -2  18   7    1.53    0.44
  -1 -18   7    3.14    0.48
   1 -18  -7    4.09    0.59
   1 -18  -7    3.68    0.93
  -1  18   7    4.94    0.64
   0 -18  -7    9.16    0.79
   0 -18  -7    9.03    1.26
   0 -18   7    9.98    0.75
   0  18   7   10.00    0.84
  -1 -18  -7   28.38    1.71
   1 -18   7   27.92    1.19
  -1 -18  -7   27.56    1.28
   1  18   7   27.89    1.32
  -2 -18  -7    5.77    0.74
   2 -18   7    5.88    0.69
  -2 -18  -7    4.91    0.88
  -3 -18  -7    1.79    0.57
   3 -18   7    3.13    0.59
  -4 -18  -7    9.99    1.02
   4 -18   7   12.54    1.03
  -7 -19   7    0.00    0.38
   7 -19  -7    0.20    0.80
  -7  19   7    0.41    0.49
  -6 -19   7    0.85    0.40
   6 -19  -7   -0.43    0.73
  -6  19   7    0.70    0.46
   5 -19  -7    3.05    1.01
  -5 -19   7    3.56    0.53
  -5  19   7    3.18    0.61
   4 -19  -7    5.43    1.12
  -4 -19   7    6.26    0.64
  -4  19   7    7.01    0.74
   3 -19  -7   27.88    1.20
   3 -19  -7   28.24    2.02
  -3 -19   7   28.12    1.13
  -3  19   7   28.20    1.30
  -2 -19   7    9.08    0.70
   2 -19  -7    9.78    1.40
   2 -19  -7    9.29    0.78
  -2  19   7   10.58    0.87
   1 -19  -7    3.26    0.89
  -1 -19   7    3.62    0.50
   1 -19  -7    3.05    0.53
  -1  19   7    3.69    0.61
   0 -19  -7    5.72    1.05
   0 -19   7    4.52    0.58
   0 -19  -7    5.01    0.65
   0  19   7    6.25    0.74
   1 -19   7    4.65    0.59
  -1 -19  -7    3.13    0.56
  -1 -19  -7    2.88    0.79
   1  19   7    3.84    0.63
  -2 -19  -7   13.63    1.01
   2 -19   7   17.46    1.03
  -2 -19  -7   17.37    1.37
   2  19   7   15.95    1.10
  -3 -19  -7    0.61    0.45
   3 -19   7    0.91    0.45
  -4 -19  -7    5.99    0.86
   4 -19   7    6.55    0.84
   7 -20  -7    3.40    1.13
  -7 -20   7    1.87    0.51
  -7  20   7    1.53    0.61
   6 -20  -7    5.63    1.30
  -6 -20   7    6.89    0.73
  -6  20   7    5.52    0.75
   5 -20  -7    9.59    1.50
  -5 -20   7    9.48    0.80
  -5  20   7   10.24    0.95
   4 -20  -7    2.48    0.93
  -4 -20   7    2.75    0.49
  -4  20   7    1.93    0.55
   3 -20  -7    2.85    0.52
   3 -20  -7    3.44    1.07
  -3 -20   7    3.16    0.51
  -3  20   7    3.03    0.59
   2 -20  -7    1.81    0.88
   2 -20  -7    1.78    0.46
  -2 -20   7    1.26    0.41
  -2  20   7    2.26    0.54
  -1 -20   7    8.48    0.72
   1 -20  -7    7.70    0.76
   1 -20  -7    6.30    1.12
  -1  20   7    6.76    0.76
   0 -20  -7   13.17    0.91
   0 -20   7   12.90    0.87
   0 -20  -7   15.33    1.42
   0  20   7   12.80    1.00
  -1 -20  -7    1.55    0.47
   1 -20   7    1.34    0.46
  -1 -20  -7    1.85    0.73
   1  20   7    1.67    0.51
   2 -20   7    5.97    0.71
  -2 -20  -7    4.45    0.90
  -2 -20  -7    5.58    0.73
   2  20   7    4.19    0.68
  -3 -20  -7    2.34    0.59
   3 -20   7    3.80    0.64
   3  20   7    3.02    0.65
  -4 -20  -7    4.62    0.75
   4 -20   7    5.44    0.77
  -6 -21   7    1.02    0.44
   6 -21  -7    1.62    0.97
  -6  21   7    0.46    0.50
   5 -21  -7    1.03    0.89
  -5 -21   7    1.07    0.44
  -5  21   7    1.36    0.51
  -4 -21   7    1.55    0.44
   4 -21  -7    2.00    0.99
  -4  21   7    1.73    0.54
  -3 -21   7    0.15    0.34
   3 -21  -7    0.12    0.75
  -3  21   7    0.08    0.42
   2 -21  -7    2.71    0.97
   2 -21  -7    2.14    0.49
  -2 -21   7    1.74    0.45
  -2  21   7    2.02    0.54
  -1 -21   7   12.31    0.85
   1 -21  -7   12.83    0.89
   1 -21  -7   12.60    1.47
  -1  21   7   12.84    0.99
   0 -21   7    9.55    0.80
   0 -21  -7    9.42    0.81
   0 -21  -7    7.38    1.16
   0  21   7   10.54    0.95
   1 -21   7    0.80    0.41
  -1 -21  -7   -0.42    0.34
  -1 -21  -7   -0.01    0.59
   1  21   7    0.07    0.43
  -2 -21  -7   13.45    1.01
  -2 -21  -7   13.87    1.31
   2 -21   7   12.27    0.97
   2  21   7   13.97    1.10
  -3 -21  -7    5.74    0.78
   3 -21   7    5.77    0.80
   3  21   7    4.46    0.74
  -6 -22   7   53.15    1.87
   6 -22  -7   54.08    3.12
  -6  22   7   53.50    2.04
   5 -22  -7    1.02    0.96
  -5 -22   7    1.13    0.44
  -5  22   7    0.62    0.50
  -4 -22   7    6.59    0.72
   4 -22  -7    6.38    1.35
  -4  22   7    6.08    0.78
  -3 -22   7    0.01    0.34
   3 -22  -7    0.30    0.77
  -3  22   7    0.43    0.44
   2 -22  -7    3.63    0.58
  -2 -22   7    3.78    0.58
   2 -22  -7    3.52    1.05
  -2  22   7    4.35    0.69
  -1 -22   7    4.74    0.62
   1 -22  -7    3.14    0.94
   1 -22  -7    3.89    0.60
  -1  22   7    4.22    0.67
   0 -22  -7   11.73    0.90
   0 -22   7   12.59    0.91
   0 -22  -7   12.60    1.43
   0  22   7   13.27    1.03
  -1 -22  -7    1.18    0.72
  -1 -22  -7    1.61    0.47
   1 -22   7    1.21    0.47
   1  22   7    0.99    0.52
  -2 -22  -7    2.61    0.58
  -2 -22  -7    3.61    0.86
   2 -22   7    3.76    0.65
   2  22   7    2.82    0.66
  -3 -22  -7    3.98    0.69
   3 -22   7    3.83    0.68
   3  22   7    2.42    0.64
  -5 -23   7    8.30    0.85
   5 -23  -7    7.34    1.47
  -5  23   7    8.36    0.94
   4 -23  -7    1.61    1.00
  -4 -23   7    1.40    0.47
  -4  23   7    1.08    0.54
   3 -23  -7    0.37    0.88
  -3 -23   7    0.67    0.41
  -3  23   7    0.56    0.49
  -2 -23   7    0.26    0.37
   2 -23  -7    0.18    0.74
  -2  23   7    0.20    0.44
   1 -23  -7    7.51    1.32
  -1 -23   7    6.66    0.74
  -1  23   7    5.91    0.82
   0 -23   7    6.63    0.75
   0 -23  -7    6.04    1.14
   0 -23  -7    6.31    0.73
   0  23   7    7.25    0.86
  -1 -23  -7    6.08    1.13
   1 -23   7    6.82    0.79
  -1 -23  -7    7.24    0.80
   1  23   7    6.17    0.82
  -2 -23  -7    4.93    0.70
   2 -23   7    4.94    0.73
  -2 -23  -7    4.88    0.99
   2  23   7    4.13    0.73
   4 -24  -7    1.49    0.96
  -4 -24   7    0.49    0.44
  -4  24   7    0.62    0.51
   3 -24  -7    1.71    0.99
  -3 -24   7    0.82    0.43
  -3  24   7    1.39    0.58
  -2 -24   7    3.12    0.59
   2 -24  -7    3.48    1.10
  -2  24   7    3.23    0.68
   1 -24  -7    8.78    1.37
  -1 -24   7    8.45    0.84
  -1  24   7    8.98    0.94
   0 -24   7   20.55    1.19
   0 -24  -7   21.47    1.79
   0  24   7   20.91    1.27
   1 -24   7    2.40    0.59
  -1 -24  -7    2.13    0.88
   1  24   7    2.31    0.64
  -3 -25   7    1.45    0.50
   3 -25  -7    2.03    1.04
  -3  25   7    0.91    0.54
  -2 -25   7    2.75    0.57
   2 -25  -7    3.59    1.16
  -2  25   7    2.26    0.63
  -1 -25   7    6.99    0.81
   1 -25  -7    6.68    1.34
  -1  25   7    5.38    0.80
   0 -25  -7   19.20    1.76
   0 -25   7   17.06    1.15
   0  25   7   18.89    1.24
  10   0  -8   11.56    1.26
 -10   0   8   10.99    0.90
  -9   0   8    0.72    0.39
   9   0  -8    0.04    0.54
   8   0  -8    0.11    0.54
  -8   0   8   -0.02    0.29
  -7   0   8    1.21    0.32
   7   0  -8    0.18    0.58
  -6   0   8   67.19    1.57
   6   0  -8   66.52    2.56
  -5   0   8    3.75    0.29
  -5   0   8    3.47    0.27
   5   0  -8    3.16    0.76
   4   0  -8    1.16    0.57
   3   0  -8   12.95    0.82
   3   0  -8    9.36    0.96
   2   0  -8   82.85    2.23
   2   0  -8   82.71    2.74
  -1   0   8    1.59    0.19
   1   0  -8    1.38    0.41
  -1   0   8    1.54    0.17
   0   0  -8  149.10    3.48
   0   0   8  149.08    3.01
   0   0   8  147.76    2.99
  -1   0  -8   22.77    1.10
   1   0   8   22.20    0.83
   2   0   8   26.60    1.02
  -2   0  -8   28.81    1.28
  -3   0  -8   19.98    1.17
   3   0   8   22.26    1.02
   4   0   8    3.04    0.54
   5   0   8    1.54    0.51
   6   0   8    2.69    0.63
 -10  -1   8    4.52    0.64
  10  -1  -8    6.23    1.05
 -10   1   8    4.94    0.64
   9  -1  -8    7.04    1.07
  -9  -1   8    7.97    0.71
  -9   1   8    7.08    0.69
   9   1  -8    6.36    1.02
  -8  -1   8    0.97    0.35
   8  -1  -8    1.72    0.69
  -8   1   8    0.92    0.35
   8   1  -8    0.87    0.59
  -7  -1   8   23.10    0.87
   7  -1  -8   21.53    1.48
  -7   1   8   22.91    0.87
   7   1  -8   22.18    1.50
  -6  -1   8   10.74    0.52
   6  -1  -8   10.48    1.13
  -6   1   8   10.80    0.55
   6   1  -8    9.58    1.08
   5  -1  -8   43.33    1.97
  -5  -1   8   42.94    0.99
  -5  -1   8   44.70    1.00
  -5   1   8   45.06    1.06
   5   1  -8   45.90    2.01
  -5   1   8   42.84    1.04
   4  -1  -8   22.00    1.41
   4  -1  -8   20.12    1.05
   4   1  -8   20.77    1.36
  -4   1   8   19.68    0.50
   3  -1  -8   19.00    0.99
   3  -1  -8   19.89    1.33
   3   1  -8   21.48    1.37
   3   1  -8   21.67    1.02
   2  -1  -8    8.27    0.69
   2  -1  -8    6.20    0.86
  -2   1   8    7.78    0.26
  -2   1   8    8.20    0.25
   2   1  -8    9.21    0.71
   1  -1  -8   13.45    1.11
  -1  -1   8   12.87    0.41
   1  -1  -8   12.49    0.80
  -1  -1   8   13.23    0.40
   1   1  -8   11.77    0.80
  -1   1   8   12.44    0.45
  -1   1   8   12.48    0.43
   0  -1   8   19.28    0.66
   0  -1   8   18.93    0.63
   0  -1  -8   20.59    1.00
   0   1   8   19.45    0.68
   0   1  -8   19.34    0.98
   0   1   8   18.56    0.66
  -1  -1  -8   38.26    1.42
   1  -1   8   37.77    1.12
   1   1   8   38.03    1.14
  -1   1  -8   36.42    1.39
   2  -1   8   15.86    0.79
  -2  -1  -8   15.56    0.97
   2   1   8   15.51    0.79
  -2   1  -8   15.05    0.97
  -3  -1  -8   46.55    1.74
   3  -1   8   44.54    1.48
  -3   1  -8   45.04    1.70
   3   1   8   45.65    1.51
   4  -1   8    3.43    0.56
  -4   1  -8    4.01    0.67
   4   1   8    3.94    0.58
   5  -1   8    8.58    0.84
   5   1   8    9.87    0.90
   6  -1   8    4.17    0.71
   6   1   8    4.06    0.73
  10  -2  -8    2.18    0.78
 -10  -2   8    2.29    0.53
 -10   2   8    1.95    0.52
   9  -2  -8    7.53    1.10
  -9  -2   8    7.76    0.71
  -9   2   8    7.82    0.74
  -8  -2   8    0.90    0.34
   8  -2  -8    1.57    0.68
  -8   2   8    1.00    0.35
   8   2  -8    0.63    0.57
   7  -2  -8   58.02    2.43
  -7  -2   8   61.87    1.57
  -7   2   8   60.21    1.61
   7   2  -8   59.24    2.37
   6  -2  -8   37.92    1.91
  -6  -2   8   39.40    1.04
   6   2  -8   39.04    1.90
  -6   2   8   40.02    1.11
  -5  -2   8   15.01    0.46
  -5  -2   8   14.27    0.45
   5  -2  -8   14.95    1.20
   5   2  -8   14.31    1.20
  -5   2   8   14.12    0.54
   4  -2  -8   18.34    1.34
   4  -2  -8   22.74    1.08
   4   2  -8   19.09    1.35
  -4   2   8   20.85    0.57
  -4   2   8   21.79    0.57
   3  -2  -8   63.86    1.93
   3  -2  -8   67.27    2.45
   3   2  -8   68.85    1.96
  -3   2   8   68.17    1.34
   2  -2  -8    9.97    0.75
   2  -2  -8    9.55    0.99
  -2   2   8   10.00    0.35
  -2   2   8    9.67    0.33
   1  -2  -8    7.84    0.68
   1  -2  -8    7.78    0.97
  -1  -2   8    7.75    0.31
  -1  -2   8    7.92    0.30
  -1   2   8    7.53    0.38
   1   2  -8    7.46    0.66
  -1   2   8    7.99    0.37
   0  -2   8   26.20    0.76
   0  -2   8   26.03    0.77
   0  -2  -8   26.22    1.14
   0   2   8   25.80    0.82
   0   2  -8   24.89    1.12
   1  -2   8   32.30    1.02
  -1  -2  -8   31.63    1.32
   1   2   8   34.76    1.08
  -1   2  -8   35.98    1.34
  -2  -2  -8   37.66    1.49
   2  -2   8   37.40    1.22
   2   2   8   37.56    1.25
  -2   2  -8   36.77    1.45
   3  -2   8    9.60    0.74
  -3  -2  -8    7.71    0.80
  -3   2  -8    9.49    0.85
   3   2   8    9.94    0.75
   4  -2   8    1.52    0.46
   4   2   8    1.38    0.46
  -4   2  -8    1.34    0.50
   5  -2   8    2.39    0.54
   5   2   8    2.16    0.55
   6  -2   8   13.25    1.05
   6   2   8   12.43    1.04
  10  -3  -8   10.63    1.27
 -10  -3   8   10.04    0.88
 -10   3   8    9.10    0.85
  -9  -3   8    0.17    0.34
   9  -3  -8   -0.02    0.55
  -9   3   8    0.00    0.36
  -8  -3   8    4.25    0.49
   8  -3  -8    3.43    0.83
  -8   3   8    3.72    0.50
  -7  -3   8    4.02    0.43
   7  -3  -8    3.25    0.81
  -7   3   8    4.59    0.48
  -6  -3   8    1.96    0.28
   6  -3  -8    2.34    0.73
  -6   3   8    2.40    0.35
  -5  -3   8   58.23    1.22
   5  -3  -8   58.57    2.36
  -5   3   8   57.20    1.36
   4  -3  -8  182.68    4.14
   4  -3  -8  180.82    4.76
  -4   3   8  184.02    3.49
  -4   3   8  178.25    3.49
   3  -3  -8   13.91    1.17
   3  -3  -8   12.54    0.82
   3   3  -8   12.98    0.84
  -3   3   8   13.75    0.43
   2  -3  -8    0.76    0.53
   2  -3  -8    1.34    0.41
  -2   3   8    1.55    0.18
   2   3  -8    1.86    0.42
  -2   3   8    1.54    0.20
  -1  -3   8   10.31    0.34
   1  -3  -8   10.86    0.77
   1  -3  -8   11.00    1.03
  -1  -3   8   10.34    0.34
   1   3  -8    9.20    0.72
  -1   3   8    9.97    0.43
  -1   3   8    9.58    0.46
   0  -3  -8   96.94    2.94
   0  -3   8   91.75    1.97
   0  -3   8   89.69    1.96
   0  -3  -8   92.91    2.46
   0   3  -8   92.70    2.42
   0   3   8   91.65    2.06
   1  -3   8   64.01    1.58
  -1  -3  -8   63.21    1.95
  -1   3  -8   63.77    1.90
   1   3   8   59.93    1.62
  -2  -3  -8   53.24    1.83
   2  -3   8   53.40    1.52
  -2   3  -8   52.98    1.78
   2   3   8   56.60    1.60
  -3  -3  -8   28.52    1.36
   3  -3   8   25.04    1.10
   3   3   8   26.90    1.15
  -3   3  -8   26.84    1.28
   4  -3   8   13.54    0.91
  -4   3  -8   14.68    1.05
   4   3   8   13.75    0.95
   5  -3   8    1.86    0.49
   5   3   8    2.64    0.58
   6  -3   8   14.61    1.11
   6   3   8   12.71    1.05
  10  -4  -8    5.11    1.02
 -10  -4   8    4.54    0.62
 -10   4   8    4.87    0.68
   9  -4  -8   15.17    1.39
  -9  -4   8   15.99    0.90
  -9   4   8   15.73    0.94
   8  -4  -8    4.76    0.94
  -8  -4   8    4.84    0.51
  -8   4   8    4.06    0.52
  -7  -4   8   15.34    0.73
   7  -4  -8   18.00    1.43
  -7   4   8   15.64    0.79
  -6  -4   8   34.75    0.95
   6  -4  -8   34.99    1.90
  -6   4   8   32.45    1.04
  -5  -4   8    3.24    0.25
   5  -4  -8    2.77    0.73
  -5   4   8    4.13    0.36
   4  -4  -8    4.56    0.59
   4  -4  -8    6.17    0.96
  -4   4   8    4.81    0.35
  -4   4   8    5.16    0.33
   3  -4  -8   14.00    1.20
   3  -4  -8   15.95    0.91
  -3   4   8   15.76    0.51
   3   4  -8   15.25    0.88
   2  -4  -8    0.96    0.52
   2  -4  -8    1.27    0.37
  -2   4   8    1.92    0.21
   2   4  -8    1.75    0.38
   1  -4  -8    2.69    0.50
  -1  -4   8    2.59    0.21
   1  -4  -8    2.46    0.67
  -1  -4   8    2.53    0.21
  -1   4   8    3.25    0.31
   1   4  -8    2.17    0.45
  -1   4   8    2.69    0.27
   0  -4  -8   20.69    1.30
   0  -4   8   22.58    0.71
   0  -4   8   21.75    0.70
   0  -4  -8   21.08    1.06
   0   4  -8   21.48    1.00
   0   4   8   21.27    0.78
  -1  -4  -8  184.31    4.23
   1  -4   8  183.72    3.76
  -1   4  -8  182.73    4.12
   1   4   8  184.96    3.85
   2  -4   8   16.10    0.79
   2   4   8   15.62    0.83
  -2   4  -8   16.37    0.98
  -3  -4  -8   36.06    1.54
   3  -4   8   35.35    1.30
   3   4   8   35.97    1.33
  -3   4  -8   34.52    1.44
   4  -4   8   32.61    1.33
   4   4   8   30.64    1.32
  -4   4  -8   32.33    1.46
   5  -4   8   20.64    1.17
   5   4   8   20.50    1.20
   6  -4   8    6.18    0.82
   6   4   8    6.99    0.87
  10  -5  -8    7.30    1.20
 -10  -5   8    8.07    0.78
 -10   5   8    7.09    0.79
  -9  -5   8   16.35    0.91
   9  -5  -8   20.16    1.60
  -9   5   8   18.40    1.02
   8  -5  -8    3.08    0.84
  -8  -5   8    3.77    0.48
  -8   5   8    3.77    0.52
  -7  -5   8   96.93    2.20
   7  -5  -8   91.74    3.26
  -7   5   8   94.89    2.30
   6  -5  -8    0.32    0.59
  -6  -5   8    1.09    0.24
  -6   5   8    1.25    0.32
  -5  -5   8    3.39    0.26
   5  -5  -8    2.80    0.77
  -5   5   8    3.06    0.35
   4  -5  -8   23.23    1.51
   4  -5  -8   21.62    1.11
  -4   5   8   24.61    0.75
   3  -5  -8    4.15    0.58
   3  -5  -8    2.77    0.72
   3   5  -8    4.13    0.56
  -3   5   8    3.78    0.30
   2  -5  -8    3.69    0.55
   2  -5  -8    3.27    0.75
  -2   5   8    3.52    0.30
   2   5  -8    2.87    0.46
  -1  -5   8    0.43    0.13
   1  -5  -8    1.04    0.56
  -1  -5   8    0.40    0.13
   1  -5  -8    0.43    0.35
   1   5  -8    1.13    0.35
   0  -5  -8   33.89    1.32
   0  -5   8   31.63    0.90
   0  -5  -8   32.47    1.63
   0   5  -8   33.51    1.26
   0   5   8   31.65    1.01
  -1  -5  -8   43.77    1.56
   1  -5   8   40.29    1.18
  -1  -5  -8   36.04    1.75
  -1   5  -8   40.87    1.43
   1   5   8   41.80    1.27
   2  -5   8   28.92    1.06
  -2  -5  -8   30.00    1.34
   2   5   8   27.89    1.12
  -2   5  -8   28.80    1.27
  -3  -5  -8    4.34    0.63
   3  -5   8    5.38    0.59
   3   5   8    4.02    0.56
  -3   5  -8    3.51    0.56
   4  -5   8   18.30    1.03
  -4   5  -8   17.03    1.13
   4   5   8   19.22    1.08
   5  -5   8   50.86    1.82
   5   5   8   55.14    1.93
   6  -5   8    2.14    0.59
   6   5   8    2.82    0.65
  10  -6  -8    1.24    0.73
 -10  -6   8    0.64    0.43
 -10   6   8    1.20    0.49
   9  -6  -8    3.14    0.88
  -9  -6   8    2.62    0.48
  -9   6   8    2.64    0.52
  -8  -6   8    7.43    0.62
   8  -6  -8    7.96    1.21
  -8   6   8    6.98    0.67
  -7  -6   8   47.05    1.32
   7  -6  -8   47.10    2.26
  -7   6   8   46.61    1.45
  -6  -6   8    9.00    0.49
   6  -6  -8    9.42    1.23
  -6   6   8    8.60    0.61
  -5  -6   8    3.11    0.25
   5  -6  -8    3.58    0.78
  -5   6   8    2.40    0.34
   4  -6  -8    4.40    0.86
   4  -6  -8    5.55    0.66
  -4   6   8    4.91    0.42
   3  -6  -8   18.42    0.99
   3  -6  -8   17.00    1.32
   3   6  -8   17.45    0.92
   2  -6  -8   49.45    2.05
   2  -6  -8   48.93    1.62
   2   6  -8   49.14    1.56
   1  -6  -8    3.83    0.54
   1  -6  -8    3.19    0.68
  -1  -6   8    4.36    0.28
  -1  -6   8    4.93    0.28
   1   6  -8    4.82    0.55
   0  -6   8   21.61    0.71
   0  -6  -8   19.35    1.31
   0  -6  -8   21.14    1.06
   0   6  -8   22.62    1.00
  -1  -6  -8   20.00    1.30
   1  -6   8   15.84    0.72
  -1  -6  -8   18.24    1.03
  -1   6  -8   16.32    0.93
   1   6   8   16.74    0.81
  -2  -6  -8   51.58    1.81
   2  -6   8   50.27    1.48
   2   6   8   50.99    1.56
  -2   6  -8   48.36    1.66
   3  -6   8    9.78    0.75
  -3  -6  -8    9.54    0.94
  -3   6  -8    9.92    0.85
   3   6   8    8.33    0.75
   4  -6   8    9.49    0.82
  -4   6  -8    9.74    0.93
   4   6   8   10.81    0.88
   5  -6   8   30.76    1.37
  -5   6  -8   30.68    1.47
   5   6   8   30.13    1.44
   6  -6   8    0.90    0.51
   6   6   8    0.89    0.53
 -10  -7   8    0.44    0.41
  10  -7  -8   -0.12    0.65
 -10   7   8    0.01    0.44
   9  -7  -8    2.25    0.82
  -9  -7   8    2.62    0.49
  -9   7   8    2.28    0.51
  -8  -7   8    0.44    0.32
   8  -7  -8    0.28    0.63
  -8   7   8    0.51    0.39
   7  -7  -8    3.98    0.92
  -7  -7   8    4.82    0.46
  -7   7   8    4.52    0.54
   6  -7  -8   14.03    1.34
  -6  -7   8   14.62    0.61
  -6   7   8   14.35    0.75
   5  -7  -8    0.24    0.61
  -5  -7   8    0.40    0.16
  -5   7   8    0.19    0.25
   4  -7  -8   53.26    1.76
   4  -7  -8   51.31    2.26
  -4  -7   8   52.54    1.07
  -4   7   8   52.89    1.37
   3  -7  -8  118.88    2.95
   3  -7  -8  117.82    3.59
  -3   7   8  116.82    2.51
   2  -7  -8   10.58    1.05
  -2  -7   8   13.35    0.36
  -2  -7   8   11.85    0.36
   2  -7  -8   13.27    0.85
   2   7  -8   12.98    0.79
   1  -7  -8   36.99    1.39
  -1  -7   8   35.58    0.89
  -1  -7   8   36.16    0.90
   1  -7  -8   38.15    1.78
   1   7  -8   36.30    1.29
   0  -7   8  101.51    2.18
   0  -7  -8   98.44    2.65
   0  -7  -8  104.13    3.15
   0   7  -8   99.96    2.53
   1  -7   8   23.11    0.86
  -1  -7  -8   23.96    1.39
  -1  -7  -8   22.35    1.14
  -1   7  -8   22.26    1.03
   2  -7   8   16.37    0.83
  -2  -7  -8   16.95    1.06
   2   7   8   16.60    0.90
  -2   7  -8   18.24    0.98
   3  -7   8    9.29    0.74
  -3  -7  -8    7.22    0.82
   3   7   8    7.89    0.75
  -3   7  -8    7.91    0.79
   4  -7   8   21.98    1.11
   4   7   8   22.11    1.18
  -4   7  -8   22.90    1.22
   5  -7   8   19.31    1.15
   5   7   8   18.31    1.15
  -5   7  -8   16.68    1.15
   6  -7   8    2.42    0.62
  10  -8  -8    3.07    0.94
 -10  -8   8    2.86    0.57
 -10   8   8    3.45    0.64
  -9  -8   8    0.73    0.39
   9  -8  -8    0.03    0.64
  -9   8   8    0.21    0.40
  -8  -8   8   45.07    1.43
   8  -8  -8   44.82    2.33
  -8   8   8   45.21    1.55
   7  -8  -8    7.66    1.16
  -7  -8   8    8.46    0.59
  -7   8   8    8.81    0.72
   6  -8  -8   40.57    2.12
  -6  -8   8   43.42    1.16
  -6   8   8   43.53    1.35
   5  -8  -8   -0.40    0.57
  -5  -8   8    0.14    0.16
  -5   8   8    0.29    0.28
   4  -8  -8   75.27    2.79
   4  -8  -8   73.62    2.18
  -4  -8   8   74.43    1.52
  -4  -8   8   74.91    1.51
  -4   8   8   72.49    1.80
  -3  -8   8   18.37    0.47
   3  -8  -8   19.77    1.03
  -3  -8   8   18.00    0.47
   3  -8  -8   15.25    1.33
  -3   8   8   18.21    0.73
   2  -8  -8   12.00    1.17
  -2  -8   8   11.27    0.38
   2  -8  -8   10.48    0.80
  -2  -8   8   11.16    0.39
   2   8  -8   10.47    0.74
  -1  -8   8    7.19    0.38
  -1  -8   8    7.60    0.53
   1  -8  -8    8.55    0.75
   1  -8  -8    6.07    0.88
   1   8  -8    7.26    0.66
   0  -8   8   78.33    1.80
   0  -8  -8   78.37    2.25
   0  -8  -8   79.28    2.68
   0   8  -8   77.05    2.09
  -1  -8  -8    7.22    0.76
   1  -8   8    5.51    0.48
  -1  -8  -8    5.05    0.83
  -1   8  -8    6.32    0.64
  -2  -8  -8   54.57    2.07
  -2  -8  -8   50.11    1.83
   2  -8   8   50.29    1.52
  -2   8  -8   51.14    1.67
   3  -8   8   28.45    1.17
  -3  -8  -8   28.46    1.41
  -3   8  -8   27.55    1.28
   4  -8   8   31.36    1.34
  -4  -8  -8   34.77    1.60
  -4   8  -8   36.24    1.49
   5  -8   8    0.33    0.43
  -5   8  -8    0.53    0.47
   6  -8   8    6.00    0.82
  -9  -9   8    2.63    0.51
   9  -9  -8    4.21    1.03
  -9   9   8    2.59    0.55
   8  -9  -8    0.23    0.64
  -8  -9   8    0.29    0.32
  -8   9   8    0.25    0.38
  -7  -9   8   24.00    0.94
   7  -9  -8   25.43    1.78
  -7   9   8   25.77    1.09
  -6  -9   8    9.54    0.55
   6  -9  -8    9.96    1.28
  -6   9   8   10.87    0.71
  -5  -9   8   27.74    0.82
   5  -9  -8   27.43    1.76
  -5   9   8   28.51    1.03
   4  -9  -8   44.98    2.15
   4  -9  -8   40.54    1.55
  -4  -9   8   43.30    1.02
  -4   9   8   43.78    1.28
   3  -9  -8   44.05    2.07
   3  -9  -8   41.21    1.50
  -3  -9   8   41.12    0.95
  -3  -9   8   41.60    0.96
  -3   9   8   42.98    1.24
  -2  -9   8    1.90    0.21
   2  -9  -8    1.47    0.62
   2  -9  -8    2.01    0.49
  -2  -9   8    2.03    0.22
   2   9  -8    2.11    0.42
   1  -9  -8   39.00    1.48
  -1  -9   8   39.01    1.02
   1  -9  -8   40.89    1.91
   1   9  -8   40.71    1.35
   0  -9  -8   13.51    0.90
   0  -9  -8   11.41    1.14
   0  -9   8   13.18    0.61
   0   9  -8   12.36    0.78
  -1  -9  -8    1.97    0.62
   1  -9   8    2.44    0.37
  -1  -9  -8    2.72    0.57
  -1   9  -8    2.16    0.45
  -2  -9  -8   27.07    1.32
  -2  -9  -8   22.80    1.39
   2  -9   8   27.97    1.07
  -2   9  -8   29.50    1.19
   3  -9   8   47.84    1.56
  -3  -9  -8   45.54    1.81
  -3   9  -8   47.36    1.66
  -4  -9  -8   14.41    1.12
   4  -9   8   14.65    0.97
  -4   9  -8   14.38    0.98
   5  -9   8    2.15    0.55
  -5   9  -8    1.69    0.54
   6  -9   8    4.73    0.76
  -6   9  -8    5.71    0.84
  -9 -10   8   22.84    1.12
   9 -10  -8   23.25    1.86
  -9  10   8   24.28    1.24
   8 -10  -8    1.91    0.85
  -8 -10   8    2.09    0.43
  -8  10   8    2.40    0.51
   7 -10  -8    5.81    1.09
  -7 -10   8    6.33    0.55
  -7  10   8    5.76    0.62
  -6 -10   8    0.88    0.27
   6 -10  -8    0.96    0.75
  -6  10   8    1.23    0.38
   5 -10  -8   23.40    1.62
  -5 -10   8   22.95    0.75
  -5  10   8   22.79    0.96
   4 -10  -8    6.57    1.08
   4 -10  -8    5.43    0.66
  -4 -10   8    5.10    0.35
  -4  10   8    6.03    0.53
   3 -10  -8   18.55    1.46
  -3 -10   8   17.63    0.57
   3 -10  -8   17.28    0.99
  -3  10   8   17.85    0.80
   2 -10  -8    4.04    0.58
  -2 -10   8    4.48    0.33
   2 -10  -8    4.33    0.86
   2  10  -8    3.51    0.51
  -1 -10   8    4.90    0.39
   1 -10  -8    3.55    0.78
   1 -10  -8    3.55    0.56
   1  10  -8    4.72    0.52
   0 -10   8   16.15    0.68
   0 -10  -8   14.31    1.23
   0 -10  -8   16.70    1.00
   0  10  -8   15.75    0.85
   1 -10   8    0.64    0.30
  -1 -10  -8    0.55    0.51
  -1 -10  -8    0.80    0.43
  -1  10  -8    1.44    0.39
  -2 -10  -8   15.39    1.05
  -2 -10  -8   17.56    1.22
   2 -10   8   16.75    0.84
  -2  10  -8   14.71    0.89
   3 -10   8   24.95    1.12
  -3 -10  -8   23.39    1.30
  -3  10  -8   24.17    1.15
   4 -10   8    6.03    0.71
  -4 -10  -8    8.52    0.94
  -4  10  -8    6.38    0.74
   5 -10   8    3.67    0.64
  -5  10  -8    4.24    0.67
   6 -10   8   -0.04    0.45
  -6  10  -8    0.35    0.48
   9 -11  -8    2.63    0.94
  -9 -11   8    3.72    0.57
  -9  11   8    4.10    0.65
   8 -11  -8    4.43    1.06
  -8 -11   8    5.37    0.59
  -8  11   8    5.39    0.68
  -7 -11   8    2.53    0.40
   7 -11  -8    2.79    0.89
  -7  11   8    2.25    0.48
  -6 -11   8    4.77    0.45
   6 -11  -8    4.44    1.04
  -6  11   8    4.13    0.53
  -5 -11   8    1.85    0.30
   5 -11  -8    2.50    0.87
  -5  11   8    2.36    0.43
   4 -11  -8    9.75    0.85
   4 -11  -8   10.28    1.28
  -4 -11   8   10.20    0.49
  -4  11   8   10.76    0.71
  -3 -11   8   52.22    1.23
   3 -11  -8   50.27    1.71
   3 -11  -8   50.16    2.31
  -3  11   8   50.00    1.47
   2 -11  -8    1.71    0.70
  -2 -11   8    1.89    0.26
   2 -11  -8    1.68    0.45
  -2  11   8    1.85    0.38
   2  11  -8    2.16    0.44
   1 -11  -8   -0.41    0.51
   1 -11  -8   -0.46    0.34
  -1 -11   8    0.15    0.20
   1  11  -8   -0.02    0.29
   0 -11  -8  115.86    3.01
   0 -11   8  114.63    2.57
   0 -11  -8  122.15    3.59
   0  11  -8  114.51    2.77
   1 -11   8   12.49    0.71
  -1 -11  -8   10.71    0.88
  -1 -11  -8   10.39    1.09
  -1  11  -8   13.54    0.79
   2 -11   8    2.68    0.45
  -2 -11  -8    2.95    0.62
  -2 -11  -8    3.38    0.71
  -2  11  -8    2.68    0.48
  -3 -11  -8    1.24    0.53
   3 -11   8    1.30    0.42
  -3  11  -8    0.98    0.41
   4 -11   8    9.47    0.86
  -4 -11  -8    9.52    1.03
  -4  11  -8   11.08    0.90
   5 -11   8    2.90    0.60
  -5  11  -8    2.54    0.57
   6 -11   8    2.88    0.66
  -6  11  -8    2.76    0.65
  -9 -12   8    1.03    0.43
   9 -12  -8    2.14    0.89
  -9  12   8    1.43    0.53
   8 -12  -8    9.93    1.47
  -8 -12   8   10.36    0.75
  -8  12   8    9.28    0.86
  -7 -12   8    1.89    0.39
   7 -12  -8    1.90    0.83
  -7  12   8    1.39    0.44
  -6 -12   8   55.89    1.50
   6 -12  -8   52.88    2.57
  -6  12   8   52.60    1.68
  -5 -12   8    3.22    0.37
   5 -12  -8    3.28    0.92
  -5  12   8    2.14    0.45
   4 -12  -8   18.45    1.54
  -4 -12   8   17.86    0.68
   4 -12  -8   19.24    1.07
  -4  12   8   18.76    0.89
   3 -12  -8   39.52    1.48
  -3 -12   8   40.90    1.08
   3 -12  -8   39.86    2.09
  -3  12   8   37.59    1.28
   2 -12  -8    0.91    0.43
   2 -12  -8    1.41    0.71
  -2 -12   8    1.10    0.25
  -2  12   8    1.25    0.39
   1 -12  -8    8.50    0.79
  -1 -12   8    7.97    0.51
   1 -12  -8    9.83    1.19
   1  12  -8    8.59    0.68
   0 -12   8   20.44    0.81
   0 -12  -8   17.79    1.41
   0 -12  -8   19.27    1.08
   0  12  -8   19.83    0.92
  -1 -12  -8   52.43    1.84
   1 -12   8   54.17    1.55
  -1 -12  -8   53.77    2.18
  -1  12  -8   54.81    1.64
   2 -12   8    6.97    0.65
  -2 -12  -8    8.04    0.98
  -2 -12  -8    7.10    0.84
  -2  12  -8    7.94    0.70
   3 -12   8   17.14    0.98
  -3 -12  -8   16.12    1.17
  -3 -12  -8   15.61    1.11
  -3  12  -8   14.62    0.92
   4 -12   8   16.98    1.04
  -4 -12  -8   14.50    1.17
  -4  12  -8   16.17    1.02
   5 -12   8   10.29    0.97
  -5  12  -8   10.32    0.95
  -9 -13   8    2.64    0.54
   9 -13  -8    2.06    0.93
  -9  13   8    1.67    0.54
   8 -13  -8    0.84    0.78
  -8 -13   8    0.28    0.35
  -8  13   8    0.63    0.44
  -7 -13   8    0.84    0.34
   7 -13  -8    0.63    0.79
  -7  13   8    1.22    0.44
  -6 -13   8    3.25    0.43
   6 -13  -8    2.45    0.91
  -6  13   8    2.88    0.52
  -5 -13   8    0.60    0.27
   5 -13  -8    1.56    0.77
  -5  13   8    1.04    0.39
   4 -13  -8    5.09    0.65
   4 -13  -8    4.72    1.05
  -4 -13   8    5.58    0.45
  -4  13   8    5.06    0.56
   3 -13  -8   19.00    1.56
   3 -13  -8   20.99    1.08
  -3 -13   8   20.61    0.75
  -3  13   8   21.74    0.97
   2 -13  -8   15.36    1.41
  -2 -13   8   15.80    0.67
   2 -13  -8   16.52    0.99
  -2  13   8   15.34    0.85
   1 -13  -8   13.03    0.92
   1 -13  -8   10.05    1.24
  -1 -13   8   11.64    0.61
   1  13  -8   12.20    0.74
   0 -13  -8   22.56    1.50
   0 -13  -8   19.07    1.07
   0 -13   8   18.45    0.82
   0  13  -8   19.97    0.91
  -1 -13  -8    9.98    1.10
   1 -13   8   11.42    0.73
  -1 -13  -8   10.16    0.90
  -1  13  -8   10.74    0.73
  -2 -13  -8    8.33    1.04
  -2 -13  -8    8.10    0.85
   2 -13   8    9.62    0.74
  -2  13  -8   10.46    0.74
   3 -13   8    6.35    0.68
  -3 -13  -8    6.07    0.78
  -3 -13  -8    5.66    0.84
  -3  13  -8    7.64    0.73
   4 -13   8    7.18    0.80
  -4 -13  -8    8.91    1.02
  -4  13  -8    8.64    0.80
  -5 -13  -8    8.32    1.06
   5 -13   8   10.63    0.98
  -5  13  -8   10.24    0.95
   8 -14  -8    2.93    1.05
  -8 -14   8    3.10    0.52
  -8  14   8    2.06    0.55
  -7 -14   8    2.54    0.45
   7 -14  -8    2.17    0.91
  -7  14   8    1.56    0.48
  -6 -14   8   22.52    0.94
   6 -14  -8   21.67    1.82
  -6  14   8   22.50    1.11
   5 -14  -8   12.14    1.53
  -5 -14   8   13.85    0.70
  -5  14   8   15.06    0.89
  -4 -14   8    3.72    0.40
   4 -14  -8    2.54    0.90
   4 -14  -8    2.73    0.54
  -4  14   8    3.23    0.51
  -3 -14   8   11.49    0.61
   3 -14  -8   12.58    0.91
   3 -14  -8   12.22    1.47
  -3  14   8   11.54    0.80
   2 -14  -8   59.16    2.55
  -2 -14   8   55.72    1.50
   2 -14  -8   59.13    1.89
  -2  14   8   58.24    1.74
  -1 -14   8    0.78    0.28
   1 -14  -8    0.33    0.60
   1 -14  -8    0.54    0.38
  -1  14   8    0.26    0.36
   1  14  -8    0.42    0.33
   0 -14  -8    2.07    0.73
   0 -14  -8    2.60    0.53
   0 -14   8    2.37    0.41
   0  14  -8    3.64    0.47
  -1 -14  -8    0.55    0.55
   1 -14   8    1.03    0.36
  -1 -14  -8    0.38    0.40
  -1  14  -8    1.19    0.35
  -2 -14  -8   15.32    1.24
  -2 -14  -8   13.28    1.02
   2 -14   8   14.00    0.87
  -2  14  -8   14.02    0.82
   3 -14   8    1.85    0.47
  -3 -14  -8    1.09    0.50
  -3 -14  -8    1.69    0.58
  -3  14  -8    2.38    0.46
   4 -14   8   13.31    1.00
  -4 -14  -8   13.31    1.16
  -4  14  -8   14.53    0.93
   5 -14   8    1.91    0.59
  -5 -14  -8    0.92    0.53
  -8 -15   8    6.74    0.70
   8 -15  -8    7.17    1.40
  -8  15   8    6.46    0.79
  -7 -15   8   26.06    1.11
   7 -15  -8   25.33    2.03
  -7  15   8   26.20    1.28
   6 -15  -8    1.34    0.83
  -6 -15   8    1.13    0.35
  -6  15   8    1.71    0.47
   5 -15  -8    5.03    1.15
  -5 -15   8    4.03    0.47
  -5  15   8    2.99    0.53
   4 -15  -8    0.78    0.77
  -4 -15   8    1.14    0.30
  -4  15   8    1.35    0.42
  -3 -15   8    7.49    0.55
   3 -15  -8    7.79    0.79
   3 -15  -8    7.19    1.19
  -3  15   8    6.76    0.66
  -2 -15   8   10.55    0.63
   2 -15  -8   10.43    1.31
   2 -15  -8   10.08    0.86
  -2  15   8   11.57    0.83
   1 -15  -8   42.23    1.58
   1 -15  -8   43.86    2.16
  -1 -15   8   41.93    1.29
  -1  15   8   42.64    1.50
   0 -15  -8    1.67    0.71
   0 -15   8    0.78    0.33
   0 -15  -8    0.87    0.43
   0  15  -8    1.84    0.39
  -1 -15  -8   22.63    1.20
  -1 -15  -8   22.74    1.53
   1 -15   8   23.82    1.03
  -1  15  -8   23.47    0.98
   2 -15   8    1.01    0.41
  -2 -15  -8    0.51    0.56
  -2 -15  -8    1.38    0.51
  -2  15  -8    1.28    0.38
   3 -15   8   21.10    1.11
  -3 -15  -8   19.92    1.26
  -4 -15  -8   14.42    1.16
   4 -15   8   15.97    1.10
  -5 -15  -8   -0.25    0.47
   5 -15   8    0.98    0.53
   8 -16  -8    1.36    0.84
  -8 -16   8    0.26    0.39
  -8  16   8    0.04    0.44
  -7 -16   8    0.37    0.35
   7 -16  -8    0.40    0.81
  -7  16   8    0.09    0.41
   6 -16  -8    5.59    1.18
  -6 -16   8    6.60    0.61
  -6  16   8    6.14    0.71
   5 -16  -8   18.01    1.71
  -5 -16   8   20.67    0.90
  -5  16   8   18.38    1.05
  -4 -16   8    1.86    0.37
   4 -16  -8    2.53    0.90
  -4  16   8    2.09    0.51
  -3 -16   8    0.03    0.25
   3 -16  -8    0.53    0.71
   3 -16  -8   -0.63    0.34
  -3  16   8    0.75    0.39
   2 -16  -8   44.63    2.30
  -2 -16   8   42.97    1.31
   2 -16  -8   41.52    1.58
  -2  16   8   44.22    1.53
  -1 -16   8   31.52    1.10
   1 -16  -8   27.78    1.81
   1 -16  -8   30.35    1.33
  -1  16   8   28.42    1.25
   0 -16   8    7.32    0.64
   0 -16  -8    7.43    0.79
   0 -16  -8    9.27    1.23
   0  16   8    7.53    0.77
   0  16  -8    7.29    0.60
  -1 -16  -8   10.42    1.18
   1 -16   8   11.41    0.79
  -1 -16  -8   12.70    0.94
  -2 -16  -8    7.71    1.04
  -2 -16  -8    7.42    0.85
   2 -16   8    6.95    0.71
  -3 -16  -8   10.48    1.06
   3 -16   8   10.94    0.90
  -4 -16  -8   15.54    1.19
   4 -16   8   14.10    1.07
  -8 -17   8    6.86    0.74
   8 -17  -8    6.67    1.36
  -8  17   8    5.39    0.78
   7 -17  -8   15.55    1.74
  -7 -17   8   13.56    0.90
  -7  17   8   15.95    1.09
   6 -17  -8    2.91    1.04
  -6 -17   8    2.13    0.45
  -6  17   8    2.13    0.53
   5 -17  -8    7.15    1.27
  -5 -17   8    7.49    0.63
  -5  17   8    7.05    0.75
   4 -17  -8   22.48    1.76
  -4 -17   8   21.14    0.93
  -4  17   8   22.07    1.14
  -3 -17   8    1.97    0.38
   3 -17  -8    2.39    0.87
   3 -17  -8    2.27    0.53
  -3  17   8    1.99    0.49
   2 -17  -8   11.70    1.41
  -2 -17   8   13.01    0.75
   2 -17  -8   12.93    0.93
  -2  17   8   15.23    0.95
  -1 -17   8   27.10    1.07
   1 -17  -8   28.41    1.30
   1 -17  -8   27.11    1.79
  -1  17   8   25.61    1.23
   0 -17  -8   11.56    0.92
   0 -17  -8   12.06    1.32
   0 -17   8   11.94    0.78
   0  17   8   12.06    0.90
  -1 -17  -8    4.89    0.94
   1 -17   8    4.88    0.60
  -1 -17  -8    4.81    0.69
   2 -17   8   15.56    0.98
  -2 -17  -8   14.51    1.05
  -2 -17  -8   13.89    1.29
   3 -17   8    2.50    0.58
  -3 -17  -8    3.53    0.69
  -4 -17  -8    2.79    0.67
   4 -17   8    2.37    0.60
  -7 -18   8    0.57    0.40
   7 -18  -8    1.07    0.89
  -7  18   8   -0.02    0.45
  -6 -18   8    2.67    0.48
   6 -18  -8    3.01    0.98
  -6  18   8    2.61    0.58
  -5 -18   8   37.94    1.35
   5 -18  -8   39.84    2.43
  -5  18   8   37.96    1.54
  -4 -18   8    1.79    0.40
   4 -18  -8    2.41    0.94
  -4  18   8    1.75    0.50
  -3 -18   8    4.19    0.51
   3 -18  -8    4.64    1.10
   3 -18  -8    3.06    0.56
  -3  18   8    2.96    0.54
   2 -18  -8   13.64    0.93
  -2 -18   8   12.37    0.75
   2 -18  -8   11.70    1.43
  -2  18   8   11.66    0.91
   1 -18  -8   10.30    1.36
   1 -18  -8   10.78    0.89
  -1 -18   8    9.92    0.72
  -1  18   8   11.58    0.91
   0 -18   8    2.85    0.49
   0 -18  -8    1.67    0.73
   0 -18  -8    2.63    0.55
   0  18   8    3.21    0.59
  -1 -18  -8    6.25    0.75
  -1 -18  -8    8.11    1.16
   1 -18   8    7.68    0.75
   1  18   8    6.74    0.78
   2 -18   8    9.61    0.88
  -2 -18  -8    8.98    0.95
  -2 -18  -8   11.57    1.21
  -3 -18  -8    2.21    0.64
   3 -18   8    2.21    0.54
   4 -18   8    6.54    0.84
  -4 -18  -8    6.95    0.93
  -7 -19   8    6.79    0.73
   7 -19  -8    7.43    1.42
  -7  19   8    6.22    0.82
  -6 -19   8   24.82    1.14
   6 -19  -8   24.52    2.08
  -6  19   8   24.90    1.33
   5 -19  -8    1.03    0.87
  -5 -19   8    1.03    0.40
  -5  19   8    1.08    0.49
  -4 -19   8    8.91    0.72
   4 -19  -8    7.80    1.35
  -4  19   8    7.61    0.81
   3 -19  -8   12.16    0.91
   3 -19  -8   11.73    1.57
  -3 -19   8   11.51    0.78
  -3  19   8   11.30    0.90
   2 -19  -8    4.18    0.63
  -2 -19   8    3.80    0.52
   2 -19  -8    4.00    1.01
  -2  19   8    4.16    0.65
  -1 -19   8    3.54    0.51
   1 -19  -8    3.34    0.59
   1 -19  -8    2.12    0.85
  -1  19   8    2.48    0.56
   0 -19  -8   24.73    1.26
   0 -19  -8   26.65    1.83
   0 -19   8   25.10    1.15
   0  19   8   23.62    1.24
  -1 -19  -8    2.99    0.63
  -1 -19  -8    3.47    0.88
   1 -19   8    3.57    0.57
   1  19   8    3.43    0.63
  -2 -19  -8    1.34    0.51
   2 -19   8    1.05    0.47
  -2 -19  -8    1.86    0.68
   2  19   8    1.90    0.59
  -3 -19  -8    1.05    0.53
   3 -19   8    0.59    0.45
  -6 -20   8   18.38    1.05
   6 -20  -8   19.27    1.96
  -6  20   8   19.19    1.23
   5 -20  -8   11.88    1.70
  -5 -20   8   10.91    0.82
  -5  20   8   11.26    1.01
  -4 -20   8    2.50    0.47
   4 -20  -8    3.40    1.04
  -4  20   8    3.29    0.63
   3 -20  -8   33.46    2.21
   3 -20  -8   32.56    1.40
  -3 -20   8   31.51    1.25
  -3  20   8   33.60    1.44
   2 -20  -8   16.77    1.64
   2 -20  -8   15.15    1.00
  -2 -20   8   15.30    0.90
  -2  20   8   15.64    1.05
   1 -20  -8    4.05    1.05
  -1 -20   8    4.01    0.56
   1 -20  -8    3.55    0.63
  -1  20   8    4.68    0.70
   0 -20  -8   12.25    0.95
   0 -20  -8    8.50    1.28
   0 -20   8   11.80    0.86
   0  20   8   12.23    1.01
  -1 -20  -8    4.88    0.70
   1 -20   8    3.01    0.57
  -1 -20  -8    5.02    1.02
   1  20   8    4.79    0.73
  -2 -20  -8    0.45    0.43
  -2 -20  -8   -0.11    0.56
   2 -20   8    0.16    0.42
   2  20   8    0.09    0.43
  -3 -20  -8    0.96    0.51
   3 -20   8   -0.15    0.40
   3  20   8    0.10    0.48
  -6 -21   8    1.54    0.49
   6 -21  -8    1.22    0.86
  -6  21   8    0.57    0.52
  -5 -21   8    0.57    0.40
   5 -21  -8    2.13    1.00
  -5  21   8    0.73    0.48
   4 -21  -8   17.88    1.84
  -4 -21   8   21.62    1.07
  -4  21   8   21.13    1.23
   3 -21  -8    0.15    0.41
  -3 -21   8    0.61    0.39
   3 -21  -8    1.43    0.84
  -3  21   8    0.90    0.48
  -2 -21   8    2.74    0.51
   2 -21  -8    3.12    1.02
   2 -21  -8    2.84    0.58
  -2  21   8    2.49    0.59
  -1 -21   8    5.56    0.67
   1 -21  -8    4.18    1.10
   1 -21  -8    5.00    0.71
  -1  21   8    3.90    0.68
   0 -21  -8   16.51    1.56
   0 -21   8   15.07    0.99
   0 -21  -8   14.99    1.03
   0  21   8   15.64    1.09
  -1 -21  -8   10.91    0.96
   1 -21   8   13.61    0.98
  -1 -21  -8   12.74    1.39
   1  21   8   13.14    1.09
  -2 -21  -8    1.38    0.53
   2 -21   8    2.44    0.59
  -2 -21  -8    1.26    0.69
   2  21   8    0.54    0.52
   5 -22  -8    5.30    1.31
  -5 -22   8    5.67    0.70
  -5  22   8    5.16    0.78
  -4 -22   8    0.50    0.39
   4 -22  -8    1.57    0.92
  -4  22   8    1.05    0.51
  -3 -22   8    2.97    0.53
   3 -22  -8    4.05    1.11
  -3  22   8    2.92    0.65
  -2 -22   8   15.56    0.98
   2 -22  -8   17.54    1.07
   2 -22  -8   18.60    1.78
  -2  22   8   15.38    1.09
  -1 -22   8    0.44    0.41
   1 -22  -8    1.57    0.49
   1 -22  -8    0.69    0.77
  -1  22   8    0.71    0.47
   0 -22  -8    3.72    0.65
   0 -22  -8    3.46    0.95
   0 -22   8    3.25    0.59
   0  22   8    3.36    0.68
  -1 -22  -8   23.59    1.77
  -1 -22  -8   23.47    1.28
   1 -22   8   21.55    1.22
   1  22   8   22.17    1.32
  -4 -23   8    0.99    0.44
   4 -23  -8    0.00    0.76
  -4  23   8    0.71    0.51
  -3 -23   8    1.83    0.51
   3 -23  -8    1.84    0.97
  -3  23   8    3.03    0.67
   2 -23  -8    7.14    1.33
  -2 -23   8    9.04    0.84
  -2  23   8    7.06    0.86
   1 -23  -8   12.10    0.96
  -1 -23   8   10.61    0.91
   1 -23  -8   13.20    1.58
  -1  23   8   12.82    1.07
   0 -23  -8    3.18    0.96
   0 -23  -8    2.43    0.59
   0 -23   8    2.20    0.56
   0  23   8    2.72    0.64
   1 -23   8    7.50    0.85
   3 -24  -8    0.16    0.80
  -3 -24   8   -0.03    0.36
  -3  24   8   -0.01    0.48
   2 -24  -8   14.33    1.70
  -2 -24   8   10.67    0.92
  -2  24   8   15.20    1.13
  -1 -24   8    8.58    0.85
   1 -24  -8    6.59    1.28
  -1  24   8    6.43    0.85
  10   0  -9    3.03    0.87
 -10   0   9    2.49    0.52
  -9   0   9    1.72    0.43
   9   0  -9    2.34    0.79
   8   0  -9    3.32    0.85
  -8   0   9    3.40    0.45
   7   0  -9    1.14    0.66
  -7   0   9    0.23    0.25
   6   0  -9    1.36    0.69
  -6   0   9    1.06    0.24
  -5   0   9    3.09    0.27
   5   0  -9    1.56    0.67
   4   0  -9  267.34    6.56
   4   0  -9  274.55    5.86
   3   0  -9   26.78    1.19
   3   0  -9   19.64    1.45
   2   0  -9   17.11    1.00
  -2   0   9   17.68    0.45
  -1   0   9    1.70    0.28
   1   0  -9    2.26    0.51
  -1   0   9    1.93    0.24
   0   0  -9   11.87    0.88
   0   0   9   10.94    0.56
  -1   0  -9   37.30    1.49
   1   0   9   34.77    1.14
  -2   0  -9    1.98    0.51
   2   0   9    2.28    0.43
   3   0   9    2.67    0.51
  -3   0  -9    2.86    0.58
   4   0   9    0.52    0.41
  -4   0  -9    0.15    0.44
  -5   0  -9    4.64    0.79
   5   0   9    4.76    0.69
   6   0   9   20.33    1.30
  10  -1  -9    0.04    0.60
 -10  -1   9   -0.21    0.36
 -10   1   9    0.18    0.39
  -9  -1   9    1.25    0.39
   9  -1  -9    0.82    0.70
  -9   1   9    1.40    0.41
   9   1  -9    0.82    0.67
  -8  -1   9    2.80    0.43
   8  -1  -9    2.42    0.81
  -8   1   9    1.90    0.41
   8   1  -9    1.87    0.74
  -7  -1   9   16.96    0.72
   7  -1  -9   17.03    1.49
  -7   1   9   15.87    0.73
   7   1  -9   16.30    1.38
   6  -1  -9    5.70    0.97
  -6  -1   9    6.28    0.41
  -6   1   9    6.65    0.45
   6   1  -9    6.37    1.03
   5  -1  -9   32.64    1.84
  -5  -1   9   32.92    0.77
  -5  -1   9   33.29    0.77
   5   1  -9   34.78    1.85
  -5   1   9   32.70    0.83
   4  -1  -9   33.68    1.40
   4  -1  -9   32.54    1.81
   4   1  -9   30.69    1.74
   4   1  -9   32.19    1.37
  -4   1   9   32.52    0.71
   3  -1  -9   87.02    2.99
   3  -1  -9   85.43    2.41
   3   1  -9   86.44    2.41
   2  -1  -9    2.31    0.75
   2  -1  -9    3.33    0.57
   2   1  -9    3.50    0.59
  -2   1   9    3.35    0.23
  -2   1   9    3.52    0.26
   1  -1  -9    7.28    0.75
  -1  -1   9    7.09    0.37
  -1  -1   9    6.80    0.35
  -1   1   9    6.98    0.41
   1   1  -9    7.34    0.73
   0  -1   9    9.69    0.53
   0  -1  -9   10.28    0.85
   0   1   9    9.01    0.54
   0   1  -9   10.12    0.82
  -1  -1  -9   59.62    1.98
   1  -1   9   60.70    1.60
   1   1   9   60.96    1.62
  -1   1  -9   60.37    1.97
  -2  -1  -9   16.13    1.07
   2  -1   9   16.11    0.85
  -2   1  -9   17.53    1.08
   2   1   9   16.35    0.85
   3  -1   9   15.46    0.90
  -3  -1  -9   14.07    1.06
  -3   1  -9   14.84    1.06
   3   1   9   13.79    0.89
   4  -1   9    6.75    0.75
  -4  -1  -9    7.38    0.93
  -4   1  -9    6.87    0.85
   4   1   9    7.53    0.78
   5  -1   9    4.69    0.69
  -5  -1  -9    5.65    0.87
   5   1   9    5.24    0.74
  -5   1  -9    4.55    0.80
   6  -1   9   20.76    1.34
  -6   1  -9   22.05    1.48
   6   1   9   22.78    1.38
  10  -2  -9    1.48    0.75
 -10  -2   9    0.61    0.41
 -10   2   9    1.74    0.49
   9  -2  -9    7.24    1.18
  -9  -2   9    5.68    0.61
  -9   2   9    4.59    0.59
  -8  -2   9    0.80    0.32
   8  -2  -9    0.98    0.68
  -8   2   9    0.87    0.35
  -7  -2   9    0.98    0.28
   7  -2  -9    0.71    0.64
   7   2  -9    0.65    0.61
  -7   2   9    1.08    0.32
   6  -2  -9    3.33    0.88
  -6  -2   9    2.41    0.28
   6   2  -9    3.66    0.87
  -6   2   9    2.99    0.34
  -5  -2   9    8.61    0.30
   5  -2  -9    7.90    1.08
   5   2  -9    9.33    1.14
  -5   2   9    8.03    0.42
   4  -2  -9   10.36    0.87
   4  -2  -9    7.64    1.04
   4   2  -9   10.45    0.87
  -4   2   9    9.52    0.36
   3  -2  -9   42.12    2.01
   3  -2  -9   40.17    1.52
  -3   2   9   40.65    0.91
   3   2  -9   42.89    1.54
   2  -2  -9    1.18    0.58
   2  -2  -9    1.45    0.47
   2   2  -9    1.29    0.47
  -2   2   9    1.70    0.22
  -2   2   9    1.72    0.19
   1  -2  -9   22.38    1.48
  -1  -2   9   22.58    0.65
   1  -2  -9   22.21    1.13
  -1  -2   9   23.08    0.64
   1   2  -9   23.76    1.13
  -1   2   9   22.45    0.73
   0  -2   9   18.99    0.70
   0  -2  -9   18.96    1.08
   0   2   9   18.73    0.75
   0   2  -9   19.80    1.07
  -1  -2  -9   11.15    0.90
   1  -2   9    9.95    0.63
   1   2   9   11.31    0.67
  -1   2  -9   11.33    0.87
   2  -2   9   21.48    0.95
  -2  -2  -9   22.38    1.22
   2   2   9   19.72    0.95
  -2   2  -9   21.48    1.18
  -3  -2  -9    4.25    0.64
   3  -2   9    4.58    0.59
  -3   2  -9    4.73    0.72
   3   2   9    3.21    0.52
   4  -2   9    1.39    0.47
  -4  -2  -9    2.02    0.59
   4   2   9    1.78    0.52
  -4   2  -9    1.29    0.55
   5  -2   9    0.47    0.45
  -5  -2  -9    0.30    0.53
  -5   2  -9    0.78    0.54
   5   2   9    0.55    0.47
   6  -2   9   24.58    1.42
   6   2   9   25.05    1.46
  -6   2  -9   27.84    1.64
  10  -3  -9    8.04    1.26
 -10  -3   9    7.90    0.76
 -10   3   9    7.40    0.80
  -9  -3   9    0.59    0.37
   9  -3  -9    0.76    0.66
  -9   3   9    1.19    0.42
  -8  -3   9   13.54    0.75
   8  -3  -9   13.13    1.39
  -8   3   9   13.47    0.78
  -7  -3   9    0.36    0.25
   7  -3  -9    0.00    0.59
  -7   3   9    0.94    0.31
  -6  -3   9   36.19    0.94
   6  -3  -9   34.78    1.94
  -6   3   9   35.61    1.04
   5  -3  -9   37.99    2.00
  -5   3   9   39.99    1.03
   4  -3  -9  102.16    3.38
   4  -3  -9  104.64    2.81
   3  -3  -9   31.76    1.79
   3  -3  -9   34.34    1.38
   3   3  -9   33.47    1.35
  -3   3   9   31.28    0.80
   2  -3  -9    7.50    1.07
   2  -3  -9    4.82    0.66
   2   3  -9    5.08    0.63
  -2   3   9    4.63    0.35
  -1  -3   9   42.13    0.99
   1  -3  -9   44.45    1.58
   1  -3  -9   42.66    1.98
  -1  -3   9   40.09    0.99
  -1   3   9   42.43    1.12
   1   3  -9   41.09    1.50
   0  -3   9   51.63    1.31
   0  -3  -9   53.26    1.81
   0   3  -9   52.08    1.74
   0   3   9   53.41    1.41
   1  -3   9    5.07    0.48
  -1  -3  -9    4.43    0.63
  -1   3  -9    4.05    0.60
   1   3   9    4.42    0.49
   2  -3   9   10.84    0.73
  -2  -3  -9   10.68    0.93
   2   3   9   10.94    0.77
  -2   3  -9   11.14    0.90
   3  -3   9    4.54    0.59
  -3  -3  -9    4.92    0.74
   3   3   9    4.12    0.58
  -3   3  -9    4.27    0.67
  -4  -3  -9    0.94    0.50
   4  -3   9    1.92    0.51
   4   3   9    1.22    0.47
  -4   3  -9    1.73    0.56
  -5  -3  -9    3.27    0.74
   5  -3   9    2.66    0.62
  -5   3  -9    4.32    0.81
   5   3   9    2.67    0.60
   6  -3   9   18.25    1.28
   6   3   9   22.31    1.37
  -6   3  -9   18.55    1.43
 -10  -4   9    0.87    0.42
  10  -4  -9    0.61    0.70
 -10   4   9   -0.06    0.40
  -9  -4   9    5.82    0.62
   9  -4  -9    6.65    1.17
  -9   4   9    6.28    0.67
  -8  -4   9    1.15    0.34
   8  -4  -9    0.60    0.66
  -8   4   9    1.00    0.37
  -7  -4   9    9.08    0.55
   7  -4  -9    8.61    1.22
  -7   4   9    8.81    0.63
   6  -4  -9    5.75    1.05
  -6  -4   9    5.70    0.38
  -6   4   9    5.69    0.49
   5  -4  -9   50.71    2.31
  -5   4   9   49.56    1.26
   4  -4  -9   28.84    1.32
   4  -4  -9   30.70    1.78
  -4   4   9   28.77    0.82
   3  -4  -9    2.81    0.73
   3  -4  -9    3.13    0.52
   3   4  -9    3.21    0.52
   2  -4  -9    3.90    0.57
   2  -4  -9    3.75    0.84
   2   4  -9    5.45    0.65
  -1  -4   9   28.04    0.75
  -1  -4   9   27.78    0.93
   1  -4  -9   28.43    1.65
   1  -4  -9   27.24    1.25
   1   4  -9   28.90    1.23
  -1   4   9   28.68    0.89
   0  -4  -9   29.14    1.32
   0  -4  -9   26.64    1.64
   0  -4   9   30.59    0.91
   0   4   9   29.83    1.00
   0   4  -9   31.70    1.29
   1  -4   9    3.18    0.40
  -1  -4  -9    3.24    0.61
   1   4   9    3.05    0.44
  -1   4  -9    2.15    0.51
  -2  -4  -9    7.27    0.80
   2  -4   9    9.63    0.69
   2   4   9    7.69    0.69
  -2   4  -9    8.00    0.78
  -3  -4  -9   17.61    1.15
   3  -4   9   14.14    0.91
  -3   4  -9   14.87    1.06
   3   4   9   14.68    0.94
   4  -4   9    9.65    0.86
  -4  -4  -9    6.98    0.87
  -4   4  -9    7.22    0.86
   4   4   9    8.14    0.81
  -5  -4  -9    9.53    1.09
   5  -4   9   11.04    0.99
   5   4   9    9.59    0.93
  -5   4  -9    9.51    1.09
   6  -4   9   24.37    1.41
  -6   4  -9   26.62    1.62
   6   4   9   26.72    1.49
  10  -5  -9    2.10    0.83
 -10  -5   9    1.33    0.47
 -10   5   9    1.49    0.50
   9  -5  -9    3.68    0.94
  -9  -5   9    3.19    0.50
  -9   5   9    3.36    0.54
  -8  -5   9   19.02    0.86
   8  -5  -9   18.99    1.62
  -8   5   9   18.77    0.95
  -7  -5   9    0.71    0.27
   7  -5  -9    1.17    0.67
  -7   5   9    0.55    0.32
  -6  -5   9    1.77    0.25
   6  -5  -9    1.80    0.70
  -6   5   9    1.59    0.33
   5  -5  -9    4.76    0.92
  -5   5   9    4.30    0.39
   4  -5  -9   15.71    1.37
   4  -5  -9   17.17    1.05
  -4   5   9   17.30    0.64
   3  -5  -9    8.74    0.80
   3  -5  -9   10.05    1.16
   3   5  -9    9.42    0.80
   2  -5  -9   72.49    2.17
   2  -5  -9   74.04    2.72
   2   5  -9   71.43    2.08
   1  -5  -9    6.17    0.73
  -1  -5   9    5.28    0.32
   1  -5  -9    3.91    0.79
   1   5  -9    4.14    0.56
   0  -5  -9   59.20    2.37
   0  -5   9   59.66    1.45
   0  -5  -9   61.06    1.97
   0   5  -9   59.10    1.87
   0   5   9   58.59    1.58
   1  -5   9    2.54    0.37
  -1  -5  -9    2.24    0.55
  -1   5  -9    2.42    0.51
   1   5   9    2.28    0.41
  -2  -5  -9   15.14    1.06
   2  -5   9   15.53    0.83
  -2   5  -9   15.90    1.02
   2   5   9   16.46    0.90
  -3  -5  -9   10.56    0.96
   3  -5   9    9.58    0.77
  -3   5  -9    8.20    0.85
   3   5   9    8.99    0.79
  -4  -5  -9    4.15    0.74
   4  -5   9    4.02    0.61
   4   5   9    4.49    0.64
  -4   5  -9    4.96    0.75
  -5  -5  -9   20.64    1.40
   5  -5   9   20.16    1.22
  -5   5  -9   19.81    1.36
   5   5   9   23.00    1.29
   9  -6  -9    8.64    1.32
  -9  -6   9    7.11    0.66
  -9   6   9    6.70    0.71
  -8  -6   9   34.70    1.19
   8  -6  -9   37.11    2.14
  -8   6   9   35.10    1.30
  -7  -6   9    6.04    0.50
   7  -6  -9    5.33    1.04
  -7   6   9    6.70    0.58
  -6  -6   9   21.40    0.70
   6  -6  -9   22.50    1.66
  -6   6   9   20.85    0.86
  -5  -6   9   25.40    0.63
   5  -6  -9   24.11    1.70
  -5   6   9   25.15    0.87
   4  -6  -9    7.53    1.12
   4  -6  -9    9.91    0.86
  -4   6   9   10.32    0.54
   3  -6  -9   18.46    1.46
   3  -6  -9   19.81    1.07
   3   6  -9   20.15    1.06
   2  -6  -9   12.96    1.25
   2  -6  -9   14.20    0.94
   2   6  -9   16.46    0.94
   1  -6  -9    4.34    0.64
   1  -6  -9    4.55    0.85
  -1  -6   9    4.49    0.32
   1   6  -9    4.58    0.59
   0  -6  -9    3.80    0.79
   0  -6   9    2.88    0.34
   0  -6  -9    3.34    0.58
   0   6  -9    3.54    0.56
  -1  -6  -9    6.96    0.80
   1  -6   9    5.24    0.49
   1   6   9    5.36    0.56
  -1   6  -9    4.79    0.64
  -2  -6  -9    3.44    0.64
   2  -6   9    4.11    0.50
  -2   6  -9    3.32    0.56
   2   6   9    3.95    0.54
  -3  -6  -9    4.10    0.64
   3  -6   9    5.48    0.63
  -3   6  -9    4.72    0.67
   3   6   9    3.78    0.57
  -4  -6  -9    1.65    0.60
   4  -6   9    2.18    0.51
  -4   6  -9    1.84    0.56
   4   6   9    1.86    0.52
  -5  -6  -9   21.75    1.41
   5  -6   9   20.52    1.19
   5   6   9   19.72    1.25
  -5   6  -9   20.59    1.30
  -9  -7   9    0.87    0.38
   9  -7  -9    1.00    0.76
  -9   7   9    0.73    0.43
  -8  -7   9    5.45    0.53
   8  -7  -9    6.99    1.23
  -8   7   9    4.89    0.60
  -7  -7   9   12.01    0.62
   7  -7  -9   10.73    1.32
  -7   7   9   11.58    0.75
  -6  -7   9    1.04    0.24
   6  -7  -9    1.09    0.74
  -6   7   9    1.47    0.34
   5  -7  -9    9.80    1.30
  -5  -7   9    9.00    0.37
  -5   7   9    8.75    0.57
   4  -7  -9    7.32    0.76
   4  -7  -9    6.97    1.03
  -4   7   9    8.02    0.53
   3  -7  -9  128.16    3.27
   3  -7  -9  127.81    3.93
   3   7  -9  134.20    3.22
   2  -7  -9   34.10    1.41
   2  -7  -9   34.47    1.86
  -2  -7   9   36.14    0.80
  -2  -7   9   34.81    0.80
   2   7  -9   34.38    1.35
   1  -7  -9    1.46    0.50
  -1  -7   9    1.92    0.24
   1  -7  -9    1.35    0.68
   1   7  -9    1.67    0.44
   0  -7   9   28.48    0.91
   0  -7  -9   29.39    1.35
   0  -7  -9   28.16    1.67
   0   7  -9   29.45    1.23
   1  -7   9   24.20    0.93
  -1  -7  -9   24.87    1.27
  -1  -7  -9   26.57    1.58
  -1   7  -9   23.23    1.16
   2  -7   9    4.68    0.53
  -2  -7  -9    4.37    0.71
  -2   7  -9    3.63    0.59
   3  -7   9    1.76    0.44
  -3  -7  -9    1.50    0.53
  -3   7  -9    1.27    0.47
   3   7   9    1.57    0.46
   4  -7   9   14.94    0.98
  -4  -7  -9   12.76    1.16
  -4   7  -9   12.60    1.06
   4   7   9   14.86    1.03
   5  -7   9    2.87    0.62
  -5  -7  -9    1.64    0.64
  -5   7  -9    3.55    0.71
  -9  -8   9    0.43    0.36
   9  -8  -9    1.07    0.79
  -9   8   9    1.28    0.46
   8  -8  -9    3.43    0.97
  -8  -8   9    4.56    0.51
  -8   8   9    4.60    0.60
  -7  -8   9   -0.21    0.23
   7  -8  -9    0.28    0.63
  -7   8   9    0.04    0.29
  -6  -8   9   14.29    0.59
   6  -8  -9   12.14    1.37
  -6   8   9   13.11    0.74
  -5  -8   9    3.18    0.27
   5  -8  -9    4.12    0.96
  -5   8   9    3.75    0.44
   4  -8  -9    2.67    0.55
   4  -8  -9    1.57    0.72
  -4   8   9    2.95    0.38
   3  -8  -9   16.75    1.03
   3  -8  -9   12.64    1.31
  -3  -8   9   14.84    0.41
  -3   8   9   14.75    0.69
   3   8  -9   14.40    0.95
   2  -8  -9    7.75    1.11
  -2  -8   9    6.95    0.34
   2  -8  -9    8.61    0.84
   2   8  -9    7.58    0.74
   1  -8  -9    9.05    1.14
  -1  -8   9    8.69    0.45
   1  -8  -9    8.98    0.85
   1   8  -9    8.68    0.76
   0  -8  -9   53.40    1.89
   0  -8   9   55.64    1.42
   0  -8  -9   56.22    2.32
   0   8  -9   55.20    1.76
  -1  -8  -9   15.68    1.06
  -1  -8  -9   12.57    1.20
   1  -8   9   16.17    0.75
  -1   8  -9   15.20    0.94
  -2  -8  -9   43.09    1.76
   2  -8   9   44.99    1.43
  -2   8  -9   43.91    1.62
   3  -8   9    3.95    0.57
  -3  -8  -9    3.28    0.63
  -3   8  -9    5.74    0.73
  -4  -8  -9   25.35    1.47
   4  -8   9   25.69    1.25
  -4   8  -9   25.37    1.36
  -5  -8  -9    0.33    0.50
   5  -8   9    0.36    0.45
  -5   8  -9    0.28    0.45
   9  -9  -9    7.92    1.41
  -9  -9   9    7.07    0.69
  -9   9   9    7.57    0.81
  -8  -9   9   32.19    1.16
   8  -9  -9   31.68    2.10
  -8   9   9   30.86    1.29
  -7  -9   9   85.03    2.04
   7  -9  -9   82.56    3.32
  -7   9   9   86.80    2.27
  -6  -9   9    5.40    0.43
   6  -9  -9    5.12    1.04
  -6   9   9    4.85    0.54
   5  -9  -9    5.45    1.03
  -5  -9   9    4.97    0.35
  -5   9   9    5.52    0.54
  -4  -9   9    0.94    0.17
   4  -9  -9    0.68    0.43
   4  -9  -9    0.38    0.64
  -4   9   9    0.93    0.32
   3  -9  -9   50.51    1.75
  -3  -9   9   48.50    1.08
   3  -9  -9   49.24    2.31
  -3   9   9   48.14    1.38
   2  -9  -9   12.22    0.92
   2  -9  -9   12.55    1.30
  -2  -9   9   13.69    0.49
   2   9  -9   13.62    0.87
   1  -9  -9    6.24    0.72
   1  -9  -9    7.49    1.10
  -1  -9   9    5.26    0.40
   1   9  -9    5.36    0.62
   0  -9   9   33.49    1.03
   0  -9  -9   32.64    1.44
   0  -9  -9   35.53    1.86
   0   9  -9   33.86    1.33
  -1  -9  -9   14.33    1.25
  -1  -9  -9   13.12    1.02
   1  -9   9   12.86    0.71
  -1   9  -9   12.81    0.88
   2  -9   9   22.80    1.03
  -2  -9  -9   22.87    1.31
  -2   9  -9   25.70    1.21
  -3  -9  -9   13.20    1.08
   3  -9   9   13.76    0.89
  -3   9  -9   11.53    0.93
  -4  -9  -9   13.34    1.15
   4  -9   9   12.08    0.93
  -4   9  -9   13.10    1.03
  -5  -9  -9   12.77    1.31
   5  -9   9   10.49    0.99
  -5   9  -9   11.42    1.09
   9 -10  -9    4.18    1.10
  -9 -10   9    3.75    0.57
  -9  10   9    4.15    0.66
  -8 -10   9    3.54    0.49
   8 -10  -9    4.51    1.11
  -8  10   9    4.34    0.61
  -7 -10   9    6.64    0.55
   7 -10  -9    6.54    1.25
  -7  10   9    6.30    0.66
   6 -10  -9   -0.10    0.65
  -6 -10   9    0.12    0.22
  -6  10   9   -0.24    0.30
  -5 -10   9   16.01    0.59
   5 -10  -9   14.52    1.47
  -5  10   9   16.14    0.82
  -4 -10   9    0.29    0.16
   4 -10  -9    0.57    0.44
   4 -10  -9   -0.37    0.60
  -4  10   9   -0.26    0.27
   3 -10  -9    7.49    0.80
   3 -10  -9    5.53    1.01
  -3 -10   9    7.74    0.38
  -3  10   9    6.84    0.58
  -2 -10   9   24.36    0.74
   2 -10  -9   25.60    1.69
   2 -10  -9   24.05    1.22
   2  10  -9   25.35    1.12
   1 -10  -9    6.33    1.05
  -1 -10   9    7.13    0.46
   1 -10  -9    7.13    0.75
   1  10  -9    6.20    0.64
   0 -10   9    2.24    0.34
   0 -10  -9    1.40    0.67
   0 -10  -9    1.92    0.53
   0  10  -9    2.12    0.45
  -1 -10  -9    3.79    0.65
  -1 -10  -9    2.79    0.78
   1 -10   9    3.42    0.45
  -1  10  -9    4.08    0.58
  -2 -10  -9    1.14    0.61
  -2 -10  -9    0.59    0.48
   2 -10   9    0.74    0.35
  -2  10  -9    0.34    0.37
   3 -10   9    9.15    0.79
  -3 -10  -9    7.64    0.92
  -3  10  -9    7.96    0.80
  -4 -10  -9    4.06    0.73
   4 -10   9    5.05    0.71
  -4  10  -9    4.92    0.71
  -5 -10  -9    7.96    1.08
   5 -10   9    5.81    0.80
  -5  10  -9    6.00    0.85
  -9 -11   9   15.19    0.94
   9 -11  -9   15.67    1.72
  -9  11   9   18.70    1.13
  -8 -11   9    0.43    0.34
   8 -11  -9    0.17    0.75
  -8  11   9    0.26    0.39
   7 -11  -9   14.29    1.57
  -7 -11   9   13.01    0.71
  -7  11   9   13.63    0.89
   6 -11  -9   14.03    1.51
  -6 -11   9   12.82    0.64
  -6  11   9   13.88    0.85
  -5 -11   9    7.15    0.45
   5 -11  -9    7.43    1.24
  -5  11   9    7.22    0.65
   4 -11  -9   22.30    1.69
  -4 -11   9   22.68    0.71
   4 -11  -9   22.11    1.21
  -4  11   9   20.64    0.93
   3 -11  -9    4.72    1.01
  -3 -11   9    4.02    0.34
   3 -11  -9    3.43    0.61
  -3  11   9    3.39    0.46
   2 -11  -9   33.34    1.90
  -2 -11   9   32.55    0.93
   2 -11  -9   32.93    1.44
   2  11  -9   32.89    1.30
   1 -11  -9   85.38    3.05
   1 -11  -9   81.53    2.43
  -1 -11   9   80.81    1.91
   1  11  -9   82.66    2.24
   0 -11  -9    2.33    0.75
   0 -11  -9    2.45    0.57
   0 -11   9    1.80    0.34
   0  11  -9    2.19    0.46
   1 -11   9   10.73    0.70
  -1 -11  -9   10.85    0.93
  -1 -11  -9    9.88    1.14
  -1  11  -9   10.32    0.80
  -2 -11  -9   10.19    1.02
  -2 -11  -9   10.01    1.11
   2 -11   9   10.79    0.78
  -2  11  -9   11.31    0.85
  -3 -11  -9   17.93    1.24
   3 -11   9   17.61    1.01
  -3  11  -9   17.62    1.05
   4 -11   9    8.83    0.86
  -4 -11  -9    7.01    0.90
  -4  11  -9    9.48    0.93
   5 -11   9    5.87    0.79
  -5 -11  -9    4.86    0.89
  -5  11  -9    5.20    0.80
  -9 -12   9    0.34    0.38
   9 -12  -9    1.68    0.91
  -9  12   9    0.41    0.48
  -8 -12   9    1.43    0.41
   8 -12  -9    2.41    0.95
  -8  12   9    1.93    0.53
   7 -12  -9    4.80    1.13
  -7 -12   9    4.27    0.49
  -7  12   9    6.17    0.69
   6 -12  -9    1.88    0.80
  -6 -12   9    2.86    0.38
  -6  12   9    2.28    0.47
   5 -12  -9   25.96    1.88
  -5 -12   9   27.76    0.90
  -5  12   9   27.81    1.14
   4 -12  -9    3.73    0.95
  -4 -12   9    4.58    0.39
   4 -12  -9    3.73    0.64
  -4  12   9    4.30    0.52
   3 -12  -9    9.11    1.29
  -3 -12   9    9.86    0.50
   3 -12  -9    9.83    0.89
  -3  12   9   10.92    0.72
  -2 -12   9    6.53    0.46
   2 -12  -9    6.07    1.10
   2 -12  -9    6.32    0.73
  -2  12   9    8.53    0.68
   2  12  -9    7.80    0.72
  -1 -12   9   88.15    2.06
   1 -12  -9   88.44    2.57
   1 -12  -9   89.34    3.18
   1  12  -9   88.85    2.35
   0 -12  -9    0.96    0.45
   0 -12  -9    0.56    0.57
   0 -12   9    0.68    0.28
   0  12  -9    0.42    0.36
  -1 -12  -9    8.59    1.13
  -1 -12  -9    8.29    0.88
   1 -12   9    9.49    0.69
  -1  12  -9    8.67    0.75
  -2 -12  -9   17.03    1.16
  -2 -12  -9   20.48    1.41
   2 -12   9   18.71    0.96
  -2  12  -9   18.00    1.02
  -3 -12  -9   13.33    1.12
   3 -12   9   14.45    0.95
  -3  12  -9   14.38    0.95
  -4 -12  -9   14.74    1.18
   4 -12   9   15.68    1.07
  -4  12  -9   12.22    0.98
   8 -13  -9    6.41    1.26
  -8 -13   9    6.50    0.66
  -8  13   9    6.78    0.77
   7 -13  -9    8.59    1.35
  -7 -13   9    8.45    0.65
  -7  13   9    8.42    0.78
   6 -13  -9    5.29    1.16
  -6 -13   9    4.77    0.47
  -6  13   9    4.94    0.62
  -5 -13   9   34.77    1.06
   5 -13  -9   32.97    2.12
  -5  13   9   34.36    1.31
  -4 -13   9    1.20    0.26
   4 -13  -9    1.32    0.78
   4 -13  -9    0.91    0.48
  -4  13   9    1.17    0.38
   3 -13  -9    1.10    0.45
  -3 -13   9    1.34    0.27
   3 -13  -9    1.78    0.78
  -3  13   9    0.77    0.37
   2 -13  -9   48.18    2.34
  -2 -13   9   45.97    1.27
   2 -13  -9   45.85    1.73
  -2  13   9   47.53    1.53
   1 -13  -9   14.52    1.40
  -1 -13   9   17.81    0.76
   1 -13  -9   18.47    1.09
   1  13  -9   16.49    0.93
   0 -13  -9    1.98    0.53
   0 -13  -9    2.56    0.81
   0 -13   9    2.46    0.40
   0  13  -9    2.45    0.47
  -1 -13  -9    1.56    0.51
  -1 -13  -9    1.76    0.68
   1 -13   9    2.65    0.46
  -1  13  -9    1.70    0.46
  -2 -13  -9    3.22    0.63
   2 -13   9    3.59    0.54
  -2 -13  -9    4.69    0.86
  -2  13  -9    4.18    0.58
   3 -13   9    4.15    0.62
  -3 -13  -9    3.71    0.70
  -3  13  -9    5.60    0.69
   4 -13   9    7.22    0.81
  -4 -13  -9    9.36    1.08
  -4  13  -9    9.27    0.88
   8 -14  -9    7.00    1.34
  -8 -14   9    6.53    0.66
  -8  14   9    8.19    0.86
   7 -14  -9    1.35    0.85
  -7 -14   9    1.61    0.38
  -7  14   9    0.73    0.43
  -6 -14   9    0.12    0.27
   6 -14  -9    0.10    0.67
  -6  14   9    0.71    0.41
  -5 -14   9    3.40    0.40
   5 -14  -9    2.71    0.97
  -5  14   9    3.10    0.52
  -4 -14   9    1.90    0.32
   4 -14  -9    1.13    0.50
   4 -14  -9    1.75    0.81
  -4  14   9    1.27    0.42
  -3 -14   9    9.84    0.57
   3 -14  -9   10.76    0.89
   3 -14  -9   11.38    1.37
  -3  14   9    9.18    0.77
   2 -14  -9   70.40    2.88
  -2 -14   9   68.28    1.71
   2 -14  -9   66.97    2.16
  -2  14   9   66.84    1.96
   1 -14  -9   24.76    1.28
   1 -14  -9   24.94    1.72
  -1 -14   9   24.95    0.94
  -1  14   9   23.93    1.12
   1  14  -9   24.74    1.09
   0 -14  -9    0.65    0.46
   0 -14  -9    1.14    0.67
   0 -14   9    0.43    0.30
   0  14  -9    0.22    0.34
   1 -14   9    7.42    0.68
  -1 -14  -9   10.66    1.20
  -1 -14  -9    8.88    0.95
  -1  14  -9    7.74    0.72
   2 -14   9    5.81    0.66
  -2 -14  -9    6.31    1.00
  -2 -14  -9    7.94    0.92
  -2  14  -9    7.26    0.71
   3 -14   9    0.40    0.41
  -3 -14  -9   -0.20    0.45
  -3  14  -9    0.57    0.40
   4 -14   9    1.38    0.52
  -4 -14  -9    2.12    0.61
   8 -15  -9   12.40    1.76
  -8 -15   9   14.20    0.90
  -8  15   9   16.16    1.10
  -7 -15   9   21.95    1.01
   7 -15  -9   23.03    1.98
  -7  15   9   22.94    1.21
  -6 -15   9   -0.20    0.26
   6 -15  -9    0.44    0.72
  -6  15   9    0.07    0.39
  -5 -15   9    5.64    0.52
   5 -15  -9    4.97    1.12
  -5  15   9    5.36    0.65
  -4 -15   9    1.09    0.30
   4 -15  -9    0.61    0.45
   4 -15  -9    0.45    0.74
  -4  15   9    0.51    0.40
   3 -15  -9   31.38    2.04
  -3 -15   9   35.55    1.10
   3 -15  -9   32.80    1.46
  -3  15   9   33.83    1.33
  -2 -15   9   11.14    0.64
   2 -15  -9    9.95    1.36
   2 -15  -9   11.73    0.97
  -2  15   9   10.16    0.82
   1 -15  -9    9.64    1.33
  -1 -15   9    8.05    0.61
   1 -15  -9    7.55    0.83
  -1  15   9    7.63    0.75
   1  15  -9    7.75    0.70
   0 -15  -9    1.49    0.73
   0 -15   9    2.51    0.43
   0 -15  -9    1.59    0.51
   0  15  -9    2.01    0.45
   1 -15   9    4.72    0.59
  -1 -15  -9    4.40    0.68
  -1 -15  -9    5.06    0.95
  -1  15  -9    6.74    0.65
  -2 -15  -9    9.23    1.13
  -2 -15  -9    8.18    0.91
   2 -15   9   10.28    0.82
  -2  15  -9    9.70    1.16
  -3 -15  -9   17.41    1.28
   3 -15   9   17.13    1.09
   4 -15   9    0.90    0.52
  -4 -15  -9    0.09    0.50
   7 -16  -9    1.87    0.93
  -7 -16   9    1.31    0.40
  -7  16   9    1.89    0.54
   6 -16  -9    0.78    0.79
  -6 -16   9    0.19    0.29
  -6  16   9    0.35    0.43
   5 -16  -9    9.53    1.43
  -5 -16   9    9.68    0.64
  -5  16   9    7.37    0.76
  -4 -16   9    2.74    0.40
   4 -16  -9    1.74    0.53
   4 -16  -9    3.15    0.99
  -4  16   9    2.10    0.49
  -3 -16   9    4.35    0.46
   3 -16  -9    2.26    0.92
   3 -16  -9    3.81    0.65
  -3  16   9    3.46    0.55
   2 -16  -9   25.55    1.86
  -2 -16   9   25.11    0.98
   2 -16  -9   26.48    1.33
  -2  16   9   25.51    1.20
  -1 -16   9    0.88    0.33
   1 -16  -9    1.18    0.51
   1 -16  -9    1.17    0.70
  -1  16   9    1.28    0.46
   0 -16  -9    4.07    0.67
   0 -16   9    4.07    0.53
   0 -16  -9    3.24    0.85
   0  16   9    4.54    0.63
  -1 -16  -9    3.03    0.84
   1 -16   9    3.43    0.54
  -1 -16  -9    3.59    0.64
  -2 -16  -9   14.11    1.29
   2 -16   9   13.15    0.92
  -2 -16  -9   14.35    1.14
  -3 -16  -9   16.25    1.23
   3 -16   9   17.89    1.10
  -7 -17   9   31.86    1.25
   7 -17  -9   28.26    2.23
  -7  17   9   32.19    1.48
   6 -17  -9    6.23    1.34
  -6 -17   9    5.44    0.60
  -6  17   9    6.04    0.75
  -5 -17   9    3.90    0.50
   5 -17  -9    3.75    1.10
  -5  17   9    4.00    0.63
   4 -17  -9    0.47    0.66
  -4 -17   9    0.11    0.29
  -4  17   9    0.50    0.40
   3 -17  -9   17.46    1.11
  -3 -17   9   18.51    0.86
   3 -17  -9   18.08    1.69
  -3  17   9   17.25    1.03
   2 -17  -9    1.11    0.75
  -2 -17   9    1.20    0.35
   2 -17  -9    1.69    0.54
  -2  17   9    2.17    0.51
   1 -17  -9   19.22    1.67
   1 -17  -9   18.85    1.16
  -1 -17   9   19.54    0.93
  -1  17   9   18.91    1.09
   0 -17  -9   10.31    0.99
   0 -17   9    9.40    0.75
   0 -17  -9   10.47    1.36
   0  17   9   10.18    0.88
  -1 -17  -9   17.06    1.16
  -1 -17  -9   17.09    1.48
   1 -17   9   17.26    0.99
  -2 -17  -9    5.98    1.02
   2 -17   9    6.44    0.72
  -2 -17  -9    5.62    0.82
   3 -17   9    5.10    0.74
  -3 -17  -9    6.11    0.90
  -7 -18   9    7.43    0.75
   7 -18  -9    8.42    1.53
  -7  18   9    8.66    0.92
  -6 -18   9   15.57    0.88
   6 -18  -9   14.06    1.86
  -6  18   9   14.30    1.05
  -5 -18   9   18.00    0.92
   5 -18  -9   17.01    1.79
  -5  18   9   17.09    1.08
  -4 -18   9    3.96    0.50
   4 -18  -9    5.13    1.23
  -4  18   9    4.24    0.66
  -3 -18   9   20.46    0.94
   3 -18  -9   19.21    1.16
   3 -18  -9   18.91    1.73
  -3  18   9   20.26    1.12
  -2 -18   9    2.27    0.43
   2 -18  -9    2.44    0.91
   2 -18  -9    2.20    0.56
  -2  18   9    2.01    0.53
   1 -18  -9   35.47    1.53
   1 -18  -9   33.00    2.09
  -1 -18   9   32.97    1.25
  -1  18   9   32.88    1.44
   0 -18  -9    3.00    0.91
   0 -18   9    3.08    0.52
   0 -18  -9    3.17    0.62
   0  18   9    2.32    0.58
  -1 -18  -9   24.77    1.37
   1 -18   9   24.07    1.17
  -1 -18  -9   25.70    1.76
   1  18   9   23.53    1.30
  -2 -18  -9    3.12    0.83
  -2 -18  -9    3.88    0.70
   2 -18   9    4.35    0.65
  -3 -18  -9    0.35    0.48
   3 -18   9    1.33    0.50
   6 -19  -9   12.94    1.84
  -6 -19   9    8.91    0.78
  -6  19   9    8.70    0.90
   5 -19  -9    3.19    1.13
  -5 -19   9    1.63    0.44
  -5  19   9    1.05    0.48
  -4 -19   9    4.26    0.54
   4 -19  -9    5.07    1.19
  -4  19   9    4.46    0.66
   3 -19  -9   13.90    1.60
  -3 -19   9   13.27    0.81
   3 -19  -9   12.51    1.02
  -3  19   9   14.44    1.02
   2 -19  -9    0.48    0.78
  -2 -19   9    0.26    0.34
   2 -19  -9    0.92    0.45
  -2  19   9    0.66    0.46
   1 -19  -9    9.11    0.92
   1 -19  -9    7.31    1.24
  -1 -19   9   10.31    0.78
  -1  19   9    9.67    0.94
   0 -19  -9    0.35    0.63
   0 -19  -9    0.20    0.44
   0 -19   9   -0.10    0.35
   0  19   9   -0.25    0.40
  -1 -19  -9    4.35    0.96
  -1 -19  -9    5.55    0.78
   1 -19   9    3.87    0.62
   1  19   9    4.86    0.73
  -2 -19  -9    6.80    0.87
   2 -19   9    6.17    0.77
  -2 -19  -9    6.78    1.16
   2  19   9    6.56    0.85
   6 -20  -9    2.37    1.06
  -5 -20   9    7.00    0.72
   5 -20  -9    8.28    1.54
  -5  20   9    7.16    0.86
  -4 -20   9    0.78    0.38
   4 -20  -9    1.53    0.94
  -4  20   9    2.05    0.58
  -3 -20   9    3.87    0.54
   3 -20  -9    3.29    0.63
   3 -20  -9    3.06    1.06
  -3  20   9    1.98    0.57
   2 -20  -9   28.25    1.37
   2 -20  -9   26.82    2.03
  -2 -20   9   28.38    1.19
  -2  20   9   27.93    1.37
  -1 -20   9   36.53    1.38
   1 -20  -9   34.40    1.55
   1 -20  -9   34.97    2.18
  -1  20   9   35.52    1.56
   0 -20  -9    0.24    0.46
   0 -20  -9    0.42    0.66
   0 -20   9    0.23    0.38
   0  20   9   -0.41    0.43
  -1 -20  -9    0.34    0.48
  -1 -20  -9    0.38    0.66
   1 -20   9    0.55    0.43
   1  20   9    0.52    0.49
  -5 -21   9   12.87    0.91
   5 -21  -9   15.20    1.98
  -5  21   9   14.52    1.11
   4 -21  -9    7.40    1.47
  -4 -21   9    6.61    0.70
  -4  21   9    6.19    0.81
  -3 -21   9    2.97    0.53
   3 -21  -9    3.54    0.65
   3 -21  -9    4.49    1.19
  -3  21   9    3.38    0.66
  -2 -21   9   14.10    0.91
   2 -21  -9    9.86    1.47
   2 -21  -9   11.76    1.01
  -2  21   9   13.24    1.05
   1 -21  -9    2.59    0.60
   1 -21  -9    2.16    0.92
  -1 -21   9    2.28    0.51
  -1  21   9    1.23    0.54
   0 -21   9    6.08    0.72
   0 -21  -9    5.25    1.14
   0 -21  -9    4.49    0.73
   0  21   9    5.57    0.81
  -1 -21  -9    2.22    0.60
  -1 -21  -9    2.22    0.83
   1 -21   9    1.47    0.51
   1  21   9    0.72    0.53
  -4 -22   9    0.75    0.40
   4 -22  -9    0.60    0.88
  -4  22   9    1.69    0.56
   3 -22  -9    3.22    0.65
   3 -22  -9    3.77    1.16
  -3 -22   9    3.88    0.59
  -3  22   9    2.84    0.66
   2 -22  -9   11.02    1.57
  -2 -22   9   11.77    0.89
   2 -22  -9   11.57    1.01
  -2  22   9   12.62    1.03
  -1 -22   9    3.97    0.60
   1 -22  -9    3.04    0.68
   1 -22  -9    5.57    1.21
  -1  22   9    2.08    0.63
   0 -22   9    1.17    0.46
   0 -22  -9    2.27    0.88
   0 -22  -9    1.19    0.56
   0  22   9    2.63    0.65
   9   0 -10    0.23    0.65
  -9   0  10   -0.08    0.32
  -8   0  10   54.79    1.55
   8   0 -10   54.25    2.55
  -7   0  10    1.95    0.33
   7   0 -10    2.33    0.81
   6   0 -10   15.12    1.46
  -6   0  10   15.10    0.58
   5   0 -10    0.38    0.63
  -5   0  10   -0.02    0.14
   4   0 -10   -0.09    0.44
   4   0 -10   -0.25    0.56
   3   0 -10    1.96    0.49
   2   0 -10   11.54    0.93
  -2   0  10   11.62    0.43
   1   0 -10    0.08    0.41
  -1   0  10    0.67    0.22
   0   0  10    1.91    0.33
   0   0 -10    1.41    0.50
  -1   0 -10    8.03    0.87
   1   0  10   10.21    0.67
   2   0  10    2.33    0.47
  -2   0 -10    2.60    0.63
  -3   0 -10   14.55    1.14
   3   0  10   13.16    0.92
   4   0  10    0.40    0.43
  -4   0 -10    1.71    0.61
   5   0  10    9.82    0.97
  -5   0 -10   10.58    1.18
  -9  -1  10   27.95    1.14
   9  -1 -10   27.67    1.95
  -9   1  10   29.30    1.18
  -8  -1  10    2.04    0.39
   8  -1 -10    1.63    0.80
   8   1 -10    1.71    0.78
  -8   1  10    2.42    0.42
  -7  -1  10   19.24    0.76
   7  -1 -10   21.19    1.66
  -7   1  10   19.71    0.79
   7   1 -10   19.04    1.57
   6  -1 -10    5.57    1.02
  -6  -1  10    5.41    0.37
  -6   1  10    5.14    0.40
   6   1 -10    5.37    1.01
   5  -1 -10   29.97    1.85
   5   1 -10   27.99    1.81
  -5   1  10   27.82    0.75
   4  -1 -10   13.04    1.33
   4  -1 -10   15.74    1.05
   4   1 -10   13.36    0.99
   3  -1 -10   10.03    0.93
   3  -1 -10   10.18    1.28
  -3   1  10   10.66    0.50
   3   1 -10   10.86    0.97
  -3   1  10   10.01    0.36
   2  -1 -10    1.22    0.49
  -2  -1  10    1.96    0.20
  -2   1  10    1.92    0.24
   2   1 -10    1.87    0.51
   1  -1 -10   13.98    0.98
  -1  -1  10   13.48    0.55
   1   1 -10   12.48    0.94
  -1   1  10   12.08    0.57
   0  -1  10   15.31    0.69
   0  -1 -10   15.59    1.04
   0   1  10   15.84    0.72
   0   1 -10   14.94    1.02
  -1  -1 -10   15.71    1.06
   1  -1  10   14.83    0.78
  -1   1 -10   15.94    1.06
   1   1  10   15.37    0.81
   2  -1  10    3.95    0.54
  -2  -1 -10    4.28    0.69
   2   1  10    4.52    0.57
  -2   1 -10    5.73    0.80
  -3  -1 -10   12.17    1.08
   3  -1  10   11.16    0.87
  -3   1 -10   12.60    1.08
   3   1  10   12.00    0.88
   4  -1  10    8.49    0.86
  -4  -1 -10    8.10    1.01
   4   1  10    6.65    0.79
  -4   1 -10    7.04    0.91
  -5  -1 -10    6.30    0.93
   5  -1  10    7.13    0.85
  -5   1 -10    7.36    0.97
   5   1  10    7.07    0.86
  -9  -2  10   -0.08    0.32
   9  -2 -10   -0.22    0.65
  -9   2  10   -0.02    0.33
   8  -2 -10    2.81    0.90
  -8  -2  10    2.38    0.40
  -8   2  10    2.64    0.44
   7  -2 -10    1.03    0.72
  -7  -2  10    0.53    0.26
  -7   2  10    1.02    0.30
   6  -2 -10    8.78    1.21
  -6  -2  10    8.88    0.43
  -6   2  10    8.77    0.50
   5  -2 -10   16.18    1.46
  -5   2  10   17.34    0.58
   4  -2 -10   11.96    0.96
   4  -2 -10   12.15    1.30
   4   2 -10   12.00    0.96
   3  -2 -10   23.62    1.22
   3  -2 -10   24.84    1.65
   3   2 -10   22.85    1.20
  -2  -2  10    2.28    0.19
   2  -2 -10    1.26    0.72
  -2  -2  10    2.08    0.22
   2  -2 -10    2.24    0.55
  -2   2  10    2.53    0.27
   2   2 -10    2.51    0.58
  -1  -2  10   26.67    0.79
   1  -2 -10   27.69    1.32
   1   2 -10   26.63    1.28
  -1   2  10   27.19    0.87
   0  -2  10    4.72    0.43
   0  -2 -10    5.41    0.74
   0   2  10    5.20    0.48
   0   2 -10    3.91    0.62
   1  -2  10    7.67    0.61
  -1  -2 -10    5.68    0.74
   1   2  10    7.90    0.64
  -1   2 -10    7.23    0.78
  -2  -2 -10   47.81    1.87
   2  -2  10   47.61    1.53
   2   2  10   46.45    1.55
  -2   2 -10   46.75    1.82
  -3  -2 -10   18.97    1.26
   3  -2  10   17.19    1.02
  -3   2 -10   16.32    1.19
   3   2  10   15.83    0.99
  -4  -2 -10    8.49    1.01
   4  -2  10    9.86    0.90
  -4   2 -10   12.28    1.18
   4   2  10   11.11    0.95
   5  -2  10   13.87    1.09
  -5  -2 -10   14.68    1.29
  -5   2 -10   15.05    1.30
   5   2  10   13.21    1.11
  -9  -3  10    2.77    0.47
   9  -3 -10    3.16    0.98
  -9   3  10    3.05    0.51
  -8  -3  10   17.98    0.82
   8  -3 -10   20.75    1.73
  -8   3  10   18.35    0.89
   7  -3 -10   19.76    1.67
  -7  -3  10   20.59    0.76
  -7   3  10   20.65    0.84
   6  -3 -10   45.14    2.32
  -6  -3  10   45.82    1.10
  -6   3  10   48.58    1.25
   5  -3 -10    0.85    0.66
  -5   3  10    0.11    0.19
   4  -3 -10    0.95    0.62
   4  -3 -10    1.26    0.50
   4   3 -10    1.35    0.50
   3  -3 -10   14.96    0.99
   3  -3 -10   14.59    1.37
   3   3 -10   13.67    0.99
   2  -3 -10   11.72    0.93
   2  -3 -10   11.44    1.26
   2   3 -10   11.36    0.89
  -2   3  10   11.36    0.52
   1  -3 -10    2.67    0.56
  -1  -3  10    2.85    0.30
   1   3 -10    3.26    0.60
  -1   3  10    2.64    0.35
   0  -3 -10   17.82    1.13
   0  -3  10   16.06    0.70
   0   3 -10   16.70    1.03
   0   3  10   16.88    0.78
   1  -3  10   11.99    0.70
  -1  -3 -10   14.22    1.04
   1   3  10   12.41    0.77
  -1   3 -10   11.73    0.95
   2  -3  10   26.91    1.12
  -2  -3 -10   27.37    1.42
  -2   3 -10   30.10    1.44
   2   3  10   27.53    1.18
  -3  -3 -10   19.96    1.31
   3  -3  10   17.27    1.01
   3   3  10   16.51    1.02
  -3   3 -10   19.71    1.24
   4  -3  10    5.70    0.72
  -4  -3 -10    3.81    0.73
   4   3  10    3.57    0.67
  -4   3 -10    5.76    0.88
   5  -3  10   22.05    1.29
  -5  -3 -10   24.19    1.55
   5   3  10   23.73    1.34
  -5   3 -10   23.97    1.53
  -9  -4  10   -0.28    0.30
   9  -4 -10    0.83    0.71
  -9   4  10    0.11    0.35
   8  -4 -10    3.89    1.00
  -8  -4  10    4.43    0.47
  -8   4  10    3.48    0.51
   7  -4 -10   22.81    1.75
  -7  -4  10   19.05    0.74
  -7   4  10   20.05    0.85
  -6  -4  10    2.34    0.26
   6  -4 -10    2.42    0.85
  -6   4  10    2.15    0.34
   5  -4 -10    6.83    1.14
  -5   4  10    6.82    0.45
   4  -4 -10    9.52    0.95
   4  -4 -10    9.35    1.27
   3  -4 -10    3.53    0.86
   3  -4 -10    2.44    0.53
   3   4 -10    2.95    0.56
   2  -4 -10    3.28    0.84
  -2  -4  10    4.13    0.27
   2  -4 -10    3.57    0.60
   2   4 -10    3.94    0.64
   1  -4 -10    4.59    0.95
  -1  -4  10    5.87    0.39
   1  -4 -10    6.23    0.78
   1   4 -10    6.71    0.77
  -1   4  10    5.61    0.49
   0  -4 -10   31.32    1.45
   0  -4  10   33.25    1.01
   0   4 -10   31.80    1.39
   0   4  10   32.35    1.10
  -1  -4 -10    5.98    0.78
   1  -4  10    7.06    0.59
   1   4  10    7.09    0.65
  -1   4 -10    7.48    0.78
   2  -4  10   -0.30    0.32
  -2  -4 -10   -0.47    0.39
  -2   4 -10    0.34    0.44
   2   4  10    0.42    0.37
   3  -4  10    5.23    0.65
  -3  -4 -10    4.21    0.75
  -3   4 -10    5.62    0.80
   3   4  10    6.27    0.72
  -4  -4 -10    6.95    0.89
   4  -4  10    8.09    0.83
  -4   4 -10    5.62    0.85
   4   4  10    6.09    0.77
  -5  -4 -10    8.01    1.06
   5  -4  10    7.68    0.89
   5   4  10    8.89    0.95
  -5   4 -10    7.36    1.00
   9  -5 -10    0.89    0.75
  -9  -5  10    0.57    0.37
  -9   5  10    0.73    0.40
  -8  -5  10    1.28    0.33
   8  -5 -10    2.46    0.92
  -8   5  10    1.88    0.43
   7  -5 -10   56.36    2.69
  -7  -5  10   59.52    1.47
  -7   5  10   58.83    1.62
   6  -5 -10   10.70    1.42
  -6  -5  10    9.70    0.44
  -6   5  10    9.91    0.60
   5  -5 -10    5.19    0.98
  -5   5  10    5.07    0.42
   4  -5 -10   18.76    1.53
   4  -5 -10   17.82    1.11
  -4   5  10   16.73    0.65
   3  -5 -10    9.51    0.92
   3  -5 -10    8.79    1.20
   3   5 -10    9.38    0.85
   2  -5 -10   38.76    2.05
   2  -5 -10   39.50    1.61
   2   5 -10   41.99    1.56
   1  -5 -10   36.80    1.56
  -1  -5  10   37.06    0.98
   1  -5 -10   40.17    2.03
   1   5 -10   37.32    1.48
   0  -5  10    4.75    0.43
   0  -5 -10    4.38    0.73
   0   5  10    4.91    0.52
   0   5 -10    4.03    0.65
   1  -5  10    2.62    0.41
  -1  -5 -10    2.01    0.56
   1   5  10    1.94    0.42
  -1   5 -10    2.14    0.54
   2  -5  10    9.19    0.74
  -2  -5 -10   12.18    1.03
   2   5  10   10.28    0.81
  -2   5 -10   10.43    0.92
  -3  -5 -10    1.68    0.57
   3  -5  10    2.75    0.54
  -3   5 -10    3.46    0.68
   3   5  10    2.41    0.54
  -4  -5 -10    4.45    0.75
   4  -5  10    5.56    0.72
   4   5  10    4.39    0.68
  -4   5 -10    6.82    0.92
   5  -5  10    5.26    0.75
  -5  -5 -10    4.82    0.90
   5   5  10    4.65    0.76
  -5   5 -10    5.94    0.91
  -9  -6  10    0.46    0.34
   9  -6 -10    0.76    0.76
  -9   6  10    0.73    0.41
   8  -6 -10    4.64    1.11
  -8  -6  10    3.85    0.46
  -8   6  10    3.20    0.51
   7  -6 -10   15.87    1.57
  -7  -6  10   14.80    0.66
  -7   6  10   16.12    0.82
   6  -6 -10    0.93    0.72
  -6  -6  10    1.06    0.22
  -6   6  10    0.99    0.32
   5  -6 -10    1.49    0.76
  -5   6  10    2.38    0.35
   4  -6 -10    1.68    0.79
   4  -6 -10    2.80    0.61
  -4   6  10    2.78    0.35
   3  -6 -10   15.73    1.05
   3  -6 -10   18.50    1.46
   3   6 -10   17.43    1.06
  -2  -6  10   17.97    0.51
   2  -6 -10   18.55    1.13
   2  -6 -10   18.89    1.51
   2   6 -10   18.83    1.05
  -1  -6  10    8.16    0.45
   1  -6 -10    8.24    1.16
   1  -6 -10    7.37    0.81
   1   6 -10    7.81    0.77
   0  -6 -10    9.76    0.96
   0  -6  10    9.56    0.56
   0  -6 -10    8.70    1.17
   0   6 -10    8.17    0.79
  -1  -6 -10    6.64    0.81
   1  -6  10    7.76    0.61
  -1   6 -10    7.85    0.82
   1   6  10    7.33    0.67
   2  -6  10    6.00    0.62
  -2  -6 -10    6.06    0.83
   2   6  10    5.76    0.66
  -2   6 -10    5.99    0.77
   3  -6  10    6.22    0.70
  -3  -6 -10    6.70    0.88
   3   6  10    8.93    0.84
  -3   6 -10    8.52    0.92
  -4  -6 -10    5.17    0.80
   4  -6  10    5.52    0.73
  -4   6 -10    6.10    0.85
   4   6  10    5.68    0.75
   9  -7 -10   13.76    1.63
  -9  -7  10   12.55    0.81
  -9   7  10   13.51    0.94
   8  -7 -10    4.93    1.10
  -8  -7  10    5.67    0.54
  -8   7  10    4.89    0.60
  -7  -7  10    1.77    0.31
   7  -7 -10    1.85    0.88
  -7   7  10    1.29    0.38
  -6  -7  10    5.18    0.37
   6  -7 -10    6.82    1.21
  -6   7  10    4.38    0.49
   5  -7 -10   27.94    1.84
  -5   7  10   28.24    0.98
   4  -7 -10    2.34    0.81
   4  -7 -10    2.49    0.59
  -4   7  10    2.76    0.36
   3  -7 -10   13.74    0.99
   3  -7 -10   14.21    1.39
   3   7 -10   13.40    0.98
   2  -7 -10    0.70    0.44
   2  -7 -10    0.25    0.61
  -2  -7  10    0.91    0.17
   2   7 -10    0.88    0.44
   1  -7 -10    7.01    0.81
  -1  -7  10    8.23    0.45
   1  -7 -10    5.71    0.98
   1   7 -10    9.32    0.84
   0  -7  10   10.95    0.60
   0  -7 -10   10.97    0.97
   0  -7 -10    9.52    1.17
   0   7 -10   10.84    0.86
  -1  -7 -10   17.20    1.17
   1  -7  10   19.63    0.87
  -1   7 -10   19.13    1.09
   2  -7  10    2.42    0.48
  -2  -7 -10    1.43    0.53
  -2   7 -10    2.32    0.56
   3  -7  10    5.63    0.67
  -3  -7 -10    5.12    0.84
  -3   7 -10    5.42    0.80
  -4  -7 -10    2.88    0.74
   4  -7  10    2.92    0.59
  -4   7 -10    2.79    0.66
   9  -8 -10    0.58    0.77
  -9  -8  10    0.61    0.35
  -9   8  10    0.90    0.46
   8  -8 -10   35.73    2.28
  -8  -8  10   34.52    1.17
  -8   8  10   33.68    1.33
   7  -8 -10    0.09    0.66
  -7  -8  10    1.12    0.29
  -7   8  10    0.58    0.35
  -6  -8  10    6.25    0.41
   6  -8 -10    5.99    1.11
  -6   8  10    8.60    0.64
  -5  -8  10   13.47    0.46
   5  -8 -10   15.72    1.53
  -5   8  10   15.81    0.76
   4  -8 -10    2.76    0.61
   4  -8 -10    2.39    0.81
  -4   8  10    3.74    0.42
   3  -8 -10   13.86    1.37
   3  -8 -10   15.80    1.05
   3   8 -10   14.37    1.00
   2  -8 -10    3.81    0.67
  -2  -8  10    4.63    0.31
   2  -8 -10    5.06    1.00
   2   8 -10    4.61    0.65
   1  -8 -10   59.92    2.57
  -1  -8  10   57.53    1.41
   1  -8 -10   57.22    2.02
   1   8 -10   57.61    1.90
   0  -8 -10    5.90    0.77
   0  -8  10    5.80    0.49
   0  -8 -10    5.48    1.00
   0   8 -10    6.42    0.76
  -1  -8 -10   19.96    1.49
  -1  -8 -10   20.88    1.26
   1  -8  10   23.29    0.95
  -1   8 -10   19.90    1.13
  -2  -8 -10    5.87    0.83
   2  -8  10    6.37    0.65
  -2   8 -10    5.78    0.74
  -3  -8 -10    4.16    0.74
   3  -8  10    5.00    0.65
  -3   8 -10    5.10    0.76
   4  -8  10    1.48    0.51
  -4  -8 -10   -0.10    0.44
  -4   8 -10    0.65    0.48
  -9  -9  10    8.72    0.72
   9  -9 -10    9.22    1.48
  -9   9  10    8.88    0.85
   8  -9 -10    0.61    0.70
  -8  -9  10   -0.10    0.28
  -8   9  10    0.56    0.41
  -7  -9  10    1.37    0.32
   7  -9 -10    1.94    0.84
  -7   9  10    1.22    0.41
   6  -9 -10    6.39    1.21
  -6  -9  10    5.98    0.43
  -6   9  10    6.64    0.60
   5  -9 -10    2.60    0.88
  -5  -9  10    3.58    0.31
  -5   9  10    4.80    0.50
   4  -9 -10    0.18    0.65
   4  -9 -10    0.68    0.48
  -4  -9  10    0.39    0.14
  -4   9  10    0.58    0.29
  -3  -9  10    5.03    0.30
   3  -9 -10    5.96    0.79
   3  -9 -10    5.56    1.03
   3   9 -10    5.68    0.72
  -3   9  10    5.54    0.51
   2  -9 -10   13.18    1.02
   2  -9 -10   16.85    1.47
  -2  -9  10   14.95    0.55
   2   9 -10   16.19    1.01
   1  -9 -10   67.92    2.21
   1  -9 -10   66.48    2.74
  -1  -9  10   65.45    1.58
   1   9 -10   62.92    2.01
   0  -9  10   32.46    1.06
   0  -9 -10   31.28    1.83
   0  -9 -10   32.92    1.52
   0   9 -10   34.91    1.41
  -1  -9 -10   12.23    1.22
   1  -9  10   11.15    0.70
  -1  -9 -10    9.01    0.94
  -1   9 -10   10.47    0.89
   2  -9  10    6.68    0.66
  -2  -9 -10    5.94    0.79
  -2   9 -10    8.62    0.88
  -3  -9 -10    4.79    0.85
   3  -9  10    3.72    0.60
  -3   9 -10    4.42    0.69
   4  -9  10    4.41    0.69
  -4  -9 -10    4.95    0.91
  -4   9 -10    5.49    0.82
   8 -10 -10   28.08    2.12
  -8 -10  10   30.80    1.13
  -8  10  10   29.08    1.28
   7 -10 -10   14.35    1.61
  -7 -10  10   13.56    0.69
  -7  10  10   14.41    0.89
  -6 -10  10   21.35    0.76
   6 -10 -10   23.42    1.86
  -6  10  10   23.71    1.03
  -5 -10  10   52.38    1.25
   5 -10 -10   52.83    2.63
  -5  10  10   52.99    1.57
   4 -10 -10    3.23    0.62
   4 -10 -10    0.98    0.71
  -4 -10  10    2.51    0.25
  -4  10  10    2.73    0.43
   3 -10 -10    1.31    0.47
  -3 -10  10    0.07    0.16
   3 -10 -10    0.61    0.68
  -3  10  10    0.08    0.29
   2 -10 -10   12.03    1.02
   2 -10 -10   12.96    1.34
  -2 -10  10   13.63    0.56
   2  10 -10   13.15    0.93
  -1 -10  10   12.10    0.59
   1 -10 -10   12.79    1.33
   1 -10 -10   10.64    0.96
   1  10 -10   11.67    0.87
   0 -10 -10   22.53    1.62
   0 -10  10   23.32    0.92
   0 -10 -10   21.92    1.27
   0  10 -10   26.72    1.21
  -1 -10 -10    1.93    0.72
   1 -10  10    1.54    0.37
  -1 -10 -10    1.87    0.56
  -1  10 -10    1.67    0.51
  -2 -10 -10   21.70    1.32
   2 -10  10   19.97    1.02
  -2  10 -10   19.25    1.14
   3 -10  10    8.05    0.81
  -3 -10 -10    8.69    1.03
  -3  10 -10    8.18    0.86
  -4 -10 -10   10.62    1.19
   4 -10  10    9.53    0.93
  -4  10 -10   13.63    1.09
   8 -11 -10   -0.35    0.67
  -8 -11  10    0.32    0.30
  -8  11  10   -0.50    0.36
   7 -11 -10    1.99    0.93
  -7 -11  10    1.84    0.35
  -7  11  10    1.89    0.48
   6 -11 -10   44.77    2.50
  -6 -11  10   44.51    1.23
  -6  11  10   45.25    1.51
   5 -11 -10   18.69    1.68
  -5 -11  10   16.50    0.64
  -5  11  10   16.91    0.89
   4 -11 -10   27.72    1.37
  -4 -11  10   26.21    0.78
   4 -11 -10   29.17    1.96
  -4  11  10   26.09    1.07
   3 -11 -10    2.04    0.85
  -3 -11  10    2.89    0.29
   3 -11 -10    3.06    0.65
  -3  11  10    2.83    0.45
  -2 -11  10   40.56    1.10
   2 -11 -10   40.24    2.19
   2 -11 -10   40.22    1.66
   2  11 -10   41.75    1.54
   1 -11 -10    2.17    0.78
  -1 -11  10    1.79    0.31
   1 -11 -10    2.59    0.59
   1  11 -10    1.45    0.46
   0 -11 -10    7.58    0.89
   0 -11 -10    8.60    1.17
   0 -11  10    6.82    0.57
   0  11 -10    7.38    0.74
  -1 -11 -10    9.64    0.98
  -1 -11 -10    8.53    1.16
   1 -11  10    9.26    0.70
  -1  11 -10    9.23    0.84
  -2 -11 -10   20.07    1.31
   2 -11  10   19.34    1.01
  -2  11 -10   20.94    1.15
  -3 -11 -10   13.74    1.17
   3 -11  10   13.41    0.98
  -3  11 -10   14.88    1.05
  -4 -11 -10    5.42    0.93
   4 -11  10    6.22    0.79
  -4  11 -10    4.58    0.75
   8 -12 -10    0.56    0.80
  -8 -12  10    0.27    0.32
  -8  12  10   -0.06    0.40
  -7 -12  10   39.73    1.24
   7 -12 -10   36.89    2.39
  -7  12  10   37.33    1.46
  -6 -12  10    3.20    0.38
   6 -12 -10    2.72    1.02
  -6  12  10    2.99    0.53
   5 -12 -10   11.64    1.58
  -5 -12  10   12.00    0.57
  -5  12  10   11.50    0.80
   4 -12 -10    5.22    1.06
   4 -12 -10    7.86    0.89
  -4 -12  10    6.03    0.42
  -4  12  10    6.76    0.64
   3 -12 -10    1.79    0.53
  -3 -12  10    2.42    0.30
   3 -12 -10    1.96    0.86
  -3  12  10    2.22    0.45
  -2 -12  10    5.79    0.46
   2 -12 -10    6.54    0.82
   2 -12 -10    5.94    1.10
  -2  12  10    5.84    0.61
   2  12 -10    8.28    0.79
  -1 -12  10    1.06    0.29
   1 -12 -10    0.92    0.71
   1 -12 -10    1.00    0.49
   1  12 -10    0.25    0.39
   0 -12  10    2.36    0.40
   0 -12 -10    2.36    0.60
   0 -12 -10    2.37    0.79
   0  12 -10    1.96    0.50
   1 -12  10    9.62    0.72
  -1 -12 -10    7.61    0.88
  -1 -12 -10    9.29    1.21
  -1  12 -10    9.82    0.84
  -2 -12 -10   14.11    1.35
   2 -12  10   16.85    0.96
  -2 -12 -10   16.52    1.20
  -2  12 -10   15.41    1.01
   3 -12  10   18.34    1.08
  -3 -12 -10   19.04    1.32
  -3  12 -10   17.59    1.15
  -8 -13  10    5.20    0.59
   8 -13 -10    7.89    1.43
  -8  13  10    5.18    0.71
  -7 -13  10    8.72    0.64
   7 -13 -10    9.40    1.51
  -7  13  10    8.18    0.82
  -6 -13  10   25.28    0.92
   6 -13 -10   25.11    1.99
  -6  13  10   24.37    1.16
   5 -13 -10    1.99    0.83
  -5 -13  10    1.17    0.29
  -5  13  10    1.63    0.45
   4 -13 -10    9.36    1.35
  -4 -13  10    9.49    0.53
   4 -13 -10   10.21    0.98
  -4  13  10    9.31    0.75
   3 -13 -10   27.28    1.39
  -3 -13  10   25.11    0.85
   3 -13 -10   25.62    1.87
  -3  13  10   26.83    1.14
  -2 -13  10    8.46    0.54
   2 -13 -10   10.57    1.01
   2 -13 -10    8.09    1.23
  -2  13  10    8.89    0.75
  -1 -13  10   22.09    0.88
   1 -13 -10   25.92    1.79
   1 -13 -10   23.22    1.31
   1  13 -10   22.49    1.13
   0 -13 -10    5.75    1.03
   0 -13 -10    5.27    0.79
   0 -13  10    5.46    0.55
   0  13 -10    6.00    0.69
   1 -13  10   11.39    0.79
  -1 -13 -10   11.15    1.28
  -1 -13 -10   10.05    0.99
  -1  13 -10    8.87    0.81
   2 -13  10    2.58    0.52
  -2 -13 -10    2.16    0.61
  -2 -13 -10    2.67    0.79
  -2  13 -10    2.98    0.57
   3 -13  10   19.94    1.16
  -3 -13 -10   17.99    1.33
  -3  13 -10   21.85    1.20
   7 -14 -10   20.02    1.94
  -7 -14  10   22.97    0.98
  -7  14  10   22.15    1.20
  -6 -14  10    4.04    0.45
   6 -14 -10    5.27    1.19
  -6  14  10    4.13    0.61
   5 -14 -10   16.58    1.68
  -5 -14  10   14.67    0.70
  -5  14  10   14.80    0.95
  -4 -14  10   38.87    1.15
   4 -14 -10   38.57    1.66
   4 -14 -10   41.05    2.36
  -4  14  10   37.24    1.39
  -3 -14  10   20.55    0.81
   3 -14 -10   20.59    1.76
   3 -14 -10   23.57    1.30
  -3  14  10   21.58    1.05
   2 -14 -10   14.95    1.52
  -2 -14  10   13.69    0.69
   2 -14 -10   14.66    1.10
  -2  14  10   13.70    0.89
   1 -14 -10   14.11    1.48
   1 -14 -10   19.02    1.20
  -1 -14  10   17.71    0.82
   1  14 -10   18.92    1.01
   0 -14 -10    1.14    0.68
   0 -14  10    0.10    0.30
   0 -14 -10    0.40    0.45
   0  14 -10    0.20    0.35
   1 -14  10   12.75    0.84
  -1 -14 -10   12.87    1.09
  -1 -14 -10   11.80    1.30
  -1  14 -10   11.90    0.88
   2 -14  10    3.70    0.60
  -2 -14 -10    5.25    0.97
  -2 -14 -10    3.31    0.69
  -2  14 -10    4.39    0.65
  -3 -14 -10    8.79    1.07
   3 -14  10    7.83    0.85
  -3  14 -10    9.42    1.37
   7 -15 -10    1.20    0.85
  -7 -15  10    1.85    0.41
  -7  15  10    1.41    0.51
  -6 -15  10    0.37    0.29
   6 -15 -10   -0.41    0.70
  -6  15  10   -0.31    0.38
   5 -15 -10    2.01    0.88
  -5 -15  10    1.33    0.33
  -5  15  10    1.08    0.44
   4 -15 -10   24.66    1.94
  -4 -15  10   25.36    0.93
   4 -15 -10   24.41    1.34
  -4  15  10   24.15    1.16
  -3 -15  10    5.23    0.49
   3 -15 -10    5.14    1.09
   3 -15 -10    5.78    0.79
  -3  15  10    4.97    0.63
   2 -15 -10    2.46    0.59
  -2 -15  10    2.62    0.40
   2 -15 -10    2.59    0.91
  -2  15  10    2.18    0.50
  -1 -15  10   11.14    0.72
   1 -15 -10   13.32    1.48
   1 -15 -10   11.25    1.01
   1  15 -10   13.13    0.88
  -1  15  10   11.07    0.88
   0 -15 -10    6.41    0.85
   0 -15  10    5.52    0.58
   0 -15 -10    5.26    1.05
   0  15 -10    6.76    0.71
   1 -15  10    4.70    0.61
  -1 -15 -10    5.27    0.81
  -1 -15 -10    3.84    0.93
  -1  15 -10    4.52    0.77
  -2 -15 -10   10.33    1.10
   2 -15  10   11.12    0.88
  -2 -15 -10    8.05    1.15
   3 -15  10    7.23    0.82
  -3 -15 -10    4.94    0.81
   7 -16 -10    7.59    1.43
  -7 -16  10    7.79    0.68
  -7  16  10    6.87    0.82
  -6 -16  10    9.51    0.70
   6 -16 -10    7.55    1.41
  -6  16  10    9.33    0.86
  -5 -16  10    8.99    0.64
   5 -16 -10    9.54    1.51
  -5  16  10    8.50    0.84
   4 -16 -10   28.77    2.09
   4 -16 -10   27.28    1.44
  -4 -16  10   28.42    1.02
  -4  16  10   26.06    1.24
   3 -16 -10   13.18    1.08
   3 -16 -10   16.52    1.64
  -3 -16  10   15.00    0.75
  -3  16  10   16.07    1.00
   2 -16 -10    0.19    0.71
  -2 -16  10    0.35    0.29
   2 -16 -10    0.89    0.52
  -2  16  10    0.58    0.43
   1 -16 -10   45.97    1.86
  -1 -16  10   47.59    1.47
   1 -16 -10   46.47    2.45
  -1  16  10   45.95    1.69
   0 -16 -10    0.96    0.70
   0 -16 -10    2.54    0.61
   0 -16  10    1.85    0.43
   1 -16  10    2.06    0.48
  -1 -16 -10    2.01    0.64
  -1 -16 -10    2.63    0.83
  -2 -16 -10   12.93    1.31
   2 -16  10   11.10    0.93
  -2 -16 -10   10.88    1.09
  -6 -17  10    4.54    0.54
   6 -17 -10    2.66    1.09
  -6  17  10    4.40    0.70
   5 -17 -10   27.14    2.14
  -5 -17  10   27.28    1.06
  -5  17  10   26.66    1.29
  -4 -17  10    6.24    0.58
   4 -17 -10    5.03    0.78
   4 -17 -10    6.06    1.30
  -4  17  10    4.56    0.66
  -3 -17  10    5.96    0.56
   3 -17 -10    4.82    1.15
   3 -17 -10    6.75    0.86
  -3  17  10    5.79    0.70
  -2 -17  10    1.22    0.37
   2 -17 -10    0.83    0.80
   2 -17 -10    1.39    0.53
  -2  17  10    1.10    0.46
   1 -17 -10   17.80    1.21
  -1 -17  10   19.24    0.94
   1 -17 -10   16.21    1.61
  -1  17  10   18.97    1.13
   0 -17 -10    2.47    0.63
   0 -17 -10    2.54    0.87
   0 -17  10    3.50    0.54
   0  17  10    1.66    0.52
  -1 -17 -10    0.54    0.49
  -1 -17 -10    0.32    0.62
   1 -17  10    0.50    0.41
  -2 -17 -10    5.77    1.24
  -2 -17 -10    4.58    0.78
   2 -17  10    5.15    0.71
   6 -18 -10    1.66    0.98
  -6 -18  10    0.17    0.34
  -6  18  10    0.79    0.47
   5 -18 -10    9.31    1.53
  -5 -18  10   10.05    0.73
  -5  18  10   10.02    0.92
   4 -18 -10   16.87    1.84
   4 -18 -10   17.04    1.21
  -4 -18  10   16.81    0.87
  -4  18  10   17.70    1.10
  -3 -18  10    2.77    0.45
   3 -18 -10    2.45    0.95
   3 -18 -10    1.72    0.61
  -3  18  10    1.91    0.52
   2 -18 -10   10.85    1.53
  -2 -18  10   12.54    0.78
   2 -18 -10   10.52    1.02
  -2  18  10   10.50    0.94
  -1 -18  10   17.78    0.95
   1 -18 -10   19.23    1.24
   1 -18 -10   17.87    1.66
  -1  18  10   19.77    1.17
   0 -18  10    3.09    0.53
   0 -18 -10    2.92    0.92
   0 -18 -10    2.66    0.69
   0  18  10    1.79    0.55
   1 -18  10    3.07    0.59
  -1 -18 -10    3.80    0.71
  -1 -18 -10    4.76    1.03
   1  18  10    3.40    0.66
  -5 -19  10    3.01    0.50
   5 -19 -10    2.93    1.09
  -5  19  10    2.75    0.62
  -4 -19  10    4.74    0.57
   4 -19 -10    4.90    1.25
  -4  19  10    3.68    0.67
  -3 -19  10   -0.07    0.32
   3 -19 -10    1.36    0.88
   3 -19 -10    0.70    0.53
  -3  19  10    0.65    0.45
   2 -19 -10   55.97    2.85
  -2 -19  10   52.66    1.66
   2 -19 -10   55.11    2.03
  -2  19  10   53.72    1.94
   1 -19 -10   10.02    1.49
   1 -19 -10   12.52    1.08
  -1 -19  10    9.25    0.79
  -1  19  10   10.32    0.96
   0 -19  10    2.05    0.50
   0 -19 -10    1.45    0.58
   0 -19 -10    3.76    1.01
   0  19  10    0.34    0.47
   4 -20 -10   17.37    1.89
  -4 -20  10   17.44    0.96
  -4  20  10   17.58    1.18
  -3 -20  10   10.47    0.79
   3 -20 -10   10.58    1.03
   3 -20 -10   10.92    1.59
  -3  20  10   11.42    1.03
   2 -20 -10   12.17    1.70
   2 -20 -10   15.38    1.15
  -2 -20  10   14.87    0.89
  -2  20  10   15.67    1.13
   1 -20 -10    0.51    0.51
  -1 -20  10    0.54    0.39
   1 -20 -10    2.00    0.87
  -1  20  10    0.30    0.47
   0 -20 -10    2.65    0.93
   0 -20  10    2.83    0.55
   0 -20 -10    3.77    0.73
   9   0 -11    0.25    0.72
  -9   0  11   -0.66    0.29
   8   0 -11    0.40    0.75
  -8   0  11    0.01    0.28
  -7   0  11    1.04    0.29
   7   0 -11    0.82    0.77
  -6   0  11    0.46    0.21
   6   0 -11    0.62    0.71
  -5   0  11    0.89    0.17
   5   0 -11    0.44    0.68
   4   0 -11   15.90    1.15
  -3   0  11    2.34    0.22
   3   0 -11    2.48    0.59
  -2   0  11    0.25    0.19
   2   0 -11   -0.14    0.41
   1   0 -11    1.02    0.52
  -1   0  11    1.28    0.28
   0   0 -11   32.39    1.49
   0   0  11   28.26    1.03
  -1   0 -11    0.49    0.45
   1   0  11    0.09    0.31
   2   0  11   10.66    0.82
  -2   0 -11    7.27    0.88
   3   0  11    0.36    0.40
  -3   0 -11   -0.07    0.51
  -4   0 -11    1.56    0.70
   4   0  11    0.92    0.53
   9  -1 -11    2.83    0.96
  -9  -1  11    3.73    0.51
  -9   1  11    3.28    0.51
   8  -1 -11    0.74    0.73
  -8  -1  11    0.55    0.31
  -8   1  11    0.40    0.31
  -7  -1  11    7.41    0.50
   7  -1 -11    6.19    1.15
  -7   1  11    7.88    0.53
  -6  -1  11   18.48    0.59
   6  -1 -11   16.12    1.57
  -6   1  11   17.83    0.64
   5  -1 -11    0.78    0.73
  -5   1  11    0.84    0.19
   4  -1 -11    3.33    0.67
   4  -1 -11    2.35    0.89
   4   1 -11    3.61    0.70
   3  -1 -11   13.10    1.02
  -3   1  11   11.83    0.45
   3   1 -11   11.05    0.98
   2  -1 -11    3.71    0.70
  -2  -1  11    4.05    0.31
   2   1 -11    3.47    0.66
  -2   1  11    3.87    0.34
  -1  -1  11   13.87    0.62
   1  -1 -11   14.25    1.06
  -1   1  11   14.44    0.66
   1   1 -11   14.99    1.07
   0  -1  11    8.80    0.61
   0  -1 -11    8.86    0.95
   0   1 -11    8.91    0.92
   0   1  11    7.51    0.60
  -1  -1 -11    9.21    0.96
   1  -1  11    9.24    0.69
   1   1  11   11.71    0.76
  -1   1 -11   10.26    0.98
   2  -1  11    9.70    0.80
  -2  -1 -11    8.81    0.99
  -2   1 -11    8.11    0.94
   2   1  11    9.57    0.79
   3  -1  11    1.89    0.51
  -3  -1 -11    1.20    0.56
   3   1  11    1.11    0.48
  -3   1 -11    2.31    0.68
   4  -1  11    1.57    0.53
  -4  -1 -11    0.12    0.55
  -4   1 -11    0.64    0.61
   4   1  11    1.48    0.56
   9  -2 -11    9.61    1.44
  -9  -2  11    8.99    0.71
  -9   2  11    8.95    0.74
   8  -2 -11   17.80    1.69
  -8  -2  11   20.35    0.85
  -8   2  11   20.45    0.91
   7  -2 -11   19.73    1.72
  -7  -2  11   20.02    0.73
  -7   2  11   20.41    0.81
   6  -2 -11    2.54    0.87
  -6  -2  11    3.53    0.28
  -6   2  11    3.88    0.37
   5  -2 -11    4.81    0.98
  -5   2  11    7.36    0.40
   4  -2 -11   12.89    1.03
   4  -2 -11   12.22    1.38
   4   2 -11   12.72    1.06
   3  -2 -11    8.24    1.24
   3  -2 -11    9.92    1.00
   3   2 -11    9.19    0.93
  -2  -2  11   14.67    0.51
   2  -2 -11   14.03    1.05
  -2   2  11   15.66    0.62
   2   2 -11   15.57    1.05
   1  -2 -11   45.81    1.79
  -1  -2  11   46.25    1.21
  -1   2  11   45.65    1.27
   1   2 -11   42.57    1.73
   0  -2  11    0.44    0.28
   0  -2 -11   -0.15    0.42
   0   2  11    0.09    0.29
   0   2 -11    1.02    0.50
   1  -2  11    3.68    0.49
  -1  -2 -11    2.51    0.64
   1   2  11    3.15    0.50
  -1   2 -11    4.12    0.71
  -2  -2 -11   12.18    1.15
   2  -2  11   11.21    0.84
   2   2  11    9.80    0.81
  -2   2 -11   11.30    1.05
  -3  -2 -11   10.68    1.14
   3  -2  11    8.77    0.84
  -3   2 -11   10.64    1.13
   3   2  11    8.40    0.82
  -4  -2 -11    0.50    0.57
   4  -2  11    1.63    0.54
   4   2  11    1.08    0.53
  -4   2 -11    0.78    0.62
  -9  -3  11    0.61    0.36
   9  -3 -11    0.50    0.77
  -9   3  11    0.47    0.36
   8  -3 -11    6.70    1.24
  -8  -3  11    7.32    0.58
  -8   3  11    7.52    0.65
  -7  -3  11    5.44    0.44
   7  -3 -11    5.48    1.15
  -7   3  11    5.12    0.48
  -6  -3  11   35.54    0.89
   6  -3 -11   38.02    2.23
  -6   3  11   36.54    1.05
   5  -3 -11   14.81    1.53
  -5   3  11   14.30    0.58
   4  -3 -11    1.64    0.52
   4  -3 -11    1.50    0.74
   4   3 -11    1.24    0.54
   3  -3 -11   18.06    1.16
   3  -3 -11   20.49    1.63
   3   3 -11   18.23    1.15
   2  -3 -11    8.54    1.25
  -2  -3  11    7.86    0.38
   2  -3 -11    7.69    0.85
  -2   3  11    8.90    0.51
   2   3 -11    8.16    0.86
   1  -3 -11    8.21    0.87
  -1  -3  11    9.05    0.51
  -1   3  11    9.39    0.60
   1   3 -11    8.83    0.86
   0  -3 -11    3.29    0.68
   0  -3  11    3.10    0.41
   0   3 -11    3.80    0.68
   0   3  11    3.56    0.48
  -1  -3 -11    4.05    0.70
   1  -3  11    5.59    0.57
   1   3  11    6.04    0.61
  -1   3 -11    5.08    0.79
   2  -3  11   18.30    1.00
  -2  -3 -11   20.30    1.32
  -2   3 -11   21.48    1.30
   2   3  11   20.08    1.06
   3  -3  11   16.02    1.00
  -3  -3 -11   13.67    1.23
   3   3  11   16.15    1.05
  -3   3 -11   14.57    1.19
  -4  -3 -11    3.98    0.86
   4  -3  11    3.63    0.66
  -4   3 -11    4.21    0.83
   4   3  11    4.54    0.71
  -9  -4  11   55.42    1.63
   9  -4 -11   52.67    2.77
  -9   4  11   54.94    1.73
   8  -4 -11    0.31    0.72
  -8  -4  11    0.03    0.28
  -8   4  11   -0.05    0.30
   7  -4 -11   18.70    1.73
  -7  -4  11   19.10    0.71
  -7   4  11   19.50    0.84
   6  -4 -11   11.70    1.54
  -6  -4  11   10.18    0.42
  -6   4  11   11.27    0.60
   5  -4 -11    1.54    0.82
  -5   4  11    2.03    0.30
   4  -4 -11    8.37    1.29
   4  -4 -11    6.22    0.80
   4   4 -11    8.08    0.89
   3  -4 -11    3.06    0.81
   3  -4 -11    3.13    0.59
   3   4 -11    3.57    0.66
   2  -4 -11    8.02    1.19
  -2  -4  11   10.81    0.42
   2  -4 -11   11.41    0.99
   2   4 -11   10.82    0.92
   1  -4 -11    3.95    0.71
  -1  -4  11    3.39    0.35
  -1   4  11    3.85    0.44
   1   4 -11    4.31    0.67
   0  -4 -11    5.33    0.75
   0  -4  11    5.68    0.50
   0   4 -11    7.21    0.85
   0   4  11    5.31    0.54
  -1  -4 -11    0.53    0.49
   1  -4  11    1.39    0.37
   1   4  11    0.72    0.37
  -1   4 -11    0.76    0.49
  -2  -4 -11   21.41    1.36
   2  -4  11   17.46    0.99
   2   4  11   20.57    1.07
  -2   4 -11   20.45    1.29
  -3  -4 -11   15.59    1.27
   3  -4  11   14.26    0.98
  -3   4 -11   13.35    1.17
   3   4  11   12.88    1.00
   4  -4  11    1.59    0.53
  -4  -4 -11    1.35    0.63
  -4   4 -11    2.74    0.73
   4   4  11    1.52    0.56
   9  -5 -11    1.74    0.90
  -9  -5  11    1.89    0.41
  -9   5  11    1.28    0.42
  -8  -5  11    3.86    0.45
   8  -5 -11    4.86    1.11
  -8   5  11    4.30    0.53
  -7  -5  11    3.73    0.37
   7  -5 -11    3.61    1.01
  -7   5  11    4.32    0.49
   6  -5 -11   41.29    2.36
  -6  -5  11   44.20    1.02
  -6   5  11   43.58    1.25
   5  -5 -11   13.68    1.50
  -5   5  11   12.91    0.63
   4  -5 -11    0.98    0.49
   4  -5 -11    0.62    0.76
   3  -5 -11    1.19    0.51
   3  -5 -11    0.49    0.65
   3   5 -11    0.55    0.47
   2  -5 -11   82.79    2.58
   2  -5 -11   84.50    3.22
  -2  -5  11   83.23    1.73
   2   5 -11   82.21    2.48
   1  -5 -11   26.73    1.40
   1  -5 -11   31.73    1.95
  -1  -5  11   26.76    0.86
   1   5 -11   29.65    1.41
   0  -5 -11    5.58    0.79
   0  -5  11    5.08    0.48
   0   5 -11    5.73    0.76
   0   5  11    5.34    0.56
  -1  -5 -11   11.10    1.08
   1  -5  11   11.92    0.73
  -1   5 -11    8.50    0.89
   1   5  11    9.91    0.77
   2  -5  11    9.06    0.77
  -2  -5 -11    7.34    0.91
  -2   5 -11    8.48    0.96
   2   5  11    8.18    0.78
  -3  -5 -11    9.21    1.08
   3  -5  11   10.26    0.89
   3   5  11   12.09    0.97
  -3   5 -11   11.52    1.13
  -4  -5 -11    2.62    0.73
   4  -5  11    2.20    0.59
   4   5  11    2.37    0.60
  -4   5 -11    3.96    0.76
   8  -6 -11    8.65    1.37
  -8  -6  11    8.41    0.61
  -8   6  11    9.06    0.74
   7  -6 -11    1.92    0.91
  -7  -6  11    1.91    0.30
  -7   6  11    1.78    0.40
   6  -6 -11   21.42    1.77
  -6  -6  11   18.44    0.58
  -6   6  11   18.29    0.81
   5  -6 -11   11.26    1.56
  -5   6  11   12.00    0.63
   4  -6 -11    1.12    0.52
   4  -6 -11    0.59    0.71
  -4   6  11    0.73    0.26
   3  -6 -11    2.92    0.89
   3  -6 -11    2.50    0.61
   3   6 -11    2.34    0.57
   2  -6 -11   19.93    1.23
  -2  -6  11   19.23    0.60
   2  -6 -11   16.40    1.52
   2   6 -11   21.93    1.18
   1  -6 -11    5.28    0.74
   1  -6 -11    4.11    0.93
  -1  -6  11    5.71    0.44
   1   6 -11    5.20    0.70
   0  -6  11   10.23    0.62
   0  -6 -11   12.45    1.04
   0   6 -11   10.17    0.98
   1  -6  11   12.76    0.76
  -1  -6 -11   15.05    1.13
  -1   6 -11   11.77    1.02
   2  -6  11    4.38    0.59
  -2  -6 -11    3.88    0.71
  -2   6 -11    5.07    0.79
   2   6  11    4.87    0.63
  -3  -6 -11    2.97    0.71
   3  -6  11    4.56    0.65
  -3   6 -11    4.37    0.76
   3   6  11    4.36    0.68
  -8  -7  11   24.86    0.93
   8  -7 -11   22.37    1.92
  -8   7  11   21.89    1.07
   7  -7 -11    1.60    0.89
  -7  -7  11    2.20    0.33
  -7   7  11    1.99    0.42
   6  -7 -11    1.15    0.79
  -6  -7  11    3.21    0.29
  -6   7  11    3.14    0.43
   5  -7 -11   19.13    1.70
  -5   7  11   20.65    0.84
   4  -7 -11    2.62    0.63
   4  -7 -11    2.27    0.85
  -4   7  11    3.40    0.41
   3  -7 -11   16.27    1.12
   3  -7 -11   16.43    1.53
   3   7 -11   17.65    1.11
   2  -7 -11   11.31    1.02
   2  -7 -11   12.25    1.37
  -2  -7  11   11.00    0.47
   2   7 -11   13.27    0.98
   1  -7 -11    2.54    0.81
  -1  -7  11    2.09    0.31
   1  -7 -11    1.88    0.56
   1   7 -11    2.66    0.58
   0  -7 -11   19.80    1.63
   0  -7 -11   18.85    1.24
   0  -7  11   19.62    0.82
   0   7 -11   19.62    1.19
  -1  -7 -11    9.85    1.04
   1  -7  11    8.49    0.68
  -1   7 -11    8.38    0.90
  -2  -7 -11    3.02    0.71
   2  -7  11    2.78    0.50
  -2   7 -11    3.12    0.68
   3  -7  11   -0.41    0.37
  -3  -7 -11    1.30    0.58
  -3   7 -11   -0.33    0.44
   8  -8 -11   -0.08    0.76
  -8  -8  11    0.58    0.31
  -8   8  11    0.45    0.37
  -7  -8  11    2.34    0.34
   7  -8 -11    1.90    0.94
  -7   8  11    2.57    0.45
   6  -8 -11   10.21    1.46
  -6  -8  11   10.05    0.46
  -6   8  11   11.58    0.71
  -5  -8  11    2.60    0.21
   5  -8 -11    1.97    0.87
  -5   8  11    2.47    0.40
   4  -8 -11   19.09    1.66
   4  -8 -11   19.26    1.24
  -4   8  11   19.51    0.84
  -3  -8  11    4.76    0.28
   3  -8 -11    4.96    0.75
   3  -8 -11    3.25    0.95
   3   8 -11    5.17    0.74
  -2  -8  11    2.43    0.27
   2  -8 -11    2.07    0.60
   2  -8 -11    2.69    0.89
   2   8 -11    3.35    0.61
   1  -8 -11    3.11    0.92
   1  -8 -11    3.20    0.68
  -1  -8  11    3.46    0.37
   1   8 -11    3.63    0.64
   0  -8 -11   24.63    1.41
   0  -8  11   23.33    0.91
   0  -8 -11   23.09    1.69
   0   8 -11   23.24    1.24
  -1  -8 -11    6.65    0.86
   1  -8  11    8.20    0.67
  -1   8 -11    8.33    0.87
   2  -8  11    0.95    0.41
  -2  -8 -11    0.21    0.51
  -2   8 -11    0.59    0.48
  -3  -8 -11    3.84    0.80
   3  -8  11    3.06    0.60
  -3   8 -11    3.25    0.70
  -8  -9  11    2.92    0.42
   8  -9 -11    0.95    0.82
  -8   9  11    2.49    0.53
  -7  -9  11    6.85    0.51
   7  -9 -11    6.50    1.25
  -7   9  11    7.24    0.68
   6  -9 -11    3.09    1.00
  -6  -9  11    2.44    0.29
  -6   9  11    2.98    0.46
   5  -9 -11    6.14    1.11
  -5  -9  11    7.59    0.36
  -5   9  11    7.54    0.63
  -4  -9  11    5.21    0.29
   4  -9 -11    4.90    1.08
   4  -9 -11    5.15    0.79
  -4   9  11    5.14    0.52
  -3  -9  11    6.76    0.36
   3  -9 -11    6.27    1.09
   3  -9 -11    8.17    0.92
   3   9 -11    7.69    0.83
  -2  -9  11    8.23    0.45
   2  -9 -11    7.36    0.85
   2  -9 -11    9.39    1.36
   2   9 -11    8.04    0.84
   1  -9 -11    2.89    0.65
  -1  -9  11    2.93    0.35
   1  -9 -11    2.86    0.86
   1   9 -11    3.40    0.62
   0  -9 -11   16.10    1.20
   0  -9  11   16.27    0.79
   0  -9 -11   20.46    1.59
   0   9 -11   18.11    1.09
  -1  -9 -11   15.51    1.18
   1  -9  11   16.61    0.88
  -1   9 -11   16.16    1.11
   2  -9  11    2.42    0.51
  -2  -9 -11    2.17    0.62
  -2   9 -11    2.50    0.60
   3  -9  11    9.15    0.86
  -3  -9 -11    7.20    0.98
  -3   9 -11   10.54    1.05
   8 -10 -11    2.31    0.98
  -8 -10  11    2.41    0.41
  -8  10  11    2.23    0.51
  -7 -10  11    8.85    0.56
   7 -10 -11    7.38    1.35
  -7  10  11    8.44    0.75
  -6 -10  11    3.61    0.35
   6 -10 -11    3.11    1.06
  -6  10  11    2.82    0.48
  -5 -10  11   12.84    0.50
   5 -10 -11   12.94    1.51
  -5  10  11   13.22    0.78
   4 -10 -11    8.95    1.35
   4 -10 -11    8.93    0.98
  -4 -10  11    9.55    0.41
  -4  10  11    8.69    0.67
   3 -10 -11    0.20    0.65
   3 -10 -11   -0.17    0.38
  -3 -10  11    0.19    0.16
  -3  10  11   -0.05    0.29
  -2 -10  11    3.00    0.32
   2 -10 -11    2.07    0.61
   2 -10 -11    2.02    0.82
   2  10 -11    3.61    0.66
  -1 -10  11    7.78    0.53
   1 -10 -11    6.81    1.23
   1 -10 -11    6.90    0.85
   1  10 -11    7.54    0.81
   0 -10 -11    3.99    0.72
   0 -10 -11    4.14    0.96
   0 -10  11    4.71    0.50
   0  10 -11    4.06    0.68
   1 -10  11    8.88    0.71
  -1 -10 -11    5.19    1.03
  -1 -10 -11    6.16    0.85
  -1  10 -11    5.96    0.77
   2 -10  11    4.92    0.63
  -2 -10 -11    4.13    0.80
  -2  10 -11    4.30    0.70
  -3 -10 -11   19.25    1.39
   3 -10  11   21.95    1.19
  -3  10 -11   21.57    1.34
   8 -11 -11   12.90    1.80
   7 -11 -11    0.66    0.80
  -7 -11  11    0.56    0.27
  -7  11  11    1.04    0.42
  -6 -11  11   24.66    0.82
   6 -11 -11   23.45    1.98
  -6  11  11   22.97    1.06
  -5 -11  11    1.12    0.23
   5 -11 -11   -0.31    0.63
  -5  11  11    0.77    0.37
  -4 -11  11    2.65    0.28
   4 -11 -11    2.29    0.90
   4 -11 -11    2.35    0.63
  -4  11  11    2.01    0.44
   3 -11 -11    4.68    1.08
   3 -11 -11    3.44    0.69
  -3 -11  11    4.31    0.35
  -3  11  11    4.32    0.54
   2 -11 -11   18.55    1.25
  -2 -11  11   19.38    0.72
   2 -11 -11   20.36    1.68
   2  11 -11   17.99    1.10
  -1 -11  11    9.67    0.60
   1 -11 -11   12.74    1.44
   1 -11 -11   11.24    1.07
   1  11 -11    9.78    0.88
   0 -11 -11    0.41    0.50
   0 -11 -11    0.21    0.63
   0 -11  11    0.06    0.28
   0  11 -11    0.54    0.42
  -1 -11 -11    3.18    0.71
   1 -11  11    2.37    0.45
  -1 -11 -11    3.57    0.92
  -1  11 -11    2.45    0.59
   2 -11  11    0.69    0.42
  -2 -11 -11    1.24    0.61
  -2  11 -11    0.44    0.46
   3 -11  11   26.51    1.30
  -3 -11 -11   24.26    1.53
  -3  11 -11   22.75    1.36
  -7 -12  11    0.88    0.31
   7 -12 -11    1.05    0.82
  -7  12  11    0.69    0.41
   6 -12 -11    3.47    1.02
  -6 -12  11    4.63    0.43
  -6  12  11    4.95    0.61
   5 -12 -11    3.92    1.10
  -5 -12  11    2.60    0.32
  -5  12  11    3.20    0.51
   4 -12 -11    0.47    0.71
  -4 -12  11    0.19    0.20
   4 -12 -11   -0.74    0.39
  -4  12  11    0.13    0.34
   3 -12 -11    1.49    0.82
   3 -12 -11    1.60    0.54
  -3 -12  11    2.93    0.32
  -3  12  11    2.55    0.47
   2 -12 -11    9.51    0.96
  -2 -12  11   11.15    0.59
   2 -12 -11    8.78    1.30
   2  12 -11   10.95    0.92
  -1 -12  11    7.48    0.57
   1 -12 -11    8.44    0.96
   1 -12 -11    7.84    1.21
   1  12 -11    6.31    0.76
   0 -12 -11    0.90    0.54
   0 -12  11    0.93    0.35
   0 -12 -11    0.40    0.64
   0  12 -11    1.33    0.48
   1 -12  11    2.75    0.48
  -1 -12 -11    3.34    0.89
  -1 -12 -11    2.12    0.64
  -1  12 -11    3.07    0.60
   2 -12  11    8.46    0.82
  -2 -12 -11   10.09    1.12
  -2  12 -11    8.35    0.91
   7 -13 -11    6.29    1.39
  -7 -13  11    8.07    0.61
  -7  13  11    8.05    0.80
   6 -13 -11    1.62    0.95
  -6 -13  11    2.12    0.34
  -6  13  11    1.72    0.46
   5 -13 -11   14.81    1.67
  -5 -13  11   16.62    0.69
  -5  13  11   18.13    0.99
  -4 -13  11    0.90    0.26
   4 -13 -11    1.16    0.55
   4 -13 -11    1.40    0.84
  -4  13  11    1.19    0.43
  -3 -13  11    0.73    0.25
   3 -13 -11    0.44    0.69
   3 -13 -11    0.59    0.49
  -3  13  11    0.36    0.38
  -2 -13  11    9.13    0.57
   2 -13 -11    8.01    1.31
   2 -13 -11    7.51    0.90
  -2  13  11    7.28    0.72
   2  13 -11    8.21    0.84
   1 -13 -11    4.61    0.80
   1 -13 -11    2.83    0.90
  -1 -13  11    3.82    0.46
   1  13 -11    3.61    0.63
   0 -13 -11    2.74    0.68
   0 -13  11    3.30    0.49
   0 -13 -11    2.41    0.88
   0  13 -11    2.93    0.57
   1 -13  11   15.51    0.92
  -1 -13 -11   16.12    1.24
  -1 -13 -11   18.05    1.58
  -1  13 -11   18.24    1.12
  -2 -13 -11   32.91    1.72
   2 -13  11   34.20    1.41
  -2  13 -11   32.60    1.50
  -7 -14  11    0.79    0.34
   7 -14 -11    2.12    0.97
  -7  14  11    1.69    0.52
   6 -14 -11    8.07    1.44
  -6 -14  11    9.48    0.62
  -6  14  11    8.83    0.82
  -5 -14  11   47.08    1.32
   5 -14 -11   44.39    2.63
  -5  14  11   49.44    1.66
  -4 -14  11    3.85    0.40
   4 -14 -11    3.52    0.69
   4 -14 -11    4.04    1.05
  -4  14  11    3.13    0.54
   3 -14 -11    0.87    0.53
  -3 -14  11    2.16    0.34
   3 -14 -11    2.43    0.97
  -3  14  11    1.95    0.47
   2 -14 -11    0.77    0.73
   2 -14 -11    0.02    0.46
  -2 -14  11    0.38    0.27
  -2  14  11    0.63    0.41
   1 -14 -11   12.61    1.47
   1 -14 -11   10.84    1.10
  -1 -14  11   11.85    0.73
   1  14 -11   11.94    0.92
   0 -14 -11    7.89    0.97
   0 -14  11    6.90    0.67
   0 -14 -11    7.28    1.18
   0  14 -11    5.81    0.71
  -1 -14 -11   25.48    1.83
   1 -14  11   30.14    1.26
  -1 -14 -11   27.99    1.57
  -1  14 -11   28.13    1.33
  -2 -14 -11   14.80    1.24
  -2 -14 -11   15.70    1.51
   2 -14  11   16.69    1.06
  -6 -15  11    1.63    0.36
   6 -15 -11    0.53    0.84
  -6  15  11    1.10    0.47
  -5 -15  11    4.57    0.48
   5 -15 -11    6.36    1.32
  -5  15  11    4.96    0.68
  -4 -15  11    3.06    0.40
   4 -15 -11    2.71    0.66
   4 -15 -11    2.88    1.00
  -4  15  11    2.01    0.52
   3 -15 -11    5.00    0.81
  -3 -15  11    5.88    0.51
   3 -15 -11    4.96    1.19
  -3  15  11    3.75    0.60
  -2 -15  11    0.97    0.31
   2 -15 -11    1.09    0.54
   2 -15 -11    0.43    0.76
  -2  15  11    0.69    0.46
  -1 -15  11    8.09    0.66
   1 -15 -11    8.58    1.28
   1 -15 -11    7.03    0.91
   1  15 -11    9.11    0.84
  -1  15  11    8.95    0.85
   0 -15  11   13.84    0.86
   0 -15 -11   13.48    1.17
   0 -15 -11   12.86    1.47
   0  15 -11   13.43    1.14
  -1 -15 -11   13.93    1.46
   1 -15  11   13.51    0.93
  -1 -15 -11   10.58    1.12
  -6 -16  11    8.08    0.64
   6 -16 -11    8.90    1.53
  -6  16  11    7.89    0.83
   5 -16 -11    4.07    1.18
  -5 -16  11    4.50    0.50
  -5  16  11    4.09    0.64
   4 -16 -11   18.07    1.83
   4 -16 -11   16.59    1.25
  -4 -16  11   18.30    0.82
  -4  16  11   17.05    1.07
  -3 -16  11    3.39    0.43
   3 -16 -11    3.77    1.06
   3 -16 -11    3.48    0.72
  -3  16  11    2.38    0.56
  -2 -16  11    1.91    0.39
   2 -16 -11    1.53    0.84
   2 -16 -11    1.50    0.60
  -2  16  11    1.65    0.53
   1 -16 -11    3.66    0.74
  -1 -16  11    4.35    0.54
   1 -16 -11    5.23    1.13
  -1  16  11    4.54    0.68
   0 -16  11    9.12    0.79
   0 -16 -11    8.44    1.31
   0 -16 -11    8.86    1.04
   1 -16  11    9.90    0.86
  -1 -16 -11   11.21    1.16
  -1 -16 -11    8.75    1.31
  -5 -17  11    1.08    0.36
   5 -17 -11    2.34    1.03
  -5  17  11    1.33    0.51
   4 -17 -11   23.50    1.44
   4 -17 -11   26.70    2.16
  -4 -17  11   24.28    0.99
  -4  17  11   23.81    1.24
   3 -17 -11   13.39    1.76
   3 -17 -11   12.41    1.14
  -3 -17  11   14.63    0.78
  -3  17  11   11.96    0.97
   2 -17 -11    0.25    0.49
  -2 -17  11    0.76    0.33
   2 -17 -11    1.41    0.80
  -2  17  11   -0.34    0.41
   1 -17 -11    3.12    1.01
  -1 -17  11    2.86    0.49
   1 -17 -11    2.97    0.68
  -1  17  11    2.39    0.58
   0 -17  11    4.59    0.61
   0 -17 -11    3.96    0.75
   0 -17 -11    5.13    1.11
   0  17  11    3.03    0.64
  -4 -18  11    6.38    0.62
   4 -18 -11    4.70    1.22
   4 -18 -11    6.38    0.91
  -4  18  11    6.98    0.81
   3 -18 -11   12.74    1.16
   3 -18 -11   15.24    1.75
  -3 -18  11   14.21    0.82
  -3  18  11   15.00    1.08
  -2 -18  11    3.75    0.52
   2 -18 -11    3.66    0.72
   2 -18 -11    5.11    1.23
  -2  18  11    3.60    0.67
   1 -18 -11    5.59    0.85
   1 -18 -11    7.02    1.33
  -1 -18  11    4.97    0.60
  -1  18  11    5.73    0.77
  -8   0  12    0.84    0.32
  -7   0  12    2.76    0.35
  -6   0  12    7.19    0.41
  -5   0  12    4.75    0.30
   4   0 -12   -0.05    0.48
  -3   0  12    0.73    0.20
   3   0 -12    1.25    0.52
   2   0 -12    1.35    0.59
  -2   0  12    1.85    0.29
  -1   0  12   -0.24    0.23
   1   0 -12   -0.21    0.43
   0   0  12   29.22    1.10
   0   0 -12   29.29    1.55
   1   0  12    6.10    0.64
  -1   0 -12    7.54    0.94
  -2   0 -12    0.45    0.52
   2   0  12   -0.17    0.36
  -3   0 -12    1.07    0.62
   3   0  12    2.10    0.54
  -8  -1  12   26.57    0.97
   8  -1 -12   27.20    2.10
  -8   1  12   27.43    1.02
  -7  -1  12   11.70    0.58
   7  -1 -12   13.20    1.70
  -7   1  12   10.96    0.60
  -6  -1  12    3.73    0.29
   6  -1 -12    1.81    0.87
  -6   1  12    3.64    0.33
  -5   1  12   19.59    0.61
   4  -1 -12    2.42    0.62
   4   1 -12    2.36    0.65
  -3  -1  12    0.45    0.17
   3  -1 -12    0.21    0.43
   3   1 -12    0.64    0.52
  -3   1  12    0.40    0.19
   2  -1 -12    3.70    0.74
  -2  -1  12    4.08    0.36
   2   1 -12    2.55    0.61
  -2   1  12    3.62    0.37
   1  -1 -12    0.74    0.53
  -1  -1  12    0.65    0.27
  -1   1  12    0.19    0.28
   1   1 -12    0.83    0.49
   0  -1 -12    6.83    0.86
   0  -1  12    6.65    0.60
   0   1  12    7.40    0.64
   0   1 -12    6.96    0.87
  -1  -1 -12    6.75    0.97
   1  -1  12    7.22    0.67
  -1   1 -12    7.78    0.98
   1   1  12    6.14    0.66
  -2  -1 -12    2.74    0.70
   2  -1  12    3.33    0.56
  -2   1 -12    3.38    0.72
   2   1  12    2.22    0.52
  -3  -1 -12    0.22    0.56
   3  -1  12    1.26    0.47
  -3   1 -12    0.18    0.54
   3   1  12    1.30    0.51
  -8  -2  12    5.47    0.50
   8  -2 -12    7.14    1.36
  -8   2  12    5.87    0.56
   7  -2 -12    2.84    0.96
  -7  -2  12    2.02    0.31
  -7   2  12    1.91    0.34
  -6  -2  12   32.22    0.81
   6  -2 -12   33.39    2.22
  -6   2  12   32.55    0.95
   5  -2 -12    5.68    1.15
  -5   2  12    7.04    0.42
   4  -2 -12    1.40    0.57
   4  -2 -12    2.03    0.87
   4   2 -12    1.49    0.57
   3  -2 -12    3.02    0.65
  -3  -2  12    3.44    0.26
   3   2 -12    1.80    0.60
  -2  -2  12   24.32    0.76
   2  -2 -12   23.12    1.37
  -2   2  12   22.24    0.82
   2   2 -12   24.46    1.35
   1  -2 -12    0.07    0.46
  -1  -2  12    0.23    0.25
  -1   2  12    0.59    0.29
   1   2 -12    1.09    0.50
   0  -2  12    0.48    0.32
   0  -2 -12    0.43    0.50
   0   2 -12    1.15    0.56
   0   2  12    0.41    0.33
   1  -2  12    1.42    0.42
  -1  -2 -12    0.87    0.54
   1   2  12    0.79    0.40
  -1   2 -12    0.95    0.56
  -2  -2 -12   -0.21    0.48
   2  -2  12    0.62    0.41
  -2   2 -12   -0.06    0.46
   2   2  12    0.05    0.39
  -3  -2 -12    2.43    0.72
   3  -2  12    3.34    0.62
   3   2  12    3.38    0.65
  -3   2 -12    3.07    0.75
  -8  -3  12   13.03    0.69
   8  -3 -12   14.53    1.66
  -8   3  12   14.49    0.80
   7  -3 -12    1.47    0.84
  -7  -3  12    1.02    0.27
  -7   3  12    1.18    0.32
   6  -3 -12    1.10    0.74
  -6   3  12    1.64    0.30
   5  -3 -12    2.24    0.81
  -5   3  12    3.60    0.35
   4  -3 -12    8.54    1.31
   4  -3 -12    8.63    1.02
   4   3 -12    9.21    0.99
   3  -3 -12    1.02    0.54
   3  -3 -12    1.04    0.74
   3   3 -12    1.38    0.57
   2  -3 -12   61.62    2.22
  -2  -3  12   61.65    1.42
   2   3 -12   59.91    2.15
  -1  -3  12    1.57    0.31
   1  -3 -12    1.43    0.57
   1   3 -12    0.74    0.50
  -1   3  12    1.38    0.34
   0  -3 -12    3.07    0.70
   0  -3  12    3.79    0.46
   0   3 -12    2.27    0.64
   0   3  12    3.16    0.47
  -1  -3 -12    1.14    0.62
   1  -3  12    2.06    0.44
   1   3  12    2.32    0.49
  -1   3 -12    1.66    0.58
   2  -3  12   11.98    0.89
  -2  -3 -12   12.10    1.24
  -2   3 -12   14.01    1.20
   2   3  12   10.96    0.91
  -8  -4  12    6.02    0.52
   8  -4 -12    6.22    1.31
  -8   4  12    6.39    0.61
  -7  -4  12   25.86    0.81
   7  -4 -12   24.00    1.98
  -7   4  12   26.44    0.98
   6  -4 -12    2.31    0.90
  -6   4  12    2.92    0.38
   5  -4 -12    9.99    1.40
  -5   4  12   11.79    0.58
   4  -4 -12    1.37    0.56
   4  -4 -12    0.99    0.76
   4   4 -12    2.12    0.66
   3  -4 -12   -0.22    0.44
   3  -4 -12    0.16    0.65
   3   4 -12   -0.65    0.40
  -2  -4  12   12.90    0.54
   2  -4 -12   14.42    1.14
   2   4 -12   13.90    1.05
   1  -4 -12    5.72    0.84
  -1  -4  12    6.82    0.50
   1   4 -12    7.77    0.92
  -1   4  12    6.45    0.57
   0  -4 -12    1.46    0.60
   0  -4  12    1.50    0.36
   0   4 -12    0.93    0.54
   0   4  12    1.42    0.39
  -1  -4 -12    1.22    0.59
   1  -4  12    1.77    0.43
   1   4  12    1.88    0.47
  -1   4 -12    1.95    0.63
   2  -4  12   19.87    1.07
  -2  -4 -12   19.38    1.39
  -2   4 -12   19.60    1.38
   2   4  12   18.76    1.10
   8  -5 -12    4.37    1.15
  -8  -5  12    4.34    0.46
  -8   5  12    3.92    0.53
   7  -5 -12    5.03    1.22
  -7  -5  12    5.07    0.41
  -7   5  12    5.52    0.54
   6  -5 -12   13.41    1.59
  -6   5  12   13.76    0.70
   5  -5 -12    6.17    1.24
  -5   5  12    5.88    0.49
   4  -5 -12    1.72    0.60
   4  -5 -12    1.84    0.85
   4   5 -12    1.07    0.55
   3  -5 -12    2.33    0.78
   3  -5 -12    3.30    0.68
   3   5 -12    2.57    0.64
   2  -5 -12   16.39    1.23
  -2  -5  12   16.32    0.60
   2  -5 -12   14.54    1.55
   2   5 -12   16.14    1.12
   1  -5 -12    1.85    0.61
  -1  -5  12    3.20    0.37
   1   5 -12    3.12    0.66
   0  -5  12    2.92    0.42
   0  -5 -12    1.78    0.57
   0   5 -12    1.74    0.58
   1  -5  12    2.47    0.47
  -1  -5 -12    2.22    0.62
  -1   5 -12    2.31    0.61
   1   5  12    2.19    0.51
  -2  -5 -12    2.57    0.68
   2  -5  12    3.76    0.59
  -2   5 -12    2.73    0.69
   2   5  12    2.94    0.59
  -8  -6  12    5.78    0.51
   8  -6 -12    5.39    1.30
  -8   6  12    6.12    0.64
  -7  -6  12   11.07    0.54
   7  -6 -12   11.04    1.57
  -7   6  12   11.69    0.74
   6  -6 -12   27.60    2.09
  -6   6  12   28.74    1.03
   5  -6 -12    7.06    1.33
  -5   6  12    6.21    0.52
   4  -6 -12    5.07    1.07
   4  -6 -12    3.84    0.70
  -4   6  12    6.73    0.52
   3  -6 -12    6.18    1.16
   3  -6 -12    4.09    0.69
   3   6 -12    5.96    0.83
  -2  -6  12   31.23    0.89
   2  -6 -12   34.69    1.64
   2  -6 -12   31.34    2.05
   2   6 -12   30.87    1.50
  -1  -6  12    2.42    0.34
   1  -6 -12    1.38    0.63
   1   6 -12    3.40    0.69
   0  -6  12   20.02    0.88
   0  -6 -12   20.81    1.36
   0   6 -12   19.46    1.28
   1  -6  12    3.04    0.50
  -1  -6 -12    2.39    0.66
  -1   6 -12    2.23    0.61
   2  -6  12    1.55    0.47
  -2  -6 -12    2.19    0.66
  -2   6 -12    1.39    0.61
  -7  -7  12    2.74    0.32
   7  -7 -12    2.78    1.04
  -7   7  12    2.32    0.45
  -6  -7  12    2.58    0.25
   6  -7 -12    2.84    1.03
  -6   7  12    2.71    0.42
   5  -7 -12    1.57    0.89
  -5   7  12    3.08    0.43
   4  -7 -12    6.32    0.86
   4  -7 -12    6.95    1.31
  -4   7  12    6.72    0.56
   3  -7 -12    2.20    0.87
   3  -7 -12    2.87    0.61
   3   7 -12    2.05    0.58
  -2  -7  12    0.32    0.21
   2  -7 -12    0.76    0.73
   2  -7 -12    0.04    0.49
   2   7 -12    1.42    0.51
   1  -7 -12    7.36    1.24
   1  -7 -12    7.69    0.97
  -1  -7  12    6.61    0.52
   1   7 -12    7.13    0.86
   0  -7 -12   20.98    1.39
   0  -7  12   18.76    0.87
   0   7 -12   20.65    1.24
  -1  -7 -12    5.91    0.85
   1  -7  12    6.82    0.66
  -1   7 -12    6.28    0.85
  -2  -7 -12    1.42    0.60
   2  -7  12    2.73    0.54
  -2   7 -12    1.87    0.64
   7  -8 -12    1.29    0.88
  -7  -8  12    1.12    0.27
  -7   8  12    1.23    0.41
   6  -8 -12   13.59    1.62
  -6  -8  12   13.75    0.51
  -6   8  12   12.72    0.77
   5  -8 -12    2.77    0.96
  -5   8  12    3.36    0.46
   4  -8 -12   14.53    1.59
   4  -8 -12   14.15    1.16
  -4   8  12   13.30    0.74
  -3  -8  12    0.43    0.16
   3  -8 -12   -0.18    0.40
   3  -8 -12    0.24    0.73
   3   8 -12   -0.19    0.45
  -2  -8  12    6.63    0.44
   2  -8 -12    5.61    0.84
   2  -8 -12    5.56    1.11
   2   8 -12    6.02    0.80
   1  -8 -12    9.01    1.05
  -1  -8  12    9.89    0.59
   1  -8 -12    7.48    1.27
   1   8 -12    9.68    1.00
   0  -8  12    7.30    0.63
   0  -8 -12    8.32    0.97
   0   8 -12    7.31    0.86
   1  -8  12   24.76    1.10
  -1  -8 -12   23.94    1.49
  -1   8 -12   24.73    1.40
  -2  -8 -12    0.79    0.54
   2  -8  12    0.46    0.39
  -2   8 -12    0.03    0.47
   7  -9 -12   12.23    1.76
  -7  -9  12    9.43    0.55
  -7   9  12    9.40    0.75
   6  -9 -12    3.11    1.00
  -6  -9  12    3.30    0.31
  -6   9  12    3.20    0.48
  -5  -9  12   15.39    0.50
   5  -9 -12   15.73    1.66
  -5   9  12   15.66    0.83
   4  -9 -12    1.96    0.88
  -4  -9  12    2.98    0.25
   4  -9 -12    2.31    0.65
  -4   9  12    3.83    0.50
   3  -9 -12    0.65    0.74
  -3  -9  12    0.58    0.18
   3  -9 -12    0.67    0.50
   3   9 -12    0.69    0.48
   2  -9 -12    2.22    0.87
  -2  -9  12    1.98    0.30
   2  -9 -12    2.17    0.63
   2   9 -12    2.19    0.62
   1  -9 -12   16.59    1.63
  -1  -9  12   14.77    0.71
   1  -9 -12   12.42    1.14
   1   9 -12   16.20    1.11
   0  -9 -12    0.96    0.60
   0  -9  12    1.74    0.41
   0  -9 -12    0.82    0.75
   0   9 -12    1.39    0.56
  -1  -9 -12   29.70    1.64
   1  -9  12   30.08    1.22
  -1   9 -12   30.97    1.54
   2  -9  12    1.86    0.48
  -2  -9 -12    1.35    0.62
  -2   9 -12    1.78    0.60
  -7 -10  12    5.05    0.44
   7 -10 -12    4.43    1.20
  -7  10  12    4.43    0.59
   6 -10 -12   10.57    1.59
  -6 -10  12   10.20    0.50
  -6  10  12   10.60    0.78
   5 -10 -12    2.34    0.91
  -5 -10  12    3.78    0.31
  -5  10  12    4.39    0.54
   4 -10 -12    1.51    0.82
  -4 -10  12    1.72    0.22
   4 -10 -12    1.78    0.66
  -4  10  12    1.84    0.42
   3 -10 -12    7.01    1.24
   3 -10 -12    5.32    0.84
  -3 -10  12    6.30    0.39
  -3  10  12    5.87    0.59
   2 -10 -12    3.38    0.74
  -2 -10  12    3.86    0.38
   2 -10 -12    1.88    0.93
   2  10 -12    3.05    0.66
   1 -10 -12    3.53    0.75
   1 -10 -12    4.40    1.02
  -1 -10  12    4.66    0.47
   1  10 -12    3.87    0.69
   0 -10 -12    1.85    0.60
   0 -10 -12    2.20    0.87
   0 -10  12    2.70    0.45
   0  10 -12    3.47    0.68
   1 -10  12    4.99    0.61
  -1 -10 -12    3.85    0.78
  -1  10 -12    4.70    0.76
   6 -11 -12    1.13    0.90
  -6 -11  12    0.24    0.22
  -6  11  12    0.18    0.37
   5 -11 -12   11.06    1.59
  -5 -11  12   11.29    0.50
  -5  11  12   11.75    0.82
   4 -11 -12   10.24    1.07
   4 -11 -12    8.99    1.41
  -4 -11  12   11.04    0.49
  -4  11  12   10.82    0.77
   3 -11 -12    6.14    0.85
  -3 -11  12    7.74    0.46
   3 -11 -12    6.14    1.22
  -3  11  12    6.96    0.66
   2 -11 -12    8.99    1.40
   2 -11 -12    8.71    0.97
  -2 -11  12    8.12    0.53
   2  11 -12    7.88    0.87
  -1 -11  12    0.51    0.29
   1 -11 -12    0.00    0.49
   1 -11 -12    0.36    0.69
   1  11 -12   -0.21    0.42
   0 -11  12   10.99    0.74
   0 -11 -12   11.45    1.17
   0 -11 -12   11.77    1.54
   0  11 -12   11.52    1.04
  -1 -11 -12    5.89    0.92
   1 -11  12    6.34    0.67
  -1  11 -12    7.56    0.88
   6 -12 -12    3.77    1.13
  -6 -12  12    3.59    0.38
  -6  12  12    3.26    0.54
   5 -12 -12   10.62    1.58
  -5 -12  12    8.49    0.49
  -5  12  12    8.85    0.77
  -4 -12  12    5.21    0.41
   4 -12 -12    4.31    1.17
   4 -12 -12    5.89    0.91
  -4  12  12    4.68    0.61
   3 -12 -12   16.04    1.69
   3 -12 -12   17.01    1.24
  -3 -12  12   16.51    0.66
  -3  12  12   15.98    0.94
   2 -12 -12    5.00    0.86
  -2 -12  12    4.71    0.45
   2 -12 -12    2.76    0.95
   2  12 -12    4.08    0.70
   1 -12 -12    6.07    0.91
  -1 -12  12    6.98    0.61
   1 -12 -12    5.76    1.14
   1  12 -12    6.76    0.85
   0 -12  12    7.01    0.66
   0 -12 -12    7.39    1.29
   0 -12 -12    5.61    0.92
   0  12 -12    7.82    0.89
   1 -12  12    6.25    0.70
  -1 -12 -12    7.83    1.02
  -1  12 -12    7.52    0.91
  -6 -13  12    7.11    0.53
   6 -13 -12    8.46    1.54
  -6  13  12    6.92    0.73
   5 -13 -12    1.48    0.89
  -5 -13  12    1.79    0.31
  -5  13  12    1.57    0.48
   4 -13 -12    1.48    0.82
  -4 -13  12    1.61    0.29
   4 -13 -12    1.70    0.63
  -4  13  12    1.02    0.45
   3 -13 -12    4.50    1.10
   3 -13 -12    5.10    0.84
  -3 -13  12    3.93    0.41
  -3  13  12    4.14    0.60
  -2 -13  12    1.80    0.36
   2 -13 -12    3.25    0.76
   2 -13 -12    1.62    0.86
  -2  13  12    2.70    0.54
   2  13 -12    2.33    0.58
   1 -13 -12    9.57    1.11
   1 -13 -12    8.09    1.39
  -1 -13  12    8.57    0.66
   1  13 -12    9.19    0.93
   0 -13  12   12.92    0.84
   0 -13 -12   12.39    1.51
   0 -13 -12   12.06    1.26
   0  13 -12   13.82    1.05
   5 -14 -12    3.90    1.12
  -5 -14  12    4.57    0.45
  -5  14  12    4.07    0.62
   4 -14 -12    6.00    0.89
   4 -14 -12    6.65    1.37
  -4 -14  12    6.26    0.51
  -4  14  12    7.90    0.78
  -3 -14  12    1.19    0.29
   3 -14 -12    1.37    0.62
   3 -14 -12    0.94    0.84
  -3  14  12    0.82    0.44
   2 -14 -12    6.17    1.23
  -2 -14  12    6.64    0.57
   2 -14 -12    7.87    1.02
  -2  14  12    7.07    0.77
  -1 -14  12   10.40    0.73
   1 -14 -12    8.54    1.40
   1 -14 -12   10.69    1.15
   1  14 -12   10.91    1.00
   0 -14 -12   17.94    1.71
   0 -14  12   15.39    0.91
   0 -14 -12   15.35    1.28
   0  14 -12   14.60    1.11
  -4 -15  12    8.23    0.57
   4 -15 -12    8.86    1.56
   4 -15 -12    8.32    1.02
  -4  15  12    8.92    0.83
  -3 -15  12    3.71    0.44
   3 -15 -12    2.44    0.98
   3 -15 -12    4.40    0.82
  -3  15  12    3.87    0.63
   2 -15 -12   -0.29    0.50
   2 -15 -12   -0.27    0.69
  -2 -15  12    0.61    0.30
  -2  15  12   -0.12    0.41
   1 -15 -12   44.06    1.95
  -1 -15  12   44.75    1.45
   1 -15 -12   44.78    2.54
   1  15 -12   40.64    2.15
  -1  15  12   43.77    1.68
   3 -16 -12    5.87    1.33
  -3 -16  12    6.17    0.55
   3 -16 -12    4.42    0.81
  -7   0  13    3.96    0.40
  -6   0  13   24.46    0.74
   4   0 -13    2.03    0.67
  -3   0  13   -0.22    0.19
   3   0 -13    0.49    0.51
   2   0 -13   20.06    1.34
  -2   0  13   22.19    0.82
   1   0 -13   52.01    2.10
  -1   0  13   49.30    1.46
   0   0 -13   26.00    1.53
   0   0  13   26.43    1.10
   1   0  13   17.48    1.01
  -1   0 -13   19.12    1.37
  -7  -1  13    5.76    0.45
  -7   1  13    5.25    0.45
  -6  -1  13    8.54    0.41
  -6   1  13    7.25    0.46
  -5   1  13   23.71    0.72
   4  -1 -13   -0.14    0.50
  -4  -1  13    0.04    0.15
   4   1 -13   -0.72    0.49
  -3  -1  13    1.05    0.23
   3  -1 -13    1.04    0.54
   3   1 -13    0.44    0.55
   2  -1 -13   14.30    1.16
  -2  -1  13   14.97    0.67
   2   1 -13   15.13    1.22
  -2   1  13   16.07    0.72
   1  -1 -13   52.92    2.12
  -1  -1  13   49.48    1.45
   1   1 -13   51.37    2.10
  -1   1  13   49.55    1.48
   0  -1 -13   13.19    1.19
   0  -1  13   12.07    0.80
   0   1 -13   15.69    1.25
   0   1  13   13.11    0.83
  -1  -1 -13    5.79    0.90
   1  -1  13    5.86    0.67
  -1   1 -13    7.89    1.03
   1   1  13    5.86    0.68
  -7  -2  13    3.60    0.35
   7  -2 -13    3.58    1.14
  -7   2  13    3.30    0.41
   6  -2 -13    3.31    1.09
  -6   2  13    4.22    0.39
  -5   2  13   16.35    0.62
   4  -2 -13    0.79    0.58
   4   2 -13    0.91    0.59
   3  -2 -13   13.99    1.30
  -3  -2  13   15.50    0.55
   3   2 -13   13.14    1.22
  -2  -2  13    0.83    0.28
   2  -2 -13    0.80    0.58
  -2   2  13    1.50    0.34
   2   2 -13    2.13    0.63
  -1  -2  13   21.07    0.87
   1  -2 -13   21.26    1.39
   1   2 -13   23.92    1.43
  -1   2  13   19.77    0.92
   0  -2 -13    4.56    0.85
   0  -2  13    5.32    0.59
   0   2  13    4.83    0.60
   0   2 -13    5.38    0.87
  -1  -2 -13    4.84    0.83
   1  -2  13    6.00    0.67
   1   2  13    5.21    0.67
  -1   2 -13    5.49    0.90
   7  -3 -13    1.50    0.87
  -7  -3  13    1.46    0.28
  -7   3  13    1.45    0.35
   6  -3 -13   11.90    1.63
  -6   3  13   10.62    0.59
   5  -3 -13    7.34    1.36
  -5   3  13    6.65    0.48
   4  -3 -13    8.10    1.02
   4   3 -13    7.52    1.01
  -3  -3  13   22.07    0.67
   3  -3 -13   23.54    1.44
   3   3 -13   22.61    1.40
   2  -3 -13   11.19    1.17
  -2  -3  13    8.18    0.51
   2   3 -13    7.53    0.93
   1  -3 -13    7.36    0.99
  -1  -3  13    7.05    0.59
   1   3 -13    7.53    0.92
  -1   3  13    6.96    0.62
   0  -3  13    4.43    0.53
   0  -3 -13    4.17    0.79
   0   3  13    3.60    0.54
   0   3 -13    3.75    0.76
   1  -3  13   18.45    1.01
  -1  -3 -13   18.97    1.40
   1   3  13   18.40    1.05
  -1   3 -13   18.43    1.38
   7  -4 -13    7.29    1.45
  -7  -4  13    6.27    0.42
  -7   4  13    7.18    0.59
   6  -4 -13    0.54    0.78
  -6   4  13    0.14    0.25
   5  -4 -13   15.73    1.70
  -5   4  13   13.46    0.65
   4  -4 -13    5.12    1.16
   4  -4 -13    4.30    0.76
   4   4 -13    5.18    0.83
  -3  -4  13   37.34    0.92
   3  -4 -13   36.61    1.76
   3   4 -13   37.28    1.76
   2  -4 -13    7.04    0.96
  -2  -4  13    7.29    0.48
   2   4 -13    9.37    1.04
  -1  -4  13    6.70    0.56
   1  -4 -13    5.38    0.87
   1   4 -13    7.12    0.96
   0  -4  13    5.82    0.59
   0  -4 -13    4.89    0.87
   0   4 -13    6.13    0.92
   0   4  13    4.76    0.61
  -1  -4 -13   18.53    1.39
   1  -4  13   18.12    1.01
   1   4  13   19.61    1.08
  -1   4 -13   17.36    1.34
  -7  -5  13    0.02    0.24
   7  -5 -13    0.21    0.69
  -7   5  13    0.19    0.32
   6  -5 -13    6.19    1.24
  -6   5  13    8.04    0.60
   5  -5 -13    2.01    0.69
   5  -5 -13    1.67    0.82
  -5   5  13    2.69    0.38
   4  -5 -13   10.45    1.55
   4  -5 -13   12.00    1.23
   4   5 -13    8.50    1.00
   3  -5 -13    8.74    1.02
   3  -5 -13    5.97    1.20
  -3  -5  13    6.55    0.37
   3   5 -13    5.67    0.84
  -2  -5  13   14.88    0.64
   2  -5 -13   16.67    1.28
   2   5 -13   15.99    1.19
  -1  -5  13    5.93    0.53
   1  -5 -13    4.22    0.77
   1   5 -13    7.12    0.96
   0  -5 -13    5.71    0.94
   0  -5  13    5.28    0.57
   0   5 -13    4.41    0.81
   1  -5  13    6.15    0.68
  -1  -5 -13    4.50    0.84
  -1   5 -13    6.19    0.90
   6  -6 -13    6.93    1.39
  -6   6  13    7.59    0.61
   5  -6 -13    1.66    0.90
   5  -6 -13    2.87    0.78
  -5   6  13    2.46    0.40
   4  -6 -13    1.97    0.68
   4  -6 -13    1.11    0.78
  -4   6  13    2.66    0.39
   3  -6 -13    1.22    0.87
  -3  -6  13    1.43    0.22
   3  -6 -13    1.44    0.60
   3   6 -13    0.68    0.54
  -2  -6  13    8.82    0.51
   2  -6 -13    9.09    1.03
   2   6 -13    9.78    1.06
   1  -6 -13   14.28    1.21
  -1  -6  13   13.75    0.72
   1   6 -13   13.72    1.14
   0  -6  13    5.70    0.58
   0  -6 -13    4.51    0.89
   0   6 -13    6.37    0.87
   6  -7 -13    0.12    0.79
  -6   7  13    0.50    0.33
   5  -7 -13   17.76    1.83
   5  -7 -13   17.88    1.37
  -5   7  13   18.15    0.86
   4  -7 -13    4.57    1.16
   4  -7 -13    3.48    0.74
  -4   7  13    4.34    0.49
   3  -7 -13    7.93    1.35
  -3  -7  13    7.08    0.40
   3  -7 -13    7.71    1.00
   3   7 -13    8.18    0.98
  -2  -7  13    9.15    0.53
   2  -7 -13    8.82    1.02
   2  -7 -13    7.80    1.32
   2   7 -13    8.55    1.00
  -1  -7  13   19.77    0.84
   1  -7 -13   18.66    1.36
   1   7 -13   19.19    1.30
   0  -7 -13   16.66    1.33
   0  -7  13   15.64    0.84
   0   7 -13   14.85    1.22
   6  -8 -13    3.39    1.16
  -6   8  13    3.18    0.49
   5  -8 -13    5.64    1.31
   5  -8 -13    6.21    0.96
  -5   8  13    6.78    0.61
   4  -8 -13   -0.45    0.74
   4  -8 -13   -0.47    0.44
  -4   8  13    0.50    0.33
   3  -8 -13    4.68    0.83
  -3  -8  13    4.33    0.34
   3  -8 -13    2.98    0.94
   3   8 -13    3.55    0.72
  -2  -8  13   14.28    0.65
   2  -8 -13   15.24    1.25
   2  -8 -13   16.20    1.69
   2   8 -13   14.48    1.19
  -1  -8  13   10.43    0.66
   1  -8 -13    8.82    1.03
   1   8 -13    9.45    1.00
   0  -8 -13   10.78    1.21
   0  -8  13   10.10    0.74
   0   8 -13   10.77    1.12
   6  -9 -13    8.70    1.56
  -6   9  13    7.54    0.68
   5  -9 -13   20.87    1.97
   5  -9 -13   19.94    1.44
  -5   9  13   21.99    0.98
   4  -9 -13    7.32    1.40
   4  -9 -13    5.80    0.92
  -4   9  13    5.35    0.58
  -3  -9  13    3.26    0.32
   3  -9 -13    3.19    0.77
   3  -9 -13    1.80    0.88
   3   9 -13    2.19    0.66
   2  -9 -13    8.90    1.11
  -2  -9  13    8.93    0.54
   2  -9 -13    5.47    1.22
   2   9 -13    7.74    0.93
  -1  -9  13    6.83    0.59
   1  -9 -13    6.12    0.93
   1  -9 -13    7.37    1.34
   1   9 -13    7.52    0.93
   0  -9  13    1.21    0.39
   0  -9 -13    1.57    0.64
   0   9 -13    1.02    0.53
   5 -10 -13    5.94    1.35
   5 -10 -13    7.27    1.02
  -5  10  13    6.06    0.63
   4 -10 -13    6.20    1.33
   4 -10 -13    6.21    0.98
  -4 -10  13    6.19    0.38
  -4  10  13    5.76    0.62
  -3 -10  13    4.95    0.40
   3 -10 -13    5.11    0.83
   3 -10 -13    5.50    1.22
  -3  10  13    5.95    0.63
   3  10 -13    5.20    0.84
   2 -10 -13    5.33    1.19
   2 -10 -13    4.88    0.87
  -2 -10  13    5.74    0.49
   2  10 -13    5.12    0.82
   1 -10 -13    3.44    1.03
  -1 -10  13    3.12    0.45
   1 -10 -13    3.73    0.78
   1  10 -13    2.88    0.67
  -5 -11  13    4.95    0.40
   5 -11 -13    3.68    1.09
   4 -11 -13    6.87    1.34
   4 -11 -13    7.86    1.00
  -4 -11  13    7.81    0.45
  -4  11  13    7.79    0.72
   3 -11 -13    5.75    0.91
  -3 -11  13    7.22    0.48
   3 -11 -13    7.17    1.41
  -3  11  13    7.72    0.73
   2 -11 -13    2.68    1.00
  -2 -11  13    4.07    0.44
   2 -11 -13    4.63    0.89
   2  11 -13    3.12    0.70
   1 -11 -13    7.93    1.00
  -1 -11  13    9.37    0.67
   1 -11 -13    8.36    1.37
   1  11 -13    9.19    0.99
   4 -12 -13    4.19    1.21
  -4 -12  13    5.62    0.42
   4 -12 -13    5.47    0.93
  -3 -12  13   12.19    0.61
   3 -12 -13   11.93    1.64
   3 -12 -13   11.12    1.16
  -3  12  13   13.12    0.91
   2 -12 -13    5.38    0.89
   2 -12 -13    5.97    1.27
  -2 -12  13    6.63    0.56
   2  12 -13    7.14    0.91
   4   0 -14   12.64    1.21
  -3   0  14   14.23    0.64
   3   0 -14   12.25    1.20
   2   0 -14    1.72    0.65
  -2   0  14    0.47    0.30
  -1   0  14   10.78    0.74
   1   0 -14   14.48    1.35
  -5   1  14    9.33    0.48
   4  -1 -14    8.95    1.06
   4   1 -14    7.85    1.04
   3  -1 -14   10.44    1.13
  -3  -1  14   14.02    0.62
   3   1 -14   15.62    1.33
   2  -1 -14    7.25    1.03
  -2  -1  14    6.83    0.56
   2   1 -14    8.84    1.09
  -2   1  14    6.94    0.60
  -1  -1  14    8.09    0.66
   1  -1 -14    6.90    1.02
   1   1 -14    8.31    1.09
  -1   1  14    7.69    0.66
  -5   2  14   26.83    0.86
   4  -2 -14    8.16    1.05
   4   2 -14   12.65    1.30
  -3  -2  14    4.82    0.40
   3  -2 -14    3.67    0.77
   3   2 -14    4.14    0.85
  -2  -2  14   14.46    0.70
   2  -2 -14   13.27    1.31
   2   2 -14   13.31    1.26
   1  -2 -14    6.25    0.94
  -1  -2  14    8.46    0.67
   1   2 -14    6.60    0.96
  -1   2  14    9.14    0.73
  -5   3  14   13.79    0.66
   4  -3 -14    3.92    0.86
   4   3 -14    3.61    0.78
   3  -3 -14    0.91    0.63
  -3  -3  14    0.75    0.24
   3   3 -14    1.07    0.63
   2  -3 -14    1.31    0.60
  -2  -3  14    1.66    0.33
   2   3 -14    2.16    0.65
   4  -4 -14    9.96    1.11
   4   4 -14   11.17    1.22
  -3  -4  14    0.38    0.21
   3  -4 -14    0.24    0.51
   3   4 -14    0.38    0.58
  -2  -4  14    8.15    0.56
   2  -4 -14    8.05    1.09
   2   4 -14    7.06    0.96
   4  -5 -14   15.77    1.33
   4   5 -14   14.58    1.37
   3  -5 -14    0.76    0.60
  -3  -5  14    1.33    0.24
   3   5 -14    0.00    0.53
   2  -5 -14   18.34    1.37
  -2  -5  14   17.69    0.75
   2   5 -14   16.38    1.31
   4  -6 -14    8.72    1.52
   4  -6 -14    7.38    1.01
  -3  -6  14    2.10    0.27
   3  -6 -14    0.59    0.59
   3   6 -14    1.84    0.67
   0   0   0    0.00    0.00
;
_shelx_hkl_checksum              29750
_olex2_date_sample_data_collection 2015-04-09
_olex2_date_sample_submission    2015-03-31
_olex2_submission_original_sample_id d290315_1_1
_olex2_submission_special_instructions 'No special instructions were received'
loop_
_space_group_symop_operation_xyz
'x, y, z'
'-x, y+1/2, -z'
loop_
_atom_site_label
_atom_site_type_symbol
_atom_site_fract_x
_atom_site_fract_y
_atom_site_fract_z
_atom_site_U_iso_or_equiv
_atom_site_adp_type
_atom_site_occupancy
_atom_site_site_symmetry_order
_atom_site_calc_flag
_atom_site_refinement_flags_posn
S1 S 0.66087(8) 0.69384(3) 0.42205(5) 0.01462(14) Uani 1 1 d .
S2 S 1.14213(8) 0.32683(3) 0.40282(5) 0.01505(14) Uani 1 1 d .
O1 O 0.3304(3) 0.53004(10) 0.3400(2) 0.0291(5) Uani 1 1 d .
O2 O 0.5405(3) 0.55295(10) 0.5105(2) 0.0313(5) Uani 1 1 d .
O3 O 0.2628(3) 0.62714(10) 0.57501(18) 0.0236(5) Uani 1 1 d .
O4 O 0.4194(3) 0.70561(11) 0.56352(18) 0.0272(5) Uani 1 1 d .
O5 O 0.7889(3) 0.49077(10) 0.3321(2) 0.0272(5) Uani 1 1 d .
O6 O 0.7526(3) 0.39491(9) 0.56181(17) 0.0206(4) Uani 1 1 d .
O7 O 0.8987(3) 0.31403(10) 0.54457(18) 0.0247(5) Uani 1 1 d .
O8 O 1.0281(3) 0.46925(11) 0.4780(2) 0.0305(5) Uani 1 1 d .
N1 N -0.1097(3) 0.57334(12) -0.1678(2) 0.0228(6) Uani 1 1 d .
C2 C 0.3619(3) 0.63121(13) 0.3981(2) 0.0147(5) Uani 1 1 d .
H2 H 0.2484 0.6304 0.3376 0.018 Uiso 1 1 calc R
N3 N 0.8571(3) 0.73704(12) 0.2905(2) 0.0193(5) Uani 1 1 d D
H3A H 0.918(4) 0.7519(14) 0.3610(19) 0.029 Uiso 1 1 d DR
H3B H 0.870(4) 0.7515(15) 0.223(2) 0.029 Uiso 1 1 d DR
N4 N 0.5975(3) 0.71565(12) -0.0470(2) 0.0215(5) Uani 1 1 d .
N5 N 0.3642(3) 0.44319(11) -0.1868(2) 0.0197(5) Uani 1 1 d .
N6 N 1.3313(3) 0.28024(12) 0.2691(2) 0.0206(5) Uani 1 1 d D
H6A H 1.346(4) 0.2640(15) 0.202(2) 0.031 Uiso 1 1 d DR
H6B H 1.383(4) 0.2636(14) 0.3392(19) 0.031 Uiso 1 1 d DR
C1 C -0.2551(4) 0.61003(15) -0.2111(3) 0.0291(7) Uani 1 1 d .
H1A H -0.2989 0.6182 -0.1400 0.044 Uiso 1 1 calc GR
H1B H -0.3383 0.5892 -0.2781 0.044 Uiso 1 1 calc GR
H1C H -0.2266 0.6476 -0.2444 0.044 Uiso 1 1 calc GR
C0AA C 0.0268(3) 0.59549(13) -0.0763(2) 0.0163(6) Uani 1 1 d .
C3 C 0.1789(4) 0.56633(13) -0.0455(2) 0.0176(6) Uani 1 1 d .
H3 H 0.1890 0.5303 -0.0873 0.021 Uiso 1 1 calc R
C4 C 0.3151(3) 0.58923(13) 0.0452(2) 0.0159(5) Uani 1 1 d .
H4 H 0.4170 0.5687 0.0638 0.019 Uiso 1 1 calc R
C5 C 0.3050(3) 0.64211(12) 0.1099(2) 0.0134(5) Uani 1 1 d .
C6 C 0.4500(3) 0.66569(12) 0.2084(2) 0.0132(5) Uani 1 1 d .
C7 C 0.4725(3) 0.66304(12) 0.3353(2) 0.0131(5) Uani 1 1 d .
C8 C 0.4221(3) 0.56671(13) 0.4258(2) 0.0164(6) Uani 1 1 d .
C9 C 0.3769(5) 0.46697(15) 0.3497(3) 0.0333(8) Uani 1 1 d .
H9A H 0.3002 0.4438 0.3836 0.040 Uiso 1 1 calc R
H9B H 0.4894 0.4621 0.4081 0.040 Uiso 1 1 calc R
C10 C 0.3702(5) 0.44521(17) 0.2218(3) 0.0368(8) Uani 1 1 d .
H10A H 0.2605 0.4525 0.1634 0.055 Uiso 1 1 calc GR
H10B H 0.3935 0.4025 0.2256 0.055 Uiso 1 1 calc GR
H10C H 0.4523 0.4663 0.1917 0.055 Uiso 1 1 calc GR
C11 C 0.3536(3) 0.65968(13) 0.5212(2) 0.0149(6) Uani 1 1 d .
C12 C 0.2478(4) 0.64845(15) 0.6964(3) 0.0235(7) Uani 1 1 d .
H12A H 0.3519 0.6677 0.7450 0.028 Uiso 1 1 calc R
H12B H 0.2277 0.6143 0.7465 0.028 Uiso 1 1 calc R
C13 C 0.1097(4) 0.69196(18) 0.6760(3) 0.0337(8) Uani 1 1 d .
H13A H 0.1356 0.7277 0.6348 0.051 Uiso 1 1 calc GR
H13B H 0.0947 0.7027 0.7578 0.051 Uiso 1 1 calc GR
H13C H 0.0084 0.6740 0.6218 0.051 Uiso 1 1 calc GR
C14 C 0.7115(3) 0.71118(12) 0.2856(2) 0.0153(6) Uani 1 1 d .
C15 C 0.5866(3) 0.69388(13) 0.1789(2) 0.0144(5) Uani 1 1 d .
C16 C -0.0884(4) 0.52587(15) -0.2501(3) 0.0261(7) Uani 1 1 d .
H16A H -0.0076 0.5379 -0.2928 0.039 Uiso 1 1 calc GR
H16B H -0.1938 0.5175 -0.3136 0.039 Uiso 1 1 calc GR
H16C H -0.0495 0.4901 -0.1996 0.039 Uiso 1 1 calc GR
C17 C 0.0170(4) 0.64858(14) -0.0108(2) 0.0191(6) Uani 1 1 d .
H17 H -0.0843 0.6694 -0.0293 0.023 Uiso 1 1 calc R
C18 C 0.1535(3) 0.67051(13) 0.0799(2) 0.0172(6) Uani 1 1 d .
H18 H 0.1433 0.7061 0.1232 0.021 Uiso 1 1 calc R
C19 C 0.5914(3) 0.70528(12) 0.0537(2) 0.0152(5) Uani 1 1 d .
C20 C 0.2253(4) 0.40386(15) -0.2379(3) 0.0250(7) Uani 1 1 d .
H20A H 0.2619 0.3683 -0.2733 0.037 Uiso 1 1 calc GR
H20B H 0.1414 0.4245 -0.3049 0.037 Uiso 1 1 calc GR
H20C H 0.1787 0.3922 -0.1702 0.037 Uiso 1 1 calc GR
C21 C 0.5002(3) 0.42187(13) -0.0943(2) 0.0152(5) Uani 1 1 d .
C22 C 0.6511(3) 0.45259(13) -0.0599(2) 0.0170(6) Uani 1 1 d .
H22 H 0.6596 0.4894 -0.0998 0.020 Uiso 1 1 calc R
C23 C 0.7870(3) 0.43014(13) 0.0310(2) 0.0162(5) Uani 1 1 d .
H23 H 0.8876 0.4516 0.0516 0.019 Uiso 1 1 calc R
C24 C 0.7794(3) 0.37655(13) 0.0930(2) 0.0145(5) Uani 1 1 d .
C25 C 0.9271(3) 0.35297(12) 0.1904(2) 0.0139(5) Uani 1 1 d .
C26 C 0.9525(3) 0.35737(13) 0.3174(2) 0.0144(5) Uani 1 1 d .
C27 C 0.8442(3) 0.38962(13) 0.3814(2) 0.0145(5) Uani 1 1 d .
H27 H 0.7300 0.3896 0.3219 0.017 Uiso 1 1 calc R
C28 C 0.8996(4) 0.45466(14) 0.4055(2) 0.0178(6) Uani 1 1 d .
C29 C 0.8277(5) 0.55430(15) 0.3390(3) 0.0342(8) Uani 1 1 d .
H29A H 0.9072 0.5636 0.4223 0.041 Uiso 1 1 calc R
H29B H 0.7265 0.5777 0.3307 0.041 Uiso 1 1 calc R
C30 C 0.8997(4) 0.57088(17) 0.2347(3) 0.0330(8) Uani 1 1 d .
H30A H 1.0044 0.5500 0.2471 0.050 Uiso 1 1 calc GR
H30B H 0.9185 0.6139 0.2362 0.050 Uiso 1 1 calc GR
H30C H 0.8233 0.5595 0.1527 0.050 Uiso 1 1 calc GR
C31 C 0.5964(4) 0.32910(18) 0.6591(3) 0.0335(8) Uani 1 1 d .
H31A H 0.4941 0.3488 0.6117 0.050 Uiso 1 1 calc GR
H31B H 0.5865 0.3149 0.7404 0.050 Uiso 1 1 calc GR
H31C H 0.6174 0.2953 0.6100 0.050 Uiso 1 1 calc GR
C32 C 0.7357(4) 0.37220(15) 0.6821(3) 0.0222(6) Uani 1 1 d .
H32A H 0.7160 0.4058 0.7338 0.027 Uiso 1 1 calc R
H32B H 0.8390 0.3523 0.7303 0.027 Uiso 1 1 calc R
C33 C 0.8376(3) 0.36105(13) 0.5046(2) 0.0169(6) Uani 1 1 d .
C34 C 1.1878(3) 0.30710(12) 0.2653(2) 0.0141(5) Uani 1 1 d .
C35 C 1.0609(3) 0.32370(14) 0.1598(2) 0.0155(5) Uani 1 1 d .
C36 C 0.3884(4) 0.49007(14) -0.2709(3) 0.0236(6) Uani 1 1 d .
H36A H 0.4288 0.5260 -0.2214 0.035 Uiso 1 1 calc GR
H36B H 0.2837 0.4987 -0.3350 0.035 Uiso 1 1 calc GR
H36C H 0.4690 0.4769 -0.3130 0.035 Uiso 1 1 calc GR
C37 C 0.4931(3) 0.36773(13) -0.0312(2) 0.0176(6) Uani 1 1 d .
H37 H 0.3932 0.3459 -0.0514 0.021 Uiso 1 1 calc R
C38 C 0.6306(3) 0.34620(13) 0.0600(2) 0.0184(6) Uani 1 1 d .
H38 H 0.6228 0.3097 0.1010 0.022 Uiso 1 1 calc R
C39 C 1.0638(3) 0.31140(12) 0.0336(2) 0.0160(6) Uani 1 1 d .
N40 N 1.0697(3) 0.30093(12) -0.0663(2) 0.0204(5) Uani 1 1 d .
loop_
_atom_site_aniso_label
_atom_site_aniso_U_11
_atom_site_aniso_U_22
_atom_site_aniso_U_33
_atom_site_aniso_U_23
_atom_site_aniso_U_13
_atom_site_aniso_U_12
S1 0.0151(3) 0.0156(3) 0.0128(3) -0.0011(2) 0.0035(2) -0.0047(3)
S2 0.0162(3) 0.0152(3) 0.0127(3) 0.0009(2) 0.0026(2) 0.0036(3)
O1 0.0369(13) 0.0134(11) 0.0297(11) -0.0035(8) -0.0016(9) 0.0004(9)
O2 0.0331(13) 0.0240(12) 0.0291(11) 0.0050(9) -0.0029(10) 0.0021(10)
O3 0.0351(12) 0.0198(11) 0.0228(10) -0.0020(8) 0.0191(9) -0.0053(10)
O4 0.0305(11) 0.0310(14) 0.0238(9) -0.0122(9) 0.0141(9) -0.0150(10)
O5 0.0375(12) 0.0132(10) 0.0296(11) 0.0047(8) 0.0079(9) 0.0057(9)
O6 0.0295(11) 0.0175(11) 0.0191(9) 0.0016(8) 0.0137(8) 0.0053(9)
O7 0.0315(12) 0.0237(13) 0.0228(9) 0.0100(8) 0.0140(9) 0.0134(9)
O8 0.0316(13) 0.0208(12) 0.0325(11) -0.0013(9) -0.0008(10) -0.0037(10)
N1 0.0194(12) 0.0223(14) 0.0226(11) -0.0080(10) -0.0002(10) 0.0009(11)
C2 0.0146(12) 0.0161(14) 0.0138(11) -0.0005(10) 0.0049(10) -0.0034(11)
N3 0.0182(12) 0.0236(14) 0.0173(11) -0.0015(9) 0.0071(10) -0.0100(10)
N4 0.0220(12) 0.0249(14) 0.0196(11) -0.0017(9) 0.0090(10) -0.0036(10)
N5 0.0176(12) 0.0182(13) 0.0202(10) 0.0064(9) 0.0011(9) 0.0006(10)
N6 0.0208(12) 0.0235(14) 0.0174(11) 0.0037(10) 0.0056(10) 0.0078(10)
C1 0.0181(14) 0.0310(18) 0.0321(15) -0.0106(13) -0.0020(12) -0.0030(13)
C0AA 0.0179(13) 0.0177(14) 0.0128(11) -0.0030(10) 0.0040(10) -0.0050(11)
C3 0.0233(14) 0.0143(14) 0.0152(12) -0.0015(10) 0.0056(11) -0.0002(12)
C4 0.0174(13) 0.0157(14) 0.0142(11) 0.0015(10) 0.0039(10) 0.0009(11)
C5 0.0147(12) 0.0158(14) 0.0110(11) 0.0011(9) 0.0058(10) -0.0011(11)
C6 0.0155(12) 0.0083(13) 0.0154(11) 0.0004(9) 0.0041(10) 0.0004(10)
C7 0.0136(12) 0.0110(13) 0.0151(11) -0.0018(9) 0.0049(10) -0.0022(10)
C8 0.0188(13) 0.0147(14) 0.0181(12) 0.0004(10) 0.0094(11) -0.0046(11)
C9 0.046(2) 0.0122(15) 0.0405(17) 0.0012(12) 0.0110(15) 0.0012(14)
C10 0.043(2) 0.0238(19) 0.0432(18) -0.0035(15) 0.0115(16) -0.0005(15)
C11 0.0137(12) 0.0177(15) 0.0141(11) 0.0014(10) 0.0052(10) 0.0021(11)
C12 0.0345(17) 0.0233(17) 0.0175(12) 0.0020(11) 0.0151(12) 0.0025(14)
C13 0.0410(19) 0.032(2) 0.0351(16) 0.0046(15) 0.0218(15) 0.0105(17)
C14 0.0158(13) 0.0138(14) 0.0164(11) -0.0011(9) 0.0050(10) 0.0005(10)
C15 0.0163(12) 0.0136(13) 0.0143(10) 0.0002(10) 0.0062(9) -0.0015(11)
C16 0.0241(15) 0.0252(16) 0.0256(14) -0.0110(13) 0.0019(12) -0.0032(13)
C17 0.0163(13) 0.0201(15) 0.0207(13) -0.0023(11) 0.0054(11) 0.0023(11)
C18 0.0185(14) 0.0173(14) 0.0166(12) -0.0041(10) 0.0063(11) 0.0004(11)
C19 0.0143(12) 0.0125(13) 0.0193(12) -0.0016(9) 0.0057(10) -0.0029(10)
C20 0.0183(14) 0.0247(16) 0.0272(14) 0.0072(12) -0.0004(12) -0.0015(12)
C21 0.0178(13) 0.0142(14) 0.0143(11) 0.0003(9) 0.0058(10) 0.0027(11)
C22 0.0229(14) 0.0130(14) 0.0159(11) 0.0027(10) 0.0068(11) 0.0011(11)
C23 0.0165(13) 0.0154(14) 0.0165(12) -0.0001(10) 0.0045(10) -0.0024(11)
C24 0.0167(13) 0.0152(14) 0.0112(10) -0.0001(9) 0.0037(10) 0.0053(11)
C25 0.0155(12) 0.0122(13) 0.0148(11) 0.0020(9) 0.0058(10) 0.0002(10)
C26 0.0140(12) 0.0134(13) 0.0144(11) 0.0031(10) 0.0020(10) 0.0046(10)
C27 0.0163(13) 0.0133(14) 0.0132(11) 0.0013(9) 0.0036(10) 0.0031(11)
C28 0.0225(14) 0.0194(15) 0.0129(11) -0.0008(10) 0.0074(11) 0.0017(12)
C29 0.054(2) 0.0127(16) 0.0368(17) 0.0037(12) 0.0156(16) 0.0056(14)
C30 0.0296(17) 0.0189(17) 0.054(2) 0.0030(15) 0.0185(15) -0.0020(13)
C31 0.0390(18) 0.034(2) 0.0350(16) -0.0071(15) 0.0219(14) -0.0096(17)
C32 0.0290(16) 0.0238(17) 0.0172(12) -0.0032(11) 0.0121(12) -0.0016(13)
C33 0.0165(13) 0.0176(15) 0.0155(11) -0.0017(10) 0.0028(10) 0.0026(11)
C34 0.0178(13) 0.0115(13) 0.0151(11) -0.0006(9) 0.0082(10) 0.0009(10)
C35 0.0164(12) 0.0147(14) 0.0163(11) 0.0023(10) 0.0062(10) 0.0012(11)
C36 0.0230(15) 0.0198(15) 0.0261(14) 0.0094(12) 0.0041(12) 0.0045(12)
C37 0.0158(12) 0.0184(15) 0.0183(12) 0.0018(10) 0.0049(11) -0.0010(11)
C38 0.0216(14) 0.0160(14) 0.0176(12) 0.0043(10) 0.0058(11) -0.0005(11)
C39 0.0142(12) 0.0144(14) 0.0200(12) 0.0033(10) 0.0058(10) 0.0027(10)
N40 0.0233(12) 0.0218(13) 0.0183(11) 0.0023(9) 0.0098(9) 0.0042(10)
loop_
_atom_type_symbol
_atom_type_description
_atom_type_scat_dispersion_real
_atom_type_scat_dispersion_imag
_atom_type_scat_source
C C 0.0033 0.0016 'International Tables Vol C Tables 4.2.6.8 and 6.1.1.4'
H H 0.0000 0.0000 'International Tables Vol C Tables 4.2.6.8 and 6.1.1.4'
N N 0.0061 0.0033 'International Tables Vol C Tables 4.2.6.8 and 6.1.1.4'
O O 0.0106 0.0060 'International Tables Vol C Tables 4.2.6.8 and 6.1.1.4'
S S 0.1246 0.1234 'International Tables Vol C Tables 4.2.6.8 and 6.1.1.4'
loop_
_geom_angle_atom_site_label_1
_geom_angle_atom_site_label_2
_geom_angle_atom_site_label_3
_geom_angle
C14 S1 C7 92.07(12)
C34 S2 C26 92.17(13)
C8 O1 C9 117.4(2)
C11 O3 C12 116.7(2)
C28 O5 C29 117.3(3)
C33 O6 C32 116.2(2)
C1 N1 C16 117.8(2)
C0AA N1 C1 119.1(3)
C0AA N1 C16 119.3(2)
C7 C2 H2 108.3
C7 C2 C8 108.8(2)
C7 C2 C11 114.3(2)
C8 C2 H2 108.3
C11 C2 H2 108.3
C11 C2 C8 108.6(2)
H3A N3 H3B 116(3)
C14 N3 H3A 120(2)
C14 N3 H3B 119(2)
C20 N5 C36 116.4(2)
C21 N5 C20 118.9(2)
C21 N5 C36 118.4(2)
H6A N6 H6B 115(3)
C34 N6 H6A 121(2)
C34 N6 H6B 117(2)
N1 C1 H1A 109.5
N1 C1 H1B 109.5
N1 C1 H1C 109.5
H1A C1 H1B 109.5
H1A C1 H1C 109.5
H1B C1 H1C 109.5
N1 C0AA C3 121.6(3)
N1 C0AA C17 120.9(3)
C3 C0AA C17 117.5(2)
C0AA C3 H3 119.4
C4 C3 C0AA 121.1(3)
C4 C3 H3 119.4
C3 C4 H4 119.4
C3 C4 C5 121.2(3)
C5 C4 H4 119.4
C4 C5 C6 121.0(2)
C18 C5 C4 117.4(2)
C18 C5 C6 121.6(2)
C7 C6 C5 125.1(3)
C7 C6 C15 111.9(2)
C15 C6 C5 122.9(2)
C2 C7 S1 122.18(18)
C6 C7 S1 112.0(2)
C6 C7 C2 125.4(2)
O1 C8 C2 110.7(2)
O2 C8 O1 125.6(3)
O2 C8 C2 123.6(3)
O1 C9 H9A 110.0
O1 C9 H9B 110.0
O1 C9 C10 108.4(3)
H9A C9 H9B 108.4
C10 C9 H9A 110.0
C10 C9 H9B 110.0
C9 C10 H10A 109.5
C9 C10 H10B 109.5
C9 C10 H10C 109.5
H10A C10 H10B 109.5
H10A C10 H10C 109.5
H10B C10 H10C 109.5
O3 C11 C2 110.7(2)
O4 C11 O3 124.5(2)
O4 C11 C2 124.7(3)
O3 C12 H12A 109.5
O3 C12 H12B 109.5
O3 C12 C13 110.7(2)
H12A C12 H12B 108.1
C13 C12 H12A 109.5
C13 C12 H12B 109.5
C12 C13 H13A 109.5
C12 C13 H13B 109.5
C12 C13 H13C 109.5
H13A C13 H13B 109.5
H13A C13 H13C 109.5
H13B C13 H13C 109.5
N3 C14 S1 121.49(19)
N3 C14 C15 128.0(2)
C15 C14 S1 110.5(2)
C14 C15 C6 113.5(2)
C14 C15 C19 122.7(2)
C19 C15 C6 123.8(2)
N1 C16 H16A 109.5
N1 C16 H16B 109.5
N1 C16 H16C 109.5
H16A C16 H16B 109.5
H16A C16 H16C 109.5
H16B C16 H16C 109.5
C0AA C17 H17 119.7
C18 C17 C0AA 120.6(3)
C18 C17 H17 119.7
C5 C18 H18 119.0
C17 C18 C5 122.1(3)
C17 C18 H18 119.0
N4 C19 C15 178.4(3)
N5 C20 H20A 109.5
N5 C20 H20B 109.5
N5 C20 H20C 109.5
H20A C20 H20B 109.5
H20A C20 H20C 109.5
H20B C20 H20C 109.5
N5 C21 C22 121.8(3)
N5 C21 C37 120.9(3)
C22 C21 C37 117.3(2)
C21 C22 H22 119.4
C23 C22 C21 121.1(3)
C23 C22 H22 119.4
C22 C23 H23 119.3
C22 C23 C24 121.3(3)
C24 C23 H23 119.3
C23 C24 C25 120.6(2)
C38 C24 C23 117.8(2)
C38 C24 C25 121.6(3)
C26 C25 C24 124.3(2)
C26 C25 C35 112.3(2)
C35 C25 C24 123.4(2)
C25 C26 S2 111.6(2)
C25 C26 C27 126.0(2)
C27 C26 S2 122.10(18)
C26 C27 H27 107.6
C26 C27 C28 110.0(2)
C26 C27 C33 114.0(2)
C28 C27 H27 107.6
C33 C27 H27 107.6
C33 C27 C28 109.8(2)
O5 C28 C27 110.6(2)
O8 C28 O5 125.9(3)
O8 C28 C27 123.5(3)
O5 C29 H29A 109.7
O5 C29 H29B 109.7
O5 C29 C30 109.8(3)
H29A C29 H29B 108.2
C30 C29 H29A 109.7
C30 C29 H29B 109.7
C29 C30 H30A 109.5
C29 C30 H30B 109.5
C29 C30 H30C 109.5
H30A C30 H30B 109.5
H30A C30 H30C 109.5
H30B C30 H30C 109.5
H31A C31 H31B 109.5
H31A C31 H31C 109.5
H31B C31 H31C 109.5
C32 C31 H31A 109.5
C32 C31 H31B 109.5
C32 C31 H31C 109.5
O6 C32 C31 110.9(2)
O6 C32 H32A 109.5
O6 C32 H32B 109.5
C31 C32 H32A 109.5
C31 C32 H32B 109.5
H32A C32 H32B 108.1
O6 C33 C27 110.5(2)
O7 C33 O6 124.5(3)
O7 C33 C27 125.0(3)
N6 C34 S2 121.41(19)
N6 C34 C35 128.3(2)
C35 C34 S2 110.2(2)
C34 C35 C25 113.7(2)
C34 C35 C39 122.2(3)
C39 C35 C25 124.1(2)
N5 C36 H36A 109.5
N5 C36 H36B 109.5
N5 C36 H36C 109.5
H36A C36 H36B 109.5
H36A C36 H36C 109.5
H36B C36 H36C 109.5
C21 C37 H37 119.7
C38 C37 C21 120.6(3)
C38 C37 H37 119.7
C24 C38 H38 119.1
C37 C38 C24 121.8(3)
C37 C38 H38 119.1
N40 C39 C35 178.4(3)
loop_
_geom_bond_atom_site_label_1
_geom_bond_atom_site_label_2
_geom_bond_distance
S1 C7 1.750(3)
S1 C14 1.729(3)
S2 C26 1.752(3)
S2 C34 1.733(3)
O1 C8 1.324(3)
O1 C9 1.469(4)
O2 C8 1.196(3)
O3 C11 1.326(4)
O3 C12 1.464(3)
O4 C11 1.202(4)
O5 C28 1.325(4)
O5 C29 1.464(4)
O6 C32 1.470(3)
O6 C33 1.331(3)
O7 C33 1.204(4)
O8 C28 1.195(4)
N1 C1 1.447(4)
N1 C0AA 1.388(3)
N1 C16 1.447(4)
C2 H2 1.0000
C2 C7 1.506(4)
C2 C8 1.540(4)
C2 C11 1.522(4)
N3 H3A 0.865(13)
N3 H3B 0.846(13)
N3 C14 1.356(4)
N4 C19 1.151(4)
N5 C20 1.452(4)
N5 C21 1.385(3)
N5 C36 1.460(4)
N6 H6A 0.864(13)
N6 H6B 0.856(13)
N6 C34 1.352(4)
C1 H1A 0.9800
C1 H1B 0.9800
C1 H1C 0.9800
C0AA C3 1.401(4)
C0AA C17 1.411(4)
C3 H3 0.9500
C3 C4 1.388(4)
C4 H4 0.9500
C4 C5 1.403(4)
C5 C6 1.482(3)
C5 C18 1.390(4)
C6 C7 1.357(3)
C6 C15 1.444(4)
C9 H9A 0.9900
C9 H9B 0.9900
C9 C10 1.480(5)
C10 H10A 0.9800
C10 H10B 0.9800
C10 H10C 0.9800
C12 H12A 0.9900
C12 H12B 0.9900
C12 C13 1.495(5)
C13 H13A 0.9800
C13 H13B 0.9800
C13 H13C 0.9800
C14 C15 1.390(3)
C15 C19 1.419(3)
C16 H16A 0.9800
C16 H16B 0.9800
C16 H16C 0.9800
C17 H17 0.9500
C17 C18 1.382(4)
C18 H18 0.9500
C20 H20A 0.9800
C20 H20B 0.9800
C20 H20C 0.9800
C21 C22 1.408(4)
C21 C37 1.413(4)
C22 H22 0.9500
C22 C23 1.385(4)
C23 H23 0.9500
C23 C24 1.398(4)
C24 C25 1.491(3)
C24 C38 1.390(4)
C25 C26 1.357(3)
C25 C35 1.440(4)
C26 C27 1.504(4)
C27 H27 1.0000
C27 C28 1.536(4)
C27 C33 1.520(4)
C29 H29A 0.9900
C29 H29B 0.9900
C29 C30 1.503(5)
C30 H30A 0.9800
C30 H30B 0.9800
C30 H30C 0.9800
C31 H31A 0.9800
C31 H31B 0.9800
C31 H31C 0.9800
C31 C32 1.494(5)
C32 H32A 0.9900
C32 H32B 0.9900
C34 C35 1.386(3)
C35 C39 1.428(4)
C36 H36A 0.9800
C36 H36B 0.9800
C36 H36C 0.9800
C37 H37 0.9500
C37 C38 1.387(4)
C38 H38 0.9500
C39 N40 1.143(3)
loop_
_geom_torsion_atom_site_label_1
_geom_torsion_atom_site_label_2
_geom_torsion_atom_site_label_3
_geom_torsion_atom_site_label_4
_geom_torsion
S1 C14 C15 C6 -0.7(3)
S1 C14 C15 C19 176.8(2)
S2 C26 C27 C28 83.6(3)
S2 C26 C27 C33 -40.1(3)
S2 C34 C35 C25 0.6(3)
S2 C34 C35 C39 -178.3(2)
N1 C0AA C3 C4 179.2(3)
N1 C0AA C17 C18 -179.8(3)
N3 C14 C15 C6 178.0(3)
N3 C14 C15 C19 -4.5(5)
N5 C21 C22 C23 -178.7(3)
N5 C21 C37 C38 179.0(3)
N6 C34 C35 C25 -178.4(3)
N6 C34 C35 C39 2.7(5)
C1 N1 C0AA C3 -169.6(3)
C1 N1 C0AA C17 10.3(4)
C0AA C3 C4 C5 0.5(4)
C0AA C17 C18 C5 0.6(4)
C3 C0AA C17 C18 0.1(4)
C3 C4 C5 C6 178.7(3)
C3 C4 C5 C18 0.2(4)
C4 C5 C6 C7 -104.9(3)
C4 C5 C6 C15 74.2(4)
C4 C5 C18 C17 -0.8(4)
C5 C6 C7 S1 178.5(2)
C5 C6 C7 C2 5.6(4)
C5 C6 C15 C14 -178.3(2)
C5 C6 C15 C19 4.2(4)
C6 C5 C18 C17 -179.3(3)
C7 S1 C14 N3 -178.5(2)
C7 S1 C14 C15 0.3(2)
C7 C2 C8 O1 -101.0(3)
C7 C2 C8 O2 75.8(3)
C7 C2 C11 O3 -175.9(2)
C7 C2 C11 O4 4.6(4)
C7 C6 C15 C14 0.9(4)
C7 C6 C15 C19 -176.6(3)
C8 O1 C9 C10 -134.7(3)
C8 C2 C7 S1 -82.5(3)
C8 C2 C7 C6 89.8(3)
C8 C2 C11 O3 -54.2(3)
C8 C2 C11 O4 126.3(3)
C9 O1 C8 O2 0.4(5)
C9 O1 C8 C2 177.2(3)
C11 O3 C12 C13 86.4(3)
C11 C2 C7 S1 39.2(3)
C11 C2 C7 C6 -148.6(3)
C11 C2 C8 O1 134.0(2)
C11 C2 C8 O2 -49.2(4)
C12 O3 C11 O4 -2.1(4)
C12 O3 C11 C2 178.4(2)
C14 S1 C7 C2 173.4(2)
C14 S1 C7 C6 0.2(2)
C15 C6 C7 S1 -0.7(3)
C15 C6 C7 C2 -173.6(3)
C16 N1 C0AA C3 -11.9(4)
C16 N1 C0AA C17 167.9(3)
C17 C0AA C3 C4 -0.6(4)
C18 C5 C6 C7 73.6(4)
C18 C5 C6 C15 -107.3(3)
C20 N5 C21 C22 166.3(3)
C20 N5 C21 C37 -13.1(4)
C21 C22 C23 C24 -0.7(4)
C21 C37 C38 C24 0.1(4)
C22 C21 C37 C38 -0.4(4)
C22 C23 C24 C25 179.9(3)
C22 C23 C24 C38 0.4(4)
C23 C24 C25 C26 101.4(3)
C23 C24 C25 C35 -77.5(4)
C23 C24 C38 C37 0.0(4)
C24 C25 C26 S2 -178.1(2)
C24 C25 C26 C27 -4.2(5)
C24 C25 C35 C34 178.0(3)
C24 C25 C35 C39 -3.2(5)
C25 C24 C38 C37 -179.6(3)
C25 C26 C27 C28 -89.6(3)
C25 C26 C27 C33 146.6(3)
C26 S2 C34 N6 179.0(2)
C26 S2 C34 C35 -0.1(2)
C26 C25 C35 C34 -1.0(4)
C26 C25 C35 C39 177.9(3)
C26 C27 C28 O5 110.8(3)
C26 C27 C28 O8 -66.9(3)
C26 C27 C33 O6 174.1(2)
C26 C27 C33 O7 -6.8(4)
C28 O5 C29 C30 96.1(3)
C28 C27 C33 O6 50.2(3)
C28 C27 C33 O7 -130.6(3)
C29 O5 C28 O8 0.7(4)
C29 O5 C28 C27 -176.9(2)
C32 O6 C33 O7 0.5(4)
C32 O6 C33 C27 179.6(2)
C33 O6 C32 C31 -83.5(3)
C33 C27 C28 O5 -123.1(2)
C33 C27 C28 O8 59.3(4)
C34 S2 C26 C25 -0.5(2)
C34 S2 C26 C27 -174.6(2)
C35 C25 C26 S2 0.9(3)
C35 C25 C26 C27 174.7(3)
C36 N5 C21 C22 15.0(4)
C36 N5 C21 C37 -164.3(3)
C37 C21 C22 C23 0.7(4)
C38 C24 C25 C26 -79.1(4)
C38 C24 C25 C35 102.0(3)
loop_
_twin_individual_id
_twin_individual_mass_fraction_refined
1 0.41(7)
2 0.59(7)
