#------------------------------------------------------------------------------
#$Date: 2016-11-06 04:00:53 +0200 (Sun, 06 Nov 2016) $
#$Revision: 187953 $
#$URL: file:///home/coder/svn-repositories/cod/cif/1/54/36/1543679.cif $
#------------------------------------------------------------------------------
#
# This file is available in the Crystallography Open Database (COD),
# http://www.crystallography.net/
#
# All data on this site have been placed in the public domain by the
# contributors.
#
data_1543679
loop_
_publ_author_name
'Dalvi, Prashant B.'
'Lin, Kuang-Ling'
'Kulkarni, Manohar V.'
'Sun, Chung-Ming'
_publ_section_title
;
 Rhodium-Catalyzed Regioselective Synthesis of Isocoumarins through
 Benzothiadiazine-Fused Frameworks.
;
_journal_issue                   15
_journal_name_full               'Organic letters'
_journal_page_first              3706
_journal_page_last               3709
_journal_paper_doi               10.1021/acs.orglett.6b01408
_journal_volume                  18
_journal_year                    2016
_chemical_formula_sum            'C32 H25 N3 O5 S'
_chemical_formula_weight         563.61
_space_group_crystal_system      triclinic
_space_group_IT_number           2
_space_group_name_Hall           '-P 1'
_space_group_name_H-M_alt        'P -1'
_symmetry_space_group_name_Hall  '-P 1'
_symmetry_space_group_name_H-M   'P -1'
_atom_sites_solution_hydrogens   geom
_audit_creation_method           SHELXL-2014/6
_cell_angle_alpha                91.474(2)
_cell_angle_beta                 97.590(2)
_cell_angle_gamma                115.976(2)
_cell_formula_units_Z            2
_cell_length_a                   10.3849(4)
_cell_length_b                   11.4904(5)
_cell_length_c                   12.6969(5)
_cell_measurement_reflns_used    4727
_cell_measurement_temperature    296(2)
_cell_measurement_theta_max      24.1192
_cell_measurement_theta_min      2.2098
_cell_volume                     1344.14(10)
_computing_cell_refinement       'SAINT V8.34A (Bruker AXS Inc., 2013)'
_computing_data_collection       'APEX2 (Bruker AXS, 2010)'
_computing_data_reduction        'SAINT V8.34A (Bruker AXS Inc., 2013)'
_computing_molecular_graphics    'SHELXTL (Sheldrick, 2008)'
_computing_publication_material  SHELXTL
_computing_structure_refinement  'SHELXL-2014/6 (Sheldrick, 2014)'
_diffrn_ambient_temperature      296(2)
_diffrn_detector_area_resol_mean 8.3333
_diffrn_measured_fraction_theta_full 0.999
_diffrn_measured_fraction_theta_max 0.995
_diffrn_measurement_device_type  'Bruker APEX-II CCD'
_diffrn_measurement_method       '\f and \w scans'
_diffrn_radiation_type           MoK\a
_diffrn_radiation_wavelength     0.71073
_diffrn_reflns_av_R_equivalents  0.0327
_diffrn_reflns_av_unetI/netI     0.0337
_diffrn_reflns_Laue_measured_fraction_full 0.999
_diffrn_reflns_Laue_measured_fraction_max 0.995
_diffrn_reflns_limit_h_max       11
_diffrn_reflns_limit_h_min       -12
_diffrn_reflns_limit_k_max       14
_diffrn_reflns_limit_k_min       -14
_diffrn_reflns_limit_l_max       15
_diffrn_reflns_limit_l_min       -15
_diffrn_reflns_number            20937
_diffrn_reflns_point_group_measured_fraction_full 0.999
_diffrn_reflns_point_group_measured_fraction_max 0.995
_diffrn_reflns_theta_full        25.242
_diffrn_reflns_theta_max         26.403
_diffrn_reflns_theta_min         1.625
_exptl_absorpt_coefficient_mu    0.169
_exptl_absorpt_correction_T_max  0.9485
_exptl_absorpt_correction_T_min  0.9025
_exptl_absorpt_correction_type   multi-scan
_exptl_absorpt_process_details   'SADABS V2014/4 (Bruker AXS Inc.)'
_exptl_crystal_colour            Colorless
_exptl_crystal_density_diffrn    1.393
_exptl_crystal_density_meas      ?
_exptl_crystal_density_method    'not measured'
_exptl_crystal_description       Lump
_exptl_crystal_F_000             588
_exptl_crystal_size_max          0.17
_exptl_crystal_size_mid          0.11
_exptl_crystal_size_min          0.08
_refine_diff_density_max         0.272
_refine_diff_density_min         -0.399
_refine_diff_density_rms         0.044
_refine_ls_extinction_method     none
_refine_ls_goodness_of_fit_ref   1.044
_refine_ls_hydrogen_treatment    constr
_refine_ls_matrix_type           full
_refine_ls_number_parameters     371
_refine_ls_number_reflns         5483
_refine_ls_number_restraints     0
_refine_ls_restrained_S_all      1.044
_refine_ls_R_factor_all          0.0601
_refine_ls_R_factor_gt           0.0417
_refine_ls_shift/su_max          0.001
_refine_ls_shift/su_mean         0.000
_refine_ls_structure_factor_coef Fsqd
_refine_ls_weighting_details
'w=1/[\s^2^(Fo^2^)+(0.0526P)^2^+0.2159P] where P=(Fo^2^+2Fc^2^)/3'
_refine_ls_weighting_scheme      calc
_refine_ls_wR_factor_gt          0.1018
_refine_ls_wR_factor_ref         0.1134
_reflns_Friedel_coverage         0.000
_reflns_number_gt                4063
_reflns_number_total             5483
_reflns_threshold_expression     'I > 2\s(I)'
_cod_data_source_file            ol6b01408_si_006.cif
_cod_data_source_block           151022_0m
_cod_depositor_comments
;
The following automatic conversions were performed:

'_exptl_crystal_density_meas' value 'not measured' was changed to '?'
- the value is perceived as not measured.

Automatic conversion script
Id: cif_fix_values 4268 2015-11-12 08:31:59Z antanas 

 Adding full bibliography for 1543677--1543680.cif.
;
_cod_database_code               1543679
_shelx_space_group_comment
;
The symmetry employed for this shelxl refinement is uniquely defined
by the following loop, which should always be used as a source of
symmetry information in preference to the above space-group names.
They are only intended as comments.
;
_shelxl_version_number           2014/6
_shelx_res_file
;
TITL 151022_0m in P-1
CELL 0.71073 10.3849 11.4904 12.6969 91.474 97.590 115.976
ZERR 2.00 0.0004 0.0005 0.0005 0.002 0.002 0.002
LATT 1
SFAC C H N O S
UNIT 64 50 6 10 2
TEMP 23.000
ACTA
L.S. 4
FMAP 2
PLAN 5
BOND $H
WGHT    0.052600    0.215900
FVAR       0.48611
S1    5    0.578799    0.842677    1.033987    11.00000    0.05934    0.04731 =
         0.04461   -0.00101    0.00940    0.03243
O1    4    1.029028    0.623946    0.859250    11.00000    0.06283    0.05183 =
         0.04834   -0.00113    0.01341    0.02498
O2    4    0.305601    0.365854    0.608908    11.00000    0.04036    0.05808 =
         0.04276   -0.00975   -0.00423    0.02755
O3    4    0.216772    0.477977    0.690178    11.00000    0.04744    0.09076 =
         0.06205   -0.01609   -0.00782    0.04565
O4    4    0.425368    0.785187    1.027758    11.00000    0.05462    0.08585 =
         0.08067   -0.02384   -0.00032    0.04612
O5    4    0.641713    0.932658    0.959345    11.00000    0.12763    0.05823 =
         0.04911    0.01431    0.02344    0.04822
N1    3    0.792402    0.650291    1.014307    11.00000    0.03654    0.04290 =
         0.03441   -0.00578    0.00098    0.02133
N2    3    0.839329    0.806594    1.155940    11.00000    0.04837    0.04901 =
         0.03773   -0.00897    0.00133    0.02291
N3    3    0.624576    0.720923    1.021188    11.00000    0.03987    0.04209 =
         0.03876   -0.00554    0.00507    0.02260
C1    1    1.036049    0.630409    0.749539    11.00000    0.07736    0.06624 =
         0.05368   -0.00005    0.02349    0.03255
AFIX 137
H1    2    0.974705    0.667237    0.718137    11.00000   -1.50000
H19   2    1.003948    0.544497    0.715777    11.00000   -1.50000
H20   2    1.134285    0.683905    0.739828    11.00000   -1.50000
AFIX   0
C2    1    1.065391    0.746046    0.913771    11.00000    0.04781    0.04810 =
         0.05678   -0.00328    0.01118    0.01713
AFIX  23
H21   2    0.997507    0.778759    0.885280    11.00000   -1.20000
H22   2    1.162138    0.808262    0.904478    11.00000   -1.20000
AFIX   0
C3    1    1.059242    0.728465    1.029891    11.00000    0.03985    0.06260 =
         0.04595   -0.00828   -0.00062    0.02426
AFIX  23
H18   2    1.077408    0.810402    1.066887    11.00000   -1.20000
H17   2    1.136225    0.706651    1.059012    11.00000   -1.20000
AFIX   0
C4    1    0.915951    0.624080    1.052004    11.00000    0.04491    0.05280 =
         0.03536    0.00008   -0.00012    0.02892
AFIX  23
H23   2    0.899409    0.541301    1.017580    11.00000   -1.20000
H24   2    0.921806    0.616826    1.128251    11.00000   -1.20000
AFIX   0
C5    1    0.685572    0.588724    0.925920    11.00000    0.03281    0.03613 =
         0.03336    0.00184    0.00426    0.01565
C6    1    0.676069    0.503606    0.843872    11.00000    0.03362    0.03814 =
         0.03511    0.00114    0.00598    0.01974
AFIX  43
H16   2    0.748745    0.477474    0.841454    11.00000   -1.20000
AFIX   0
C7    1    0.553508    0.457081    0.763669    11.00000    0.03354    0.03535 =
         0.03244    0.00308    0.00615    0.01542
C8    1    0.538146    0.374505    0.668603    11.00000    0.03617    0.03551 =
         0.03166    0.00232    0.00509    0.01636
C9    1    0.415610    0.332235    0.595909    11.00000    0.03949    0.04164 =
         0.03672    0.00282    0.00465    0.02100
C10   1    0.376515    0.251236    0.493851    11.00000    0.03976    0.03938 =
         0.03593    0.00004    0.00335    0.01560
C11   1    0.414870    0.150818    0.481067    11.00000    0.04819    0.04346 =
         0.04849   -0.00182   -0.00096    0.01986
AFIX  43
H10   2    0.466798    0.133009    0.538500    11.00000   -1.20000
AFIX   0
C12   1    0.377337    0.077195    0.384838    11.00000    0.05778    0.04900 =
         0.06254   -0.01286    0.00337    0.02386
AFIX  43
H9    2    0.403034    0.009659    0.378037    11.00000   -1.20000
AFIX   0
C13   1    0.301942    0.103016    0.298586    11.00000    0.07219    0.05704 =
         0.04457   -0.01238    0.00664    0.01814
AFIX  43
H2    2    0.278431    0.054413    0.233150    11.00000   -1.20000
AFIX   0
C14   1    0.705497    1.049732    1.314341    11.00000    0.07383    0.04856 =
         0.06351   -0.00996    0.02821    0.02183
AFIX  43
H3    2    0.678312    1.104074    1.351362    11.00000   -1.20000
AFIX   0
C15   1    0.823579    1.031553    1.357141    11.00000    0.07566    0.05925 =
         0.04901   -0.01587    0.01435    0.01754
AFIX  43
H26   2    0.875956    1.074465    1.423156    11.00000   -1.20000
AFIX   0
C16   1    0.865541    0.951422    1.304382    11.00000    0.06210    0.05471 =
         0.04543   -0.00904    0.00607    0.02021
AFIX  43
H25   2    0.945583    0.940789    1.335261    11.00000   -1.20000
AFIX   0
C17   1    0.789659    0.885476    1.204801    11.00000    0.05052    0.03916 =
         0.04135   -0.00287    0.01330    0.01454
C18   1    0.760099    0.733968    1.071088    11.00000    0.03956    0.03936 =
         0.03674    0.00033    0.00765    0.01887
C19   1    0.315454    0.450285    0.691108    11.00000    0.03926    0.05302 =
         0.04014   -0.00178    0.00288    0.02390
C20   1    0.444823    0.497586    0.771687    11.00000    0.03415    0.04207 =
         0.03361    0.00357    0.00535    0.01864
C21   1    0.456505    0.586177    0.854087    11.00000    0.03587    0.04572 =
         0.03879    0.00219    0.00765    0.02331
AFIX  43
H6    2    0.384509    0.612938    0.857551    11.00000   -1.20000
AFIX   0
C22   1    0.578321    0.631720    0.929304    11.00000    0.03731    0.03654 =
         0.03423    0.00060    0.00872    0.01839
C23   1    0.669423    0.905429    1.162144    11.00000    0.05199    0.03747 =
         0.04279    0.00048    0.01812    0.01713
C24   1    0.628175    0.987131    1.216684    11.00000    0.06202    0.04492 =
         0.05668    0.00011    0.02350    0.02341
AFIX  43
H4    2    0.548588    0.999206    1.187052    11.00000   -1.20000
AFIX   0
C25   1    0.261846    0.200740    0.309856    11.00000    0.08407    0.06223 =
         0.03771   -0.00058   -0.00899    0.02930
AFIX  43
H8    2    0.209871    0.217725    0.251944    11.00000   -1.20000
AFIX   0
C26   1    0.297882    0.274559    0.406595    11.00000    0.06532    0.04914 =
         0.04472   -0.00243   -0.00494    0.02803
AFIX  43
H7    2    0.269300    0.340258    0.413306    11.00000   -1.20000
AFIX   0
C27   1    0.660398    0.347542    0.646232    11.00000    0.03498    0.03433 =
         0.03422   -0.00541    0.00354    0.01422
C28   1    0.721815    0.390222    0.555363    11.00000    0.04659    0.04407 =
         0.04002   -0.00049    0.01021    0.01702
AFIX  43
H15   2    0.688679    0.437986    0.511159    11.00000   -1.20000
AFIX   0
C29   1    0.831756    0.362707    0.529556    11.00000    0.04639    0.05684 =
         0.04942   -0.01143    0.01585    0.01218
AFIX  43
H14   2    0.870511    0.390482    0.467683    11.00000   -1.20000
AFIX   0
C30   1    0.883543    0.294346    0.595420    11.00000    0.03975    0.06162 =
         0.06584   -0.02513    0.00399    0.02276
AFIX  43
H13   2    0.957564    0.276081    0.578353    11.00000   -1.20000
AFIX   0
C31   1    0.825502    0.253074    0.686624    11.00000    0.04650    0.04865 =
         0.05773   -0.01459   -0.00836    0.02719
AFIX  43
H12   2    0.861180    0.207539    0.731487    11.00000   -1.20000
AFIX   0
C32   1    0.714220    0.278815    0.712215    11.00000    0.03939    0.03686 =
         0.03929   -0.00528    0.00040    0.01656
AFIX  43
H11   2    0.675337    0.249966    0.773848    11.00000   -1.20000
AFIX   0
HKLF 4 1 1 0 0 0 1 0 0 0 1

REM  151022_0m in P-1
REM R1 =  0.0417 for    4063 Fo > 4sig(Fo)  and  0.0601 for all    5483 data
REM    371 parameters refined using      0 restraints

END

WGHT      0.0483      0.2344

REM Highest difference peak  0.272,  deepest hole -0.399,  1-sigma level  0.044
Q1    1   0.9788  0.6798  0.8260  11.00000  0.05    0.27
Q2    1   0.7450  0.9396  0.9640  11.00000  0.05    0.16
Q3    1   0.3941  0.4894  0.7378  11.00000  0.05    0.16
Q4    1   0.3690 -0.0416  0.4132  11.00000  0.05    0.15
Q5    1   0.6232  0.9090  0.9836  11.00000  0.05    0.15
;
_shelx_res_checksum              45278
_shelx_hkl_file
;
  -1   0   0 1536.04 39.0888   5
   1   0   0 1524.56 38.7645   5
   2   0   0 414.134 10.7284   5
  -3   0   0 406.206 10.7732   5
   3   0   0 398.783 10.7763   5
  -4   0   0 168.357 4.32939   1
   4   0   0 175.328 5.47712   5
  -5   0   0 49.8428 1.58533   1
  -5   0   0 51.8459 1.54019   1
   5   0   0 54.7737 2.59634   5
  -6   0   0 17.8723 0.84056   1
  -6   0   0 16.8372 0.75294   1
   6   0   0 17.3188 1.84298   5
  -7   0   0 74.9368 2.41000   1
  -7   0   0 76.1135 3.41305   3
  -7   0   0 73.2242 2.28770   1
   7   0   0 78.9007 3.77255   5
  -8   0   0 150.867 5.69061   3
  -8   0   0 149.807 4.24983   1
  -8   0   0 151.446 4.21399   2
  -8   0   0 150.995 4.39832   1
  -8   0   0 155.173 4.40405   2
   8   0   0 166.870 6.34615   5
  -9   0   0 5.96368 1.25043   3
  -9   0   0 5.07373 0.57957   2
  -9   0   0 6.61382 0.79200   2
   9   0   0 6.47299 1.50984   5
 -10   0   0 0.30496 0.31706   2
 -10   0   0 0.45307 0.43563   2
 -10   0   0 0.24848 0.71230   3
  10   0   0 0.98768 0.96704   5
 -11   0   0 2.74852 1.09038   3
 -11   0   0 2.39336 0.50551   2
 -11   0   0 1.16506 0.54735   2
  11   0   0 1.48509 1.15632   5
 -11   1   0 0.28712 0.78391   3
  10  -1   0 14.3859 2.16996   5
 -10   1   0 22.5954 2.45416   3
   9  -1   0 115.885 5.32313   5
   8  -1   0 61.2764 3.41656   5
   7  -1   0 86.5458 3.92487   5
   6  -1   0 16.2551 1.66175   5
   5  -1   0 11.0974 1.27379   5
   4  -1   0 903.213 23.1586   5
   3  -1   0 76.1317 2.64006   5
  -3   1   0 74.4785 2.00623   1
  -3   1   0 75.7857 2.65524   5
  -3   1   0 74.3836 2.01556   1
  -2   1   0 2412.52 59.9389   1
  -2   1   0 2385.22 60.8504   4
  -2   1   0 2420.43 61.4998   5
  -2   1   0 2372.44 59.8616   1
   1  -1   0 678.994 17.5630   4
   1  -1   0 695.642 18.4779   1
   1  -1   0 726.612 18.0451   2
   1  -1   0 688.482 17.7429   1
  -1   1   0 733.864 18.9775   1
  -1   1   0 711.414 17.8084   2
  -1   1   0 693.409 18.1659   1
  -1   1   0 689.726 17.3994   2
  -1   1   0 679.008 18.4279   4
   0  -1   0 603.167 15.4048   1
   0  -1   0 566.176 15.2436   1
   0  -1   0 600.199 14.7339   2
   0  -1   0 589.156 14.9819   2
   0   1   0 580.934 15.4334   1
   0   1   0 594.080 14.7180   2
   0   1   0 579.766 15.3101   1
   0   1   0 568.485 15.0321   2
  -1  -1   0 1149.77 29.6311   1
  -1  -1   0 1140.10 29.5160   3
  -1  -1   0 1158.62 29.5111   2
  -1  -1   0 1127.96 29.4935   5
  -1  -1   0 1162.72 30.1211   2
  -1  -1   0 1129.09 29.3004   1
   1   1   0 1115.77 28.8886   2
   1   1   0 1157.97 28.6392   3
   1   1   0 1123.67 30.1808   5
   1   1   0 1128.27 29.2238   2
   1   1   0 1198.41 29.2063   1
  -2  -1   0 815.148 20.1786   2
  -2  -1   0 801.576 20.4709   5
  -2  -1   0 806.488 20.1555   1
  -2  -1   0 815.735 20.1879   2
  -2  -1   0 817.161 20.2554   1
  -2  -1   0 807.330 20.4595   2
  -2  -1   0 792.546 20.3219   3
   2   1   0 818.173 20.5191   5
   2   1   0 820.127 20.3415   1
  -3  -1   0 23.1401 1.08395   1
  -3  -1   0 22.7336 0.91548   2
  -3  -1   0 24.6488 1.02802   2
  -3  -1   0 23.8074 1.01673   1
  -3  -1   0 21.4370 1.19438   3
  -3  -1   0 22.1427 0.99416   2
  -4  -1   0 50.7252 1.79688   1
  -4  -1   0 50.3463 1.66967   2
  -4  -1   0 51.6705 2.19141   3
  -4  -1   0 50.1935 1.78055   2
  -4  -1   0 48.8251 1.88146   1
  -4  -1   0 50.7119 1.77409   2
   4   1   0 53.0295 2.44632   5
  -5  -1   0 123.771 3.58686   2
  -5  -1   0 126.568 3.76051   2
  -5  -1   0 127.520 3.90051   1
  -5  -1   0 125.897 4.35966   3
  -5  -1   0 119.693 3.72228   1
   5   1   0 128.115 4.72585   5
  -6  -1   0 27.4474 1.38199   2
  -6  -1   0 27.1025 1.77171   3
  -6  -1   0 26.4969 1.41879   1
  -6  -1   0 27.2802 1.30329   1
  -6  -1   0 24.7723 1.16890   2
   6   1   0 25.7766 2.35723   5
  -7  -1   0 52.1622 2.18059   2
  -7  -1   0 51.4375 2.02022   1
  -7  -1   0 47.5448 2.13465   1
  -7  -1   0 45.9655 1.86180   2
  -7  -1   0 48.9490 2.66350   3
   7   1   0 47.7894 2.97617   5
  -8  -1   0 22.9882 1.25244   2
  -8  -1   0 20.5716 1.46005   2
  -8  -1   0 21.0965 1.44127   1
  -8  -1   0 20.4096 2.18446   3
  -8  -1   0 21.4150 1.39113   1
   8   1   0 22.8501 2.53084   5
  -9  -1   0 -0.3640 0.53691   3
  -9  -1   0 0.69992 0.37314   2
  -9  -1   0 -0.1463 0.41858   2
  -9  -1   0 0.00645 0.43257   1
   9   1   0 0.68009 0.82602   5
 -10  -1   0 4.60442 0.98511   2
 -10  -1   0 6.83933 1.42760   3
  10   1   0 7.07939 1.74975   5
 -11  -1   0 0.25121 0.79144   3
 -11  -1   0 1.50348 0.74110   2
  11   1   0 -0.7918 0.84640   5
 -12   2   0 2.39316 1.08498   3
  -8   2   0 4.69326 0.45955   1
  -7   2   0 0.10519 0.19796   1
  -7   2   0 0.28685 0.21290   1
  -6   2   0 118.582 3.40876   1
  -6   2   0 116.012 3.41621   1
  -5   2   0 13.2293 0.66876   2
  -5   2   0 11.9019 0.75389   1
  -5   2   0 14.5092 0.64624   2
  -5   2   0 13.2811 0.77163   1
  -5   2   0 14.2499 1.36004   4
  -4   2   0 21.2268 1.25818   4
  -4   2   0 20.0868 0.97383   2
  -4   2   0 21.2648 0.89823   2
  -4   2   0 21.6056 1.04873   1
  -4   2   0 22.3647 1.03523   1
   3  -2   0 594.005 15.1120   1
   3  -2   0 596.590 15.3948   4
   3  -2   0 596.354 14.7626   2
   3  -2   0 599.139 15.1195   1
   3  -2   0 588.160 14.7851   2
  -3   2   0 599.227 15.3726   4
  -3   2   0 624.145 15.2513   1
  -3   2   0 615.917 15.0833   2
  -3   2   0 594.864 15.2818   1
  -3   2   0 580.847 15.2582   2
   2  -2   0 223.295 6.40754   2
   2  -2   0 226.511 6.21296   2
   2  -2   0 239.284 6.22023   4
   2  -2   0 235.087 6.37154   1
   2  -2   0 232.704 6.42796   1
  -2   2   0 235.638 6.20573   4
  -2   2   0 237.904 6.37352   1
  -2   2   0 239.054 6.47983   1
  -2   2   0 227.241 6.23665   2
  -2   2   0 229.418 6.50577   2
   1  -2   0 43.5241 1.81398   1
   1  -2   0 41.1006 1.60127   2
   1  -2   0 41.2552 1.70617   1
   1  -2   0 38.9353 1.79767   2
  -1   2   0 42.1423 1.62400   2
  -1   2   0 37.8742 1.77966   2
  -1   2   0 45.7170 1.83550   1
  -1   2   0 44.6780 1.72985   1
   0  -2   0 211.671 5.73082   2
   0  -2   0 192.205 5.90437   1
   0  -2   0 207.628 6.03235   2
   0  -2   0 209.791 5.82271   1
   0   2   0 213.414 5.81274   1
   0   2   0 208.240 5.93789   1
   0   2   0 205.911 5.98775   2
   0   2   0 207.741 5.69471   2
  -1  -2   0 1066.51 27.0430   1
  -1  -2   0 1059.92 26.7596   2
  -1  -2   0 1117.90 27.1351   2
  -1  -2   0 1066.26 26.8769   1
  -1  -2   0 1123.97 27.7813   3
   1   2   0 1035.90 27.6611   2
   1   2   0 1051.43 26.7511   5
   1   2   0 1073.06 26.6567   3
   1   2   0 1055.42 26.9614   1
   1   2   0 1066.57 27.9670   1
   1   2   0 1081.94 26.9585   2
  -2  -2   0 3.40377 0.52056   3
  -2  -2   0 4.24269 0.62363   5
  -2  -2   0 3.45913 0.57064   1
  -2  -2   0 3.14354 0.60117   1
  -2  -2   0 3.97824 0.68648   2
  -2  -2   0 4.38311 0.58686   2
   2   2   0 4.33234 0.62854   3
   2   2   0 4.85100 0.63872   2
   2   2   0 3.15460 0.49326   1
   2   2   0 3.47700 0.59337   5
   2   2   0 3.96932 0.47970   2
  -3  -2   0 158.196 4.91535   1
  -3  -2   0 167.904 5.14127   2
  -3  -2   0 159.040 4.97619   3
  -3  -2   0 169.568 5.14345   1
  -3  -2   0 164.122 4.80363   2
   3   2   0 166.272 5.28240   5
   3   2   0 168.763 4.64354   1
  -4  -2   0 87.5220 3.10495   1
  -4  -2   0 88.4329 3.29125   1
  -4  -2   0 90.6978 3.31788   2
  -4  -2   0 88.8006 2.99860   2
  -4  -2   0 90.4245 3.29925   3
   4   2   0 88.6695 3.57304   5
  -5  -2   0 52.5793 2.32356   1
  -5  -2   0 57.6981 2.25295   2
  -5  -2   0 63.5918 2.70978   3
  -5  -2   0 58.5410 2.57231   1
  -5  -2   0 55.7222 2.51942   2
   5   2   0 61.6157 3.00886   5
  -6  -2   0 57.7223 2.49829   1
  -6  -2   0 59.9102 2.37907   2
  -6  -2   0 60.1021 2.72450   1
  -6  -2   0 56.4401 2.68794   2
  -6  -2   0 59.5454 2.85193   3
   6   2   0 62.5425 3.28515   5
  -7  -2   0 14.1739 1.54609   2
  -7  -2   0 12.2523 1.28902   1
  -7  -2   0 12.7220 1.19395   2
  -7  -2   0 14.9805 1.74723   3
  -7  -2   0 12.1281 1.42156   1
   7   2   0 10.7158 1.78094   5
  -8  -2   0 13.4413 1.79374   3
  -8  -2   0 14.4050 1.58833   1
  -8  -2   0 13.3772 1.28954   2
  -8  -2   0 14.9444 1.70239   2
   8   2   0 13.6046 2.09591   5
  -9  -2   0 0.63921 0.72097   3
  -9  -2   0 -0.4683 0.47385   1
  -9  -2   0 0.74965 0.70300   2
   9   2   0 2.35549 1.07659   5
 -10  -2   0 -0.5013 0.60260   3
 -10  -2   0 -0.1083 0.64232   2
  10   2   0 -1.0895 0.63413   5
 -11   3   0 2.86316 0.54962   2
 -11   3   0 1.78137 0.42318   2
 -10   3   0 31.1326 1.28198   1
 -10   3   0 31.5998 1.42048   2
 -10   3   0 31.6847 1.60854   2
  -9   3   0 243.187 6.95611   2
  -9   3   0 239.581 6.69647   1
  -9   3   0 246.699 6.70486   2
  -8   3   0 14.2694 1.19503   2
  -8   3   0 13.9556 1.00948   1
  -8   3   0 14.7842 0.97825   1
  -8   3   0 13.8812 0.91215   2
  -7   3   0 22.3182 1.24427   1
  -7   3   0 21.8130 1.27448   1
  -7   3   0 24.0199 1.18223   2
  -7   3   0 21.0248 1.28278   2
  -6   3   0 97.6945 3.36568   2
  -6   3   0 100.434 3.14218   2
  -6   3   0 97.1670 3.26776   1
  -6   3   0 96.0793 3.33976   1
   5  -3   0 276.855 7.14296   1
   5  -3   0 272.798 7.13921   1
  -5   3   0 272.817 7.87194   1
  -5   3   0 288.103 7.95008   2
  -5   3   0 285.725 7.79886   1
  -5   3   0 281.056 7.60298   2
  -5   3   0 279.143 8.14279   4
   4  -3   0 57.1520 2.30625   4
   4  -3   0 52.6436 2.13211   1
   4  -3   0 54.5798 1.93247   2
  -4   3   0 62.9683 2.47987   2
  -4   3   0 52.4089 2.21782   4
  -4   3   0 59.0162 2.15459   2
  -4   3   0 62.0744 2.40715   1
  -4   3   0 55.6243 2.24541   1
   3  -3   0 740.695 18.5890   2
   3  -3   0 722.514 18.7958   1
   3  -3   0 731.182 18.9106   1
   3  -3   0 742.688 18.5790   4
   3  -3   0 727.698 18.8824   2
  -3   3   0 714.885 19.0431   2
  -3   3   0 713.020 18.7766   1
  -3   3   0 734.688 18.5607   4
  -3   3   0 711.433 18.6166   2
  -3   3   0 753.896 18.9900   1
   2  -3   0 19.5357 1.14642   2
   2  -3   0 20.2111 1.38016   1
   2  -3   0 16.9970 1.20124   1
  -2   3   0 21.4507 1.44133   2
  -2   3   0 18.2118 1.13113   2
  -2   3   0 19.3209 1.33120   1
  -2   3   0 20.4802 1.27203   1
   1  -3   0 1636.10 42.4778   2
   1  -3   0 1710.64 43.3261   2
   1  -3   0 1625.76 44.5011   1
   1  -3   0 1655.44 42.1954   1
  -1   3   0 1721.85 43.7837   2
  -1   3   0 1681.67 42.4911   2
  -1   3   0 1763.85 42.2297   1
  -1   3   0 1719.03 42.4006   1
   0  -3   0 276.152 8.42079   1
   0  -3   0 310.175 8.86240   2
   0  -3   0 308.115 8.38479   2
   0  -3   0 300.287 8.68961   1
   0   3   0 303.223 8.32139   2
   0   3   0 305.499 8.64419   1
   0   3   0 299.479 8.74034   2
   0   3   0 306.015 8.46805   1
  -1  -3   0 0.21152 0.38141   1
  -1  -3   0 1.50293 0.43748   2
  -1  -3   0 -0.1595 0.35854   2
  -1  -3   0 0.89443 0.44567   1
   1   3   0 -0.0119 0.09781   2
   1   3   0 0.46075 0.30906   5
   1   3   0 0.51835 0.36146   1
   1   3   0 0.40728 0.30000   3
   1   3   0 0.36242 0.38736   1
  -2  -3   0 10.7112 1.20619   1
  -2  -3   0 10.7592 1.30892   1
  -2  -3   0 11.1859 1.31859   2
  -2  -3   0 12.3702 1.14059   2
  -2  -3   0 13.0075 1.12023   3
   2   3   0 9.80584 1.08218   5
   2   3   0 10.9694 1.01826   2
   2   3   0 11.5828 1.11653   1
  -3  -3   0 8.50232 1.19182   2
  -3  -3   0 5.93864 0.82434   2
  -3  -3   0 5.69785 0.96774   1
  -3  -3   0 6.86902 0.96938   1
  -3  -3   0 7.48996 0.89766   3
   3   3   0 6.82675 0.67696   2
   3   3   0 6.49142 0.96534   5
  -4  -3   0 78.7316 3.12119   3
  -4  -3   0 78.7029 3.01839   2
  -4  -3   0 76.5277 3.39568   2
  -4  -3   0 80.0561 3.21042   1
  -4  -3   0 77.5354 3.40222   1
   4   3   0 72.2727 3.35011   5
   4   3   0 78.5696 2.66071   1
  -5  -3   0 0.14543 0.40255   3
  -5  -3   0 0.40669 0.39933   2
  -5  -3   0 -0.1200 0.38954   2
  -5  -3   0 0.23885 0.49531   1
  -5  -3   0 0.50214 0.42359   1
   5   3   0 -0.1016 0.45187   5
  -6  -3   0 19.0694 1.88967   3
  -6  -3   0 18.7510 1.67799   2
  -6  -3   0 17.3166 1.87161   1
  -6  -3   0 19.1755 1.80443   1
  -6  -3   0 17.5473 1.93979   2
   6   3   0 16.4562 2.06541   5
  -7  -3   0 13.5897 1.75116   1
  -7  -3   0 12.5089 1.41056   2
  -7  -3   0 12.7562 1.67458   3
  -7  -3   0 14.6210 1.85500   2
   7   3   0 14.2662 2.08685   5
  -8  -3   0 10.3573 1.55668   1
  -8  -3   0 11.2612 1.70757   3
  -8  -3   0 9.01532 1.60058   2
   8   3   0 11.5222 2.06442   5
  -9  -3   0 9.71256 1.60498   1
  -9  -3   0 7.94305 1.56510   3
  -9  -3   0 7.08292 1.50490   2
   9   3   0 10.3535 2.07945   5
 -10  -3   0 3.02017 1.14793   2
 -10  -3   0 1.33159 0.94558   3
  10   3   0 1.59190 1.29624   5
 -12   4   0 0.51987 0.43393   2
 -11   4   0 11.7061 1.15598   2
 -11   4   0 12.2810 1.36199   2
 -10   4   0 32.3341 1.70819   2
 -10   4   0 29.7741 1.90084   2
 -10   4   0 34.6814 1.73452   1
  -9   4   0 1.85249 0.58768   1
  -9   4   0 1.28926 0.54957   2
  -9   4   0 2.40759 0.73250   2
  -8   4   0 7.32136 1.06618   1
  -8   4   0 6.45896 1.05423   2
  -8   4   0 6.63843 0.94519   1
  -8   4   0 6.35467 0.84905   2
  -7   4   0 85.8827 3.10205   2
  -7   4   0 85.6372 3.37041   1
  -7   4   0 83.9965 3.24702   1
  -7   4   0 84.8466 3.44964   2
   6  -4   0 18.7058 1.00105   1
   6  -4   0 16.9755 0.98159   1
  -6   4   0 15.9119 1.34853   2
  -6   4   0 19.1315 1.63711   1
  -6   4   0 18.7194 1.71631   2
  -6   4   0 15.3363 1.41910   1
   5  -4   0 0.86602 0.43387   1
   5  -4   0 1.48517 0.51988   4
   5  -4   0 1.10727 0.40099   2
  -5   4   0 2.13598 0.69772   2
  -5   4   0 1.47509 0.51728   4
  -5   4   0 1.89570 0.61515   1
  -5   4   0 2.07220 0.55890   2
  -5   4   0 2.38893 0.63602   1
   4  -4   0 89.0050 3.39955   1
   4  -4   0 94.1009 3.48089   2
   4  -4   0 90.5881 3.50244   1
   4  -4   0 88.9488 3.18572   4
  -4   4   0 90.2227 3.56556   1
  -4   4   0 90.4577 3.42039   1
  -4   4   0 84.4115 3.60150   2
  -4   4   0 89.6162 3.24147   4
  -4   4   0 90.1570 3.25619   2
   3  -4   0 9.75508 1.17959   1
   3  -4   0 9.29731 1.25369   2
   3  -4   0 8.39169 1.15182   1
   3  -4   0 9.26462 0.91551   4
  -3   4   0 8.72421 1.03795   2
  -3   4   0 8.40404 1.19998   2
  -3   4   0 10.5261 1.34683   1
  -3   4   0 9.81035 1.17940   1
   2  -4   0 828.111 22.0078   1
   2  -4   0 878.211 22.3064   1
   2  -4   0 835.501 22.3745   2
   2  -4   0 831.522 21.7803   2
  -2   4   0 856.429 22.2487   1
  -2   4   0 848.633 21.9941   1
  -2   4   0 839.019 21.7892   2
  -2   4   0 821.937 22.3668   2
   1  -4   0 13.2015 1.60663   2
   1  -4   0 12.4307 1.46646   1
   1  -4   0 15.3879 1.43499   2
   1  -4   0 14.2040 1.50878   1
  -1   4   0 12.1856 1.45989   2
  -1   4   0 12.3025 1.40185   1
  -1   4   0 16.7054 1.58418   1
  -1   4   0 14.3672 1.30893   2
   0  -4   0 66.0677 3.18252   2
   0  -4   0 66.7605 2.77932   2
   0  -4   0 69.4732 3.15744   1
   0  -4   0 62.9100 2.86905   1
   0   4   0 68.6082 3.06841   1
   0   4   0 67.0254 2.88289   1
   0   4   0 62.4261 2.68068   2
  -1  -4   0 38.1811 2.39716   2
  -1  -4   0 41.0618 2.05820   2
  -1  -4   0 39.5074 2.18423   1
  -1  -4   0 38.9132 2.32305   1
   1   4   0 36.4164 2.01879   1
   1   4   0 43.0768 2.30101   1
   1   4   0 36.8681 1.83455   5
  -2  -4   0 13.0552 1.35788   2
  -2  -4   0 12.0073 1.45029   1
  -2  -4   0 12.2408 1.54843   1
  -2  -4   0 9.87859 1.43198   2
   2   4   0 14.3830 1.41005   1
   2   4   0 13.1739 1.35127   5
   2   4   0 14.9264 1.37989   2
  -3  -4   0 37.1528 2.21190   1
  -3  -4   0 35.4780 1.92084   3
  -3  -4   0 38.2632 2.50462   2
  -3  -4   0 37.1152 2.40616   1
  -3  -4   0 36.1361 2.04250   2
   3   4   0 40.5577 2.24756   5
   3   4   0 40.9951 1.83804   2
   3   4   0 36.4130 1.96268   1
  -4  -4   0 0.56847 0.46626   1
  -4  -4   0 0.19590 0.40868   2
  -4  -4   0 0.47605 0.63633   2
  -4  -4   0 0.92765 0.64274   1
  -4  -4   0 -0.2377 0.37847   3
   4   4   0 -0.2933 0.26823   1
   4   4   0 -0.1945 0.41244   5
  -5  -4   0 4.12823 0.91162   2
  -5  -4   0 2.43597 0.83447   1
  -5  -4   0 4.81855 1.14548   2
  -5  -4   0 5.41896 1.20168   1
  -5  -4   0 4.57861 0.96056   3
   5   4   0 3.59328 1.04050   5
   5   4   0 3.95653 0.59505   1
  -6  -4   0 4.82790 1.07777   3
  -6  -4   0 4.35143 0.97418   2
  -6  -4   0 5.18855 1.25367   2
  -6  -4   0 5.61622 1.25502   1
   6   4   0 1.77284 0.95268   5
  -7  -4   0 2.90852 0.97668   3
  -7  -4   0 5.94895 1.33151   1
  -7  -4   0 3.04616 1.11049   2
   7   4   0 1.85511 0.99258   5
  -8  -4   0 19.9366 2.57561   2
  -8  -4   0 20.4046 2.46885   1
  -8  -4   0 20.8110 2.35822   3
   8   4   0 16.8866 2.55769   5
  -9  -4   0 15.6886 2.16912   3
  -9  -4   0 14.1753 2.33060   2
  -9  -4   0 11.4574 1.93339   1
   9   4   0 17.1487 2.73108   5
 -12   5   0 -0.4949 0.48556   2
 -11   5   0 32.6771 1.93926   1
 -11   5   0 31.8539 1.90874   2
 -10   5   0 17.8205 1.90560   2
 -10   5   0 15.9814 1.56055   1
 -10   5   0 14.8439 1.50553   2
  -9   5   0 114.310 4.16388   2
  -9   5   0 115.493 4.70310   2
  -9   5   0 113.193 4.28817   1
  -8   5   0 99.7758 4.13445   1
  -8   5   0 101.693 3.81200   2
  -8   5   0 103.298 4.32868   2
  -8   5   0 101.871 3.99677   1
   7  -5   0 72.0605 2.68671   1
  -7   5   0 77.2766 3.11384   2
  -7   5   0 69.8806 3.45171   2
  -7   5   0 72.7720 3.37629   1
  -7   5   0 79.5723 3.32007   1
   6  -5   0 57.6308 2.76002   4
  -6   5   0 61.1498 2.86640   1
  -6   5   0 58.9147 2.67404   2
  -6   5   0 61.2484 3.13913   2
  -6   5   0 60.2548 3.01572   1
   5  -5   0 307.425 9.13091   1
   5  -5   0 305.636 8.70898   4
   5  -5   0 292.467 8.92093   2
  -5   5   0 290.711 9.20328   1
  -5   5   0 308.178 9.06164   1
  -5   5   0 291.646 8.76731   2
  -5   5   0 294.840 9.40681   2
   4  -5   0 526.299 14.6249   1
   4  -5   0 513.982 13.7541   4
  -4   5   0 508.210 14.8275   2
  -4   5   0 509.243 14.1113   2
  -4   5   0 522.114 14.6606   1
  -4   5   0 516.221 14.3901   1
   3  -5   0 446.046 12.5752   1
   3  -5   0 431.734 12.7328   1
   3  -5   0 436.966 12.8730   2
  -3   5   0 430.779 12.7120   1
  -3   5   0 435.603 12.4517   1
  -3   5   0 427.250 12.9055   2
  -3   5   0 445.527 12.2596   2
   2  -5   0 126.155 5.19950   2
   2  -5   0 135.718 5.16531   1
   2  -5   0 132.086 4.91992   1
  -2   5   0 126.648 5.16007   2
  -2   5   0 124.967 5.01282   1
  -2   5   0 139.323 4.93887   1
  -2   5   0 132.676 4.70245   2
   1  -5   0 0.22664 0.44962   1
   1  -5   0 0.09249 0.42026   2
   1  -5   0 0.17757 0.51276   1
   1  -5   0 -0.2199 0.49504   2
  -1   5   0 -0.0026 0.45993   1
  -1   5   0 -0.3056 0.35357   1
  -1   5   0 -0.0904 0.32808   2
   0  -5   0 1.33953 0.70352   1
   0  -5   0 0.56506 0.62362   1
   0  -5   0 1.04801 0.52739   2
   0  -5   0 1.34625 0.73362   2
   0   5   0 1.69440 0.57827   2
   0   5   0 0.41054 0.51445   1
  -1  -5   0 20.4011 2.22447   1
  -1  -5   0 24.7670 2.09488   2
  -1  -5   0 22.9384 2.20890   1
  -1  -5   0 18.3063 2.08160   2
   1   5   0 24.6612 1.64464   2
   1   5   0 18.4096 1.79873   1
   1   5   0 23.3986 1.51963   5
  -2  -5   0 70.0211 3.68980   2
  -2  -5   0 62.6513 3.46342   1
  -2  -5   0 65.5471 3.09934   2
  -2  -5   0 61.9090 3.19533   1
   2   5   0 60.6672 2.82494   2
   2   5   0 64.1003 2.94306   5
   2   5   0 64.9793 3.03040   1
  -3  -5   0 5.81063 1.32989   2
  -3  -5   0 6.57671 1.30699   1
  -3  -5   0 6.78159 1.44863   1
  -3  -5   0 4.83218 0.98331   2
   3   5   0 5.21194 0.89280   2
   3   5   0 7.81414 1.23854   5
   3   5   0 6.48625 1.07993   1
  -4  -5   0 56.5126 3.51770   2
  -4  -5   0 48.5626 2.77989   2
  -4  -5   0 47.5248 3.19514   1
  -4  -5   0 50.4536 2.98416   1
   4   5   0 54.8973 3.04095   5
  -5  -5   0 77.1715 4.09655   2
  -5  -5   0 77.9690 4.28113   1
  -5  -5   0 82.4444 4.50531   2
  -5  -5   0 79.6688 3.65117   3
   5   5   0 82.8199 4.17184   5
  -6  -5   0 6.54481 1.42680   1
  -6  -5   0 5.86687 1.52309   2
  -6  -5   0 5.23438 1.26066   3
   6   5   0 5.77477 1.42853   5
  -7  -5   0 8.60310 1.72254   3
  -7  -5   0 6.56113 1.72982   2
  -7  -5   0 7.03057 1.62006   1
   7   5   0 8.67976 1.88769   5
  -8  -5   0 2.18307 1.26462   2
  -8  -5   0 3.15965 1.31669   3
  -8  -5   0 0.88592 0.93051   1
   8   5   0 1.66618 1.15255   5
 -12   6   0 10.5200 1.43054   1
 -12   6   0 16.4393 1.76861   2
 -11   6   0 18.7140 1.84887   2
 -11   6   0 21.8328 2.01922   1
 -10   6   0 2.09298 0.72429   2
 -10   6   0 2.50480 0.84415   1
  -9   6   0 33.3555 2.14547   2
  -9   6   0 32.8335 2.25011   1
  -9   6   0 29.5976 2.79732   2
   8  -6   0 29.4929 1.64416   1
  -8   6   0 30.3863 2.02641   2
  -8   6   0 33.7868 2.26315   1
  -8   6   0 31.2865 2.75715   1
  -8   6   0 31.5474 2.85372   2
   7  -6   0 7.61868 1.23636   4
  -7   6   0 4.34051 0.96629   2
  -7   6   0 5.31319 1.24561   2
  -7   6   0 3.10953 0.91583   1
  -7   6   0 5.88610 1.16237   1
   6  -6   0 179.971 6.15683   2
   6  -6   0 170.610 5.89907   4
   6  -6   0 178.833 6.33467   1
  -6   6   0 178.856 6.07005   2
  -6   6   0 173.809 6.52534   1
  -6   6   0 182.589 6.33642   1
  -6   6   0 178.369 6.77282   2
   5  -6   0 81.5133 3.83446   2
   5  -6   0 81.2124 3.82895   1
   5  -6   0 74.4212 3.10882   4
  -5   6   0 76.0136 3.80676   1
  -5   6   0 81.2963 3.68678   1
  -5   6   0 73.7424 3.39492   2
  -5   6   0 77.4669 3.99107   2
   4  -6   0 18.1999 2.13268   2
   4  -6   0 19.3124 1.61171   4
   4  -6   0 14.2031 1.83081   1
  -4   6   0 19.2795 2.22569   2
  -4   6   0 16.0029 1.79374   1
  -4   6   0 21.2897 2.28000   1
  -4   6   0 13.6901 1.54490   2
   3  -6   0 138.535 5.55657   1
   3  -6   0 138.907 5.67000   2
  -3   6   0 128.765 5.11857   1
  -3   6   0 138.986 5.02160   2
  -3   6   0 127.295 5.48424   2
  -3   6   0 121.172 5.28069   1
   2  -6   0 292.123 9.65227   1
  -2   6   0 299.409 9.02554   2
  -2   6   0 278.676 9.11181   1
   1  -6   0 131.738 5.44132   1
   1  -6   0 119.206 5.43161   2
  -1   6   0 124.337 4.99613   1
  -1   6   0 120.704 4.71806   2
   0  -6   0 1.06203 0.65950   1
   0  -6   0 0.99714 0.74956   1
   0  -6   0 0.91016 0.60430   2
   0  -6   0 0.70787 0.79884   2
   0   6   0 2.20233 0.73418   2
   0   6   0 0.52414 0.58659   1
  -1  -6   0 0.84464 0.61614   1
  -1  -6   0 0.41261 0.76580   2
  -1  -6   0 -0.4931 0.38490   2
  -1  -6   0 0.92879 0.80986   1
   1   6   0 1.19731 0.58498   5
   1   6   0 0.34328 0.46974   2
   1   6   0 0.74697 0.62658   1
  -2  -6   0 0.41957 0.68423   1
  -2  -6   0 0.22831 0.66798   1
  -2  -6   0 1.28466 0.84467   2
  -2  -6   0 0.44197 0.49288   2
   2   6   0 0.53292 0.56738   2
   2   6   0 0.90192 0.60313   5
   2   6   0 0.37676 0.52158   1
  -3  -6   0 51.3217 3.26570   1
  -3  -6   0 56.1060 3.73463   2
  -3  -6   0 57.2140 3.68427   1
  -3  -6   0 54.6194 3.12025   2
   3   6   0 55.7478 2.79294   2
   3   6   0 56.3230 3.00923   1
   3   6   0 61.2039 3.19977   5
  -4  -6   0 10.6157 1.98311   2
  -4  -6   0 12.2718 2.04276   1
   4   6   0 13.1295 1.92815   5
  -5  -6   0 35.5111 3.77017   2
  -5  -6   0 47.3954 4.15641   1
   5   6   0 36.0447 3.31445   5
  -6  -6   0 -1.0767 0.73024   1
  -6  -6   0 0.26778 0.89504   2
   6   6   0 -0.2512 0.60350   5
  -7  -6   0 17.2901 2.72502   1
  -7  -6   0 18.6816 2.92352   2
   7   6   0 18.3972 2.75624   5
  -8  -6   0 1.68351 1.23135   1
  -8  -6   0 1.49409 1.36934   2
   8   6   0 0.93138 1.11523   5
 -12   7   0 2.62896 0.94117   2
 -12   7   0 1.33976 0.85701   1
 -11   7   0 1.05181 0.75859   1
 -11   7   0 0.90642 0.72473   2
 -10   7   0 6.51905 1.29392   1
 -10   7   0 3.93795 1.09321   2
  -9   7   0 11.4920 1.68573   1
  -9   7   0 10.5246 1.56575   2
   8  -7   0 67.6060 3.51258   4
   8  -7   0 66.5265 3.31963   1
  -8   7   0 75.2385 3.99190   1
  -8   7   0 69.0538 3.64832   1
  -8   7   0 65.8490 3.39817   2
  -8   7   0 69.3689 3.99782   2
   7  -7   0 26.7710 2.33231   2
   7  -7   0 28.2466 2.37401   4
   7  -7   0 22.1102 2.29893   1
  -7   7   0 29.1014 2.74609   1
  -7   7   0 25.7673 2.69818   1
  -7   7   0 27.8671 2.92488   2
  -7   7   0 24.0455 2.25153   2
   6  -7   0 26.6203 2.60731   2
   6  -7   0 27.5018 1.85708   4
   6  -7   0 32.1306 2.93572   1
  -6   7   0 28.2869 2.47567   2
  -6   7   0 33.8679 2.43253   1
  -6   7   0 29.7549 2.89272   1
  -6   7   0 27.4294 2.91810   2
   5  -7   0 40.5443 2.88799   1
   5  -7   0 40.2356 2.16970   4
   5  -7   0 42.7824 2.96847   2
  -5   7   0 45.7688 2.68058   2
  -5   7   0 39.3315 2.84509   1
  -5   7   0 39.3002 2.68763   1
   4  -7   0 92.0627 4.65645   1
   4  -7   0 106.256 4.99016   2
  -4   7   0 98.0466 4.29056   2
  -4   7   0 106.674 4.62289   1
  -4   7   0 94.3107 4.82934   2
   3  -7   0 42.8963 3.71455   2
   3  -7   0 42.9806 3.09747   1
  -3   7   0 45.0870 2.68476   2
  -3   7   0 45.0343 2.85995   1
   2  -7   0 69.2047 4.15843   2
   2  -7   0 65.3649 3.93038   1
  -2   7   0 69.9074 3.67675   1
  -2   7   0 75.6524 3.58470   2
   1  -7   0 7.21698 1.68735   2
   1  -7   0 5.36569 1.46775   1
  -1   7   0 5.00558 1.17140   1
  -1   7   0 6.34135 1.23827   2
   0  -7   0 55.6485 3.81280   2
   0  -7   0 63.8169 3.88067   1
   0  -7   0 59.1864 3.30816   2
   0   7   0 63.0594 3.27675   2
   0   7   0 56.2974 3.32884   1
  -1  -7   0 12.6771 1.79875   2
  -1  -7   0 14.9958 2.33440   1
  -1  -7   0 11.0762 2.04535   2
   1   7   0 14.2397 1.68739   5
   1   7   0 11.2454 1.70496   1
   1   7   0 10.0154 1.52487   2
  -2  -7   0 -0.3824 0.80891   1
  -2  -7   0 1.54694 1.05787   2
  -2  -7   0 0.45411 0.65551   2
   2   7   0 2.62694 0.82871   2
   2   7   0 -0.9112 0.34980   5
   2   7   0 0.10713 0.55022   1
  -3  -7   0 22.8295 3.10150   2
  -3  -7   0 17.9053 2.58241   1
   3   7   0 21.1073 2.35361   5
   3   7   0 15.7523 1.97232   1
  -4  -7   0 6.30549 1.66636   1
  -4  -7   0 4.43551 1.60480   2
   4   7   0 7.03136 1.51069   5
  -5  -7   0 6.21466 1.84675   2
  -5  -7   0 4.76434 1.62251   1
   5   7   0 7.52404 1.73438   5
  -6  -7   0 7.31584 1.99989   1
  -6  -7   0 7.54752 2.16667   2
   6   7   0 9.19588 1.95692   5
  -7  -7   0 0.57859 1.28339   1
  -7  -7   0 -0.2085 1.23945   2
   7   7   0 0.17908 1.04839   5
 -12   8   0 0.25932 0.74399   2
 -12   8   0 -0.4349 0.61985   1
 -11   8   0 18.7624 2.28401   2
 -11   8   0 21.9872 2.52980   1
 -10   8   0 15.5819 2.09198   2
 -10   8   0 16.9966 2.20851   1
  -9   8   0 1.12692 0.86997   1
  -9   8   0 0.67499 0.67636   2
   8  -8   0 0.85163 0.62343   4
   8  -8   0 0.73159 0.73976   1
  -8   8   0 0.10476 0.54511   2
  -8   8   0 1.78764 0.91847   1
   7  -8   0 77.5577 4.25090   1
   7  -8   0 80.0790 3.68775   4
  -7   8   0 69.8662 4.25816   1
  -7   8   0 84.5439 4.11087   2
  -7   8   0 79.3240 4.18596   1
  -7   8   0 83.5686 4.74924   2
   6  -8   0 4.82408 1.38874   2
   6  -8   0 4.78415 1.01434   4
   6  -8   0 5.65279 1.48654   1
  -6   8   0 5.10189 1.48058   2
  -6   8   0 4.23103 1.08832   2
  -6   8   0 5.23642 1.31486   1
   5  -8   0 8.73352 1.81461   2
   5  -8   0 9.73979 1.32238   4
   5  -8   0 9.81195 1.89036   1
  -5   8   0 10.4253 1.68784   2
  -5   8   0 10.6299 2.04039   2
  -5   8   0 11.4704 1.87601   1
   4  -8   0 1.87414 1.03275   2
   4  -8   0 0.76337 0.86097   1
  -4   8   0 1.37730 0.81287   1
  -4   8   0 1.71352 0.78503   2
   3  -8   0 223.635 8.94493   2
   3  -8   0 219.236 8.72230   1
  -3   8   0 230.295 8.02523   2
  -3   8   0 232.999 8.35295   1
   2  -8   0 60.0453 3.92206   1
   2  -8   0 46.0485 4.32254   2
  -2   8   0 52.4712 3.13332   2
  -2   8   0 49.6633 3.24503   1
   1  -8   0 4.87962 1.51446   1
   1  -8   0 6.65114 1.72834   2
  -1   8   0 5.16606 1.32622   1
  -1   8   0 4.93051 1.17783   2
   0  -8   0 110.425 5.88752   1
   0  -8   0 125.793 6.35944   2
   0   8   0 123.534 5.24901   2
   0   8   0 114.043 5.32991   1
  -1  -8   0 9.43879 2.05065   1
  -1  -8   0 17.1660 2.80823   2
   1   8   0 8.37012 1.42587   5
   1   8   0 9.56882 1.67815   1
   1   8   0 12.9270 1.85285   2
  -2  -8   0 34.1993 3.82553   1
  -2  -8   0 38.8520 4.13016   2
   2   8   0 32.4790 3.01468   1
   2   8   0 34.4562 3.00872   5
  -3  -8   0 14.3241 2.46681   1
  -3  -8   0 11.4148 2.48692   2
   3   8   0 15.1126 2.20637   5
  -4  -8   0 19.9083 3.19255   2
  -4  -8   0 25.4270 3.47882   1
   4   8   0 16.8891 2.42106   5
  -5  -8   0 2.60558 1.52175   2
  -5  -8   0 3.05439 1.64546   1
   5   8   0 2.36540 1.23842   5
  -6  -8   0 1.08766 1.21796   1
  -6  -8   0 1.30986 1.39315   2
   6   8   0 0.78064 1.20057   5
 -12   9   0 -0.1822 0.70293   2
 -12   9   0 -0.0496 0.82283   1
 -11   9   0 2.60501 1.18147   1
 -11   9   0 3.90336 1.24886   2
 -10   9   0 26.9004 3.01600   1
 -10   9   0 35.0599 3.30616   2
   9  -9   0 5.45040 1.33979   4
  -9   9   0 9.38365 1.67786   2
  -9   9   0 4.60609 1.44213   1
   8  -9   0 1.74502 0.77434   4
  -8   9   0 1.25839 0.88135   1
  -8   9   0 0.24635 0.67829   2
   7  -9   0 159.923 5.99623   4
   7  -9   0 161.346 7.07529   1
  -7   9   0 166.103 6.89296   1
  -7   9   0 158.660 6.58887   2
   6  -9   0 7.60691 1.76783   1
   6  -9   0 7.67221 1.97530   2
   6  -9   0 9.01038 1.38790   4
  -6   9   0 6.65645 1.57155   2
  -6   9   0 9.34797 1.82279   1
   5  -9   0 63.6022 4.25743   1
   5  -9   0 62.2221 4.24162   2
   5  -9   0 64.3428 3.51985   4
  -5   9   0 66.1166 3.73609   2
  -5   9   0 53.4476 3.66948   1
   4  -9   0 29.1621 3.42072   2
   4  -9   0 26.0775 3.10537   1
  -4   9   0 31.3695 3.30271   1
  -4   9   0 20.6089 2.37485   2
   3  -9   0 3.77884 1.35776   1
   3  -9   0 1.75072 1.00829   2
  -3   9   0 1.89968 0.90224   2
  -3   9   0 2.51726 1.06358   1
   2  -9   0 39.6919 4.23515   2
   2  -9   0 39.5333 4.07597   1
  -2   9   0 39.7378 3.68790   1
  -2   9   0 37.2340 3.40340   2
   1  -9   0 1.81742 1.26088   2
   1  -9   0 1.94199 1.30705   1
  -1   9   0 1.42257 0.91139   2
  -1   9   0 0.78008 0.89900   1
   0  -9   0 108.086 6.14095   1
   0  -9   0 110.022 6.35324   2
   0   9   0 113.855 5.53460   1
   0   9   0 110.007 5.27224   2
  -1  -9   0 3.27469 1.42816   1
  -1  -9   0 2.80354 1.52718   2
   1   9   0 1.01922 0.75664   5
   1   9   0 3.49594 1.22328   1
  -2  -9   0 3.36297 1.58263   1
  -2  -9   0 -1.1463 0.84287   2
   2   9   0 1.95940 0.98925   5
  -3  -9   0 6.63715 1.98756   1
  -3  -9   0 9.63721 2.36941   2
   3   9   0 5.58693 1.54536   5
  -4  -9   0 7.65545 2.19027   1
  -4  -9   0 9.66429 2.60271   2
   4   9   0 5.00667 1.60274   5
  -5  -9   0 1.42047 1.45130   2
  -5  -9   0 -1.0247 1.14881   1
   5   9   0 -0.3260 0.80453   5
 -12  10   0 5.40523 1.47779   2
 -12  10   0 3.20037 1.39868   1
 -11  10   0 14.9482 2.40861   1
 -11  10   0 13.4711 2.16532   2
  10 -10   0 9.35511 1.79808   4
 -10  10   0 8.22478 1.85613   1
 -10  10   0 10.0655 1.92195   2
   9 -10   0 13.5770 1.91780   4
  -9  10   0 13.1410 2.09015   2
  -9  10   0 11.3819 2.17455   1
   8 -10   0 30.3788 2.75594   4
  -8  10   0 28.1668 3.06522   2
  -8  10   0 27.2599 3.15227   1
   7 -10   0 5.21797 1.62333   1
   7 -10   0 4.44909 1.13764   4
  -7  10   0 4.87913 1.37224   2
  -7  10   0 3.92452 1.38175   1
   6 -10   0 13.9137 2.54583   1
   6 -10   0 12.4286 1.65896   4
  -6  10   0 13.5129 2.29304   1
  -6  10   0 12.9662 2.16544   2
   5 -10   0 10.1349 2.03498   4
   5 -10   0 15.3366 2.71210   1
   5 -10   0 16.4108 2.92368   2
  -5  10   0 12.1514 2.01787   2
  -5  10   0 16.8308 2.56748   1
   4 -10   0 32.3487 3.74535   1
   4 -10   0 38.9413 4.38030   2
  -4  10   0 38.8310 3.81331   1
  -4  10   0 38.8346 3.60436   2
   3 -10   0 1.50760 1.36722   2
   3 -10   0 0.72210 1.08207   1
  -3  10   0 0.14266 0.78972   2
  -3  10   0 0.23837 0.89542   1
   2 -10   0 2.81309 1.41777   1
   2 -10   0 4.69847 1.79802   2
  -2  10   0 7.35060 1.82625   1
  -2  10   0 4.98492 1.32884   2
   1 -10   0 0.91593 1.15053   2
   1 -10   0 1.34912 1.25629   1
  -1  10   0 -0.2268 0.85477   1
   0 -10   0 17.5459 3.01610   1
   0 -10   0 19.0420 3.32785   2
   0  10   0 23.2224 2.55172   5
   0  10   0 22.3540 2.92598   1
  -1 -10   0 6.18825 2.24044   2
  -1 -10   0 11.9267 2.74690   1
   1  10   0 8.32981 1.64507   5
   1  10   0 9.14933 2.34423   1
  -2 -10   0 17.8479 3.39059   2
  -2 -10   0 16.1583 3.16130   1
   2  10   0 18.8776 2.59847   5
  -3 -10   0 3.18100 1.98320   2
  -3 -10   0 3.18602 1.89111   1
   3  10   0 4.30648 1.55079   5
  -4 -10   0 0.85965 1.51305   2
  -4 -10   0 -0.5149 1.39740   1
   4  10   0 -0.4909 0.78577   5
 -11  11   0 -0.1510 0.83753   2
 -11  11   0 0.53459 1.12831   1
  10 -11   0 16.1780 2.32803   4
 -10  11   0 20.7865 3.00202   1
 -10  11   0 13.9381 2.37263   2
   9 -11   0 0.33959 0.71029   4
  -9  11   0 1.11007 1.00508   2
  -9  11   0 0.53222 1.01046   1
   8 -11   0 23.1919 2.47390   4
  -8  11   0 25.1219 3.30920   1
  -8  11   0 28.8395 3.31257   2
   7 -11   0 1.93174 1.24992   1
   7 -11   0 1.32077 0.77176   4
  -7  11   0 0.36700 0.83822   2
  -7  11   0 0.55119 0.88718   1
   6 -11   0 4.46152 1.22533   4
   6 -11   0 6.26847 1.93468   1
  -6  11   0 7.94622 1.94443   1
  -6  11   0 3.60574 1.28073   2
   5 -11   0 17.2045 3.07075   1
  -5  11   0 19.8360 2.84878   1
  -5  11   0 16.1388 2.52483   2
   4 -11   0 29.9399 4.17173   2
   4 -11   0 23.8934 3.59604   1
  -4  11   0 22.8581 3.12632   1
  -4  11   0 23.8951 2.91839   2
   3 -11   0 5.45905 1.98488   2
   3 -11   0 7.07197 2.08386   1
  -3  11   0 5.40591 1.70009   1
  -3  11   0 5.51522 1.52326   2
   2 -11   0 11.7766 2.65624   2
   2 -11   0 11.1848 2.55776   1
  -2  11   0 9.22791 1.98138   1
   1 -11   0 -1.4412 0.82338   2
   1 -11   0 1.42394 1.34609   1
  -1  11   0 0.14644 0.92600   1
   0 -11   0 30.4816 4.22290   1
   0 -11   0 23.8754 3.94532   2
   0  11   0 22.8204 3.10773   1
   0  11   0 26.7307 2.87865   5
  -1 -11   0 1.56340 1.53963   1
  -1 -11   0 2.41498 1.74688   2
   1  11   0 2.19662 1.19669   5
  -2 -11   0 10.5009 2.68135   1
  -2 -11   0 9.26178 2.67564   2
   2  11   0 13.8227 2.30706   5
  -3 -11   0 9.35487 2.87185   2
  -3 -11   0 12.7249 3.02107   1
   3  11   0 11.1583 2.37174   5
  11 -12   0 1.35385 1.02503   4
 -11  12   0 1.16947 1.02032   2
 -11  12   0 0.75615 1.16621   1
  10 -12   0 4.88293 1.44794   4
 -10  12   0 3.52055 1.48625   1
 -10  12   0 2.21653 1.21140   2
   9 -12   0 4.39379 1.28751   4
  -9  12   0 5.33523 1.87781   1
  -9  12   0 3.61421 1.48659   2
   8 -12   0 5.43011 1.34365   4
  -8  12   0 4.69840 1.52412   2
  -8  12   0 4.63087 1.64872   1
   7 -12   0 0.89006 0.83681   4
   7 -12   0 1.90077 1.30418   1
  -7  12   0 1.03577 1.02458   2
  -7  12   0 1.45894 1.16289   1
   6 -12   0 1.37419 1.23955   1
   6 -12   0 2.71055 1.29555   4
  -6  12   0 1.18229 1.01781   2
  -6  12   0 3.66676 1.52774   1
   5 -12   0 7.53160 2.36308   1
  -5  12   0 12.9061 2.66149   1
  -5  12   0 9.48274 2.13162   2
   4 -12   0 6.38802 2.20294   1
  -4  12   0 3.54395 1.39968   2
  -4  12   0 5.49688 1.74455   1
   3 -12   0 5.25471 2.01080   1
   3 -12   0 4.48219 1.97894   2
  -3  12   0 6.44063 1.95247   1
   2 -12   0 0.31973 1.19415   1
   2 -12   0 -1.6110 0.89429   2
  -2  12   0 0.18587 0.96376   1
   1 -12   0 4.64575 2.21996   2
   1 -12   0 6.05680 2.21686   1
  -1  12   0 7.36858 2.01814   1
   0 -12   0 0.97380 1.55811   2
   0 -12   0 -1.8522 0.84125   1
   0  12   0 0.18112 0.83529   5
  -1 -12   0 11.7793 3.14677   2
  -1 -12   0 20.9967 3.79024   1
   1  12   0 20.3401 2.85265   5
  10 -13   0 12.9066 2.21491   4
 -10  13   0 12.0697 2.52680   2
   9 -13   0 0.97615 0.92249   4
  -9  13   0 -0.2321 0.95492   1
  -9  13   0 2.06931 1.45307   2
   8 -13   0 0.17640 0.67485   4
  -8  13   0 0.50049 0.96831   1
  -8  13   0 1.10684 1.10486   2
   7 -13   0 10.0619 1.71362   4
  -7  13   0 8.71539 2.14644   2
  -7  13   0 8.91461 2.20261   1
   6 -13   0 18.8290 3.46032   1
   6 -13   0 15.5293 2.52159   4
  -6  13   0 15.6768 2.67297   2
  -6  13   0 13.0653 2.69979   1
   5 -13   0 9.91311 2.71725   1
  -5  13   0 10.0763 2.11558   2
  -5  13   0 11.0198 2.50725   1
   4 -13   0 1.12193 1.47247   1
  -4  13   0 2.39380 1.53619   1
   3 -13   0 4.61811 2.08517   1
  -3  13   0 1.64770 1.38409   1
   2 -13   0 4.46766 1.99597   1
   2 -13   0 11.6366 3.02259   2
  -2  13   0 7.32834 2.09862   1
   1 -13   0 -1.2935 1.22061   2
   1 -13   0 0.98851 1.30861   1
  -1  13   0 1.72780 1.17800   5
   8 -14   0 -0.0173 0.77921   4
  -8  14   0 -1.5055 0.81612   2
   7 -14   0 0.63968 0.77047   4
  -7  14   0 0.50932 1.11114   1
  -7  14   0 -1.9228 0.92116   2
   6 -14   0 -4.6896 1.59326   4
   6 -14   0 4.95512 2.27660   1
  -6  14   0 1.18717 1.35944   1
   5 -14   0 0.37048 1.51075   1
  -5  14   0 1.01629 1.27364   1
   4 -14   0 0.72145 1.78571   1
  -4  14   0 -0.3341 1.16747   1
   3 -14   1 13.1148 3.24480   1
  -4  14  -1 24.2195 3.83136   1
   4 -14   1 18.2210 3.57530   1
  -5  14  -1 52.1817 5.34925   1
   5 -14   1 61.4972 6.43456   1
  -6  14  -1 5.78230 2.02859   1
  -6  14  -1 6.93091 2.18771   2
   6 -14   1 0.11581 2.47765   4
   6 -14   1 4.37373 2.18303   1
  -7  14  -1 1.64338 1.39445   1
  -7  14  -1 2.16903 1.46765   2
   7 -14   1 2.35186 1.03060   4
  -1  13  -1 2.90947 1.27364   5
   1 -13   1 -0.5808 1.23921   2
   1 -13   1 0.33109 1.44195   1
  -2  13  -1 0.40111 1.11374   1
   2 -13   1 -0.6244 1.16615   1
   2 -13   1 0.22990 1.47546   2
  -3  13  -1 7.34185 2.09221   1
   3 -13   1 6.67354 2.29016   1
  -4  13  -1 21.1898 3.27319   1
   4 -13   1 14.9290 3.29785   1
  -5  13  -1 11.4320 2.47122   2
  -5  13  -1 7.46861 2.19054   1
   5 -13   1 11.0815 2.74224   1
  -6  13  -1 4.70194 1.79692   1
  -6  13  -1 4.15217 1.48107   2
   6 -13   1 5.62820 2.15148   1
   6 -13   1 -1.4276 1.77493   4
  -7  13  -1 30.8768 3.93812   1
  -7  13  -1 42.6994 4.51052   2
   7 -13   1 35.3012 3.31341   4
  -8  13  -1 -0.7461 0.89180   1
  -8  13  -1 -0.1093 0.78734   2
   8 -13   1 -0.2871 0.72363   4
  -9  13  -1 1.65484 1.36777   1
  -9  13  -1 5.67725 1.89301   2
   9 -13   1 4.33285 1.38564   4
   1  12  -1 0.23439 0.82249   5
  -1 -12   1 2.88780 1.89892   2
  -1 -12   1 1.00862 1.47058   1
   0  12  -1 0.07531 0.92549   5
   0 -12   1 0.79703 1.48964   2
   0 -12   1 1.46695 1.46151   1
  -1  12  -1 -0.3785 0.88372   1
   1 -12   1 0.66758 1.23439   2
   1 -12   1 -0.6719 1.15937   1
  -2  12  -1 0.57847 1.10780   1
   2 -12   1 1.38166 1.49733   1
   2 -12   1 0.97613 1.29222   2
  -3  12  -1 -0.4368 0.76114   1
   3 -12   1 -0.1538 1.20837   1
   3 -12   1 1.66572 1.67324   2
  -4  12  -1 20.2047 3.11406   1
  -4  12  -1 20.1979 2.91979   2
   4 -12   1 14.5124 2.99624   1
  -5  12  -1 1.39580 1.11138   2
  -5  12  -1 0.63626 1.17146   1
   5 -12   1 0.86050 1.35241   1
  -6  12  -1 8.90055 1.94552   2
  -6  12  -1 4.78967 1.67479   1
   6 -12   1 4.94072 1.77545   4
   6 -12   1 4.34354 1.86704   1
  -7  12  -1 -0.8160 0.75749   2
  -7  12  -1 1.26774 1.11438   1
   7 -12   1 0.15501 1.93616   1
   7 -12   1 1.79079 0.97632   4
  -8  12  -1 32.7681 3.91819   1
  -8  12  -1 32.5631 3.66039   2
   8 -12   1 34.9495 3.24809   4
  -9  12  -1 19.8871 3.03081   1
  -9  12  -1 21.3172 3.04888   2
   9 -12   1 28.8959 3.04853   4
 -10  12  -1 -0.3788 0.91508   2
 -10  12  -1 -1.1847 0.88097   1
  10 -12   1 -0.1703 0.81265   4
   3  11  -1 0.10493 0.88929   5
  -3 -11   1 2.64673 1.83120   1
  -3 -11   1 1.19897 1.88738   2
   2  11  -1 0.33375 0.83806   5
  -2 -11   1 -0.1474 1.34308   1
  -2 -11   1 0.71397 1.46464   2
   1  11  -1 4.24230 1.35208   5
  -1 -11   1 4.22599 1.82041   2
  -1 -11   1 3.44715 1.69284   1
   0  11  -1 0.13542 0.89077   1
   0  11  -1 0.11821 0.68755   5
   0 -11   1 1.41626 1.47770   1
   0 -11   1 1.61394 1.63108   2
  -1  11  -1 3.85906 1.53059   1
   1 -11   1 4.38325 1.83289   1
   1 -11   1 2.67879 1.66637   2
  -2  11  -1 20.5082 2.93033   1
   2 -11   1 17.5799 3.08150   1
   2 -11   1 10.3024 2.60955   2
  -3  11  -1 0.72543 0.92718   2
  -3  11  -1 1.11124 0.99447   1
   3 -11   1 1.27756 1.30473   1
   3 -11   1 3.04368 1.55185   2
  -4  11  -1 48.4398 4.52281   1
  -4  11  -1 52.9282 4.49846   2
   4 -11   1 50.4270 5.08778   1
   4 -11   1 50.9070 5.23729   2
  -5  11  -1 0.07401 0.89481   1
  -5  11  -1 0.33781 0.92727   2
   5 -11   1 2.90604 1.55072   1
  -6  11  -1 1.40533 1.11930   1
  -6  11  -1 1.93282 1.13341   2
   6 -11   1 1.13109 1.02629   4
   6 -11   1 2.38583 1.52760   1
  -7  11  -1 1.98442 1.10536   2
  -7  11  -1 1.43623 1.07621   1
   7 -11   1 2.34128 0.90261   4
   7 -11   1 1.97345 1.32024   1
  -8  11  -1 1.50859 1.05190   1
  -8  11  -1 0.70800 0.92792   2
   8 -11   1 -0.0331 0.72949   4
  -9  11  -1 -0.1073 0.80491   1
  -9  11  -1 1.61396 1.01669   2
   9 -11   1 -0.2549 0.59962   4
 -10  11  -1 12.7905 2.44115   1
 -10  11  -1 19.6635 2.72919   2
  10 -11   1 15.8747 2.41599   4
 -11  11  -1 1.41177 1.07003   2
 -11  11  -1 0.88618 1.12004   1
   4  10  -1 1.78729 1.17890   5
  -4 -10   1 -0.2145 1.12801   2
  -4 -10   1 2.16054 1.59108   1
   3  10  -1 -1.3896 0.66519   5
  -3 -10   1 -1.3043 0.98737   2
  -3 -10   1 -0.3930 1.28217   1
   2  10  -1 13.0552 2.11954   5
  -2 -10   1 10.5563 2.81795   2
  -2 -10   1 11.7101 2.72373   1
   1  10  -1 1.18273 0.89111   5
   1  10  -1 1.04660 0.97921   1
  -1 -10   1 1.78286 1.42322   1
  -1 -10   1 0.11959 1.30296   2
   0  10  -1 2.44277 1.21626   1
   0  10  -1 2.52430 1.02662   5
   0 -10   1 5.65555 1.95162   1
   0 -10   1 2.39936 1.46617   2
  -1  10  -1 27.4073 3.08871   2
  -1  10  -1 35.9113 3.72952   1
   1 -10   1 33.0086 4.13252   1
   1 -10   1 31.3698 4.16716   2
  -2  10  -1 -0.4483 0.70835   2
  -2  10  -1 0.27544 0.83475   1
   2 -10   1 -0.0053 0.88078   1
   2 -10   1 2.49062 1.36795   2
  -3  10  -1 10.8605 1.97979   2
  -3  10  -1 9.85908 2.05265   1
   3 -10   1 8.01570 2.18534   1
   3 -10   1 15.0383 2.86665   2
  -4  10  -1 0.62480 0.88678   1
  -4  10  -1 -0.2723 0.57852   2
   4 -10   1 0.09527 0.88263   2
   4 -10   1 0.34155 0.92728   1
  -5  10  -1 77.1378 4.62137   1
  -5  10  -1 72.0063 4.29463   2
   5 -10   1 82.2945 5.29450   2
   5 -10   1 83.4602 5.19923   1
  -6  10  -1 129.247 6.25875   1
  -6  10  -1 138.468 6.12684   2
   6 -10   1 123.771 5.19544   4
   6 -10   1 127.348 6.58478   1
  -7  10  -1 42.9403 3.94938   1
  -7  10  -1 49.4352 3.47191   2
   7 -10   1 44.8013 4.24445   1
   7 -10   1 49.2281 3.04869   4
  -8  10  -1 31.0873 3.19216   2
  -8  10  -1 36.9893 3.68257   1
   8 -10   1 22.9255 2.53555   4
  -9  10  -1 13.0467 2.19904   1
  -9  10  -1 15.0494 2.20647   2
   9 -10   1 14.8978 2.07800   4
 -10  10  -1 10.6961 1.99323   1
 -10  10  -1 8.50502 1.80328   2
  10 -10   1 10.2629 1.89554   4
 -11  10  -1 7.93659 1.86773   1
 -11  10  -1 8.20689 1.84776   2
 -12  10  -1 -0.4344 0.80015   1
 -12  10  -1 -0.4184 0.74948   2
   5   9  -1 0.69337 0.95831   5
  -5  -9   1 -0.8070 1.24641   1
  -5  -9   1 1.60761 1.37694   2
   4   9  -1 16.4895 2.49927   5
  -4  -9   1 17.4887 3.27451   1
  -4  -9   1 10.9323 2.74510   2
   3   9  -1 -0.1455 0.67993   5
  -3  -9   1 -0.0192 1.00290   1
  -3  -9   1 0.44920 1.16753   2
   2   9  -1 -0.6534 0.55435   5
  -2  -9   1 0.26232 1.07481   1
  -2  -9   1 0.44096 1.11278   2
   1   9  -1 15.2435 2.25953   1
   1   9  -1 21.7580 2.38225   5
  -1  -9   1 21.8320 3.47778   2
  -1  -9   1 26.1631 3.54006   1
   0   9  -1 77.2630 4.40245   1
   0   9  -1 66.4033 3.99653   2
   0  -9   1 76.4786 6.26601   2
   0  -9   1 81.7840 5.20816   1
  -1   9  -1 105.637 5.12729   2
  -1   9  -1 105.031 5.35958   1
   1  -9   1 119.334 6.45182   2
   1  -9   1 104.407 5.96932   1
  -2   9  -1 19.0344 2.42349   2
  -2   9  -1 17.0351 2.42324   1
   2  -9   1 19.8022 2.97480   2
   2  -9   1 17.3407 2.75838   1
  -3   9  -1 28.2857 2.95061   2
  -3   9  -1 25.9768 2.90961   1
   3  -9   1 23.0537 3.09816   1
   3  -9   1 25.5835 3.34340   2
  -4   9  -1 9.32159 1.67484   2
  -4   9  -1 8.15665 1.69317   1
   4  -9   1 12.4044 2.34561   1
   4  -9   1 7.11146 1.89204   2
  -5   9  -1 11.7250 1.87128   2
  -5   9  -1 9.93610 1.86369   1
   5  -9   1 7.83434 1.89319   2
   5  -9   1 11.9346 1.94190   4
   5  -9   1 12.5835 2.25614   1
  -6   9  -1 21.2856 2.56947   1
  -6   9  -1 17.5594 2.22537   2
   6  -9   1 15.4823 2.43112   2
   6  -9   1 19.7136 2.02905   4
   6  -9   1 23.7004 3.09119   1
  -7   9  -1 1.29853 0.94163   1
  -7   9  -1 0.41011 0.73177   2
   7  -9   1 3.87356 1.10301   1
   7  -9   1 1.46151 0.77818   4
  -8   9  -1 1.50838 0.91762   2
  -8   9  -1 3.02784 1.11637   1
   8  -9   1 1.29575 0.79367   4
  -9   9  -1 37.6475 3.40231   2
  -9   9  -1 33.8555 3.39868   1
   9  -9   1 37.8027 2.77005   4
 -10   9  -1 1.70559 1.03096   1
 -10   9  -1 3.77471 1.26491   2
 -11   9  -1 0.64313 0.77082   2
 -11   9  -1 -0.7173 0.66638   1
 -12   9  -1 1.12545 0.92835   2
 -12   9  -1 1.27683 0.97612   1
   6   8  -1 1.36433 1.18939   5
  -6  -8   1 4.32869 1.89255   2
  -6  -8   1 3.22362 1.57579   1
   5   8  -1 9.08118 1.95216   5
  -5  -8   1 12.1913 2.61995   2
  -5  -8   1 9.57317 2.32488   1
   4   8  -1 1.08885 0.96661   5
  -4  -8   1 1.63519 1.37046   2
  -4  -8   1 0.73761 1.00434   1
   3   8  -1 8.82088 1.61043   5
  -3  -8   1 5.63000 1.92384   2
  -3  -8   1 7.95304 2.10908   1
   2   8  -1 39.7285 3.17755   5
   2   8  -1 34.1772 3.19317   1
  -2  -8   1 37.0775 3.96270   1
  -2  -8   1 36.9323 4.03324   2
   1   8  -1 3.50727 1.17646   1
   1   8  -1 2.46813 0.89771   5
   1   8  -1 3.69487 1.11586   2
  -1  -8   1 1.52769 1.18870   2
  -1  -8   1 1.90096 1.12270   1
   0   8  -1 12.3314 1.82218   2
   0   8  -1 11.9010 1.88170   1
   0  -8   1 13.4556 2.37647   1
   0  -8   1 11.6326 2.34494   2
  -1   8  -1 33.7127 2.95659   2
  -1   8  -1 40.0208 3.43441   1
   1  -8   1 33.2426 3.67154   2
   1  -8   1 44.2213 4.04639   1
  -2   8  -1 25.2773 2.60618   2
  -2   8  -1 27.5486 2.86138   1
   2  -8   1 30.2326 3.39334   1
   2  -8   1 29.9323 3.37512   2
  -3   8  -1 31.7145 2.81503   2
  -3   8  -1 33.0163 3.01179   1
   3  -8   1 22.9248 2.86184   1
   3  -8   1 30.8198 3.37260   2
  -4   8  -1 -0.2160 0.61461   1
  -4   8  -1 0.36788 0.56268   2
   4  -8   1 0.32872 0.83573   2
   4  -8   1 -0.0091 0.77961   1
  -5   8  -1 104.649 5.60077   2
  -5   8  -1 109.933 5.11189   1
  -5   8  -1 110.002 4.91337   2
   5  -8   1 112.882 5.49746   2
   5  -8   1 117.361 5.56915   1
   5  -8   1 115.456 4.49389   4
  -6   8  -1 1.22385 0.80452   2
  -6   8  -1 2.45079 1.20749   2
  -6   8  -1 3.47100 1.10221   1
   6  -8   1 2.20795 0.74782   4
   6  -8   1 2.03640 1.01006   1
   6  -8   1 2.50533 1.09979   2
  -7   8  -1 148.336 7.17938   2
  -7   8  -1 171.570 6.69880   1
  -7   8  -1 166.917 6.39625   2
  -7   8  -1 149.751 6.79237   1
   7  -8   1 172.299 6.18529   4
   7  -8   1 171.150 6.77917   1
  -8   8  -1 4.30048 1.16467   2
  -8   8  -1 4.54113 1.27653   1
   8  -8   1 5.94634 1.33673   4
  -9   8  -1 21.4476 2.41738   1
  -9   8  -1 15.3014 1.99853   2
   9  -8   1 20.0242 2.35255   4
 -10   8  -1 12.5584 1.91406   1
 -10   8  -1 12.8981 1.86864   2
 -11   8  -1 4.05705 1.16129   2
 -11   8  -1 3.82676 1.17042   1
 -12   8  -1 10.1346 1.70733   2
 -12   8  -1 7.86519 1.51831   1
   7   7  -1 -0.7250 0.77511   5
  -7  -7   1 -0.0571 1.20937   2
  -7  -7   1 0.95490 1.27712   1
   6   7  -1 5.52524 1.55288   5
  -6  -7   1 3.93523 1.60361   1
  -6  -7   1 5.34024 1.94685   2
   5   7  -1 1.84772 1.01337   5
  -5  -7   1 1.85275 1.33684   2
  -5  -7   1 2.43914 1.30296   1
   4   7  -1 7.99643 1.65564   5
  -4  -7   1 7.24012 1.85051   1
  -4  -7   1 7.15136 1.97534   2
   3   7  -1 21.2393 2.35278   5
   3   7  -1 25.5379 2.58037   1
  -3  -7   1 22.2856 3.00450   2
  -3  -7   1 22.0949 2.87054   1
   2   7  -1 0.66316 0.67489   2
   2   7  -1 0.80426 0.58990   5
   2   7  -1 -0.0494 0.56344   1
  -2  -7   1 -0.2857 0.73710   2
  -2  -7   1 1.17496 0.75169   2
  -2  -7   1 -0.4983 0.60397   1
   1   7  -1 5.76574 1.25780   2
   1   7  -1 4.64790 1.00600   5
   1   7  -1 3.19348 0.97327   1
  -1  -7   1 1.73659 1.19201   2
  -1  -7   1 3.26828 1.04616   2
  -1  -7   1 3.52214 1.26167   1
   0   7  -1 3.31220 0.99181   1
   0   7  -1 6.57783 1.27392   2
   0  -7   1 4.83332 1.48512   2
   0  -7   1 3.52974 1.22755   1
  -1   7  -1 13.9610 1.74422   2
  -1   7  -1 12.0900 1.73134   1
   1  -7   1 12.6326 2.14657   2
   1  -7   1 12.1955 2.04351   1
  -2   7  -1 250.083 8.61948   2
  -2   7  -1 278.984 9.04753   1
   2  -7   1 258.060 9.60851   2
   2  -7   1 275.084 9.58655   1
  -3   7  -1 50.1430 2.99836   1
  -3   7  -1 48.2626 2.79159   2
   3  -7   1 46.5650 3.23574   1
   3  -7   1 46.4348 3.30013   2
  -4   7  -1 -0.2161 0.53337   1
  -4   7  -1 -0.3690 0.65796   2
  -4   7  -1 0.17787 0.49534   2
   4  -7   1 -0.9442 0.49729   2
   4  -7   1 0.07278 0.67946   1
   4  -7   1 -0.2130 0.77228   4
  -5   7  -1 31.3292 2.75677   1
  -5   7  -1 26.5786 2.77102   1
  -5   7  -1 29.4162 2.99570   2
  -5   7  -1 26.3526 2.44297   2
   5  -7   1 30.5957 1.91156   4
   5  -7   1 28.8278 2.80232   1
  -6   7  -1 32.2983 3.12308   1
  -6   7  -1 31.0666 3.20839   2
  -6   7  -1 28.3975 2.68800   1
  -6   7  -1 31.3829 2.20621   2
   6  -7   1 37.7758 3.21391   1
   6  -7   1 29.4716 1.99290   4
   6  -7   1 28.4254 2.66449   2
  -7   7  -1 2.57042 1.02618   1
  -7   7  -1 2.58830 1.08850   2
  -7   7  -1 3.94185 0.97640   2
  -7   7  -1 3.54979 0.99247   1
   7  -7   1 2.81618 1.01753   1
   7  -7   1 4.08358 0.96866   4
  -8   7  -1 0.35398 0.84531   1
  -8   7  -1 1.32762 0.92142   2
  -8   7  -1 0.03613 0.53459   2
  -8   7  -1 0.04236 0.61682   1
   8  -7   1 0.22483 0.53245   4
   8  -7   1 -0.4033 0.57027   1
  -9   7  -1 7.94319 1.40420   1
  -9   7  -1 7.47777 1.35648   2
 -10   7  -1 2.86606 0.89420   2
 -10   7  -1 3.93466 1.11427   1
 -11   7  -1 0.05816 0.62700   1
 -11   7  -1 -0.5898 0.48674   2
 -12   7  -1 1.00421 0.74617   1
 -12   7  -1 0.17073 0.62087   2
   8   6  -1 4.47101 1.61467   5
  -8  -6   1 6.39694 1.88085   1
  -8  -6   1 6.13705 2.04359   2
   7   6  -1 -0.7378 0.69095   5
  -7  -6   1 0.94072 1.06281   2
  -7  -6   1 0.00481 1.11026   1
   6   6  -1 1.52542 0.93893   5
  -6  -6   1 0.34513 0.98476   1
  -6  -6   1 0.65325 1.08002   2
   5   6  -1 17.3085 2.30229   5
  -5  -6   1 12.8548 2.26005   2
  -5  -6   1 16.6892 2.49249   1
   4   6  -1 39.8674 2.46491   1
   4   6  -1 35.9077 3.05089   5
  -4  -6   1 36.5094 3.59978   1
  -4  -6   1 34.9799 3.64637   2
   3   6  -1 0.09643 0.47196   1
   3   6  -1 0.02325 0.48641   5
   3   6  -1 0.35500 0.53798   2
  -3  -6   1 0.65566 0.66383   2
  -3  -6   1 -0.2065 0.49605   1
  -3  -6   1 0.74751 0.81428   1
  -3  -6   1 0.00700 0.80336   2
   2   6  -1 8.55937 1.39801   1
   2   6  -1 7.00085 1.18624   5
   2   6  -1 6.25662 1.16947   2
  -2  -6   1 6.48661 1.37547   1
  -2  -6   1 8.81423 1.42759   2
  -2  -6   1 6.59943 1.48267   1
  -2  -6   1 8.58078 1.68521   2
   1   6  -1 77.5594 3.68837   1
   1   6  -1 78.6521 3.33393   5
   1   6  -1 85.1165 3.68151   2
  -1  -6   1 78.6795 3.87036   1
  -1  -6   1 74.2606 3.59794   2
  -1  -6   1 74.0364 4.11735   1
  -1  -6   1 84.2561 4.47732   2
   0   6  -1 75.2464 3.50129   2
   0   6  -1 76.9563 3.70867   1
   0  -6   1 80.0846 3.67803   2
   0  -6   1 78.2857 4.27609   2
   0  -6   1 77.2113 3.79284   1
   0  -6   1 84.2531 4.21808   1
  -1   6  -1 68.3426 3.35395   1
  -1   6  -1 67.4169 3.19984   2
   1  -6   1 64.2048 3.65399   1
   1  -6   1 65.0053 3.77782   2
  -2   6  -1 -0.2263 0.40804   2
  -2   6  -1 -0.0815 0.49258   1
   2  -6   1 0.33994 0.70012   2
   2  -6   1 -0.1383 0.50838   1
  -3   6  -1 3.92031 0.95799   1
  -3   6  -1 3.35576 1.04910   1
  -3   6  -1 6.08798 1.34085   2
  -3   6  -1 3.92312 0.87881   2
   3  -6   1 2.83388 0.98851   1
   3  -6   1 4.20907 1.12324   2
  -4   6  -1 0.76583 0.65818   1
  -4   6  -1 0.32890 0.56747   2
  -4   6  -1 0.18001 0.47258   2
  -4   6  -1 0.12963 0.53979   1
   4  -6   1 0.89056 0.70103   4
   4  -6   1 1.07148 0.67655   1
   4  -6   1 0.91455 0.69698   2
  -5   6  -1 127.028 5.30795   2
  -5   6  -1 117.265 4.71322   1
  -5   6  -1 112.876 4.50492   2
  -5   6  -1 117.710 4.99820   1
   5  -6   1 114.150 4.29976   4
   5  -6   1 114.367 4.80575   2
   5  -6   1 126.814 4.98119   1
  -6   6  -1 20.9149 2.03616   1
  -6   6  -1 23.3778 2.44082   1
  -6   6  -1 22.6527 2.52887   2
  -6   6  -1 21.6030 1.97804   2
   6  -6   1 19.2913 1.84872   4
   6  -6   1 20.1258 1.90066   2
   6  -6   1 20.3248 2.06260   1
  -7   6  -1 53.7178 2.80488   2
  -7   6  -1 56.7491 2.99964   1
  -7   6  -1 59.3950 3.42415   2
  -7   6  -1 54.9887 3.16833   1
   7  -6   1 59.2698 3.04688   4
   7  -6   1 60.3512 2.87727   1
  -8   6  -1 1.28663 0.69800   1
  -8   6  -1 2.56033 0.97814   2
  -8   6  -1 2.18539 0.87874   1
  -8   6  -1 1.38962 0.63988   2
   8  -6   1 1.53444 0.51875   1
  -9   6  -1 9.31237 1.34652   2
  -9   6  -1 6.75463 1.41488   2
  -9   6  -1 7.80530 1.27927   1
 -10   6  -1 2.84493 0.84277   2
 -10   6  -1 3.48370 0.92500   1
 -11   6  -1 -0.3865 0.46564   2
 -11   6  -1 1.52111 0.63611   1
 -12   6  -1 3.05236 0.88361   2
 -12   6  -1 2.56324 0.78024   1
   8   5  -1 12.2464 2.27299   5
  -8  -5   1 13.0880 2.22131   1
  -8  -5   1 12.8940 2.35320   2
  -8  -5   1 8.98701 1.75968   3
   7   5  -1 0.15656 0.83794   5
  -7  -5   1 -0.5738 0.60868   3
  -7  -5   1 0.64259 0.95110   1
  -7  -5   1 0.47875 0.89626   2
   6   5  -1 0.42065 0.74090   5
  -6  -5   1 0.22842 0.72030   1
  -6  -5   1 -0.5480 0.66241   2
  -6  -5   1 -0.8935 0.50145   3
   5   5  -1 31.4709 2.97003   5
  -5  -5   1 26.1294 2.74311   1
  -5  -5   1 26.4926 2.31083   3
  -5  -5   1 26.7569 2.42224   2
  -5  -5   1 29.4170 3.03381   2
   4   5  -1 154.357 5.77000   5
   4   5  -1 147.848 5.20626   1
  -4  -5   1 134.080 5.58252   1
  -4  -5   1 142.296 5.45693   2
  -4  -5   1 145.016 6.27192   2
  -4  -5   1 161.430 6.32231   1
  -4  -5   1 143.707 5.23213   3
   3   5  -1 15.6996 1.53578   2
   3   5  -1 12.4418 1.56558   5
   3   5  -1 16.5276 1.76343   1
  -3  -5   1 12.5684 1.54887   2
  -3  -5   1 13.8016 1.95050   1
  -3  -5   1 11.6555 1.63535   1
  -3  -5   1 12.1348 1.85751   2
   2   5  -1 18.0184 1.79806   1
   2   5  -1 20.0553 1.82739   5
   2   5  -1 23.8242 1.98790   2
  -2  -5   1 23.8177 2.56529   1
  -2  -5   1 21.6702 2.19232   1
  -2  -5   1 18.5108 1.86779   2
  -2  -5   1 17.8654 2.15591   2
   1   5  -1 18.6234 1.74867   1
   1   5  -1 20.1165 1.82857   2
   1   5  -1 14.9028 1.42527   5
  -1  -5   1 17.2967 1.69775   2
  -1  -5   1 14.3063 1.88510   2
  -1  -5   1 19.1774 2.06939   1
   0   5  -1 25.3793 1.80275   1
   0   5  -1 23.8923 1.66433   2
   0  -5   1 24.7878 2.48476   2
   0  -5   1 22.3155 2.24072   1
   0  -5   1 24.7263 1.73593   2
  -1   5  -1 109.744 4.31913   1
  -1   5  -1 118.799 4.24409   2
  -1   5  -1 109.216 4.59028   1
   1  -5   1 110.751 4.66912   1
   1  -5   1 110.017 4.34294   1
   1  -5   1 108.599 4.17056   2
   1  -5   1 106.328 4.73199   2
  -2   5  -1 55.3182 2.71525   1
  -2   5  -1 52.5239 2.53135   2
  -2   5  -1 53.1635 3.00862   2
  -2   5  -1 49.7745 2.82735   1
   2  -5   1 50.9285 2.66178   1
   2  -5   1 53.0622 2.99130   2
   2  -5   1 49.7812 2.85991   1
  -3   5  -1 57.9214 2.84989   1
  -3   5  -1 64.5027 2.81904   2
  -3   5  -1 64.9844 3.32350   2
  -3   5  -1 58.3006 3.07091   1
   3  -5   1 61.5774 3.12490   1
   3  -5   1 54.3213 3.03164   2
  -4   5  -1 218.636 7.61762   2
  -4   5  -1 220.210 6.98627   2
  -4   5  -1 231.897 7.56672   1
  -4   5  -1 229.982 7.19568   1
   4  -5   1 228.245 7.39304   2
   4  -5   1 223.419 6.76201   4
   4  -5   1 224.208 7.39854   1
  -5   5  -1 276.091 8.24649   2
  -5   5  -1 290.002 8.45563   1
  -5   5  -1 263.291 8.80715   2
  -5   5  -1 270.778 8.71053   1
   5  -5   1 277.982 8.24356   4
   5  -5   1 272.607 8.49034   1
   5  -5   1 273.582 8.28046   2
  -6   5  -1 75.8135 3.18775   1
  -6   5  -1 68.3626 3.31273   1
  -6   5  -1 68.8285 3.44019   2
  -6   5  -1 68.1844 2.95095   2
   6  -5   1 72.2195 3.20233   4
  -7   5  -1 63.4540 3.16527   1
  -7   5  -1 67.6299 3.37207   2
  -7   5  -1 73.5168 2.97704   2
  -7   5  -1 68.0053 3.04096   1
   7  -5   1 66.5693 2.38319   1
  -8   5  -1 0.14785 0.53072   1
  -8   5  -1 1.33526 0.72356   2
  -8   5  -1 0.93414 0.56935   1
  -8   5  -1 0.27790 0.46495   2
  -9   5  -1 47.5815 2.77733   2
  -9   5  -1 43.6155 2.28290   2
  -9   5  -1 49.3007 2.47235   1
 -10   5  -1 -0.2923 0.43593   2
 -10   5  -1 -0.2677 0.56472   2
 -10   5  -1 -0.5903 0.39381   1
 -11   5  -1 9.80992 1.17802   1
 -11   5  -1 9.32328 1.19684   2
 -12   5  -1 0.55234 0.51211   2
   9   4  -1 16.1114 2.72197   5
  -9  -4   1 19.5512 2.62523   2
  -9  -4   1 20.4782 2.51010   3
  -9  -4   1 23.2796 2.69009   1
   8   4  -1 7.53821 1.72886   5
  -8  -4   1 6.66794 1.44417   3
  -8  -4   1 6.08602 1.50464   2
  -8  -4   1 6.49778 1.53447   1
   7   4  -1 1.89580 1.02975   5
  -7  -4   1 2.89322 1.18119   2
  -7  -4   1 0.09772 0.82345   1
  -7  -4   1 1.65970 0.84059   3
   6   4  -1 -0.1824 0.57964   5
  -6  -4   1 0.24629 0.70024   2
  -6  -4   1 -0.7038 0.49542   3
  -6  -4   1 0.12373 0.45679   2
  -6  -4   1 0.03570 0.59444   1
   5   4  -1 -0.2188 0.29253   1
   5   4  -1 -0.8473 0.38130   5
  -5  -4   1 -0.1506 0.51463   1
  -5  -4   1 0.54278 0.67501   2
  -5  -4   1 -0.2827 0.38373   2
  -5  -4   1 -0.4440 0.37992   3
  -5  -4   1 -0.4386 0.41338   1
   4   4  -1 39.8543 2.45471   5
  -4  -4   1 38.6484 2.19676   2
  -4  -4   1 38.1301 2.56467   1
  -4  -4   1 39.5469 2.71064   2
  -4  -4   1 42.8705 2.41867   1
  -4  -4   1 38.7291 2.16870   3
   3   4  -1 8.69741 1.01844   2
   3   4  -1 9.79854 1.17045   1
   3   4  -1 6.81555 1.08110   5
  -3  -4   1 8.82090 1.27623   1
  -3  -4   1 9.53408 1.22061   2
  -3  -4   1 8.46255 1.12592   3
  -3  -4   1 8.35065 1.41430   1
  -3  -4   1 7.54221 1.33468   2
   2   4  -1 0.33219 0.38745   5
   2   4  -1 0.71495 0.49658   1
   2   4  -1 0.44381 0.41940   2
  -2  -4   1 1.32025 0.65233   2
  -2  -4   1 0.76226 0.44815   2
  -2  -4   1 0.74519 0.50373   1
  -2  -4   1 0.29666 0.55198   1
   1   4  -1 59.9807 2.62311   1
   1   4  -1 51.3001 2.69880   1
   1   4  -1 51.1316 2.41688   2
   1   4  -1 58.1726 2.34043   5
  -1  -4   1 55.5579 2.98564   2
  -1  -4   1 54.1372 2.50290   2
  -1  -4   1 56.0514 2.90051   1
  -1  -4   1 53.9859 2.60939   1
   0   4  -1 4.74562 0.85918   1
   0   4  -1 8.28190 1.07316   2
   0   4  -1 6.42049 1.13363   1
   0  -4   1 7.58801 1.29853   2
   0  -4   1 6.76249 1.05120   1
   0  -4   1 7.37171 1.01240   2
   0  -4   1 4.37690 0.93804   1
  -1   4  -1 0.00599 0.46259   2
  -1   4  -1 1.19469 0.56489   1
  -1   4  -1 0.18374 0.38834   2
  -1   4  -1 1.45768 0.66795   1
   1  -4   1 0.09157 0.38637   1
   1  -4   1 0.33455 0.40596   2
   1  -4   1 1.33506 0.64082   1
   1  -4   1 1.12564 0.69306   2
  -2   4  -1 115.330 3.85337   2
  -2   4  -1 102.319 4.10330   1
  -2   4  -1 110.883 3.95747   1
  -2   4  -1 112.355 4.34194   2
   2  -4   1 105.514 3.92164   1
   2  -4   1 108.725 4.20788   1
   2  -4   1 107.082 3.77968   2
   2  -4   1 101.882 4.17889   2
  -3   4  -1 0.97672 0.50320   1
  -3   4  -1 1.41126 0.66801   2
  -3   4  -1 2.00716 0.63683   1
  -3   4  -1 2.33326 0.57314   2
   3  -4   1 1.82318 0.62008   1
   3  -4   1 0.11060 0.24321   2
   3  -4   1 2.02365 0.61122   1
   3  -4   1 1.57736 0.49294   4
  -4   4  -1 131.474 4.30969   2
  -4   4  -1 132.352 4.45342   1
  -4   4  -1 134.284 4.82528   2
  -4   4  -1 129.528 4.68687   1
  -4   4  -1 121.301 4.40180   4
   4  -4   1 126.609 4.42059   2
   4  -4   1 128.483 4.30447   4
   4  -4   1 128.775 4.40136   1
   4  -4   1 138.467 4.62330   1
  -5   4  -1 64.0622 2.68576   1
  -5   4  -1 67.5314 3.00058   2
  -5   4  -1 65.3694 3.00406   4
  -5   4  -1 65.4850 2.57429   2
  -5   4  -1 61.3159 2.83963   1
   5  -4   1 65.1836 2.80679   4
   5  -4   1 63.7703 2.21888   2
   5  -4   1 62.1781 2.52273   1
  -6   4  -1 47.0987 2.06790   2
  -6   4  -1 46.8475 2.34595   1
  -6   4  -1 44.1185 2.15327   1
  -6   4  -1 49.9733 2.46394   2
   6  -4   1 46.6348 1.67948   1
   6  -4   1 48.6208 1.67020   1
  -7   4  -1 8.32939 0.95429   2
  -7   4  -1 7.36586 1.05519   1
  -7   4  -1 11.5169 1.18341   1
  -7   4  -1 9.31621 1.21641   2
  -8   4  -1 161.274 5.00452   1
  -8   4  -1 155.989 4.85339   2
  -8   4  -1 154.894 5.30892   2
  -8   4  -1 149.971 5.15853   1
  -9   4  -1 3.52390 0.67121   2
  -9   4  -1 2.04154 0.70727   2
  -9   4  -1 2.71429 0.66819   1
  -9   4  -1 2.37604 0.62444   1
 -10   4  -1 17.2973 1.18345   1
 -10   4  -1 15.0642 1.54934   2
 -10   4  -1 16.8161 1.18786   2
 -11   4  -1 -0.0473 0.29870   1
 -11   4  -1 0.78638 0.53533   2
 -11   4  -1 -0.0523 0.31972   2
 -12   4  -1 0.78065 0.44594   2
  10   3  -1 0.12714 1.10831   5
 -10  -3   1 2.04297 0.87783   1
 -10  -3   1 0.62453 0.85678   3
 -10  -3   1 2.48740 1.18652   2
   9   3  -1 0.60730 0.95901   5
  -9  -3   1 0.39964 0.73263   3
  -9  -3   1 -0.5830 0.78993   1
  -9  -3   1 -0.6324 0.76435   2
   8   3  -1 0.89032 0.90469   5
  -8  -3   1 0.91259 0.77906   1
  -8  -3   1 1.51339 0.97204   2
  -8  -3   1 0.88061 0.87148   3
   7   3  -1 25.4183 2.69521   5
  -7  -3   1 26.6946 2.42948   3
  -7  -3   1 23.8571 2.40190   2
  -7  -3   1 25.5926 1.75305   2
  -7  -3   1 20.2842 2.16906   1
   6   3  -1 0.19704 0.63377   5
  -6  -3   1 0.98814 0.64341   3
  -6  -3   1 0.95247 0.71143   2
  -6  -3   1 0.77331 0.48854   2
  -6  -3   1 0.88694 0.65432   1
  -6  -3   1 1.28740 0.58538   1
   5   3  -1 3.90803 0.41749   1
   5   3  -1 3.38820 0.94250   5
  -5  -3   1 3.76134 0.88974   1
  -5  -3   1 2.83964 0.86844   2
  -5  -3   1 4.00841 0.86681   3
  -5  -3   1 2.49282 0.66470   2
  -5  -3   1 4.11944 0.97967   1
   4   3  -1 34.8318 1.62369   1
   4   3  -1 34.1747 2.12275   5
  -4  -3   1 35.3010 1.95134   3
  -4  -3   1 36.8262 2.27485   2
  -4  -3   1 38.8887 2.27090   1
  -4  -3   1 38.3825 2.02600   1
  -4  -3   1 34.2940 1.85372   2
   3   3  -1 5.38112 0.67123   2
   3   3  -1 6.70311 0.96087   1
   3   3  -1 6.76729 0.85917   1
   3   3  -1 4.12886 0.81957   5
  -3  -3   1 4.47577 0.77212   2
  -3  -3   1 4.76307 0.85596   1
  -3  -3   1 6.08584 1.06476   1
  -3  -3   1 5.31183 0.81219   3
  -3  -3   1 6.09506 1.07727   2
   2   3  -1 70.6230 2.82383   1
   2   3  -1 84.2042 2.95751   5
   2   3  -1 76.5089 3.02872   1
   2   3  -1 77.2308 2.78111   2
  -2  -3   1 66.9179 3.16368   2
  -2  -3   1 77.1903 3.24049   1
  -2  -3   1 74.9156 2.96516   1
  -2  -3   1 70.1886 2.81532   2
  -2  -3   1 77.0850 2.75075   3
   1   3  -1 0.35564 0.44420   1
   1   3  -1 1.51654 0.42910   5
   1   3  -1 0.13001 0.22642   2
   1   3  -1 1.40266 0.38842   3
   1   3  -1 0.23076 0.33693   1
  -1  -3   1 1.05427 0.44400   1
  -1  -3   1 1.07698 0.42821   2
  -1  -3   1 0.68717 0.48700   1
  -1  -3   1 0.22517 0.47561   2
   0   3  -1 122.940 4.09122   1
   0   3  -1 122.809 4.31993   1
   0   3  -1 122.597 4.39998   2
   0  -3   1 118.146 4.07896   1
   0  -3   1 122.840 4.45933   2
   0  -3   1 124.869 4.36817   1
   0  -3   1 129.716 4.03750   2
  -1   3  -1 1050.17 27.1030   2
  -1   3  -1 1052.31 26.6864   1
  -1   3  -1 1048.08 26.9850   1
  -1   3  -1 1081.28 26.5910   2
   1  -3   1 1045.24 27.0694   2
   1  -3   1 1077.69 26.5831   2
   1  -3   1 1046.67 27.0006   1
   1  -3   1 1007.64 26.6408   1
  -2   3  -1 18.4697 1.14660   2
  -2   3  -1 19.5090 1.68158   2
  -2   3  -1 20.7973 1.40108   1
  -2   3  -1 17.8180 1.19641   1
   2  -3   1 15.9873 1.45986   2
   2  -3   1 16.7863 1.15682   1
   2  -3   1 19.5512 1.66053   1
   2  -3   1 18.4328 1.11708   2
  -3   3  -1 435.640 11.4601   1
  -3   3  -1 437.129 11.4152   4
  -3   3  -1 433.072 11.7151   1
  -3   3  -1 430.778 11.7780   2
  -3   3  -1 421.518 11.3255   2
   3  -3   1 419.323 11.5866   1
   3  -3   1 423.683 11.5137   2
   3  -3   1 431.860 11.4082   1
   3  -3   1 422.335 11.3635   4
  -4   3  -1 607.750 16.1926   2
  -4   3  -1 640.051 15.8287   2
  -4   3  -1 621.042 15.9595   1
  -4   3  -1 620.099 16.2167   1
  -4   3  -1 600.904 16.1365   4
   4  -3   1 608.810 15.8950   1
   4  -3   1 598.059 15.4333   2
   4  -3   1 618.274 15.8056   1
   4  -3   1 620.791 16.1950   4
  -5   3  -1 105.348 3.32795   1
  -5   3  -1 96.7601 3.67996   4
  -5   3  -1 99.2028 3.44335   2
  -5   3  -1 98.7766 3.13971   2
  -5   3  -1 93.4674 3.42246   1
  -6   3  -1 2.70134 0.50807   1
  -6   3  -1 2.12948 0.41757   2
  -6   3  -1 3.11097 0.60717   1
  -6   3  -1 2.31850 0.52279   2
  -7   3  -1 59.9051 2.31038   2
  -7   3  -1 55.1411 2.28586   1
  -7   3  -1 59.1980 2.04998   2
  -7   3  -1 55.7452 2.15720   1
  -8   3  -1 91.3626 3.20429   1
  -8   3  -1 95.1201 3.26424   2
  -8   3  -1 98.3785 3.11229   1
  -8   3  -1 96.8266 2.99346   2
  -9   3  -1 68.9301 2.35709   1
  -9   3  -1 69.5897 2.46523   1
  -9   3  -1 72.0644 2.36343   2
  -9   3  -1 67.0069 2.59398   2
 -10   3  -1 0.64514 0.30998   2
 -10   3  -1 1.32850 0.47224   2
 -11   3  -1 0.19359 0.36597   2
  10   2  -1 0.39936 0.90037   5
 -10  -2   1 0.82866 0.87581   3
 -10  -2   1 -0.6030 0.56918   1
 -10  -2   1 -0.4768 0.70384   2
   9   2  -1 3.24904 1.25474   5
  -9  -2   1 1.97224 0.88653   1
  -9  -2   1 3.01550 1.08975   3
  -9  -2   1 1.19984 0.82330   2
   8   2  -1 3.03338 1.22780   5
  -8  -2   1 1.93438 0.66457   2
  -8  -2   1 2.26800 0.83870   2
  -8  -2   1 3.77971 1.10685   3
  -8  -2   1 1.87644 0.71450   1
   7   2  -1 1.71409 0.83293   5
  -7  -2   1 0.67158 0.57766   1
  -7  -2   1 0.75736 0.47953   1
  -7  -2   1 1.88640 0.71900   2
  -7  -2   1 -0.0430 0.56716   3
  -7  -2   1 1.17807 0.49093   2
   6   2  -1 38.4860 2.48668   5
  -6  -2   1 37.1052 1.84494   2
  -6  -2   1 38.4407 2.19719   2
  -6  -2   1 35.2684 1.89590   1
  -6  -2   1 37.8767 2.14726   1
  -6  -2   1 36.1604 2.19837   3
   5   2  -1 199.967 6.99133   5
  -5  -2   1 216.472 6.25295   2
  -5  -2   1 214.797 6.67416   1
  -5  -2   1 221.153 6.73126   2
  -5  -2   1 215.517 6.71945   3
  -5  -2   1 204.080 6.31517   1
   4   2  -1 3.29818 0.41785   1
   4   2  -1 3.29478 0.78652   5
  -4  -2   1 2.42582 0.65187   2
  -4  -2   1 3.14143 0.58872   2
  -4  -2   1 1.99399 0.59308   1
  -4  -2   1 2.15162 0.57790   3
  -4  -2   1 1.59979 0.48982   1
   3   2  -1 160.181 5.13929   5
   3   2  -1 161.754 4.76628   1
   3   2  -1 160.052 4.33054   2
   3   2  -1 159.924 4.65657   1
  -3  -2   1 158.163 4.81383   2
  -3  -2   1 169.826 4.98726   3
  -3  -2   1 161.596 5.14062   1
  -3  -2   1 159.548 5.15297   2
  -3  -2   1 156.482 4.87642   1
   2   2  -1 167.114 4.89053   1
   2   2  -1 160.193 4.74099   3
   2   2  -1 161.401 4.70996   1
   2   2  -1 160.644 4.81951   5
   2   2  -1 157.919 4.58116   2
  -2  -2   1 167.170 4.75865   2
  -2  -2   1 160.967 5.03016   1
  -2  -2   1 154.428 5.03994   2
  -2  -2   1 153.822 4.76439   1
  -2  -2   1 156.274 4.76635   5
  -2  -2   1 152.228 4.65705   3
   1   2  -1 1603.99 40.7637   5
   1   2  -1 1541.68 39.1121   1
   1   2  -1 1573.51 39.1601   2
   1   2  -1 1532.05 38.8876   1
   1   2  -1 1538.22 39.4492   3
  -1  -2   1 1605.50 39.2189   1
  -1  -2   1 1533.73 40.7663   2
  -1  -2   1 1601.15 41.1926   3
  -1  -2   1 1592.47 38.9515   1
  -1  -2   1 1551.86 41.2814   2
   0   2  -1 16.2176 1.16445   2
   0   2  -1 15.4692 1.10193   1
   0   2  -1 16.4937 0.97336   2
   0   2  -1 14.2211 0.94482   1
   0  -2   1 16.3371 0.94398   2
   0  -2   1 16.4370 1.15453   1
   0  -2   1 14.0411 0.96630   1
  -1   2  -1 118.508 3.86537   2
  -1   2  -1 115.613 3.60599   1
  -1   2  -1 129.217 3.88061   1
   1  -2   1 122.634 3.83320   1
   1  -2   1 115.899 3.61122   1
   1  -2   1 116.773 3.53890   2
   1  -2   1 114.841 3.81518   2
  -2   2  -1 1071.72 27.4991   4
  -2   2  -1 1023.89 27.3433   2
  -2   2  -1 1060.48 26.7859   2
  -2   2  -1 1075.05 26.5747   1
  -2   2  -1 1047.89 26.7651   1
   2  -2   1 1040.23 26.5378   4
   2  -2   1 1081.44 26.6817   2
   2  -2   1 1096.54 27.8261   2
   2  -2   1 1099.31 26.7680   1
   2  -2   1 1058.96 27.4641   1
  -3   2  -1 112.287 3.54077   5
  -3   2  -1 111.998 3.32735   1
  -3   2  -1 111.056 3.56591   4
  -3   2  -1 111.872 3.21841   2
  -3   2  -1 106.143 3.44169   1
  -3   2  -1 114.836 3.45049   2
   3  -2   1 107.443 2.90641   2
   3  -2   1 110.984 2.88765   2
   3  -2   1 110.016 3.22197   1
   3  -2   1 115.024 3.59619   4
   3  -2   1 111.243 3.32342   1
  -4   2  -1 7.14940 0.73403   1
  -4   2  -1 8.39553 0.98653   4
  -4   2  -1 8.21700 0.69289   1
  -4   2  -1 6.74331 0.48359   2
  -4   2  -1 8.41954 0.69703   2
  -5   2  -1 352.428 9.12615   1
  -5   2  -1 350.382 9.00952   2
  -5   2  -1 349.439 9.26590   1
  -5   2  -1 358.801 8.90514   2
  -6   2  -1 11.6929 0.73958   1
  -6   2  -1 12.4175 0.68971   1
  -7   2  -1 38.9816 1.39101   1
  -7   2  -1 41.0357 1.50224   1
  -8   2  -1 15.5146 0.70790   1
 -11   2  -1 13.0260 2.00088   3
 -12   2  -1 1.27726 0.91486   3
  11   1  -1 0.99360 1.12425   5
 -11  -1   1 1.18526 0.76888   2
 -11  -1   1 2.59280 1.14883   3
  10   1  -1 0.23098 0.80576   5
 -10  -1   1 0.90119 0.82083   3
 -10  -1   1 1.11303 0.71763   2
 -10  -1   1 0.87858 0.58736   1
   9   1  -1 1.31848 0.93289   5
  -9  -1   1 3.70194 0.90635   2
  -9  -1   1 1.15880 0.65294   1
  -9  -1   1 0.90956 0.50526   2
  -9  -1   1 1.35027 0.90376   3
   8   1  -1 12.7697 1.90072   5
  -8  -1   1 12.7245 1.34635   1
  -8  -1   1 13.0839 1.19517   2
  -8  -1   1 12.0728 1.36841   2
  -8  -1   1 17.3751 2.01931   3
  -8  -1   1 12.5392 1.36193   1
   7   1  -1 3.35212 1.07884   5
  -7  -1   1 2.52316 0.65621   1
  -7  -1   1 3.08835 0.57556   2
  -7  -1   1 3.02341 0.91419   3
  -7  -1   1 3.04794 0.71478   2
  -7  -1   1 3.00196 0.57882   1
   6   1  -1 4.99125 1.06463   5
  -6  -1   1 6.94631 0.89313   2
  -6  -1   1 5.23408 0.97937   3
  -6  -1   1 6.65107 0.89356   1
  -6  -1   1 5.16007 0.66517   2
  -6  -1   1 5.52979 0.70875   1
   5   1  -1 210.497 6.92754   5
  -5  -1   1 217.278 6.68481   3
  -5  -1   1 217.207 5.99684   2
  -5  -1   1 210.758 6.06747   1
  -5  -1   1 219.154 6.33127   1
  -5  -1   1 219.762 6.26036   2
   4   1  -1 321.249 9.39286   5
  -4  -1   1 322.893 9.14628   3
  -4  -1   1 328.480 8.71348   1
  -4  -1   1 335.814 8.86395   2
  -4  -1   1 326.138 8.90616   1
  -4  -1   1 327.159 8.61637   2
   3   1  -1 366.394 9.26589   1
   3   1  -1 368.556 9.24521   1
   3   1  -1 371.685 10.0351   5
  -3  -1   1 379.157 9.55914   1
  -3  -1   1 344.405 9.68100   1
  -3  -1   1 366.911 9.46799   2
  -3  -1   1 350.849 9.90873   5
  -3  -1   1 367.955 9.67440   2
   2   1  -1 0.92810 0.34010   1
   2   1  -1 0.34265 0.31631   5
   2   1  -1 1.20590 0.25742   2
   2   1  -1 1.01028 0.29438   2
  -2  -1   1 0.57172 0.35336   2
  -2  -1   1 1.09874 0.35631   5
  -2  -1   1 1.41613 0.39358   3
  -2  -1   1 0.96332 0.36746   1
  -2  -1   1 1.44317 0.34920   1
  -2  -1   1 1.01025 0.31303   2
   1   1  -1 912.796 24.1919   3
   1   1  -1 939.969 23.0607   2
   1   1  -1 917.167 23.2300   2
   1   1  -1 926.300 23.0168   5
   1   1  -1 907.326 23.2189   1
  -1  -1   1 916.731 24.1157   5
  -1  -1   1 910.065 23.2754   2
  -1  -1   1 905.189 23.8815   1
  -1  -1   1 1008.38 24.7605   1
  -1  -1   1 964.060 23.9796   2
  -1  -1   1 918.022 23.6149   3
   0   1  -1 340.554 9.22483   2
   0   1  -1 349.185 9.43531   2
   0   1  -1 332.919 8.97897   3
   0   1  -1 364.745 9.27561   1
   0   1  -1 349.344 9.39571   1
   0  -1   1 352.647 9.41575   1
   0  -1   1 347.764 9.43672   2
   0  -1   1 349.489 9.26034   1
   0  -1   1 331.211 9.21634   2
  -1   1  -1 599.934 15.8141   1
  -1   1  -1 607.107 15.2983   1
  -1   1  -1 611.832 15.2746   2
  -1   1  -1 598.703 15.5862   2
  -1   1  -1 598.068 15.1148   4
   1  -1   1 611.746 15.6360   2
   1  -1   1 621.182 16.2330   1
   1  -1   1 582.681 15.7229   1
   1  -1   1 614.343 15.8686   4
  -2   1  -1 119.109 3.54783   4
  -2   1  -1 114.536 3.35856   1
  -2   1  -1 116.638 3.14992   2
  -2   1  -1 120.753 3.24887   1
  -2   1  -1 118.519 3.24172   2
  -2   1  -1 116.114 3.45950   5
   2  -1   1 121.681 3.24510   1
   2  -1   1 119.794 3.45721   5
   2  -1   1 119.337 3.55789   4
   2  -1   1 121.589 3.16623   1
  -3   1  -1 118.452 3.78944   4
  -3   1  -1 115.716 3.25013   1
  -3   1  -1 113.814 3.71351   5
  -3   1  -1 122.835 3.17771   1
   3  -1   1 121.143 3.73737   5
  -4   1  -1 48.4603 1.48789   1
  -4   1  -1 47.3255 2.20191   4
  -4   1  -1 50.5897 1.43423   1
   4  -1   1 48.5563 2.17460   5
   5  -1   1 256.237 7.74689   5
   6  -1   1 31.2241 2.00804   5
   7  -1   1 -0.0142 0.47852   5
   8  -1   1 0.25789 0.74787   5
  -9   1  -1 1.46315 0.72530   3
   9  -1   1 0.20823 0.67127   5
 -10   1  -1 -0.2593 0.65484   3
  10  -1   1 -0.7427 0.62570   5
 -11   1  -1 6.21455 1.46552   3
  11   0  -1 7.19102 1.87775   5
 -11   0   1 5.85808 0.93970   2
 -11   0   1 8.82504 1.76551   3
  10   0  -1 17.2029 2.50358   5
 -10   0   1 16.7366 1.16247   1
 -10   0   1 16.7705 1.12066   2
 -10   0   1 19.4416 2.40870   3
 -10   0   1 17.4166 1.54830   2
   9   0  -1 12.6901 2.04311   5
  -9   0   1 12.9454 1.16838   1
  -9   0   1 11.8147 1.19676   2
  -9   0   1 11.4516 1.71037   3
  -9   0   1 12.2922 1.04734   2
   8   0  -1 18.0577 2.20689   5
  -8   0   1 19.1051 1.24810   2
  -8   0   1 20.3664 2.13221   3
  -8   0   1 19.6843 1.06907   1
  -8   0   1 20.8730 1.27698   1
  -8   0   1 21.0305 1.09746   2
   7   0  -1 42.7266 2.65394   5
  -7   0   1 36.9104 1.69732   1
  -7   0   1 38.9899 1.56353   1
  -7   0   1 37.2372 1.62491   2
  -7   0   1 40.2151 1.52173   2
   6   0  -1 327.060 10.0501   5
  -6   0   1 329.646 8.71871   1
  -6   0   1 325.823 8.55981   2
  -6   0   1 341.179 8.72090   2
  -6   0   1 334.484 8.91166   1
   5   0  -1 89.4438 3.60125   5
  -5   0   1 91.2741 2.87213   1
  -5   0   1 90.4529 2.72600   1
  -5   0   1 87.9133 2.54326   2
  -5   0   1 90.1408 2.63561   2
   4   0  -1 13.2546 1.29456   5
  -4   0   1 14.9228 0.82415   1
  -4   0   1 14.1578 0.64909   2
  -4   0   1 13.8980 0.60112   2
  -4   0   1 13.5837 0.71292   1
   3   0  -1 35.8717 1.65591   5
  -3   0   1 33.7218 1.61059   5
  -3   0   1 34.0387 1.25475   1
  -3   0   1 35.0121 1.15147   2
  -3   0   1 35.9499 1.35262   1
  -3   0   1 37.7865 1.22479   2
   2   0  -1 118.019 3.23396   1
   2   0  -1 117.421 3.52038   5
  -2   0   1 124.180 3.31395   2
  -2   0   1 122.247 3.55556   5
  -2   0   1 117.618 3.29155   1
  -2   0   1 115.857 3.22866   2
  -2   0   1 117.553 3.37751   1
   1   0  -1 163.383 4.26965   2
   1   0  -1 159.799 4.17589   5
   1   0  -1 155.739 4.19360   2
   1   0  -1 162.854 4.22072   1
   1   0  -1 154.293 4.28633   1
  -1   0   1 153.209 4.20250   2
  -1   0   1 160.279 4.22763   1
  -1   0   1 156.859 4.31439   1
  -1   0   1 155.733 4.16832   5
  -1   0   1 162.432 4.29286   2
   0   0  -1 472.456 13.3433   1
   0   0  -1 486.899 12.3912   2
   0   0  -1 516.883 13.3287   1
   0   0  -1 504.739 12.4530   2
   0   0   1 517.250 12.9393   2
   0   0   1 511.160 13.3103   1
   0   0   1 473.568 12.9197   1
   0   0   1 487.779 13.0558   2
  -1   0  -1 78.9191 2.28719   4
  -1   0  -1 76.9577 2.14202   2
  -1   0  -1 72.4243 2.16850   1
  -1   0  -1 77.6226 2.13898   2
  -1   0  -1 77.5835 2.25176   1
  -1   0  -1 74.7946 2.20626   5
   1   0   1 75.2484 2.21183   5
   1   0   1 78.1112 2.06476   2
   1   0   1 76.0936 2.06870   2
   1   0   1 78.9049 2.14964   1
  -2   0  -1 2020.62 50.3688   1
  -2   0  -1 2000.86 52.2329   5
  -2   0  -1 2027.90 50.5270   1
   2   0   1 2009.28 51.3978   5
  -3   0  -1 98.4949 2.71069   1
  -3   0  -1 99.8309 3.36175   5
  -3   0  -1 102.422 2.73810   1
   3   0   1 99.7633 3.36334   5
  -4   0  -1 85.5540 2.41575   1
  -4   0  -1 85.4639 2.41035   1
   4   0   1 88.2292 3.29784   5
  -5   0  -1 192.936 5.05654   1
   5   0   1 189.001 6.25423   5
  -6   0  -1 2.76351 0.68463   3
  -6   0  -1 2.61923 0.36722   1
   6   0   1 3.82233 0.93059   5
  -7   0  -1 4.18607 0.51094   1
  -7   0  -1 5.37926 1.02241   3
  -7   0  -1 5.06803 0.56753   1
   7   0   1 4.68012 1.18007   5
  -8   0  -1 24.5721 1.12700   1
  -8   0  -1 24.1110 1.11474   1
  -8   0  -1 25.2519 2.28946   3
  -8   0  -1 25.2201 1.13119   2
  -8   0  -1 23.2785 0.99254   2
   8   0   1 28.6945 2.86614   5
  -9   0  -1 7.36522 0.65746   2
  -9   0  -1 8.08938 1.42896   3
  -9   0  -1 7.33948 0.77974   2
   9   0   1 6.41691 1.53998   5
 -10   0  -1 0.17349 0.38086   2
 -10   0  -1 0.09348 0.29035   2
 -10   0  -1 0.14123 0.67766   3
  10   0   1 -0.1745 0.70548   5
 -11   0  -1 3.13045 1.14506   3
  11   0   1 -0.0783 0.84933   5
 -11   1   1 0.92264 0.42886   2
 -11   1   1 -0.2240 0.65695   3
 -11   1   1 1.35359 0.39025   2
  10  -1  -1 1.84821 0.97202   5
 -10   1   1 2.17344 0.99198   3
 -10   1   1 3.06390 0.60055   2
 -10   1   1 2.69203 0.49201   2
   9  -1  -1 0.22011 0.67112   5
  -9   1   1 0.48030 0.30445   1
  -9   1   1 -0.1402 0.33320   2
  -9   1   1 0.68157 0.24777   1
  -9   1   1 0.54182 0.28388   2
   8  -1  -1 16.6275 2.03726   5
  -8   1   1 16.6377 0.94726   2
  -8   1   1 17.2304 1.00707   1
  -8   1   1 16.7547 0.88227   1
  -8   1   1 16.0580 0.86094   2
   7  -1  -1 1.22356 0.66270   5
  -7   1   1 1.16310 0.27641   2
  -7   1   1 0.78610 0.32755   1
  -7   1   1 1.23737 0.32379   1
   6  -1  -1 56.4288 2.77812   5
  -6   1   1 53.8376 1.94752   1
   5  -1  -1 4.56650 0.84020   5
  -5   1   1 4.80182 0.55281   1
   4  -1  -1 429.423 11.7378   5
  -4   1   1 438.898 11.1300   1
  -4   1   1 432.166 10.8548   2
  -4   1   1 433.028 10.8393   2
   3  -1  -1 418.301 10.2407   1
   3  -1  -1 418.251 10.9369   5
   3  -1  -1 409.250 10.2477   1
  -3   1   1 408.635 10.6322   1
  -3   1   1 418.702 10.4856   2
  -3   1   1 410.283 10.4738   2
  -3   1   1 411.834 10.9833   5
   2  -1  -1 180.088 4.80824   2
   2  -1  -1 181.928 4.94008   1
   2  -1  -1 174.404 4.78469   2
  -2   1   1 178.006 4.89860   2
  -2   1   1 181.543 4.98391   1
  -2   1   1 187.931 4.88849   2
   1  -1  -1 110.203 3.23051   2
   1  -1  -1 116.285 2.89198   4
   1  -1  -1 104.695 3.24847   2
   1  -1  -1 105.947 3.26230   2
   1  -1  -1 112.254 3.32349   1
  -1   1   1 109.719 3.21793   2
  -1   1   1 116.822 2.88705   4
  -1   1   1 118.388 3.34902   1
  -1   1   1 113.528 3.30131   2
   0  -1  -1 446.561 11.3008   2
   0  -1  -1 425.401 11.2920   1
   0  -1  -1 444.658 11.1946   2
   0   1   1 450.780 11.1732   2
   0   1   1 437.416 11.2801   2
   0   1   1 434.993 11.2821   1
  -1  -1  -1 642.430 16.3111   5
  -1  -1  -1 650.126 16.7932   3
  -1  -1  -1 648.819 16.2508   2
  -1  -1  -1 654.005 16.3847   2
  -1  -1  -1 652.928 16.4073   1
   1   1   1 632.548 16.3084   5
   1   1   1 654.403 17.1233   1
   1   1   1 659.265 16.1845   2
   1   1   1 648.261 16.2637   2
   1   1   1 656.511 16.1724   3
  -2  -1  -1 596.434 14.8737   2
  -2  -1  -1 583.327 15.2212   5
  -2  -1  -1 611.335 15.0570   1
  -2  -1  -1 580.268 14.9964   3
  -2  -1  -1 592.329 14.9962   2
   2   1   1 601.855 15.3020   5
   2   1   1 607.197 14.8266   1
   2   1   1 576.365 14.8486   1
  -3  -1  -1 11.5226 0.74388   1
  -3  -1  -1 11.9195 0.98059   3
  -3  -1  -1 11.1596 0.61531   2
  -3  -1  -1 11.8659 0.71321   2
   3   1   1 11.5372 1.12405   5
  -4  -1  -1 0.29486 0.24458   1
  -4  -1  -1 0.29442 0.22587   2
  -4  -1  -1 -0.0357 0.15237   2
  -4  -1  -1 0.39466 0.32173   3
   4   1   1 0.02846 0.32999   5
  -5  -1  -1 2.61624 0.61327   3
  -5  -1  -1 2.56871 0.39033   2
  -5  -1  -1 2.92979 0.52940   1
  -5  -1  -1 3.14050 0.53481   1
  -5  -1  -1 2.57205 0.46891   2
   5   1   1 3.58851 0.85852   5
  -6  -1  -1 0.55672 0.31458   2
  -6  -1  -1 0.53561 0.24159   2
  -6  -1  -1 1.02678 0.36152   1
  -6  -1  -1 0.69601 0.33539   1
  -6  -1  -1 1.22679 0.54511   3
   6   1   1 0.34765 0.52405   5
  -7  -1  -1 26.8720 1.44815   1
  -7  -1  -1 29.4009 1.53596   2
  -7  -1  -1 28.4693 2.36933   3
  -7  -1  -1 26.9406 1.48802   1
  -7  -1  -1 26.4414 1.29352   2
   7   1   1 24.1351 2.51264   5
  -8  -1  -1 0.35666 0.39095   1
  -8  -1  -1 -0.8637 0.38196   3
  -8  -1  -1 0.11724 0.31535   2
  -8  -1  -1 -0.0061 0.35745   2
   8   1   1 -0.0480 0.69203   5
  -9  -1  -1 0.70842 0.46337   1
  -9  -1  -1 1.89349 0.90674   3
  -9  -1  -1 0.77805 0.43748   2
  -9  -1  -1 0.32552 0.46720   2
   9   1   1 0.85154 0.90593   5
 -10  -1  -1 2.15276 0.95377   3
 -10  -1  -1 2.33763 0.72646   2
  10   1   1 1.64340 1.25452   5
 -12   2   1 1.20348 0.96722   3
 -12   2   1 1.86724 0.45827   2
 -11   2   1 5.78795 0.72946   2
 -11   2   1 5.72199 0.73466   2
 -10   2   1 9.56436 0.90451   2
 -10   2   1 8.42389 0.86998   2
  -9   2   1 2.39919 0.48294   2
  -9   2   1 3.44500 0.53099   1
  -9   2   1 3.43228 0.58630   2
  -9   2   1 4.03423 0.60341   1
  -8   2   1 47.3841 1.79736   2
  -8   2   1 46.9671 1.88394   1
  -8   2   1 43.7096 1.76175   2
  -7   2   1 4.92207 0.59235   2
  -7   2   1 5.23692 0.68969   1
  -7   2   1 5.30868 0.62886   2
  -6   2   1 162.326 4.58537   2
  -6   2   1 162.231 4.62218   2
  -6   2   1 160.344 4.79141   1
  -5   2   1 10.3873 1.17233   4
  -5   2   1 10.6743 0.86722   2
  -5   2   1 9.85404 0.79351   2
  -5   2   1 9.23304 0.87694   1
   4  -2  -1 1.17686 0.28436   1
   4  -2  -1 1.28588 0.29359   1
  -4   2   1 1.13268 0.37587   1
  -4   2   1 1.05264 0.31701   2
  -4   2   1 0.86877 0.35616   4
  -4   2   1 1.36326 0.37166   1
  -4   2   1 1.26713 0.36500   2
   3  -2  -1 174.470 4.82137   2
   3  -2  -1 172.710 4.89582   2
   3  -2  -1 168.497 5.00498   1
  -3   2   1 165.634 5.06970   1
  -3   2   1 174.195 5.10634   2
  -3   2   1 176.739 4.94661   4
  -3   2   1 175.863 5.06847   1
  -3   2   1 184.103 4.99109   2
   2  -2  -1 4.21981 0.61754   1
   2  -2  -1 4.66342 0.68032   1
   2  -2  -1 5.05997 0.63086   2
   2  -2  -1 6.06130 0.51430   4
  -2   2   1 4.51255 0.65547   1
  -2   2   1 5.46984 0.47932   4
  -2   2   1 3.82018 0.64895   2
  -2   2   1 5.03994 0.62872   2
  -2   2   1 3.33113 0.59498   1
   1  -2  -1 761.140 18.6826   2
   1  -2  -1 748.259 18.8252   1
   1  -2  -1 714.601 18.7801   1
   1  -2  -1 735.740 18.8865   2
  -1   2   1 714.196 18.8366   2
  -1   2   1 739.166 18.7828   1
  -1   2   1 735.902 18.6370   2
   0  -2  -1 406.138 10.7817   2
   0  -2  -1 376.575 10.6531   1
   0  -2  -1 408.699 10.7205   1
   0  -2  -1 383.773 10.4899   2
   0   2   1 412.210 10.4986   2
   0   2   1 406.832 10.7429   2
   0   2   1 407.627 10.6400   1
  -1  -2  -1 1546.55 38.4752   2
  -1  -2  -1 1519.76 38.4164   2
  -1  -2  -1 1464.10 36.7612   1
  -1  -2  -1 1450.06 37.4361   2
  -1  -2  -1 1409.28 36.7676   1
   1   2   1 1460.37 36.5415   5
   1   2   1 1502.41 38.2488   2
   1   2   1 1503.17 36.7141   2
   1   2   1 1459.73 36.9791   3
   1   2   1 1438.73 36.6298   1
  -2  -2  -1 385.187 10.4101   1
  -2  -2  -1 401.199 10.4723   2
  -2  -2  -1 388.926 10.1545   2
  -2  -2  -1 394.129 10.3492   1
  -2  -2  -1 398.065 10.4572   2
  -2  -2  -1 377.509 10.3172   5
  -2  -2  -1 393.647 10.1017   3
   2   2   1 329.754 10.0182   1
   2   2   1 388.528 9.89831   2
   2   2   1 377.739 10.3637   5
   2   2   1 389.706 10.1607   3
  -3  -2  -1 22.8678 1.37585   1
  -3  -2  -1 21.7799 1.23516   3
  -3  -2  -1 21.7698 1.16948   2
  -3  -2  -1 23.5892 1.37681   2
  -3  -2  -1 19.9976 1.26136   1
  -3  -2  -1 25.8863 1.43448   2
   3   2   1 21.2553 1.03387   1
   3   2   1 22.9771 1.46308   5
  -4  -2  -1 11.4271 1.15163   1
  -4  -2  -1 11.0783 1.11619   1
  -4  -2  -1 11.5013 1.00654   2
  -4  -2  -1 12.3121 1.19656   2
  -4  -2  -1 10.6892 1.11240   2
  -4  -2  -1 9.87575 1.07057   3
   4   2   1 12.1998 1.37810   5
  -5  -2  -1 1.46777 0.52194   2
  -5  -2  -1 0.82090 0.47807   3
  -5  -2  -1 0.69866 0.32889   2
  -5  -2  -1 0.87209 0.43540   1
  -5  -2  -1 1.53390 0.51130   1
   5   2   1 0.87349 0.58171   5
  -6  -2  -1 15.4108 1.50098   1
  -6  -2  -1 13.0426 1.36355   1
  -6  -2  -1 14.4194 1.58911   3
  -6  -2  -1 14.3464 1.22357   2
  -6  -2  -1 15.8211 1.49858   2
   6   2   1 16.4467 1.96981   5
  -7  -2  -1 0.03664 0.40705   1
  -7  -2  -1 0.03997 0.49829   3
  -7  -2  -1 -0.0147 0.45872   2
  -7  -2  -1 0.20860 0.35838   2
  -7  -2  -1 0.26636 0.47912   1
   7   2   1 -0.1277 0.59287   5
  -8  -2  -1 -0.1415 0.44570   1
  -8  -2  -1 0.34352 0.62764   3
  -8  -2  -1 0.02166 0.38727   2
  -8  -2  -1 -0.2485 0.50159   2
   8   2   1 0.74031 0.81212   5
  -9  -2  -1 1.80117 0.73826   1
  -9  -2  -1 2.14231 0.93708   3
  -9  -2  -1 3.52849 1.02111   2
   9   2   1 1.74101 1.08781   5
 -10  -2  -1 1.72951 0.92184   3
 -10  -2  -1 2.12719 0.88381   2
  10   2   1 1.13994 1.16425   5
 -12   3   1 4.69076 0.68847   2
 -11   3   1 5.66530 0.88070   2
 -11   3   1 7.13551 0.85252   2
 -10   3   1 -0.1787 0.33312   2
 -10   3   1 0.06374 0.28951   1
 -10   3   1 0.41322 0.41870   2
  -9   3   1 7.23956 0.94260   2
  -9   3   1 9.67109 0.97999   2
  -9   3   1 8.08793 0.95585   1
  -8   3   1 0.39017 0.38008   1
  -8   3   1 0.43764 0.35562   2
  -8   3   1 0.55318 0.41220   2
  -7   3   1 223.982 6.40980   2
  -7   3   1 224.126 6.57452   1
  -7   3   1 220.667 6.58165   2
  -6   3   1 29.9249 1.59152   1
  -6   3   1 27.4094 1.55590   2
  -6   3   1 27.2040 1.41678   2
   5  -3  -1 8.59825 0.82511   1
   5  -3  -1 10.0218 0.86873   1
  -5   3   1 10.2785 1.08831   1
  -5   3   1 8.35745 0.96484   1
  -5   3   1 9.30784 1.04046   2
  -5   3   1 9.69315 0.97002   2
  -5   3   1 8.22323 1.00247   4
   4  -3  -1 29.1857 1.55184   1
   4  -3  -1 29.6817 1.45426   2
   4  -3  -1 26.9453 1.48525   1
  -4   3   1 29.8537 1.45547   4
  -4   3   1 30.1947 1.51983   2
  -4   3   1 26.9864 1.60675   2
  -4   3   1 29.4764 1.62239   1
  -4   3   1 31.9882 1.66461   1
   3  -3  -1 28.7506 1.58882   2
   3  -3  -1 26.5840 1.20750   4
   3  -3  -1 28.6678 1.59215   2
   3  -3  -1 23.7492 1.47060   1
   3  -3  -1 26.4835 1.52662   1
  -3   3   1 27.5319 1.55024   1
  -3   3   1 23.0720 1.46730   1
  -3   3   1 25.4161 1.38509   2
  -3   3   1 26.0819 1.59055   2
  -3   3   1 25.8495 1.19020   4
   2  -3  -1 49.3913 2.40122   2
   2  -3  -1 54.3075 2.21851   2
   2  -3  -1 53.8052 2.35899   1
   2  -3  -1 54.3840 2.40099   1
  -2   3   1 60.8828 2.55017   2
  -2   3   1 52.2834 2.32596   1
  -2   3   1 53.3530 2.18878   2
  -2   3   1 57.0071 2.42644   1
   1  -3  -1 657.912 17.0554   2
   1  -3  -1 672.388 17.3493   1
   1  -3  -1 686.380 17.3435   1
   1  -3  -1 658.402 17.4547   2
  -1   3   1 632.197 17.3575   2
  -1   3   1 661.675 17.0126   2
  -1   3   1 617.055 17.2213   1
  -1   3   1 666.427 17.2114   1
   0  -3  -1 570.368 15.1098   2
   0  -3  -1 554.828 14.6431   2
   0  -3  -1 553.813 14.9695   1
   0  -3  -1 546.313 14.8495   1
   0   3   1 564.341 14.6227   2
   0   3   1 564.067 14.9739   2
   0   3   1 562.236 14.9826   2
   0   3   1 540.508 14.7495   1
  -1  -3  -1 30.4303 1.81641   2
  -1  -3  -1 30.9468 1.57415   2
  -1  -3  -1 27.6833 1.65569   1
  -1  -3  -1 28.4771 1.72920   1
   1   3   1 28.6898 1.34099   3
   1   3   1 25.2422 1.39811   2
   1   3   1 30.0813 1.47030   5
   1   3   1 30.5101 1.62878   1
  -2  -3  -1 6.96153 1.04729   2
  -2  -3  -1 9.81836 1.17095   1
  -2  -3  -1 7.32243 1.02784   1
  -2  -3  -1 9.14788 1.00216   2
   2   3   1 10.3378 0.95956   2
   2   3   1 7.87296 0.98437   5
   2   3   1 9.57105 1.02435   1
  -3  -3  -1 9.91857 1.24251   1
  -3  -3  -1 9.15571 1.00960   3
  -3  -3  -1 9.75320 1.07434   2
  -3  -3  -1 10.6128 1.31851   2
  -3  -3  -1 7.12722 1.05594   1
   3   3   1 11.2831 1.31756   5
   3   3   1 10.6897 0.83160   2
  -4  -3  -1 65.5543 2.86043   1
  -4  -3  -1 66.9463 3.02878   1
  -4  -3  -1 62.6319 2.67655   3
  -4  -3  -1 66.4201 3.04131   2
  -4  -3  -1 61.8250 2.63516   2
   4   3   1 59.7425 2.19740   1
   4   3   1 60.1373 2.99098   5
  -5  -3  -1 2.69875 0.77577   1
  -5  -3  -1 2.96648 0.83899   2
  -5  -3  -1 4.10280 0.79319   2
  -5  -3  -1 3.66507 0.79174   3
  -5  -3  -1 3.38470 0.85683   1
   5   3   1 5.00131 1.14009   5
  -6  -3  -1 0.96597 0.58501   3
  -6  -3  -1 1.53709 0.72597   1
  -6  -3  -1 2.06681 0.74293   1
  -6  -3  -1 0.12811 0.57179   2
  -6  -3  -1 0.67982 0.47872   2
   6   3   1 0.82857 0.65262   5
  -7  -3  -1 100.671 3.96394   2
  -7  -3  -1 100.367 4.49259   2
  -7  -3  -1 102.694 4.39544   1
  -7  -3  -1 99.4722 4.32229   3
   7   3   1 106.413 5.03899   5
  -8  -3  -1 6.58087 1.28694   3
  -8  -3  -1 6.94275 1.34205   1
  -8  -3  -1 9.06987 1.55138   2
   8   3   1 7.66842 1.73487   5
  -9  -3  -1 20.8885 2.24525   1
  -9  -3  -1 20.9753 2.33881   3
  -9  -3  -1 18.1343 2.27530   2
   9   3   1 17.9738 2.66932   5
 -12   4   1 2.89407 0.70738   2
 -11   4   1 4.55829 0.80677   1
 -11   4   1 5.62794 1.01033   2
 -11   4   1 5.84108 0.94353   2
 -10   4   1 8.09144 1.17740   2
 -10   4   1 9.69671 1.12621   2
 -10   4   1 8.89380 1.09342   1
  -9   4   1 2.06197 0.61993   2
  -9   4   1 1.30438 0.57952   1
  -9   4   1 1.19045 0.65319   2
  -8   4   1 5.65663 1.00418   2
  -8   4   1 5.63428 0.94263   1
  -8   4   1 5.74011 0.88748   2
  -7   4   1 11.3816 1.18650   2
  -7   4   1 9.56730 1.25647   2
  -7   4   1 8.29016 1.11196   1
  -7   4   1 9.20811 1.17380   1
   6  -4  -1 26.1934 1.41458   1
   6  -4  -1 26.6934 1.40907   1
  -6   4   1 24.5907 1.71910   2
  -6   4   1 26.5687 1.71124   1
  -6   4   1 26.1390 1.69970   1
  -6   4   1 25.7680 1.55255   2
   5  -4  -1 163.681 5.21372   4
   5  -4  -1 158.313 5.30700   1
   5  -4  -1 162.597 5.29631   1
   5  -4  -1 166.377 5.11711   2
  -5   4   1 170.064 5.49427   1
  -5   4   1 163.513 5.61299   2
  -5   4   1 164.969 5.17017   4
  -5   4   1 169.077 5.24093   2
  -5   4   1 161.514 5.49483   1
   4  -4  -1 58.0554 2.65220   1
   4  -4  -1 55.6561 2.22652   4
   4  -4  -1 55.0173 2.60361   1
   4  -4  -1 58.8918 2.68276   2
  -4   4   1 56.8366 2.67899   1
  -4   4   1 54.6870 2.44374   2
  -4   4   1 58.3749 2.64631   1
  -4   4   1 59.3999 2.80663   2
  -4   4   1 55.9937 2.26977   4
   3  -4  -1 14.5502 1.54383   1
   3  -4  -1 16.3039 1.65910   1
   3  -4  -1 16.6067 1.64861   2
   3  -4  -1 15.1057 0.92350   4
  -3   4   1 16.5792 1.59058   1
  -3   4   1 16.1360 1.66896   1
  -3   4   1 14.2852 1.64632   2
  -3   4   1 16.6095 1.47223   2
   2  -4  -1 8.80451 1.18375   1
   2  -4  -1 13.3953 1.59263   2
   2  -4  -1 11.4845 1.39671   1
   2  -4  -1 9.22525 1.12935   2
  -2   4   1 12.4008 1.22484   2
  -2   4   1 12.4875 1.48909   1
  -2   4   1 7.03759 1.03918   1
  -2   4   1 9.38938 1.28724   2
   1  -4  -1 92.0371 3.76534   1
   1  -4  -1 92.7768 3.55361   2
   1  -4  -1 93.8043 3.85527   1
   1  -4  -1 96.3185 3.97017   2
  -1   4   1 95.1956 3.90446   2
  -1   4   1 96.6380 3.83421   1
  -1   4   1 94.7881 3.69802   1
  -1   4   1 98.2466 3.55334   2
   0  -4  -1 12.4130 1.44805   1
   0  -4  -1 11.6164 1.51284   2
   0  -4  -1 13.5094 1.58988   1
   0  -4  -1 12.5845 1.27831   2
   0   4   1 14.7151 1.51974   1
   0   4   1 11.8340 1.21764   2
  -1  -4  -1 65.4853 2.77148   2
  -1  -4  -1 60.6341 2.99603   1
  -1  -4  -1 60.3440 3.10619   2
  -1  -4  -1 63.1430 2.93684   1
   1   4   1 60.8032 2.54279   5
   1   4   1 61.6918 2.77773   1
  -2  -4  -1 18.7746 1.90239   1
  -2  -4  -1 14.5246 1.72667   2
  -2  -4  -1 18.1536 1.64843   2
  -2  -4  -1 18.8624 1.87277   1
   2   4   1 15.6638 1.51830   5
   2   4   1 18.7107 1.68603   1
   2   4   1 18.2094 1.25510   2
  -3  -4  -1 54.5808 2.99521   2
  -3  -4  -1 58.3637 2.98232   1
  -3  -4  -1 45.0092 2.57802   1
  -3  -4  -1 52.3941 2.53649   2
   3   4   1 51.5474 2.37615   1
   3   4   1 49.9204 2.12507   2
   3   4   1 52.2961 2.64967   5
  -4  -4  -1 4.95149 1.04987   1
  -4  -4  -1 3.88891 1.04455   2
  -4  -4  -1 6.55123 1.26302   1
  -4  -4  -1 4.94389 0.92670   3
  -4  -4  -1 5.17083 0.97263   2
   4   4   1 4.80129 0.78299   1
   4   4   1 6.23609 1.19690   5
  -5  -4  -1 20.6463 1.93647   3
  -5  -4  -1 23.6561 2.41849   2
  -5  -4  -1 20.6126 2.14942   1
  -5  -4  -1 19.5736 1.86578   2
  -5  -4  -1 19.0390 2.14375   1
   5   4   1 21.6088 1.05286   1
   5   4   1 19.9991 2.21719   5
  -6  -4  -1 2.08410 0.75385   2
  -6  -4  -1 2.70301 0.88854   3
  -6  -4  -1 2.23766 1.00261   2
  -6  -4  -1 0.78633 0.72224   1
   6   4   1 0.41769 0.72117   5
  -7  -4  -1 6.54588 1.54871   2
  -7  -4  -1 7.71779 1.54170   1
  -7  -4  -1 5.74741 1.25544   3
   7   4   1 7.45588 1.67663   5
  -8  -4  -1 11.8095 1.74081   3
  -8  -4  -1 11.3774 1.85219   1
  -8  -4  -1 10.4608 1.88120   2
   8   4   1 9.40508 1.97026   5
  -9  -4  -1 0.84535 1.14365   2
  -9  -4  -1 2.08888 1.10989   3
  -9  -4  -1 0.84897 0.96620   1
   9   4   1 0.18892 0.92395   5
 -12   5   1 0.64054 0.56842   2
 -12   5   1 0.44286 0.51438   1
 -11   5   1 -0.7309 0.41175   2
 -11   5   1 -0.1124 0.49001   1
 -10   5   1 3.98690 0.99462   2
 -10   5   1 3.73824 0.84293   1
 -10   5   1 2.96616 0.78754   2
  -9   5   1 45.1366 2.75835   2
  -9   5   1 49.0635 2.50988   2
  -9   5   1 50.2028 2.61472   1
  -8   5   1 35.9291 2.08338   2
  -8   5   1 35.8875 2.21518   1
  -8   5   1 36.7215 2.41510   2
   7  -5  -1 12.0005 1.20423   1
  -7   5   1 15.6333 1.82129   2
  -7   5   1 12.3679 1.49918   1
  -7   5   1 13.6472 1.45212   2
  -7   5   1 11.7290 1.50210   1
   6  -5  -1 31.6346 1.93563   1
   6  -5  -1 28.3857 1.69399   2
   6  -5  -1 30.8888 1.82780   4
  -6   5   1 30.6059 2.10669   1
  -6   5   1 30.2891 1.85975   2
  -6   5   1 28.4499 2.46536   2
  -6   5   1 30.9078 2.03767   1
   5  -5  -1 52.3802 2.29576   4
   5  -5  -1 49.3520 2.60601   2
   5  -5  -1 51.1215 2.68779   1
  -5   5   1 49.6273 2.71822   1
  -5   5   1 46.8844 2.59854   1
  -5   5   1 50.2448 2.48264   2
  -5   5   1 53.1733 2.88596   2
   4  -5  -1 0.21682 0.29299   4
   4  -5  -1 0.66875 0.62503   1
   4  -5  -1 0.32281 0.43939   2
  -4   5   1 0.93305 0.61527   2
  -4   5   1 0.19570 0.55248   1
  -4   5   1 0.00192 0.43003   1
  -4   5   1 0.64798 0.43722   2
   3  -5  -1 775.744 20.9831   2
   3  -5  -1 765.459 20.7940   1
   3  -5  -1 752.104 21.3010   1
  -3   5   1 755.343 20.2856   2
  -3   5   1 755.526 20.9900   2
  -3   5   1 782.215 20.6298   1
  -3   5   1 768.148 20.8022   1
   2  -5  -1 147.302 5.56190   2
   2  -5  -1 137.626 5.33513   1
   2  -5  -1 132.305 5.17038   1
  -2   5   1 140.462 4.92790   2
  -2   5   1 140.868 5.13988   1
  -2   5   1 133.691 5.36292   2
  -2   5   1 141.727 5.32300   1
   1  -5  -1 6.08583 1.20323   1
   1  -5  -1 7.22601 1.40441   2
   1  -5  -1 4.46296 1.03582   1
   1  -5  -1 6.01886 1.00818   2
  -1   5   1 6.11152 1.12474   1
  -1   5   1 6.81177 1.00974   2
  -1   5   1 5.07049 1.05054   1
   0  -5  -1 44.8265 2.78776   2
   0  -5  -1 45.0787 2.38431   2
   0  -5  -1 43.1998 2.54233   1
   0  -5  -1 44.7445 2.71964   1
   0   5   1 42.3648 2.44550   1
   0   5   1 42.3371 2.28029   2
  -1  -5  -1 167.486 6.21404   2
  -1  -5  -1 155.527 5.79393   1
  -1  -5  -1 153.843 5.49274   2
  -1  -5  -1 152.639 5.92983   1
   1   5   1 152.706 5.51925   1
   1   5   1 154.229 5.19614   5
  -2  -5  -1 74.7029 3.39294   2
  -2  -5  -1 64.0573 3.45837   1
  -2  -5  -1 76.8536 3.91877   2
  -2  -5  -1 75.4903 3.80869   1
   2   5   1 79.4422 3.42772   1
   2   5   1 80.9345 3.38045   5
   2   5   1 73.9454 3.14175   2
  -3  -5  -1 46.8179 3.05735   2
  -3  -5  -1 40.9087 2.70744   1
  -3  -5  -1 47.8752 2.62116   2
  -3  -5  -1 48.5448 3.02339   1
   3   5   1 42.9186 2.37708   1
   3   5   1 46.3147 2.61236   5
   3   5   1 43.6277 2.19039   2
  -4  -5  -1 0.82817 0.83006   2
  -4  -5  -1 0.65622 0.69296   1
  -4  -5  -1 2.30580 1.02563   1
  -4  -5  -1 -0.1522 0.51158   2
   4   5   1 0.08903 0.22128   1
   4   5   1 0.20251 0.55440   5
  -5  -5  -1 3.49424 1.18123   1
  -5  -5  -1 2.90239 1.20698   2
   5   5   1 1.60608 0.87215   5
  -6  -5  -1 0.74117 0.84674   1
  -6  -5  -1 1.38520 0.92062   2
   6   5   1 0.82553 0.86252   5
  -7  -5  -1 20.9714 2.81647   2
  -7  -5  -1 17.3641 2.45358   1
   7   5   1 17.6182 2.62667   5
  -8  -5  -1 1.95169 1.20514   2
  -8  -5  -1 1.40744 1.09252   1
   8   5   1 1.48427 1.24087   5
 -12   6   1 0.67448 0.62193   1
 -12   6   1 0.13261 0.60207   2
 -11   6   1 0.52288 0.59879   1
 -11   6   1 0.26003 0.56689   2
 -10   6   1 -0.0695 0.55746   1
 -10   6   1 0.47014 0.50633   2
  -9   6   1 7.29435 1.48547   2
  -9   6   1 7.00873 1.24551   2
  -9   6   1 8.35681 1.39039   1
   8  -6  -1 36.5002 2.01261   1
  -8   6   1 37.1074 2.55635   1
  -8   6   1 34.8068 2.39978   1
  -8   6   1 38.4075 2.70608   2
  -8   6   1 38.4461 2.33337   2
   7  -6  -1 125.760 4.74292   4
   7  -6  -1 124.436 4.81075   1
  -7   6   1 126.437 5.19821   1
  -7   6   1 114.019 5.21243   2
  -7   6   1 133.792 5.12632   1
  -7   6   1 129.117 4.85398   2
   6  -6  -1 0.79685 0.69760   2
   6  -6  -1 0.41092 0.40437   4
   6  -6  -1 0.46258 0.57535   1
  -6   6   1 0.27009 0.66962   1
  -6   6   1 0.66541 0.62835   1
  -6   6   1 1.16132 0.59650   2
  -6   6   1 1.80119 0.86403   2
   5  -6  -1 10.7326 1.16484   4
   5  -6  -1 10.1123 1.60599   2
   5  -6  -1 8.73317 1.45592   1
  -5   6   1 12.4345 1.75095   1
  -5   6   1 11.8130 1.58729   1
  -5   6   1 9.66718 1.36721   2
  -5   6   1 10.3516 1.72017   2
   4  -6  -1 5.35734 1.22126   1
   4  -6  -1 5.87689 0.85618   4
   4  -6  -1 8.02846 1.43319   2
  -4   6   1 7.54022 1.30801   1
  -4   6   1 6.71432 1.41817   2
  -4   6   1 5.48756 1.01310   2
  -4   6   1 7.87384 1.37622   1
   3  -6  -1 190.372 6.91300   1
   3  -6  -1 192.518 7.07591   2
  -3   6   1 173.772 6.71378   1
  -3   6   1 181.633 6.55365   1
  -3   6   1 180.632 6.93312   2
  -3   6   1 185.492 6.34684   2
   2  -6  -1 82.0656 4.21714   2
   2  -6  -1 85.5458 4.13185   1
  -2   6   1 76.8087 3.58435   2
  -2   6   1 86.7647 3.92759   1
   1  -6  -1 28.3843 2.84652   2
   1  -6  -1 31.2636 2.89441   1
   1  -6  -1 38.2165 3.10581   2
  -1   6   1 34.2452 2.36534   1
  -1   6   1 37.0163 2.26429   2
   0  -6  -1 95.3849 4.72312   2
   0  -6  -1 87.4638 4.28167   1
   0  -6  -1 90.9623 4.05816   2
   0  -6  -1 107.822 4.79449   1
   0   6   1 95.2535 4.21953   1
   0   6   1 92.8887 3.95976   2
  -1  -6  -1 9.88456 1.73113   2
  -1  -6  -1 7.24263 1.50198   1
  -1  -6  -1 6.37165 1.30281   1
  -1  -6  -1 8.14914 1.36542   2
   1   6   1 11.4186 1.67606   1
   1   6   1 7.50827 1.14652   5
   1   6   1 5.87932 1.05061   2
  -2  -6  -1 11.4050 1.62360   2
  -2  -6  -1 8.96352 1.74854   2
  -2  -6  -1 10.3171 1.72348   1
  -2  -6  -1 13.7214 2.08962   1
   2   6   1 8.68347 1.37013   5
   2   6   1 10.7250 1.39667   2
   2   6   1 14.6355 1.83011   1
  -3  -6  -1 0.72230 0.85696   1
  -3  -6  -1 0.48564 0.75229   2
  -3  -6  -1 -0.1338 0.56976   1
  -3  -6  -1 0.03341 0.54444   2
   3   6   1 0.74813 0.59628   1
   3   6   1 0.93917 0.67794   5
   3   6   1 0.40835 0.52737   2
  -4  -6  -1 59.9042 3.98488   2
  -4  -6  -1 55.3106 3.72958   1
   4   6   1 51.5386 3.21820   5
  -5  -6  -1 2.31735 1.02708   1
  -5  -6  -1 0.40164 0.83757   2
   5   6   1 -0.0989 0.64244   5
  -6  -6  -1 2.39057 1.33924   2
  -6  -6  -1 0.00489 0.82089   1
   6   6   1 0.48486 0.89272   5
  -7  -6  -1 0.95127 1.14786   2
  -7  -6  -1 1.33666 1.18566   1
   7   6   1 1.59966 1.15591   5
 -12   7   1 -0.0498 0.58700   1
 -12   7   1 0.76043 0.70280   2
 -11   7   1 0.55407 0.68191   1
 -11   7   1 -0.6139 0.49657   2
 -10   7   1 3.20913 1.05146   1
 -10   7   1 4.92658 1.13419   2
  -9   7   1 3.65831 0.98232   2
  -9   7   1 2.51713 0.95781   1
  -8   7   1 28.9976 2.70257   1
  -8   7   1 35.3362 2.35251   2
  -8   7   1 32.6401 3.11297   1
  -8   7   1 31.2150 3.17900   2
   7  -7  -1 48.1573 2.61383   4
   7  -7  -1 54.1436 3.15866   1
   7  -7  -1 52.3774 2.96127   2
  -7   7   1 43.9266 3.82165   2
  -7   7   1 48.3811 2.84673   2
  -7   7   1 50.9012 3.11199   1
  -7   7   1 52.1931 3.30820   1
   6  -7  -1 13.7466 1.93010   2
   6  -7  -1 11.9585 1.36883   4
   6  -7  -1 10.6741 1.75052   1
  -6   7   1 12.6138 1.64549   2
  -6   7   1 11.5325 1.76450   1
  -6   7   1 12.5927 2.09800   2
  -6   7   1 17.4992 2.28212   1
   5  -7  -1 21.1314 2.40014   1
   5  -7  -1 22.7866 1.53736   4
   5  -7  -1 24.1723 2.60944   2
  -5   7   1 22.5604 2.71006   2
  -5   7   1 23.7100 2.27613   2
  -5   7   1 24.7086 2.53289   1
  -5   7   1 28.0304 2.93249   1
   4  -7  -1 0.26962 0.68199   1
   4  -7  -1 1.26279 0.81863   4
   4  -7  -1 0.37367 0.66036   2
  -4   7   1 0.40777 0.70268   2
  -4   7   1 0.24993 0.63541   1
  -4   7   1 -0.1056 0.46809   2
   3  -7  -1 69.2484 4.05726   2
   3  -7  -1 70.9534 3.96232   1
  -3   7   1 65.5413 3.61928   1
  -3   7   1 69.7589 3.50994   2
   2  -7  -1 197.966 7.58870   1
   2  -7  -1 193.889 7.74202   2
  -2   7   1 194.385 6.86366   2
  -2   7   1 179.519 6.97529   1
   1  -7  -1 35.5944 3.47857   2
   1  -7  -1 30.4598 3.14049   1
  -1   7   1 33.7661 2.29910   2
  -1   7   1 33.3086 2.94377   1
   0  -7  -1 54.3475 3.68704   2
   0  -7  -1 44.1657 2.81244   2
   0  -7  -1 46.6675 3.32891   1
   0   7   1 43.2157 2.85849   1
   0   7   1 47.7340 2.80640   2
  -1  -7  -1 24.9914 2.89739   1
  -1  -7  -1 22.6384 2.89896   2
  -1  -7  -1 25.7185 2.55377   2
   1   7   1 24.2613 2.20268   5
   1   7   1 22.0335 2.25122   2
   1   7   1 27.1235 2.62825   1
  -2  -7  -1 -0.5662 0.61213   2
  -2  -7  -1 -0.0965 0.80527   2
  -2  -7  -1 -0.1466 0.72290   1
   2   7   1 0.70209 1.09149   2
   2   7   1 0.07493 0.52467   5
   2   7   1 0.44176 0.60026   1
  -3  -7  -1 -0.8086 0.80460   1
  -3  -7  -1 1.20133 0.97255   2
   3   7   1 -0.3726 0.57797   5
   3   7   1 0.33495 0.57939   1
  -4  -7  -1 13.9589 2.40180   1
  -4  -7  -1 13.9958 2.46474   2
   4   7   1 18.5670 2.44383   5
  -5  -7  -1 1.79002 1.24548   2
   5   7   1 1.38470 1.00346   5
  -6  -7  -1 0.12544 1.08313   2
  -6  -7  -1 0.70449 1.10036   1
   6   7   1 -0.4983 0.84891   5
  -7  -7  -1 -0.3224 1.14084   2
  -7  -7  -1 0.38503 1.14969   1
   7   7   1 0.32516 1.00573   5
 -12   8   1 -0.3544 0.64967   2
 -12   8   1 0.97992 0.83024   1
 -11   8   1 11.0414 1.79552   2
 -11   8   1 11.5978 1.87184   1
 -10   8   1 7.16048 1.43691   2
 -10   8   1 9.12912 1.69982   1
  -9   8   1 65.2025 3.81022   1
  -9   8   1 61.0777 3.51106   2
   8  -8  -1 163.968 6.21989   4
   8  -8  -1 165.437 6.68819   1
  -8   8   1 182.480 6.72553   2
  -8   8   1 179.175 6.97845   1
   7  -8  -1 17.8505 2.39952   1
   7  -8  -1 14.5211 2.91754   2
  -7   8   1 13.2337 1.85090   2
  -7   8   1 13.1181 2.14017   1
  -7   8   1 13.3801 2.29266   2
  -7   8   1 12.8173 2.05460   1
   6  -8  -1 384.253 11.1015   4
   6  -8  -1 393.518 12.6049   1
  -6   8   1 397.074 12.3609   1
  -6   8   1 344.871 12.6837   2
  -6   8   1 385.084 11.9744   2
   5  -8  -1 10.6480 1.91140   1
   5  -8  -1 10.9296 1.99449   2
   5  -8  -1 10.7058 1.29314   4
  -5   8   1 9.94394 1.63957   2
  -5   8   1 8.37927 1.59556   1
  -5   8   1 10.9547 2.18954   2
   4  -8  -1 31.6038 3.40007   2
   4  -8  -1 33.0859 3.39764   1
  -4   8   1 28.7464 2.70923   2
  -4   8   1 32.2882 3.10296   1
   3  -8  -1 21.1149 2.64761   1
   3  -8  -1 29.5010 3.32658   2
  -3   8   1 24.0421 2.45278   2
  -3   8   1 23.5885 2.58931   1
   2  -8  -1 8.59766 1.83067   2
   2  -8  -1 8.63056 1.81251   1
  -2   8   1 8.34861 1.49378   2
  -2   8   1 7.64720 1.59005   1
   1  -8  -1 157.950 7.09139   1
   1  -8  -1 155.797 7.30127   2
  -1   8   1 164.073 6.34394   2
  -1   8   1 160.214 6.61107   1
   0  -8  -1 5.17173 1.58890   1
   0  -8  -1 4.88296 1.58697   2
   0   8   1 4.82868 1.20006   2
   0   8   1 5.34539 1.40592   1
  -1  -8  -1 1.48611 1.12773   2
  -1  -8  -1 3.17439 1.41436   1
   1   8   1 0.96435 0.81190   1
   1   8   1 1.14790 0.70406   5
  -2  -8  -1 46.8183 4.34599   1
  -2  -8  -1 52.7946 4.92796   2
   2   8   1 52.8138 3.18551   5
   2   8   1 49.6909 3.30682   1
  -3  -8  -1 0.94033 1.19429   2
  -3  -8  -1 -0.4232 0.98204   1
   3   8   1 1.32289 0.86102   5
  -4  -8  -1 0.45638 1.10436   1
  -4  -8  -1 0.69698 1.29384   2
   4   8   1 2.51439 1.23204   5
  -5  -8  -1 0.39383 1.21221   2
  -5  -8  -1 2.84511 1.45132   1
   5   8   1 0.58331 0.91640   5
  -6  -8  -1 -1.8691 0.99609   1
  -6  -8  -1 -0.6825 0.96928   2
   6   8   1 0.67049 1.16066   5
 -12   9   1 0.08304 0.80633   1
 -12   9   1 1.82942 1.00376   2
 -11   9   1 1.62817 0.97974   2
 -11   9   1 0.44573 0.83465   1
 -10   9   1 12.9935 2.19611   1
 -10   9   1 8.60553 1.62938   2
   9  -9  -1 5.06256 1.20776   4
  -9   9   1 6.50757 1.62047   1
  -9   9   1 6.63253 1.46416   2
   8  -9  -1 1.83287 1.47804   1
   8  -9  -1 0.70870 0.66824   4
  -8   9   1 1.27493 0.92539   1
  -8   9   1 1.22879 0.91638   2
   7  -9  -1 2.93025 1.25117   1
   7  -9  -1 0.99172 0.66867   4
  -7   9   1 0.78726 0.93994   1
  -7   9   1 2.26951 1.00157   2
   6  -9  -1 6.64534 1.67284   1
   6  -9  -1 7.60654 1.82470   2
   6  -9  -1 6.69547 1.18996   4
  -6   9   1 8.45172 1.61857   2
  -6   9   1 7.70551 1.76875   1
   5  -9  -1 14.5766 2.34389   1
   5  -9  -1 18.2547 1.98783   4
   5  -9  -1 18.9935 2.87600   2
  -5   9   1 17.8194 2.42977   1
  -5   9   1 19.0023 2.38071   2
   4  -9  -1 61.2933 4.20716   1
   4  -9  -1 48.6124 4.56022   2
  -4   9   1 55.9321 3.49923   2
  -4   9   1 54.1836 3.63060   1
   3  -9  -1 1.67363 1.07334   2
   3  -9  -1 -0.3027 0.80779   1
  -3   9   1 -0.2570 0.64996   1
  -3   9   1 -0.5858 0.51433   2
   2  -9  -1 23.2262 3.26475   2
   2  -9  -1 22.6500 3.08985   1
  -2   9   1 31.9910 3.12008   2
  -2   9   1 25.9322 3.03655   1
   1  -9  -1 8.57142 2.07199   1
   1  -9  -1 12.5643 2.64012   2
  -1   9   1 10.5007 1.95006   1
  -1   9   1 10.8163 1.88650   2
   0  -9  -1 0.09213 0.86260   2
   0  -9  -1 0.26655 0.92635   1
   0   9   1 0.14508 0.78261   1
  -1  -9  -1 5.67913 1.80724   1
  -1  -9  -1 4.08022 1.67413   2
   1   9   1 3.06770 1.23771   1
   1   9   1 2.82955 1.02590   5
  -2  -9  -1 34.6757 4.14948   1
  -2  -9  -1 29.6847 3.93458   2
   2   9   1 24.6118 2.81224   5
  -3  -9  -1 13.8538 2.87369   1
  -3  -9  -1 18.9674 3.28350   2
   3   9   1 15.0858 2.25564   5
  -4  -9  -1 43.5667 5.02634   2
  -4  -9  -1 46.5572 5.03106   1
   4   9   1 43.8958 4.17018   5
  -5  -9  -1 9.82322 2.68525   2
  -5  -9  -1 12.2320 2.77808   1
   5   9   1 7.25197 1.95661   5
 -12  10   1 8.52176 1.85434   2
 -12  10   1 10.6560 2.14005   1
 -11  10   1 20.0189 2.67617   2
 -11  10   1 16.8147 2.59615   1
 -10  10   1 0.45443 0.88690   1
 -10  10   1 1.24364 0.92487   2
   9 -10  -1 16.1589 2.08670   4
  -9  10   1 14.6563 2.29238   2
  -9  10   1 15.8782 2.43935   1
   8 -10  -1 14.7725 1.88905   4
  -8  10   1 16.0857 2.40033   2
  -8  10   1 13.8411 2.31980   1
   7 -10  -1 0.02645 0.51706   4
   7 -10  -1 -0.0278 0.88611   1
  -7  10   1 0.34911 0.94441   1
  -7  10   1 0.03787 0.65395   2
   6 -10  -1 43.7189 2.59151   4
   6 -10  -1 43.5375 4.25555   1
  -6  10   1 40.2940 3.68944   2
  -6  10   1 44.2988 4.06211   1
   5 -10  -1 -0.1525 1.00969   2
   5 -10  -1 -0.2309 1.26962   4
   5 -10  -1 0.26199 1.03765   1
  -5  10   1 0.25451 0.83918   1
  -5  10   1 1.67265 1.08986   2
   4 -10  -1 68.0085 4.80264   1
   4 -10  -1 83.8615 5.38808   2
  -4  10   1 68.4930 4.18810   2
  -4  10   1 64.6836 4.27088   1
   3 -10  -1 4.69442 1.77264   2
   3 -10  -1 6.78932 2.09766   1
  -3  10   1 5.14651 1.53060   2
  -3  10   1 4.15614 1.45039   1
   2 -10  -1 12.4346 2.51637   1
   2 -10  -1 15.7290 2.88342   2
  -2  10   1 13.5999 2.13520   2
  -2  10   1 20.2209 2.76391   1
   1 -10  -1 0.61357 1.13347   1
   1 -10  -1 0.09235 1.03532   2
  -1  10   1 0.73192 0.90562   1
   0 -10  -1 0.13346 1.04017   1
   0 -10  -1 1.75270 1.45072   2
   0  10   1 0.34021 0.80971   1
   0  10   1 1.26038 0.92424   5
  -1 -10  -1 0.35890 1.20212   1
  -1 -10  -1 0.21292 1.23768   2
   1  10   1 1.05178 0.87381   5
  -2 -10  -1 7.41809 2.24476   1
  -2 -10  -1 2.58833 1.61885   2
   2  10   1 7.97673 1.73881   5
  -3 -10  -1 35.5201 4.46265   1
  -3 -10  -1 43.4596 5.17724   2
   3  10   1 40.3384 3.96801   5
  -4 -10  -1 51.1612 5.77516   2
  -4 -10  -1 54.6258 5.75189   1
   4  10   1 44.3574 4.42098   5
 -11  11   1 9.60639 2.05259   2
 -11  11   1 8.42061 2.04331   1
  10 -11  -1 52.4190 3.41158   4
 -10  11   1 48.5433 4.60160   1
 -10  11   1 44.8680 4.15981   2
   9 -11  -1 5.57728 1.30075   4
  -9  11   1 7.33344 1.96564   1
  -9  11   1 4.04789 1.46484   2
   8 -11  -1 8.64992 1.55014   4
  -8  11   1 6.50929 1.68788   2
  -8  11   1 4.37523 1.50081   1
   7 -11  -1 47.8996 4.84076   1
   7 -11  -1 49.1524 2.99426   4
  -7  11   1 48.7832 4.34048   2
  -7  11   1 50.2171 4.56463   1
   6 -11  -1 85.3794 5.64469   1
   6 -11  -1 95.7691 4.27871   4
  -6  11   1 92.8750 5.45825   1
  -6  11   1 97.8413 5.27357   2
   5 -11  -1 24.2891 3.51907   1
  -5  11   1 16.0983 2.69081   1
  -5  11   1 20.6110 2.71877   2
   4 -11  -1 6.16664 2.14378   2
   4 -11  -1 5.60520 1.76627   1
  -4  11   1 4.34769 1.50138   2
  -4  11   1 4.57362 1.61351   1
   3 -11  -1 -0.4197 1.09856   1
   3 -11  -1 -0.0264 1.04075   2
  -3  11   1 -0.4358 0.75251   1
  -3  11   1 0.10157 0.80963   2
   2 -11  -1 3.81147 1.92957   2
   2 -11  -1 4.82810 1.84819   1
  -2  11   1 4.32079 1.55515   1
   1 -11  -1 5.08182 2.08836   2
   1 -11  -1 1.63194 1.41258   1
  -1  11   1 1.60961 1.14365   1
   0 -11  -1 3.62690 1.79558   1
   0 -11  -1 2.28263 1.65342   2
   0  11   1 1.29755 1.18678   1
   0  11   1 0.60609 0.86078   5
  -1 -11  -1 0.60406 1.44019   2
  -1 -11  -1 1.27550 1.38469   1
   1  11   1 0.70368 0.91631   5
  -2 -11  -1 2.10571 1.81535   2
  -2 -11  -1 1.05050 1.44212   1
   2  11   1 0.30818 1.11666   5
 -11  12   1 0.33618 1.08235   1
 -11  12   1 1.38019 1.18676   2
  10 -12  -1 -0.7640 0.63145   4
 -10  12   1 0.03354 0.89849   2
 -10  12   1 -0.7097 0.83895   1
   9 -12  -1 11.8605 1.90552   4
  -9  12   1 10.3140 2.29788   2
  -9  12   1 14.5183 2.76852   1
   8 -12  -1 16.9990 2.15048   4
  -8  12   1 17.2598 2.89096   1
  -8  12   1 16.7421 2.70225   2
   7 -12  -1 8.10577 1.52686   4
   7 -12  -1 10.9913 2.56068   1
  -7  12   1 7.57453 1.92922   2
  -7  12   1 10.9312 2.30783   1
   6 -12  -1 98.9517 6.33735   1
   6 -12  -1 86.8266 4.38992   4
  -6  12   1 93.7144 5.40366   2
  -6  12   1 88.9558 5.63425   1
   5 -12  -1 100.113 6.51844   1
  -5  12   1 93.6639 5.50774   2
  -5  12   1 111.152 6.20388   1
   4 -12  -1 2.85998 2.40839   2
   4 -12  -1 2.40785 1.52624   1
  -4  12   1 2.73226 1.42518   1
  -4  12   1 1.53940 1.19434   2
   3 -12  -1 4.38792 1.82394   1
   3 -12  -1 3.58981 2.04325   2
  -3  12   1 7.63230 2.01077   1
   2 -12  -1 0.63100 1.32072   1
   2 -12  -1 -1.1692 1.22734   2
  -2  12   1 0.37090 1.04051   1
   1 -12  -1 -0.0142 1.22419   1
   1 -12  -1 -0.5822 1.38452   2
  -1  12   1 1.08796 1.12961   1
   0 -12  -1 15.6971 3.31989   1
   0 -12  -1 11.4380 2.92404   2
   0  12   1 17.4998 2.67236   5
  -1 -12  -1 6.35016 2.45795   1
  -1 -12  -1 5.36159 2.40569   2
   1  12   1 9.49115 2.01592   5
  10 -13  -1 1.76689 1.03623   4
 -10  13   1 0.88166 1.21578   2
   9 -13  -1 0.77046 0.82895   4
  -9  13   1 -0.0042 1.03061   2
  -9  13   1 0.42730 0.97009   1
   8 -13  -1 -0.4903 0.61437   4
  -8  13   1 -0.6766 0.81787   2
  -8  13   1 -0.6386 0.81605   1
   7 -13  -1 14.8401 2.03576   4
  -7  13   1 13.6386 2.72014   1
  -7  13   1 15.6813 2.78949   2
   6 -13  -1 23.8994 4.04102   1
   6 -13  -1 19.4499 2.59267   4
  -6  13   1 24.7316 3.37332   2
  -6  13   1 19.1084 3.24781   1
   5 -13  -1 33.4403 4.64407   1
  -5  13   1 36.2245 4.36247   1
  -5  13   1 28.6503 3.65900   2
   4 -13  -1 22.0433 3.73391   1
  -4  13   1 26.4595 3.76982   1
   3 -13  -1 0.47676 1.30552   1
  -3  13   1 0.01895 1.09142   1
   2 -13  -1 4.37973 2.31438   2
   2 -13  -1 8.96749 2.71631   1
  -2  13   1 4.15180 1.75682   1
   1 -13  -1 1.02334 1.48276   1
   1 -13  -1 0.70279 1.70501   2
  -1  13   1 0.85320 1.00570   5
  -8  14   1 0.32597 0.95810   2
   7 -14  -1 0.17238 0.69648   4
  -7  14   1 0.41290 1.15903   1
  -7  14   1 0.55754 1.02337   2
   6 -14  -1 0.23996 1.44838   1
   6 -14  -1 -4.0608 1.57867   4
  -6  14   1 0.04212 1.19680   1
   5 -14  -1 4.15957 2.09002   1
  -5  14   1 1.49459 1.60166   1
   4 -14  -1 4.80075 2.26582   1
  -4  14   1 5.29481 2.14745   1
  -4  14  -2 8.28844 2.21150   1
   4 -14   2 3.89696 2.22339   1
  -5  14  -2 24.5283 3.60390   1
   5 -14   2 17.9062 3.67675   1
  -6  14  -2 0.00670 1.15479   2
  -6  14  -2 -0.7668 1.14497   1
  -7  14  -2 2.13961 1.45240   2
  -7  14  -2 -0.0536 0.96905   1
   7 -14   2 1.39020 0.97772   4
  -1  13  -2 1.79883 1.09313   5
   1 -13   2 4.10083 2.16330   2
   1 -13   2 3.90396 2.02926   1
  -2  13  -2 -0.4552 1.01754   1
   2 -13   2 0.67240 1.39199   1
   2 -13   2 0.13989 1.61434   2
  -3  13  -2 1.07991 1.20736   1
   3 -13   2 2.64939 1.74716   1
  -4  13  -2 5.37173 2.02969   1
   4 -13   2 4.37802 2.11897   1
  -5  13  -2 -0.0461 1.05399   1
  -5  13  -2 -0.2544 0.97865   2
   5 -13   2 -0.0599 1.21935   1
  -6  13  -2 16.7807 2.99439   1
  -6  13  -2 17.1218 2.95829   2
   6 -13   2 18.2921 3.35888   1
   6 -13   2 7.03827 2.42535   4
  -7  13  -2 6.04227 1.87648   2
  -7  13  -2 6.64829 2.01805   1
   7 -13   2 5.54495 1.43548   4
  -8  13  -2 -0.5623 0.79443   1
  -8  13  -2 0.60743 1.16234   2
   8 -13   2 -0.2825 0.64937   4
  -9  13  -2 8.52873 2.22087   2
  -9  13  -2 5.36419 1.90526   1
   9 -13   2 7.36035 1.69913   4
   1  12  -2 4.36691 1.48080   5
  -1 -12   2 5.34441 2.44052   2
  -1 -12   2 2.70690 1.84461   1
   0  12  -2 2.78682 1.18826   5
   0 -12   2 1.26290 1.59636   1
   0 -12   2 3.57566 1.93791   2
  -1  12  -2 5.06241 1.67504   1
  -1  12  -2 4.11160 1.33583   5
   1 -12   2 2.80912 1.78109   1
   1 -12   2 6.45793 2.41892   2
  -2  12  -2 5.37456 1.67272   1
   2 -12   2 5.39997 2.10509   1
   2 -12   2 7.30375 2.39139   2
  -3  12  -2 2.06525 1.35114   1
   3 -12   2 1.62488 1.52130   1
   3 -12   2 1.27042 1.62645   2
  -4  12  -2 3.19226 1.36217   2
  -4  12  -2 3.25843 1.59261   1
   4 -12   2 0.15591 1.31072   1
  -5  12  -2 5.71465 1.95123   1
  -5  12  -2 3.60496 1.40837   2
   5 -12   2 5.57800 2.10155   1
  -6  12  -2 10.8818 2.36411   1
  -6  12  -2 5.70332 1.71123   2
   6 -12   2 5.74300 1.76903   4
   6 -12   2 14.7680 3.02377   1
  -7  12  -2 6.87169 1.77017   2
  -7  12  -2 6.29255 1.84556   1
   7 -12   2 7.43802 1.52512   4
  -8  12  -2 5.91939 1.73552   2
  -8  12  -2 8.06049 2.09047   1
   8 -12   2 9.31078 1.84249   4
  -9  12  -2 2.14864 1.26700   2
  -9  12  -2 0.59729 1.19255   1
   9 -12   2 -0.1889 0.69147   4
 -10  12  -2 -2.0329 0.90845   1
 -10  12  -2 0.04191 0.95220   2
  10 -12   2 0.02032 0.77138   4
   3  11  -2 -0.5491 0.90898   5
  -3 -11   2 -0.2563 1.44607   2
  -3 -11   2 0.47574 1.52365   1
   2  11  -2 1.31586 1.09444   5
  -2 -11   2 1.34859 1.50704   1
  -2 -11   2 0.85625 1.51888   2
   1  11  -2 2.67218 1.20721   5
  -1 -11   2 -0.5716 1.33068   2
  -1 -11   2 1.88707 1.51323   1
   0  11  -2 -0.1086 0.72593   5
   0  11  -2 1.85224 1.35038   1
   0 -11   2 -0.4408 1.00629   1
   0 -11   2 -0.5012 1.05548   2
  -1  11  -2 1.07490 1.07760   1
   1 -11   2 -0.7688 0.98762   1
   1 -11   2 -1.7241 0.93668   2
  -2  11  -2 23.4763 3.02048   1
  -2  11  -2 26.4310 3.56532   2
   2 -11   2 22.4966 3.65858   2
   2 -11   2 23.8122 3.58603   1
  -3  11  -2 24.3761 3.09017   2
  -3  11  -2 16.7145 2.69575   1
   3 -11   2 22.2302 3.70237   2
   3 -11   2 16.7247 3.08763   1
  -4  11  -2 92.5713 5.39893   1
  -4  11  -2 96.6280 5.28898   2
   4 -11   2 85.7432 5.95672   2
   4 -11   2 83.9930 5.70555   1
  -5  11  -2 1.70353 1.16989   2
  -5  11  -2 3.15190 1.38875   1
   5 -11   2 2.16547 1.45309   1
  -6  11  -2 16.6604 2.61474   1
  -6  11  -2 24.4699 3.11749   2
   6 -11   2 20.7826 2.44090   4
   6 -11   2 16.3641 2.78421   1
  -7  11  -2 3.90394 1.31659   2
  -7  11  -2 4.46404 1.51758   1
   7 -11   2 4.53667 1.78620   1
   7 -11   2 4.68627 1.23781   4
  -8  11  -2 1.41481 1.05295   1
  -8  11  -2 0.03039 0.70416   2
   8 -11   2 0.99242 0.82535   4
  -9  11  -2 16.6455 2.54114   2
  -9  11  -2 27.0180 3.45299   1
   9 -11   2 20.1813 2.62319   4
 -10  11  -2 6.23157 1.78049   1
 -10  11  -2 7.51187 1.88022   2
  10 -11   2 6.43613 1.61871   4
 -11  11  -2 -0.6602 0.86836   1
 -11  11  -2 0.68961 0.91868   2
  11 -11   2 0.07388 0.83842   4
   4  10  -2 1.42624 1.08196   5
  -4 -10   2 0.10606 1.30699   1
  -4 -10   2 -0.2785 1.19676   2
   3  10  -2 6.07354 1.54372   5
  -3 -10   2 5.59164 2.21175   2
  -3 -10   2 6.81155 2.25748   1
   2  10  -2 12.1462 2.04603   5
  -2 -10   2 13.7653 3.11252   2
  -2 -10   2 10.1612 2.45498   1
   1  10  -2 11.4652 2.24542   1
   1  10  -2 9.92795 1.82887   5
  -1 -10   2 9.79196 2.52978   2
  -1 -10   2 10.6727 2.46681   1
   0  10  -2 33.1776 2.99522   5
   0  10  -2 33.6249 3.54707   1
   0 -10   2 40.5485 4.64776   2
   0 -10   2 38.0530 4.41630   1
  -1  10  -2 -0.2681 0.66067   2
  -1  10  -2 -0.6432 0.66459   1
   1 -10   2 1.96924 1.40690   2
   1 -10   2 -0.5596 0.89111   1
  -2  10  -2 24.0342 3.06397   1
  -2  10  -2 27.0706 3.07967   2
   2 -10   2 22.8359 3.40711   1
   2 -10   2 23.6736 3.54370   2
  -3  10  -2 17.1533 2.62448   1
  -3  10  -2 19.2702 2.59558   2
   3 -10   2 19.2018 3.06549   1
   3 -10   2 14.5882 2.75517   2
  -4  10  -2 1.40975 0.89101   2
  -4  10  -2 1.57557 1.12327   1
   4 -10   2 -0.0213 0.99269   2
   4 -10   2 0.98791 1.20820   1
  -5  10  -2 83.2411 4.75980   1
  -5  10  -2 75.2177 4.31704   2
   5 -10   2 53.6356 3.89688   4
   5 -10   2 84.6214 5.29529   2
   5 -10   2 80.2604 5.11124   1
  -6  10  -2 -0.1399 0.77384   1
  -6  10  -2 2.40599 1.12112   2
   6 -10   2 2.32209 1.34127   1
   6 -10   2 2.28194 0.91472   4
  -7  10  -2 1.08696 0.95867   1
  -7  10  -2 3.73585 1.43128   2
   7 -10   2 2.43090 0.95422   4
   7 -10   2 2.06469 1.30760   1
  -8  10  -2 2.81241 1.18816   1
  -8  10  -2 1.94601 1.06668   2
   8 -10   2 2.57976 0.99877   4
  -9  10  -2 1.00164 0.88855   2
  -9  10  -2 2.11520 1.17037   1
   9 -10   2 0.83065 0.75943   4
 -10  10  -2 7.24128 1.82893   1
 -10  10  -2 4.67814 1.37192   2
  10 -10   2 5.30067 1.49691   4
 -11  10  -2 8.52673 1.77128   2
 -11  10  -2 5.76703 1.65695   1
   5   9  -2 -0.0667 0.96766   5
  -5  -9   2 1.01551 1.45353   2
  -5  -9   2 0.40044 1.45027   1
   4   9  -2 0.10299 0.79640   5
  -4  -9   2 0.70784 1.35734   2
  -4  -9   2 0.29836 1.20903   1
   3   9  -2 0.42780 0.77178   5
  -3  -9   2 -0.4723 0.94100   1
  -3  -9   2 -1.3516 0.91559   2
   2   9  -2 0.37671 0.67774   5
   2   9  -2 0.43638 0.86972   1
  -2  -9   2 0.30242 1.03729   1
  -2  -9   2 1.15970 1.14676   2
   1   9  -2 0.43631 0.74253   5
   1   9  -2 0.63934 0.81283   1
  -1  -9   2 0.84043 1.14556   1
  -1  -9   2 1.07560 1.13273   2
   0   9  -2 11.2766 2.03387   1
   0   9  -2 12.7005 2.02121   2
   0  -9   2 10.8167 2.34538   2
   0  -9   2 9.93340 2.18606   1
  -1   9  -2 70.1157 4.16997   2
  -1   9  -2 82.9811 4.57552   1
   1  -9   2 94.7613 5.64291   2
   1  -9   2 74.0324 4.99062   1
  -2   9  -2 5.97751 1.55035   1
  -2   9  -2 8.43468 1.64634   2
   2  -9   2 8.11979 2.17897   2
   2  -9   2 6.87078 1.78653   1
  -3   9  -2 6.68436 1.44772   2
  -3   9  -2 10.8537 1.99403   1
   3  -9   2 10.0375 2.13602   1
   3  -9   2 6.39723 1.81883   2
  -4   9  -2 9.73340 1.72718   2
  -4   9  -2 11.4263 2.04069   1
   4  -9   2 10.0066 2.13202   1
   4  -9   2 12.1819 2.32222   2
  -5   9  -2 20.2972 2.44834   2
  -5   9  -2 19.3934 2.50951   1
   5  -9   2 18.6145 2.71224   2
   5  -9   2 19.2167 2.40976   4
   5  -9   2 21.5515 3.04027   1
  -6   9  -2 67.3223 4.05005   1
  -6   9  -2 63.0556 3.74196   2
   6  -9   2 63.3261 4.22290   1
   6  -9   2 70.0630 3.53928   4
  -7   9  -2 3.17085 1.18030   1
  -7   9  -2 5.58350 1.37881   2
   7  -9   2 4.07192 1.07306   4
   7  -9   2 2.37543 1.26116   1
  -8   9  -2 3.76211 1.16024   2
  -8   9  -2 5.01539 1.37963   1
   8  -9   2 4.25781 1.20588   4
  -9   9  -2 2.74577 1.06523   2
  -9   9  -2 4.62726 1.32677   1
   9  -9   2 5.23500 1.30475   4
 -10   9  -2 1.98518 1.07917   1
 -10   9  -2 1.13924 0.78978   2
  10  -9   2 2.60399 1.11955   4
 -11   9  -2 2.87223 1.18077   2
 -11   9  -2 1.39292 0.92856   1
 -12   9  -2 1.62472 1.01685   1
 -12   9  -2 -0.2476 0.63651   2
   6   8  -2 -0.3460 0.92873   5
  -6  -8   2 0.15640 1.23225   2
  -6  -8   2 0.21458 1.16540   1
   5   8  -2 24.9309 3.05614   5
  -5  -8   2 16.0493 2.90560   1
  -5  -8   2 19.4299 3.22555   2
   4   8  -2 0.05277 0.77637   5
  -4  -8   2 0.63673 1.09901   1
  -4  -8   2 1.75949 1.29863   2
   3   8  -2 3.77188 1.19992   5
  -3  -8   2 5.86017 1.88693   1
  -3  -8   2 3.56954 1.61614   2
   2   8  -2 13.1539 1.82787   5
   2   8  -2 9.63704 1.77807   1
  -2  -8   2 9.45797 2.06155   1
  -2  -8   2 13.7557 2.58005   2
   1   8  -2 19.1041 2.28772   2
   1   8  -2 20.3875 2.14486   5
   1   8  -2 19.0557 2.37654   1
  -1  -8   2 21.6912 3.10121   1
  -1  -8   2 18.9248 2.90320   2
   0   8  -2 0.78326 0.75188   2
   0   8  -2 0.83371 0.71323   1
   0  -8   2 1.04358 0.96976   1
   0  -8   2 1.50519 1.15833   2
  -1   8  -2 193.846 7.24953   2
  -1   8  -2 189.255 7.37007   1
   1  -8   2 201.044 8.23288   1
   1  -8   2 179.716 8.08612   2
  -2   8  -2 91.0827 4.61638   1
  -2   8  -2 93.7962 4.46083   2
   2  -8   2 91.5539 5.07924   1
   2  -8   2 92.7040 5.24855   2
  -3   8  -2 5.20438 1.26871   2
  -3   8  -2 5.25937 1.31045   1
   3  -8   2 3.15023 1.34943   2
   3  -8   2 3.92971 1.30918   1
  -4   8  -2 1.11932 0.74402   2
  -4   8  -2 2.40660 0.99283   1
   4  -8   2 0.97780 0.95393   1
   4  -8   2 0.19536 0.94575   2
  -5   8  -2 2.17771 1.18281   2
  -5   8  -2 1.97276 0.84424   2
  -5   8  -2 0.11265 0.69225   1
   5  -8   2 1.45400 0.77596   4
   5  -8   2 2.11521 1.05354   1
   5  -8   2 3.12125 1.09532   2
  -6   8  -2 1.66323 0.80593   2
  -6   8  -2 1.18016 0.84811   1
  -6   8  -2 0.74164 0.81800   2
   6  -8   2 2.43992 0.79496   4
   6  -8   2 -0.2050 0.71829   1
   6  -8   2 0.97862 0.94300   2
  -7   8  -2 0.89552 0.83395   1
  -7   8  -2 0.81999 0.65589   2
  -7   8  -2 0.87781 0.79111   1
   7  -8   2 0.57394 0.60972   4
   7  -8   2 1.47945 0.86545   1
  -8   8  -2 41.4294 2.92820   1
  -8   8  -2 33.2563 2.90763   2
   8  -8   2 35.7595 2.60040   4
  -9   8  -2 46.7387 3.11522   1
  -9   8  -2 46.3554 2.99303   2
   9  -8   2 38.7946 3.48125   4
 -10   8  -2 2.36815 0.99739   1
 -10   8  -2 -0.4545 0.54120   2
 -11   8  -2 3.52465 1.13807   2
 -11   8  -2 0.58105 0.80039   1
 -12   8  -2 -0.0909 0.65840   2
 -12   8  -2 1.41982 0.84422   1
   7   7  -2 0.06648 0.88061   5
  -7  -7   2 0.11479 1.15507   2
  -7  -7   2 1.15649 1.29817   1
   6   7  -2 0.07200 0.95368   5
  -6  -7   2 1.40806 1.31494   2
  -6  -7   2 2.98052 1.33372   1
   5   7  -2 20.3361 2.66243   5
  -5  -7   2 21.4147 2.97628   1
  -5  -7   2 16.9620 2.94030   2
   4   7  -2 2.64787 1.08379   5
  -4  -7   2 0.09293 1.06630   2
  -4  -7   2 0.92353 1.06411   1
   3   7  -2 4.93284 1.25619   5
   3   7  -2 5.70280 1.24760   1
  -3  -7   2 7.12323 1.86449   2
  -3  -7   2 4.92301 1.55861   1
   2   7  -2 32.7524 2.82207   2
   2   7  -2 34.1454 2.83126   5
   2   7  -2 29.2579 2.72157   1
  -2  -7   2 24.6347 2.56144   2
  -2  -7   2 28.5926 3.30818   2
  -2  -7   2 34.1292 3.66364   1
   1   7  -2 22.6748 2.42883   1
   1   7  -2 33.7247 2.82995   2
   1   7  -2 26.6324 2.30101   5
  -1  -7   2 24.1702 2.89610   1
  -1  -7   2 27.0994 3.14323   2
  -1  -7   2 29.2704 2.73427   2
   0   7  -2 0.57632 0.69161   1
   0   7  -2 1.48549 0.81091   2
   0  -7   2 2.31922 1.17504   2
   0  -7   2 1.16017 0.93571   1
  -1   7  -2 1.67979 0.74108   2
  -1   7  -2 2.80154 0.98163   1
   1  -7   2 1.30254 0.88349   2
   1  -7   2 0.71794 0.79523   1
  -2   7  -2 68.9499 3.67235   1
  -2   7  -2 66.6101 3.46368   2
   2  -7   2 67.0978 4.12610   2
   2  -7   2 67.2255 3.99396   1
  -3   7  -2 76.7938 3.89625   1
  -3   7  -2 76.8947 3.72967   2
   3  -7   2 80.2834 4.41466   2
   3  -7   2 80.4542 4.35204   1
  -4   7  -2 84.3917 4.62921   2
  -4   7  -2 87.1090 3.98217   2
  -4   7  -2 88.9673 4.16447   1
   4  -7   2 83.7706 4.38501   1
   4  -7   2 77.3047 4.30508   2
  -5   7  -2 56.0027 3.04468   2
  -5   7  -2 54.1523 3.48498   1
  -5   7  -2 57.4728 3.27725   1
  -5   7  -2 59.3298 3.72839   2
   5  -7   2 57.3725 3.47365   1
   5  -7   2 54.0087 2.79479   4
  -6   7  -2 119.179 4.91167   2
  -6   7  -2 115.554 5.43540   1
  -6   7  -2 121.244 5.70844   2
  -6   7  -2 123.468 5.16012   1
   6  -7   2 119.864 5.28319   1
   6  -7   2 117.842 5.04497   2
   6  -7   2 124.963 4.81307   4
  -7   7  -2 29.9675 3.03595   1
  -7   7  -2 34.0616 2.81818   2
  -7   7  -2 27.5881 3.07981   2
  -7   7  -2 31.8905 2.74023   1
   7  -7   2 30.6644 2.74553   1
   7  -7   2 27.8605 2.50827   4
  -8   7  -2 42.1136 2.78998   1
  -8   7  -2 45.0157 3.99562   2
  -8   7  -2 41.7104 2.64396   2
   8  -7   2 43.5888 2.84501   4
  -9   7  -2 8.63420 1.50439   1
  -9   7  -2 8.57996 1.43216   2
 -10   7  -2 23.3052 2.28400   2
 -10   7  -2 25.1865 2.46001   1
 -11   7  -2 32.5173 2.84616   1
 -11   7  -2 36.1157 2.51508   2
 -12   7  -2 1.88763 0.90538   2
 -12   7  -2 4.92211 1.18310   1
   8   6  -2 -0.1719 0.94713   5
  -8  -6   2 0.41512 1.08837   1
  -8  -6   2 0.52879 1.16089   2
   7   6  -2 4.04245 1.42124   5
  -7  -6   2 1.15286 1.24020   3
  -7  -6   2 3.97125 1.51255   2
  -7  -6   2 3.50836 1.46093   1
   6   6  -2 6.76526 1.61780   5
  -6  -6   2 6.03576 1.78752   2
  -6  -6   2 5.88785 1.69613   1
   5   6  -2 18.2913 2.38164   5
  -5  -6   2 12.2307 2.31147   2
  -5  -6   2 11.6588 2.08611   1
   4   6  -2 0.48741 0.60532   1
   4   6  -2 0.54380 0.64869   5
  -4  -6   2 0.03656 0.76484   1
  -4  -6   2 0.52721 0.88574   2
   3   6  -2 0.53266 0.58011   1
   3   6  -2 -0.1333 0.40903   5
   3   6  -2 0.72592 0.57766   2
  -3  -6   2 0.48816 0.78089   1
  -3  -6   2 0.10705 0.50892   2
  -3  -6   2 -0.2970 0.75241   2
  -3  -6   2 0.75613 0.69153   1
   2   6  -2 -0.0890 0.48391   2
   2   6  -2 1.24709 0.71942   1
   2   6  -2 1.52672 0.64053   5
  -2  -6   2 1.51191 0.97459   2
  -2  -6   2 1.72549 0.97563   1
  -2  -6   2 1.43947 0.79483   1
  -2  -6   2 1.45191 0.68156   2
   1   6  -2 0.52325 0.45360   5
   1   6  -2 0.33844 0.60324   1
   1   6  -2 2.74553 0.82486   2
  -1  -6   2 0.70308 0.73053   1
  -1  -6   2 0.66497 0.83392   2
  -1  -6   2 1.25273 0.71546   1
  -1  -6   2 0.78541 0.65547   2
   0   6  -2 42.3939 2.59082   1
   0   6  -2 39.9097 2.42936   2
   0  -6   2 39.7496 2.86051   1
   0  -6   2 34.2706 3.24340   2
   0  -6   2 37.8604 2.38216   2
  -1   6  -2 189.755 6.71617   1
  -1   6  -2 193.678 6.57423   2
   1  -6   2 183.369 7.14995   1
   1  -6   2 184.620 7.31439   2
  -2   6  -2 137.409 5.20820   2
  -2   6  -2 137.233 5.35404   1
   2  -6   2 145.561 6.03271   2
   2  -6   2 137.765 5.79089   1
  -3   6  -2 1.06745 0.66830   1
  -3   6  -2 0.52779 0.61914   2
  -3   6  -2 1.07992 0.74143   1
  -3   6  -2 -0.1005 0.40267   2
   3  -6   2 0.69832 0.73551   1
   3  -6   2 0.14509 0.58792   2
  -4   6  -2 193.078 7.31984   2
  -4   6  -2 197.726 6.73879   1
  -4   6  -2 182.435 6.44074   2
  -4   6  -2 177.477 6.93805   1
   4  -6   2 190.399 6.22582   4
   4  -6   2 204.642 7.15905   2
   4  -6   2 194.820 7.05321   1
  -5   6  -2 1.36575 0.66376   1
  -5   6  -2 2.14275 0.71878   2
  -5   6  -2 1.00442 0.64529   1
  -5   6  -2 1.53924 0.88716   2
   5  -6   2 1.85581 0.78154   2
   5  -6   2 1.69050 0.62306   4
   5  -6   2 0.24243 0.59874   1
  -6   6  -2 10.7727 1.63380   1
  -6   6  -2 9.04022 1.36608   1
  -6   6  -2 12.8046 1.49009   2
  -6   6  -2 12.0143 1.87333   2
   6  -6   2 11.7502 1.64016   1
   6  -6   2 9.59393 1.33713   2
   6  -6   2 13.3032 1.55968   4
  -7   6  -2 231.294 7.62450   1
  -7   6  -2 229.294 7.40956   2
  -7   6  -2 226.789 7.99835   1
  -7   6  -2 224.490 8.21854   2
   7  -6   2 226.885 7.35850   1
   7  -6   2 233.496 7.77446   4
  -8   6  -2 151.245 5.33836   2
  -8   6  -2 148.617 6.08116   2
  -8   6  -2 149.444 5.49278   1
  -8   6  -2 136.056 5.72009   1
   8  -6   2 141.052 4.45471   1
  -9   6  -2 -0.1217 0.42517   2
  -9   6  -2 0.42478 0.75025   2
  -9   6  -2 1.24646 0.68248   1
 -10   6  -2 25.6247 2.25952   1
 -10   6  -2 29.2850 2.37263   2
 -11   6  -2 2.64674 0.88396   1
 -11   6  -2 2.85469 0.84243   2
 -12   6  -2 -0.1549 0.54996   2
 -12   6  -2 0.40708 0.56074   1
   8   5  -2 14.5772 2.52732   5
  -8  -5   2 14.8094 2.46695   1
  -8  -5   2 13.9561 2.58413   2
  -8  -5   2 17.9003 2.34489   3
   7   5  -2 -0.9978 0.59861   5
  -7  -5   2 1.30332 0.96156   1
  -7  -5   2 1.54210 1.05162   2
  -7  -5   2 1.01873 0.85710   3
   6   5  -2 1.98493 1.04465   5
  -6  -5   2 1.15857 0.92020   1
  -6  -5   2 2.99767 1.11699   2
  -6  -5   2 1.27972 0.77479   3
   5   5  -2 0.36970 0.63492   5
  -5  -5   2 0.93888 0.63883   3
  -5  -5   2 -0.2612 0.66717   2
  -5  -5   2 1.12850 0.80005   1
   4   5  -2 2.69411 0.80221   1
   4   5  -2 2.23704 0.84085   5
  -4  -5   2 3.48909 0.92902   3
  -4  -5   2 2.11408 0.98178   1
  -4  -5   2 2.85908 1.08853   2
  -4  -5   2 1.88200 0.80329   1
  -4  -5   2 2.09979 0.80347   2
   3   5  -2 0.22564 0.43170   2
   3   5  -2 -0.0122 0.41974   1
   3   5  -2 0.04914 0.52138   5
  -3  -5   2 1.29400 0.60984   2
  -3  -5   2 -0.3239 0.54697   1
  -3  -5   2 0.35624 0.49378   1
  -3  -5   2 0.52870 0.74772   2
   2   5  -2 29.9638 2.02671   1
   2   5  -2 25.7940 1.85759   2
   2   5  -2 29.8752 1.83702   5
  -2  -5   2 28.2814 2.68208   1
  -2  -5   2 28.7901 2.11783   1
  -2  -5   2 33.3508 2.07703   2
  -2  -5   2 26.9847 2.77154   2
   1   5  -2 12.2126 1.49282   1
   1   5  -2 12.1147 1.26594   5
   1   5  -2 11.8353 1.48555   2
  -1  -5   2 12.9209 1.87640   2
  -1  -5   2 15.5329 1.82314   1
  -1  -5   2 12.5806 1.75016   1
  -1  -5   2 12.6250 1.53958   2
   0   5  -2 0.01419 0.45849   1
   0   5  -2 0.69864 0.55661   2
   0  -5   2 -0.2101 0.34638   2
   0  -5   2 0.09575 0.54221   1
   0  -5   2 0.81906 0.74748   2
   0  -5   2 -0.2589 0.54269   1
  -1   5  -2 2.71515 0.91630   1
  -1   5  -2 1.05738 0.56592   2
  -1   5  -2 1.43514 0.66721   1
   1  -5   2 1.63731 0.62496   2
   1  -5   2 2.15533 0.74241   1
   1  -5   2 1.25161 0.75169   1
   1  -5   2 3.08296 1.08071   2
  -2   5  -2 0.28583 0.60307   1
  -2   5  -2 0.43295 0.56494   2
  -2   5  -2 0.80956 0.54464   1
  -2   5  -2 0.45950 0.45915   2
   2  -5   2 0.44245 0.66560   2
   2  -5   2 0.85370 0.58014   1
   2  -5   2 0.03308 0.62760   1
  -3   5  -2 409.569 11.8307   2
  -3   5  -2 412.391 12.6350   2
  -3   5  -2 417.781 12.4983   1
  -3   5  -2 420.864 12.0431   1
   3  -5   2 409.279 12.4227   2
   3  -5   2 439.965 12.5070   1
  -4   5  -2 2.12390 0.67630   2
  -4   5  -2 1.79286 0.82225   2
  -4   5  -2 3.43130 0.93522   1
  -4   5  -2 3.57011 0.82362   1
   4  -5   2 3.04404 0.89690   2
   4  -5   2 3.72228 0.78188   4
   4  -5   2 3.53123 0.93097   1
  -5   5  -2 52.1160 2.67484   1
  -5   5  -2 52.8073 3.01019   2
  -5   5  -2 53.1187 2.53987   2
  -5   5  -2 55.7107 2.97098   1
   5  -5   2 58.7975 2.69453   4
   5  -5   2 52.7416 2.78105   1
   5  -5   2 53.2349 2.60297   2
  -6   5  -2 16.7552 1.57462   2
  -6   5  -2 19.9171 2.06742   1
  -6   5  -2 21.3330 2.17386   2
  -6   5  -2 18.9911 1.76514   1
   6  -5   2 18.9688 1.72793   1
   6  -5   2 19.8868 1.92692   4
  -7   5  -2 30.6023 1.93727   1
  -7   5  -2 27.8541 1.77139   2
  -7   5  -2 27.0113 2.45004   2
  -7   5  -2 23.9444 2.25617   1
   7  -5   2 29.0306 2.51040   4
   7  -5   2 27.0321 1.33963   1
  -8   5  -2 111.091 4.56618   1
  -8   5  -2 118.695 4.22818   2
  -8   5  -2 114.293 4.32726   1
  -8   5  -2 107.320 4.66816   2
  -9   5  -2 195.905 6.42413   1
  -9   5  -2 196.750 6.99890   2
  -9   5  -2 203.048 6.40384   2
 -10   5  -2 32.6535 2.72432   2
 -10   5  -2 32.0823 1.94559   2
 -10   5  -2 32.8802 1.97193   1
 -11   5  -2 0.31278 0.45438   1
 -11   5  -2 -0.2644 0.43863   2
 -12   5  -2 5.06172 0.92877   2
   9   4  -2 0.72434 1.01382   5
  -9  -4   2 0.16145 0.99167   1
  -9  -4   2 0.60075 1.05689   2
  -9  -4   2 -0.0505 0.83738   3
   8   4  -2 1.71472 1.09395   5
  -8  -4   2 8.43318 1.58692   3
  -8  -4   2 5.97838 1.57875   1
  -8  -4   2 4.77527 1.43253   2
   7   4  -2 0.82428 0.73138   5
  -7  -4   2 0.35683 0.69810   3
  -7  -4   2 0.92566 0.83901   2
  -7  -4   2 0.45935 0.75210   1
   6   4  -2 3.25676 1.09270   5
  -6  -4   2 2.56605 0.83906   2
  -6  -4   2 2.40088 1.04398   1
  -6  -4   2 3.58973 1.20298   2
  -6  -4   2 1.99362 0.81421   3
   5   4  -2 10.4079 1.55872   5
   5   4  -2 8.86681 1.06240   1
  -5  -4   2 8.00458 1.27056   2
  -5  -4   2 8.55986 1.58920   2
  -5  -4   2 11.7059 1.79102   1
  -5  -4   2 9.48132 1.40428   1
  -5  -4   2 7.82553 1.23174   3
   4   4  -2 55.2860 2.88683   5
   4   4  -2 53.7359 2.50722   1
  -4  -4   2 58.0725 3.25507   1
  -4  -4   2 49.6093 2.54643   3
  -4  -4   2 48.6909 3.12590   2
  -4  -4   2 53.7715 2.72143   2
  -4  -4   2 53.2178 2.82377   1
   3   4  -2 157.192 5.42706   2
   3   4  -2 179.220 5.77113   1
   3   4  -2 175.627 5.79564   5
  -3  -4   2 179.600 6.44250   1
  -3  -4   2 171.514 5.55371   3
  -3  -4   2 171.562 6.49463   2
  -3  -4   2 173.214 5.81767   2
  -3  -4   2 164.752 5.89723   1
   2   4  -2 205.020 6.28326   5
   2   4  -2 195.784 6.35470   2
   2   4  -2 212.397 6.55730   1
  -2  -4   2 218.273 7.32180   2
  -2  -4   2 194.118 6.46416   2
  -2  -4   2 198.653 7.03222   1
  -2  -4   2 195.168 6.61093   1
  -2  -4   2 204.948 6.13148   3
   1   4  -2 47.9743 2.14251   5
   1   4  -2 52.2345 2.47176   2
   1   4  -2 50.5291 2.50694   1
  -1  -4   2 50.6205 2.45643   2
  -1  -4   2 54.2529 2.89915   1
  -1  -4   2 50.7130 2.57104   1
  -1  -4   2 55.4296 3.01762   2
   0   4  -2 233.415 7.30200   2
   0   4  -2 241.530 7.79682   1
   0   4  -2 244.590 7.44069   1
   0  -4   2 245.950 8.01626   2
   0  -4   2 237.638 7.83892   1
   0  -4   2 239.584 7.31783   2
   0  -4   2 245.194 7.49031   1
  -1   4  -2 395.997 11.4201   1
  -1   4  -2 394.822 10.8984   2
  -1   4  -2 392.050 11.5739   2
  -1   4  -2 393.158 10.9849   1
   1  -4   2 386.881 11.5332   2
   1  -4   2 371.819 10.8010   2
   1  -4   2 385.294 10.9870   1
   1  -4   2 381.371 11.3819   1
  -2   4  -2 120.650 4.79652   1
  -2   4  -2 135.270 4.50155   2
  -2   4  -2 129.447 4.56841   1
  -2   4  -2 133.908 5.02488   2
   2  -4   2 131.120 4.55177   1
   2  -4   2 136.652 4.97889   2
   2  -4   2 130.715 4.87062   1
  -3   4  -2 210.912 6.96693   1
  -3   4  -2 217.448 7.10315   2
  -3   4  -2 220.631 6.63263   1
  -3   4  -2 217.118 6.50116   2
   3  -4   2 213.853 6.58196   1
   3  -4   2 213.606 6.34781   4
   3  -4   2 196.156 6.80565   1
  -4   4  -2 2.24805 0.58174   2
  -4   4  -2 -0.7046 0.56775   4
  -4   4  -2 1.99491 0.72549   2
  -4   4  -2 0.99386 0.47394   1
  -4   4  -2 2.19414 0.73819   1
   4  -4   2 1.56483 0.67625   1
   4  -4   2 1.57055 0.56197   2
   4  -4   2 1.87674 0.55227   1
   4  -4   2 3.01882 0.67062   4
  -5   4  -2 37.4622 1.94103   1
  -5   4  -2 35.5523 1.79043   2
  -5   4  -2 31.8302 2.05328   2
  -5   4  -2 32.8224 2.03590   1
   5  -4   2 34.5642 1.48207   2
   5  -4   2 34.2335 1.75261   1
   5  -4   2 38.3614 2.08904   4
  -6   4  -2 0.25062 0.41657   1
  -6   4  -2 1.52217 0.63868   2
  -6   4  -2 0.24800 0.37881   1
  -6   4  -2 0.62579 0.40697   2
   6  -4   2 1.17835 0.59670   4
   6  -4   2 0.59648 0.28317   1
   6  -4   2 1.03798 0.34656   1
  -7   4  -2 49.1027 2.59050   2
  -7   4  -2 58.7541 2.70235   1
  -7   4  -2 51.7681 2.28135   2
  -7   4  -2 51.8785 2.36715   1
  -8   4  -2 113.521 3.84090   2
  -8   4  -2 110.948 4.28702   2
  -8   4  -2 111.176 4.22060   1
  -8   4  -2 113.814 3.96207   1
  -9   4  -2 14.6918 1.58143   2
  -9   4  -2 16.1082 1.38785   2
  -9   4  -2 15.1440 1.42285   1
 -10   4  -2 42.6308 2.01678   1
 -10   4  -2 42.5218 2.04216   2
 -10   4  -2 46.3368 2.45714   2
 -11   4  -2 5.12583 0.97107   2
 -11   4  -2 3.57500 0.69935   2
 -12   4  -2 1.25666 0.51035   2
  10   3  -2 6.18573 1.77125   5
 -10  -3   2 4.70806 1.40270   1
 -10  -3   2 2.62702 1.17541   3
 -10  -3   2 4.18899 1.35612   2
   9   3  -2 1.66132 1.15709   5
  -9  -3   2 0.20117 0.91925   1
  -9  -3   2 1.74658 1.01294   2
  -9  -3   2 2.52624 1.05431   3
   8   3  -2 9.59303 1.92348   5
  -8  -3   2 7.91180 1.54816   1
  -8  -3   2 8.85749 1.67874   2
  -8  -3   2 9.16031 1.56020   3
   7   3  -2 13.3300 2.03339   5
  -7  -3   2 9.22868 1.63044   2
  -7  -3   2 12.9130 1.53757   2
  -7  -3   2 12.1736 1.72338   1
  -7  -3   2 13.7526 1.75279   3
   6   3  -2 5.92127 1.25727   5
  -6  -3   2 5.71149 0.99379   2
  -6  -3   2 7.26974 1.36741   2
  -6  -3   2 4.16129 0.90989   1
  -6  -3   2 9.96770 1.58820   1
  -6  -3   2 8.33674 1.34546   3
   5   3  -2 109.026 3.48328   1
   5   3  -2 112.291 4.54670   5
  -5  -3   2 104.658 4.13340   1
  -5  -3   2 104.051 4.16357   3
  -5  -3   2 112.557 4.67293   2
  -5  -3   2 111.977 4.57113   1
  -5  -3   2 109.051 4.09034   2
   4   3  -2 4.74372 0.74635   1
   4   3  -2 5.63165 0.99130   5
  -4  -3   2 6.59706 0.95594   2
  -4  -3   2 5.98604 0.97669   1
  -4  -3   2 6.35549 0.95134   3
  -4  -3   2 5.32766 1.05818   1
  -4  -3   2 5.71873 1.16051   2
   3   3  -2 186.617 5.78007   1
   3   3  -2 186.375 5.60745   2
   3   3  -2 186.715 5.95529   5
  -3  -3   2 190.209 6.46021   2
  -3  -3   2 197.149 5.95516   2
  -3  -3   2 181.295 6.32019   1
  -3  -3   2 179.062 5.94160   1
  -3  -3   2 181.954 5.75131   3
   2   3  -2 264.108 7.92835   1
   2   3  -2 253.865 7.42170   5
   2   3  -2 261.181 7.62095   1
   2   3  -2 260.955 7.52658   2
  -2  -3   2 267.272 7.75158   1
  -2  -3   2 250.755 7.31153   3
  -2  -3   2 255.584 7.59832   2
  -2  -3   2 264.154 8.20871   2
  -2  -3   2 254.314 8.06307   1
   1   3  -2 32.0042 1.49705   5
   1   3  -2 32.6705 1.74049   2
   1   3  -2 34.5388 2.01582   1
   1   3  -2 29.5784 1.72790   1
   1   3  -2 34.7565 1.54725   3
  -1  -3   2 32.8350 1.48855   3
  -1  -3   2 31.8303 2.01610   1
  -1  -3   2 34.0945 1.83457   1
  -1  -3   2 34.2891 1.77726   2
  -1  -3   2 36.9717 2.19944   2
   0   3  -2 551.286 14.2544   3
   0   3  -2 578.528 14.8904   1
   0   3  -2 555.246 14.7932   2
   0   3  -2 530.712 15.1467   1
   0   3  -2 572.890 15.3778   2
   0  -3   2 550.929 14.8694   1
   0  -3   2 576.842 15.2669   1
   0  -3   2 564.309 14.7763   2
   0  -3   2 537.325 15.2901   2
  -1   3  -2 133.174 4.26900   1
  -1   3  -2 127.869 4.59695   2
  -1   3  -2 131.332 4.18116   2
  -1   3  -2 122.531 4.47314   1
   1  -3   2 121.288 4.08374   2
   1  -3   2 124.992 4.20216   1
   1  -3   2 122.532 4.51974   2
  -2   3  -2 468.669 12.8883   1
  -2   3  -2 457.651 12.9211   2
  -2   3  -2 458.500 12.4288   2
  -2   3  -2 481.123 12.5572   1
   2  -3   2 455.572 12.8007   2
   2  -3   2 476.804 12.5304   1
   2  -3   2 469.298 12.8920   1
  -3   3  -2 226.145 7.12955   4
  -3   3  -2 245.514 7.42652   1
  -3   3  -2 242.147 7.01841   2
  -3   3  -2 261.214 7.19821   1
  -3   3  -2 249.196 7.49721   2
   3  -3   2 270.004 7.46186   1
   3  -3   2 244.347 7.07791   1
   3  -3   2 242.399 7.09297   4
   3  -3   2 255.839 7.25958   2
  -4   3  -2 637.561 16.6181   1
  -4   3  -2 617.176 16.4828   4
  -4   3  -2 641.009 16.3125   1
  -4   3  -2 628.704 16.1320   2
  -4   3  -2 610.823 16.5627   2
   4  -3   2 603.125 16.0534   1
   4  -3   2 618.833 15.8077   2
   4  -3   2 637.253 16.5759   4
  -5   3  -2 76.6565 2.77192   1
  -5   3  -2 74.0259 2.61810   2
  -5   3  -2 76.8003 2.96961   2
  -5   3  -2 77.5579 3.00211   1
   5  -3   2 73.0370 2.24783   1
   5  -3   2 68.8198 3.10220   4
   5  -3   2 76.5553 2.30373   1
  -6   3  -2 68.7091 2.70402   2
  -6   3  -2 66.9350 2.72883   1
  -6   3  -2 66.7525 2.50897   1
  -6   3  -2 65.5898 2.40444   2
  -7   3  -2 0.95838 0.46851   2
  -7   3  -2 1.28679 0.40986   1
  -7   3  -2 1.13161 0.44429   1
  -7   3  -2 1.37204 0.39552   2
  -8   3  -2 113.040 3.87424   1
  -8   3  -2 115.976 3.68286   1
  -8   3  -2 113.337 3.55390   2
  -8   3  -2 108.657 3.83995   2
  -9   3  -2 31.3197 1.46721   1
  -9   3  -2 30.4249 1.56234   1
  -9   3  -2 29.7690 1.42357   2
  -9   3  -2 28.2848 1.63037   2
 -10   3  -2 0.70756 0.34013   2
 -10   3  -2 0.06251 0.27503   1
 -10   3  -2 0.83796 0.48383   2
 -11   3  -2 1.57782 0.47007   2
 -11   3  -2 1.54956 0.54390   2
 -12   3  -2 4.41050 1.30505   3
  10   2  -2 1.51201 1.10460   5
 -10  -2   2 2.31066 0.94799   1
 -10  -2   2 1.98385 0.99082   2
 -10  -2   2 2.98647 1.09865   3
   9   2  -2 9.37490 1.89166   5
  -9  -2   2 11.1903 1.65844   1
  -9  -2   2 10.7454 1.72196   2
  -9  -2   2 12.2203 1.88017   3
   8   2  -2 7.73426 1.58246   5
  -8  -2   2 8.78966 1.40129   1
  -8  -2   2 8.35396 1.18186   2
  -8  -2   2 8.22341 1.47528   3
  -8  -2   2 6.80572 1.35465   2
   7   2  -2 -0.3690 0.49656   5
  -7  -2   2 0.26342 0.42710   2
  -7  -2   2 0.37557 0.57412   1
  -7  -2   2 0.95319 0.44932   1
  -7  -2   2 -0.7414 0.53163   2
  -7  -2   2 0.21905 0.52772   3
   6   2  -2 6.31391 1.23552   5
  -6  -2   2 6.54743 1.16360   3
  -6  -2   2 9.00042 1.13429   1
  -6  -2   2 8.77264 1.32645   1
  -6  -2   2 8.22230 1.29799   2
  -6  -2   2 8.39673 1.09735   2
   5   2  -2 53.3725 2.88102   5
  -5  -2   2 65.1348 2.99474   2
  -5  -2   2 62.6059 2.93247   1
  -5  -2   2 60.3467 2.62826   1
  -5  -2   2 64.9950 2.87432   3
  -5  -2   2 59.9863 2.56499   2
   4   2  -2 156.627 4.75496   1
   4   2  -2 160.249 5.33918   5
   4   2  -2 160.686 4.67615   1
  -4  -2   2 159.233 5.04971   1
  -4  -2   2 155.502 4.96690   2
  -4  -2   2 153.623 5.10319   3
  -4  -2   2 159.453 5.40316   2
  -4  -2   2 150.680 5.28752   1
   3   2  -2 564.312 14.4626   2
   3   2  -2 563.066 14.9337   5
   3   2  -2 558.616 14.6762   1
   3   2  -2 551.933 14.8407   1
  -3  -2   2 545.817 15.1553   1
  -3  -2   2 568.552 14.8167   2
  -3  -2   2 561.376 14.7962   3
  -3  -2   2 555.880 14.8647   1
  -3  -2   2 586.774 15.3187   2
   2   2  -2 122.100 4.18929   1
   2   2  -2 120.464 3.88315   5
   2   2  -2 117.634 3.85612   3
   2   2  -2 130.224 4.00992   1
   2   2  -2 122.056 3.89756   2
  -2  -2   2 127.032 4.07056   1
  -2  -2   2 119.066 3.97008   2
  -2  -2   2 123.679 3.85062   3
  -2  -2   2 128.595 4.35442   1
  -2  -2   2 121.723 3.84325   5
  -2  -2   2 122.799 4.36731   2
   1   2  -2 6259.79 154.631   2
   1   2  -2 6188.93 153.600   5
   1   2  -2 6091.56 153.057   3
   1   2  -2 6160.17 154.937   1
   1   2  -2 6140.16 157.010   2
   1   2  -2 6128.48 155.665   1
  -1  -2   2 6250.53 154.985   2
  -1  -2   2 5885.72 154.441   1
  -1  -2   2 6148.49 156.428   1
  -1  -2   2 6154.63 153.481   3
  -1  -2   2 6098.89 158.015   2
   0   2  -2 9865.25 239.662   2
   0   2  -2 9999.99 239.265   1
   0   2  -2 9196.18 236.703   2
   0  -2   2 9050.43 238.210   1
   0  -2   2 9256.91 237.611   2
   0  -2   2 9605.44 237.138   2
  -1   2  -2 22.6378 1.42619   1
  -1   2  -2 21.2592 1.16103   2
  -1   2  -2 19.4500 1.35030   2
  -1   2  -2 20.9418 1.21189   1
   1  -2   2 19.0981 1.33538   2
   1  -2   2 19.8289 1.11647   2
   1  -2   2 18.8758 1.13321   1
   1  -2   2 19.2072 1.36825   1
  -2   2  -2 685.533 18.1838   2
  -2   2  -2 716.125 17.9593   4
  -2   2  -2 689.206 17.9290   1
  -2   2  -2 699.392 17.8561   2
  -2   2  -2 710.473 18.2387   1
   2  -2   2 729.485 18.0965   2
   2  -2   2 715.572 17.8993   1
   2  -2   2 674.007 18.1475   1
   2  -2   2 700.257 17.8701   4
   2  -2   2 700.693 17.7629   2
  -3   2  -2 14.5220 0.92909   1
  -3   2  -2 12.3852 1.11358   1
  -3   2  -2 14.0472 0.98428   4
  -3   2  -2 12.4158 1.03259   5
  -3   2  -2 12.9601 1.13033   2
  -3   2  -2 15.7226 0.88488   2
   3  -2   2 14.7865 0.70563   2
   3  -2   2 13.9174 0.84117   1
   3  -2   2 15.0049 0.79035   2
   3  -2   2 14.2669 1.01877   4
  -4   2  -2 13.4068 0.86572   1
  -4   2  -2 13.0388 1.30078   4
  -4   2  -2 12.0234 1.09317   1
  -4   2  -2 11.6505 1.00779   2
  -4   2  -2 12.8549 0.76916   2
   4  -2   2 12.0072 1.25164   4
   4  -2   2 11.8196 0.58242   1
   4  -2   2 11.7900 0.55449   1
  -5   2  -2 83.4169 2.77470   2
  -5   2  -2 84.5336 2.60370   2
  -5   2  -2 82.5363 2.93302   1
  -5   2  -2 88.1266 2.78120   1
  -6   2  -2 36.7637 1.49524   2
  -6   2  -2 36.2227 1.34594   2
  -6   2  -2 33.7929 1.46561   1
  -6   2  -2 36.5750 1.64874   1
   6  -2   2 36.5301 2.11768   5
  -7   2  -2 183.583 4.98258   2
  -7   2  -2 182.442 5.16855   1
  -7   2  -2 180.954 5.34012   1
  -7   2  -2 186.700 5.16617   2
   7  -2   2 183.882 6.42339   5
  -8   2  -2 181.137 4.96248   2
  -8   2  -2 184.644 5.09955   1
  -8   2  -2 185.323 5.14718   2
  -8   2  -2 176.075 5.18669   1
  -9   2  -2 25.1972 1.12170   2
  -9   2  -2 25.0384 1.23489   2
 -10   2  -2 0.32773 0.30960   2
 -11   2  -2 2.30650 1.01085   3
  11   1  -2 -0.5694 0.78757   5
 -11  -1   2 -0.0068 0.67817   2
 -11  -1   2 1.86558 1.06424   3
  10   1  -2 37.1594 3.78460   5
 -10  -1   2 28.0884 2.46607   2
 -10  -1   2 30.5513 2.09863   1
 -10  -1   2 32.0604 3.11061   3
   9   1  -2 99.6168 5.01808   5
  -9  -1   2 88.8226 3.87138   1
  -9  -1   2 87.9362 3.52775   2
  -9  -1   2 98.7921 4.08124   2
  -9  -1   2 90.7758 4.46867   3
   8   1  -2 31.0966 2.98166   5
  -8  -1   2 28.9297 1.99689   1
  -8  -1   2 33.8529 2.79925   3
  -8  -1   2 35.6529 2.18481   2
  -8  -1   2 31.4658 1.78849   2
   7   1  -2 46.3577 2.89123   5
  -7  -1   2 46.3520 2.43236   1
  -7  -1   2 44.3623 2.63011   3
  -7  -1   2 47.4842 2.18689   1
  -7  -1   2 49.0336 2.49647   2
  -7  -1   2 47.6739 2.16135   2
   6   1  -2 16.7622 1.86678   5
  -6  -1   2 21.4140 1.78774   1
  -6  -1   2 23.6348 2.03331   3
  -6  -1   2 18.6496 1.26820   1
  -6  -1   2 22.1062 1.54132   2
  -6  -1   2 16.9958 1.19638   2
   5   1  -2 18.3154 1.79678   5
  -5  -1   2 21.6855 1.46802   1
  -5  -1   2 20.1439 1.42253   2
  -5  -1   2 21.7495 1.24721   2
  -5  -1   2 20.3712 1.26544   1
   4   1  -2 73.8879 2.35827   1
   4   1  -2 67.4805 2.91521   5
  -4  -1   2 74.3364 2.89677   2
  -4  -1   2 76.3122 2.91793   3
  -4  -1   2 76.0638 2.93382   1
  -4  -1   2 75.4652 2.70295   1
  -4  -1   2 70.7101 2.60508   2
   3   1  -2 -0.1795 0.28733   1
   3   1  -2 -0.0299 0.22186   2
   3   1  -2 -0.1944 0.10809   1
   3   1  -2 -0.6333 0.21336   5
  -3  -1   2 -0.0632 0.27096   2
  -3  -1   2 -0.0474 0.29474   3
  -3  -1   2 -0.0309 0.34952   1
  -3  -1   2 0.35101 0.34615   5
  -3  -1   2 0.95386 0.41099   1
  -3  -1   2 -0.3269 0.30148   2
   2   1  -2 6212.01 152.915   2
   2   1  -2 5884.63 154.108   2
   2   1  -2 6144.81 153.098   1
   2   1  -2 6105.19 153.093   5
   2   1  -2 5820.48 153.384   1
  -2  -1   2 6164.73 153.035   5
  -2  -1   2 6075.33 155.272   2
  -2  -1   2 6413.24 155.397   1
  -2  -1   2 6249.05 153.212   3
  -2  -1   2 6159.65 153.656   2
  -2  -1   2 5960.42 153.615   1
   1   1  -2 1794.46 47.6256   2
   1   1  -2 1830.69 46.1833   3
   1   1  -2 1797.04 44.9423   2
   1   1  -2 1777.81 46.6131   1
   1   1  -2 1747.71 46.3458   1
   1   1  -2 1838.12 45.9903   5
  -1  -1   2 1818.98 46.8206   3
  -1  -1   2 1791.93 45.8551   5
  -1  -1   2 1838.21 46.8914   2
  -1  -1   2 1872.41 47.7723   1
  -1  -1   2 1893.93 48.1486   1
  -1  -1   2 1725.95 45.5610   2
   0   1  -2 60.3543 2.38315   1
   0   1  -2 67.0334 1.83131   3
   0   1  -2 64.4013 2.23644   2
   0   1  -2 63.6691 2.41055   2
   0  -1   2 61.9547 2.22326   1
   0  -1   2 65.7911 2.24338   2
   0  -1   2 62.5706 1.80872   3
   0  -1   2 63.8109 2.44786   1
  -1   1  -2 104.912 3.12903   2
  -1   1  -2 96.0507 3.30791   1
  -1   1  -2 96.9300 3.11543   1
  -1   1  -2 96.4211 3.25548   2
  -1   1  -2 101.540 2.73754   5
   1  -1   2 99.4651 2.96677   4
   1  -1   2 106.840 3.08768   2
   1  -1   2 103.841 3.33847   1
   1  -1   2 101.047 3.10176   1
  -2   1  -2 138.116 4.14785   2
  -2   1  -2 136.458 4.07034   1
  -2   1  -2 138.540 4.00974   5
  -2   1  -2 143.490 4.18472   4
  -2   1  -2 140.977 4.27295   1
  -2   1  -2 144.473 4.02412   2
   2  -1   2 139.391 3.99945   5
   2  -1   2 142.893 3.99575   1
   2  -1   2 140.183 3.94055   2
   2  -1   2 143.399 4.20022   4
   2  -1   2 143.101 3.85027   2
  -3   1  -2 69.0568 2.44599   1
  -3   1  -2 73.7797 2.20040   2
  -3   1  -2 71.5275 2.28604   2
  -3   1  -2 70.9518 2.30053   1
  -3   1  -2 70.1958 2.63487   4
  -3   1  -2 68.3440 2.51504   5
   3  -1   2 68.1441 1.99952   1
   3  -1   2 73.1082 2.55068   5
   3  -1   2 69.2180 2.06607   1
  -4   1  -2 1.98588 0.42265   1
  -4   1  -2 2.26062 0.59973   4
  -4   1  -2 2.53552 0.33348   2
  -4   1  -2 2.39930 0.36180   2
  -4   1  -2 3.01573 0.43782   1
   4  -1   2 2.23467 0.58321   5
  -5   1  -2 1.27158 0.23743   2
  -5   1  -2 1.03411 0.33238   1
  -5   1  -2 1.15444 0.29106   1
  -5   1  -2 1.27193 0.24764   2
   5  -1   2 1.08941 0.54845   5
  -6   1  -2 36.6462 1.54719   1
  -6   1  -2 37.8401 1.25809   2
  -6   1  -2 36.7714 1.23309   2
  -6   1  -2 38.6268 1.45616   1
   6  -1   2 33.2674 2.13797   5
  -7   1  -2 1.55625 0.27528   2
  -7   1  -2 0.99266 0.31327   1
  -7   1  -2 0.70181 0.32518   1
  -7   1  -2 1.16733 0.26768   2
   7  -1   2 0.71438 0.62854   5
  -8   1  -2 11.4461 1.51041   3
  -8   1  -2 12.4721 0.70181   2
  -8   1  -2 11.0914 0.77592   1
   8  -1   2 13.0390 1.90529   5
  -9   1  -2 2.00128 0.38256   2
  -9   1  -2 1.66148 0.39801   2
  -9   1  -2 2.81057 0.93013   3
   9  -1   2 1.43918 0.93923   5
 -10   1  -2 5.56084 0.64759   2
 -10   1  -2 6.23782 1.30234   3
  10  -1   2 7.48716 1.71010   5
 -11   1  -2 2.11716 1.02860   3
  11   0  -2 0.51425 1.00303   5
 -11   0   2 2.68500 0.81565   2
 -11   0   2 3.66896 1.39580   3
  10   0  -2 44.3934 3.95014   5
 -10   0   2 38.4916 2.28284   2
 -10   0   2 37.7541 2.03984   1
 -10   0   2 31.7804 1.85849   2
 -10   0   2 39.7938 3.43960   3
   9   0  -2 82.0493 4.32502   5
  -9   0   2 71.9226 3.21043   2
  -9   0   2 78.3900 2.96538   2
  -9   0   2 73.6680 3.87310   3
  -9   0   2 73.0343 3.12316   1
   8   0  -2 1.21190 0.72173   5
  -8   0   2 1.02954 0.50091   1
  -8   0   2 1.26225 0.69140   3
  -8   0   2 0.86131 0.44066   2
  -8   0   2 1.10051 0.42252   1
  -8   0   2 0.58277 0.50153   2
   7   0  -2 -0.1499 0.45039   5
  -7   0   2 0.31435 0.39643   2
  -7   0   2 0.57694 0.42286   1
  -7   0   2 0.39947 0.32160   2
  -7   0   2 0.31318 0.34453   1
   6   0  -2 266.686 8.69534   5
  -6   0   2 282.947 8.00123   2
  -6   0   2 278.784 7.75401   2
  -6   0   2 295.666 8.16708   1
  -6   0   2 282.008 7.80921   1
   5   0  -2 32.5026 1.92511   5
  -5   0   2 30.8591 1.45961   1
  -5   0   2 30.9501 1.42191   2
  -5   0   2 30.9334 1.55377   2
  -5   0   2 29.0831 1.59398   1
   4   0  -2 268.327 6.86916   1
   4   0  -2 273.622 7.80807   5
  -4   0   2 267.889 7.34148   1
  -4   0   2 268.766 7.57468   1
  -4   0   2 263.713 7.26399   2
  -4   0   2 263.965 7.44536   2
   3   0  -2 52.3238 1.88775   1
   3   0  -2 52.2955 2.05565   5
   3   0  -2 50.1046 1.60185   2
   3   0  -2 49.0479 1.64216   2
  -3   0   2 49.2929 2.06533   1
  -3   0   2 50.9646 1.88963   2
  -3   0   2 52.6087 2.02998   2
  -3   0   2 47.4061 2.01178   5
  -3   0   2 48.4821 1.89317   1
   2   0  -2 95.6096 3.03153   2
   2   0  -2 89.0004 2.91861   1
   2   0  -2 99.1003 3.11653   1
   2   0  -2 93.1393 2.88018   5
   2   0  -2 95.4678 2.92444   2
  -2   0   2 91.8840 3.13289   1
  -2   0   2 97.0592 3.00332   1
  -2   0   2 94.7677 2.98144   2
  -2   0   2 91.6267 2.87038   5
  -2   0   2 88.6468 3.07282   2
   1   0  -2 1077.82 28.0220   1
   1   0  -2 1149.13 28.2412   1
   1   0  -2 1120.23 29.1076   2
  -1   0   2 1128.29 30.0220   1
  -1   0   2 1153.22 29.9271   1
  -1   0   2 1130.99 29.6367   2
  -1   0   2 1115.79 28.9953   2
  -1   0   2 1131.92 28.6594   5
   0   0  -2 143.384 4.27348   1
   0   0  -2 145.079 4.35259   2
   0   0  -2 148.724 4.29369   2
   0   0  -2 148.515 4.45345   1
   0   0   2 142.669 4.26073   2
   0   0   2 149.598 3.91150   4
   0   0   2 156.335 4.31343   1
   0   0   2 153.250 4.35541   2
  -1   0  -2 13.7910 0.86207   1
  -1   0  -2 14.7973 0.85803   2
  -1   0  -2 13.9273 0.65579   5
  -1   0  -2 13.8939 0.49838   3
  -1   0  -2 15.2519 0.89842   2
  -1   0  -2 13.5900 0.75217   4
  -1   0  -2 14.0323 0.96300   1
   1   0   2 13.8459 0.82966   1
   1   0   2 14.2968 0.94617   1
   1   0   2 12.9028 0.78276   2
   1   0   2 13.2426 0.80535   2
   1   0   2 14.6957 0.77340   4
   1   0   2 14.1142 0.67601   5
  -2   0  -2 407.460 10.6634   1
  -2   0  -2 412.353 10.7084   5
  -2   0  -2 412.930 10.5959   2
  -2   0  -2 407.739 10.8523   4
  -2   0  -2 417.864 10.6095   2
  -2   0  -2 423.532 10.8277   1
   2   0   2 401.329 10.5123   1
   2   0   2 423.354 10.2937   2
   2   0   2 420.300 10.2835   2
   2   0   2 419.581 10.7436   5
   2   0   2 390.003 10.5679   1
  -3   0  -2 225.123 6.04923   2
  -3   0  -2 231.575 6.08683   2
  -3   0  -2 228.143 6.56516   5
  -3   0  -2 229.213 6.21924   1
  -3   0  -2 224.440 6.32123   1
   3   0   2 234.281 6.60323   5
  -4   0  -2 445.699 11.4779   1
  -4   0  -2 442.819 11.2437   2
  -4   0  -2 441.023 11.5852   1
  -4   0  -2 447.506 11.2895   2
   4   0   2 442.534 12.1775   5
  -5   0  -2 240.816 6.39357   2
  -5   0  -2 244.859 7.14881   3
  -5   0  -2 249.767 6.48404   2
  -5   0  -2 241.311 6.76181   1
   5   0   2 244.853 7.61800   5
  -6   0  -2 131.065 3.94775   1
  -6   0  -2 125.910 4.41584   3
  -6   0  -2 127.230 3.67204   2
  -6   0  -2 122.074 3.56768   2
   6   0   2 122.780 4.88293   5
  -7   0  -2 0.12433 0.46703   3
  -7   0  -2 1.54813 0.44761   1
  -7   0  -2 1.21152 0.31727   2
  -7   0  -2 1.10685 0.33970   2
   7   0   2 1.65001 0.69654   5
  -8   0  -2 0.31631 0.30928   1
  -8   0  -2 0.67062 0.28959   2
  -8   0  -2 0.38076 0.34095   1
  -8   0  -2 0.98632 0.38758   2
  -8   0  -2 0.17877 0.55920   3
   8   0   2 0.87597 0.77378   5
  -9   0  -2 2.66639 0.50448   2
  -9   0  -2 2.52177 0.54039   2
  -9   0  -2 1.10068 0.78043   3
  -9   0  -2 3.40032 0.48880   1
   9   0   2 2.37389 1.08429   5
 -10   0  -2 1.06178 0.80022   3
 -10   0  -2 1.86866 0.50337   2
 -10   0  -2 1.45087 0.53349   2
  10   0   2 0.66392 0.96381   5
 -11   0  -2 3.19123 0.74820   2
 -11   0  -2 6.07477 1.43710   3
  11   0   2 6.36876 1.86652   5
 -12   1   2 12.3743 2.15919   3
 -12   1   2 11.6490 1.30633   2
 -11   1   2 -0.1502 0.82011   3
 -11   1   2 2.50608 0.72726   2
 -10   1   2 30.3039 1.69497   1
 -10   1   2 33.7727 1.92354   2
 -10   1   2 31.2824 1.72287   2
 -10   1   2 38.9541 3.42316   3
   9  -1  -2 46.0279 3.02557   5
  -9   1   2 42.9066 2.13314   2
  -9   1   2 43.5581 2.10317   1
  -9   1   2 39.8684 1.95558   2
   8  -1  -2 0.10310 0.54257   5
  -8   1   2 -0.0275 0.29653   1
  -8   1   2 0.65566 0.43968   1
  -8   1   2 0.24052 0.33139   2
  -8   1   2 0.33182 0.40516   2
   7  -1  -2 1.68214 0.75138   5
  -7   1   2 1.09412 0.47107   2
  -7   1   2 2.03470 0.55552   1
  -7   1   2 2.35664 0.51931   1
  -7   1   2 2.44532 0.51537   2
   6  -1  -2 68.9294 3.17550   5
  -6   1   2 68.1979 2.54027   1
  -6   1   2 72.2644 2.73090   1
  -6   1   2 71.5383 2.61179   2
  -6   1   2 70.0110 2.48795   2
   5  -1  -2 363.617 10.5803   5
  -5   1   2 363.235 9.92458   2
  -5   1   2 390.772 10.2447   1
  -5   1   2 380.286 10.0572   2
   4  -1  -2 47.1652 1.60367   1
   4  -1  -2 46.5960 1.64537   1
   4  -1  -2 44.0290 2.03100   5
  -4   1   2 48.8530 2.02495   1
  -4   1   2 47.3630 1.84363   2
  -4   1   2 44.9874 1.88377   2
   3  -1  -2 240.190 6.42761   2
   3  -1  -2 232.355 6.36589   2
   3  -1  -2 243.978 6.63554   1
  -3   1   2 230.350 6.74739   1
  -3   1   2 235.679 6.58735   2
  -3   1   2 229.836 6.65116   5
  -3   1   2 246.940 6.68033   2
   2  -1  -2 46.7722 1.85415   2
   2  -1  -2 45.9733 1.93355   1
   2  -1  -2 46.2608 1.80874   2
  -2   1   2 41.7067 1.79447   2
  -2   1   2 46.7963 1.85989   2
  -2   1   2 44.4123 1.94135   1
   1  -1  -2 340.028 9.14915   2
   1  -1  -2 349.306 9.17369   2
   1  -1  -2 336.200 9.26091   1
  -1   1   2 343.750 9.26525   1
  -1   1   2 343.562 9.14997   2
  -1   1   2 332.557 9.11925   2
   0  -1  -2 53.1773 1.98765   2
   0  -1  -2 54.8172 2.15309   1
   0  -1  -2 51.3195 2.01132   2
   0   1   2 49.6185 1.91895   2
   0   1   2 54.8055 2.01571   2
   0   1   2 47.4916 2.03519   1
  -1  -1  -2 610.394 16.2378   2
  -1  -1  -2 641.879 16.3553   2
  -1  -1  -2 665.860 16.5097   1
   1   1   2 613.267 16.2763   1
   1   1   2 632.473 16.2195   2
   1   1   2 649.881 16.3579   1
   1   1   2 633.199 16.0634   5
   1   1   2 644.581 15.8293   3
   1   1   2 640.547 16.1259   2
  -2  -1  -2 277.027 7.68130   1
  -2  -1  -2 273.717 7.54012   5
  -2  -1  -2 278.457 7.53732   2
  -2  -1  -2 267.201 7.40659   2
  -2  -1  -2 277.623 7.26093   3
   2   1   2 275.693 7.60235   5
   2   1   2 281.483 7.14370   2
   2   1   2 282.803 7.20744   2
   2   1   2 276.965 7.41832   1
   2   1   2 270.805 7.30050   3
  -3  -1  -2 355.824 9.43941   2
  -3  -1  -2 357.161 9.39356   3
  -3  -1  -2 344.720 9.58184   1
  -3  -1  -2 364.695 9.33233   2
   3   1   2 347.982 9.02687   1
   3   1   2 355.439 9.02105   1
   3   1   2 352.305 9.80410   5
  -4  -1  -2 118.200 3.60913   2
  -4  -1  -2 110.626 3.41781   2
  -4  -1  -2 112.770 3.69996   1
  -4  -1  -2 107.730 3.66070   3
   4   1   2 111.200 4.10068   5
  -5  -1  -2 25.9366 1.32933   2
  -5  -1  -2 22.3142 1.34318   1
  -5  -1  -2 20.6679 1.11577   2
  -5  -1  -2 22.6635 1.43145   3
   5   1   2 21.9066 1.98349   5
  -6  -1  -2 60.5458 2.24601   2
  -6  -1  -2 61.0012 2.52325   1
  -6  -1  -2 60.6154 2.43414   2
  -6  -1  -2 60.7903 2.76324   3
   6   1   2 63.1991 3.23756   5
  -7  -1  -2 5.31666 0.84437   2
  -7  -1  -2 6.29580 0.88064   1
  -7  -1  -2 5.00760 1.00713   3
  -7  -1  -2 4.84877 0.82283   1
  -7  -1  -2 5.14377 0.73347   2
   7   1   2 4.98843 1.23003   5
  -8  -1  -2 1.41402 0.54560   2
  -8  -1  -2 2.49507 0.56439   2
  -8  -1  -2 1.31406 0.51305   1
  -8  -1  -2 0.46680 0.60109   3
  -8  -1  -2 0.90982 0.50555   2
   8   1   2 -0.3579 0.54501   5
  -9  -1  -2 0.24524 0.49051   2
  -9  -1  -2 1.13870 0.47073   2
  -9  -1  -2 -1.2401 0.26924   1
  -9  -1  -2 0.34247 0.69751   3
   9   1   2 -0.4344 0.73808   5
 -10  -1  -2 0.09157 0.60411   3
 -10  -1  -2 -0.1912 0.53207   2
  10   1   2 1.57459 1.07393   5
 -12   2   2 1.01325 0.57408   2
 -12   2   2 3.42185 1.28579   3
 -11   2   2 8.40219 1.04932   2
 -11   2   2 7.27740 1.03089   2
 -10   2   2 9.53975 1.09488   2
 -10   2   2 8.56721 1.08070   2
 -10   2   2 8.85871 1.02552   1
  -9   2   2 16.8361 1.45928   2
  -9   2   2 14.4957 1.26823   1
  -9   2   2 14.8644 1.39970   1
  -9   2   2 13.2621 1.24284   2
  -8   2   2 4.64562 0.76839   2
  -8   2   2 4.68513 0.74800   1
  -8   2   2 4.15965 0.70485   2
  -8   2   2 6.59433 0.97013   1
  -7   2   2 56.3911 2.32905   2
  -7   2   2 58.2445 2.48741   1
  -7   2   2 55.0393 2.29789   2
  -6   2   2 121.526 3.87435   2
  -6   2   2 115.603 3.98049   1
  -6   2   2 111.685 3.80084   2
   5  -2  -2 424.478 10.6715   1
   5  -2  -2 415.873 10.6978   1
  -5   2   2 413.973 11.2729   2
  -5   2   2 416.827 11.2747   2
  -5   2   2 435.172 11.4783   1
  -5   2   2 408.780 11.2059   2
   4  -2  -2 53.4227 1.90772   2
   4  -2  -2 52.4524 2.15887   1
  -4   2   2 57.2142 2.37712   1
  -4   2   2 53.5531 2.23722   2
  -4   2   2 56.0309 2.22889   2
  -4   2   2 54.1340 2.25274   2
   3  -2  -2 3.23250 0.63081   1
   3  -2  -2 2.60204 0.55942   1
   3  -2  -2 2.22950 0.54923   2
   3  -2  -2 2.89820 0.55463   2
  -3   2   2 3.29968 0.63609   2
  -3   2   2 2.25156 0.38435   4
  -3   2   2 2.93928 0.62673   1
  -3   2   2 3.40684 0.64073   2
  -3   2   2 2.31875 0.53782   2
   2  -2  -2 140.686 4.68848   1
   2  -2  -2 144.022 4.64445   2
   2  -2  -2 146.120 4.57186   2
  -2   2   2 146.248 4.71906   1
  -2   2   2 153.058 4.71080   2
  -2   2   2 150.545 4.56540   2
  -2   2   2 149.173 3.87627   4
   1  -2  -2 489.218 13.1376   2
   1  -2  -2 487.037 13.1728   1
   1  -2  -2 478.587 13.0987   2
   1  -2  -2 478.458 12.9426   2
  -1   2   2 515.666 12.9582   2
  -1   2   2 481.208 13.0663   2
  -1   2   2 502.357 13.1433   1
   0  -2  -2 153.342 4.65205   2
   0  -2  -2 147.330 4.79759   2
   0  -2  -2 145.728 4.80743   1
   0   2   2 148.860 4.73706   2
   0   2   2 157.571 4.58716   2
   0   2   2 151.137 4.76175   1
  -1  -2  -2 571.789 15.2544   1
  -1  -2  -2 582.604 15.2493   2
  -1  -2  -2 576.222 14.9929   2
   1   2   2 573.336 15.0869   1
   1   2   2 594.449 14.8401   5
   1   2   2 565.904 14.5471   3
   1   2   2 583.120 15.0962   2
   1   2   2 560.448 14.8255   2
  -2  -2  -2 298.444 8.06195   2
  -2  -2  -2 289.058 7.75216   3
  -2  -2  -2 293.296 8.32285   1
  -2  -2  -2 290.953 8.28780   2
   2   2   2 276.935 8.08664   5
   2   2   2 294.796 7.73606   2
   2   2   2 293.139 8.03744   1
   2   2   2 280.451 7.81016   3
  -3  -2  -2 152.699 4.86967   2
  -3  -2  -2 151.467 4.61584   2
  -3  -2  -2 147.853 4.87063   1
  -3  -2  -2 145.601 4.49777   3
   3   2   2 149.651 4.44574   1
   3   2   2 147.366 4.39528   1
   3   2   2 146.803 4.93434   5
  -4  -2  -2 19.8616 1.39288   1
  -4  -2  -2 18.5600 1.18085   2
  -4  -2  -2 21.0953 1.60661   3
  -4  -2  -2 19.2511 1.34714   2
   4   2   2 20.9377 1.92752   5
   4   2   2 18.5866 0.74839   1
   4   2   2 18.0366 0.73156   1
  -5  -2  -2 0.48203 0.39141   2
  -5  -2  -2 0.01079 0.34166   3
  -5  -2  -2 0.50702 0.41209   1
  -5  -2  -2 0.01347 0.32178   2
  -5  -2  -2 0.17989 0.40135   1
   5   2   2 0.25130 0.48511   5
  -6  -2  -2 94.3303 3.49142   2
  -6  -2  -2 100.635 3.89095   2
  -6  -2  -2 102.222 3.91920   2
  -6  -2  -2 103.065 3.93407   3
  -6  -2  -2 94.4484 3.77643   1
  -6  -2  -2 99.2561 3.84700   1
  -7  -2  -2 41.3584 2.31842   1
  -7  -2  -2 38.7784 2.34760   3
  -7  -2  -2 38.3809 2.03177   2
  -7  -2  -2 40.9747 2.35085   2
   7   2   2 40.3318 3.37874   5
  -8  -2  -2 31.5369 1.91833   2
  -8  -2  -2 36.5719 2.20632   1
  -8  -2  -2 31.5724 2.64439   3
  -8  -2  -2 31.1341 2.18573   2
   8   2   2 37.6836 3.60043   5
  -9  -2  -2 1.13823 0.76922   2
  -9  -2  -2 -0.6807 0.60613   3
  -9  -2  -2 1.47448 0.71950   1
   9   2   2 0.81729 0.98365   5
 -10  -2  -2 0.42738 0.74049   2
 -10  -2  -2 -0.1171 0.74703   3
  10   2   2 0.41986 0.94319   5
 -12   3   2 0.56777 0.50405   2
 -11   3   2 3.48024 0.71475   1
 -11   3   2 3.08544 0.77424   2
 -11   3   2 3.96294 0.82163   2
 -10   3   2 17.5879 1.58687   2
 -10   3   2 20.2524 1.69122   1
 -10   3   2 18.4640 1.61794   2
  -9   3   2 41.8864 2.18472   1
  -9   3   2 40.9126 2.13471   2
  -9   3   2 41.3126 2.16144   2
  -8   3   2 58.7844 2.64071   1
  -8   3   2 53.3873 2.46037   2
  -8   3   2 56.9061 2.56323   2
  -8   3   2 53.4156 2.52082   2
  -7   3   2 124.709 4.37173   1
  -7   3   2 119.455 4.26333   2
  -7   3   2 117.494 4.25975   2
  -7   3   2 126.878 4.23458   2
   6  -3  -2 9.82094 0.65237   1
   6  -3  -2 10.0421 0.67518   1
  -6   3   2 8.36544 1.07276   1
  -6   3   2 12.9886 1.21915   2
  -6   3   2 9.71142 1.13745   2
  -6   3   2 12.0361 1.28479   4
   5  -3  -2 150.714 4.80936   1
   5  -3  -2 159.665 4.49528   2
   5  -3  -2 152.782 4.93065   1
  -5   3   2 156.420 5.00442   2
  -5   3   2 162.400 5.20994   2
  -5   3   2 159.870 5.21175   1
  -5   3   2 155.963 4.91361   4
   4  -3  -2 308.236 8.83453   2
   4  -3  -2 305.096 8.95536   1
   4  -3  -2 311.866 8.87011   1
  -4   3   2 309.606 9.05903   2
  -4   3   2 327.221 9.12464   1
  -4   3   2 319.945 8.47361   4
  -4   3   2 306.598 8.82829   2
   3  -3  -2 180.444 5.58282   1
   3  -3  -2 164.923 5.61376   1
   3  -3  -2 173.784 4.82107   4
  -3   3   2 174.818 5.65740   2
  -3   3   2 174.991 4.79095   4
  -3   3   2 174.452 5.64838   1
  -3   3   2 178.555 5.69363   2
  -3   3   2 175.575 5.43524   2
   2  -3  -2 545.818 14.8939   1
   2  -3  -2 568.551 13.7513   4
   2  -3  -2 560.642 14.9575   2
   2  -3  -2 555.449 14.8325   1
   2  -3  -2 552.430 14.6428   2
  -2   3   2 539.928 14.9041   2
  -2   3   2 514.163 14.8337   2
  -2   3   2 543.925 14.8448   1
  -2   3   2 562.106 14.6266   2
   1  -3  -2 115.364 3.96992   2
   1  -3  -2 109.826 4.13426   1
   1  -3  -2 112.444 4.08184   1
   1  -3  -2 114.274 4.19521   2
  -1   3   2 113.636 4.08760   1
  -1   3   2 115.051 3.88893   2
  -1   3   2 113.234 4.16764   2
   0  -3  -2 8.31317 1.15947   1
   0  -3  -2 8.59586 1.04024   2
   0  -3  -2 7.28770 1.10917   2
   0  -3  -2 9.88080 1.25601   2
   0   3   2 9.37253 1.02108   2
   0   3   2 8.51190 1.07656   1
   0   3   2 8.60822 1.10304   2
  -1  -3  -2 620.143 16.5316   2
  -1  -3  -2 614.806 16.5095   2
  -1  -3  -2 587.467 16.3709   1
  -1  -3  -2 609.669 16.1225   2
   1   3   2 629.824 16.2263   1
   1   3   2 623.799 15.8694   5
   1   3   2 610.243 15.5961   3
   1   3   2 573.381 15.8873   2
  -2  -3  -2 177.848 5.53205   2
  -2  -3  -2 164.395 5.78470   2
  -2  -3  -2 168.249 5.73779   1
  -2  -3  -2 189.028 5.87806   1
  -2  -3  -2 170.041 5.82989   2
   2   3   2 178.575 5.51142   5
   2   3   2 172.919 5.46421   1
   2   3   2 171.532 5.19187   2
  -3  -3  -2 481.929 13.5676   2
  -3  -3  -2 477.531 13.1015   2
  -3  -3  -2 493.025 13.5393   1
  -3  -3  -2 487.738 13.5940   2
  -3  -3  -2 482.403 13.4901   1
  -3  -3  -2 502.721 12.8913   3
   3   3   2 459.355 12.4099   2
   3   3   2 479.323 13.3886   5
  -4  -3  -2 44.3171 2.52957   2
  -4  -3  -2 49.8297 2.62781   2
  -4  -3  -2 49.6611 2.61921   1
  -4  -3  -2 45.4732 2.49057   1
  -4  -3  -2 46.3670 2.28351   2
  -4  -3  -2 48.8534 2.24671   3
   4   3   2 49.1596 1.92882   1
   4   3   2 53.7502 2.73353   5
  -5  -3  -2 60.4195 2.99757   1
  -5  -3  -2 57.0445 2.64850   2
  -5  -3  -2 54.0659 2.61616   3
  -5  -3  -2 57.8853 2.91725   1
  -5  -3  -2 58.4012 2.99830   2
   5   3   2 60.4673 3.18774   5
  -6  -3  -2 19.5039 2.07797   2
  -6  -3  -2 19.0860 1.95443   1
  -6  -3  -2 17.9377 1.79632   3
  -6  -3  -2 16.9411 1.64816   2
   6   3   2 18.9329 2.26641   5
  -7  -3  -2 39.5209 2.30923   2
  -7  -3  -2 38.9874 2.46804   3
  -7  -3  -2 39.9205 2.60652   1
  -7  -3  -2 40.0063 2.70467   2
   7   3   2 39.4037 3.47798   5
  -8  -3  -2 16.9134 2.01363   1
  -8  -3  -2 14.0947 1.98868   2
  -8  -3  -2 15.4817 1.90344   3
   8   3   2 13.4458 2.28004   5
  -9  -3  -2 11.6082 1.86451   2
  -9  -3  -2 10.4327 1.72636   3
  -9  -3  -2 8.34452 1.51452   1
   9   3   2 13.5400 2.46626   5
 -12   4   2 18.5438 1.73942   2
 -11   4   2 6.16505 1.03602   2
 -11   4   2 7.05243 1.10085   1
 -10   4   2 4.73399 0.91601   2
 -10   4   2 4.36742 0.91519   1
 -10   4   2 3.63508 0.87166   2
  -9   4   2 0.01171 0.53562   1
  -9   4   2 0.86534 0.58668   2
  -9   4   2 0.18307 0.48387   2
  -9   4   2 0.34382 0.48627   2
  -8   4   2 1.13210 0.57557   1
  -8   4   2 0.09065 0.38239   2
  -8   4   2 0.11031 0.47602   2
   7  -4  -2 90.0952 2.85685   1
   7  -4  -2 92.7204 2.84569   1
  -7   4   2 86.3516 3.74760   2
  -7   4   2 90.9881 3.56029   2
  -7   4   2 98.2131 3.83059   1
   6  -4  -2 338.127 9.79017   1
  -6   4   2 360.429 10.3971   2
  -6   4   2 356.367 10.2749   1
  -6   4   2 346.680 9.89760   4
  -6   4   2 346.297 10.0041   2
   5  -4  -2 67.4419 2.90166   2
   5  -4  -2 70.9482 3.00386   1
  -5   4   2 70.4010 3.19367   2
  -5   4   2 69.5355 2.64257   4
  -5   4   2 68.4570 2.92475   2
  -5   4   2 66.1967 3.08675   1
   4  -4  -2 195.917 5.61292   4
   4  -4  -2 186.972 6.41849   1
   4  -4  -2 194.104 6.35311   1
   4  -4  -2 202.391 6.47751   2
  -4   4   2 198.614 6.59024   2
  -4   4   2 196.598 6.44633   1
  -4   4   2 197.849 5.61945   4
  -4   4   2 195.242 6.19079   2
   3  -4  -2 94.6476 3.92502   1
   3  -4  -2 92.4798 3.82850   1
   3  -4  -2 99.9812 3.00815   4
   3  -4  -2 98.1755 3.98869   2
  -3   4   2 100.518 4.05656   2
  -3   4   2 96.7444 3.66322   2
  -3   4   2 101.174 3.94482   1
   2  -4  -2 24.1825 2.12163   1
   2  -4  -2 26.0190 1.69786   2
   2  -4  -2 22.3033 2.06023   2
   2  -4  -2 28.5530 1.92597   1
  -2   4   2 29.6042 1.74971   2
  -2   4   2 27.7999 1.94307   2
  -2   4   2 24.7540 1.79305   1
  -2   4   2 29.3282 2.41928   2
   1  -4  -2 554.001 15.5757   1
   1  -4  -2 569.010 15.2344   2
   1  -4  -2 541.879 15.6476   2
   1  -4  -2 581.595 15.6201   1
  -1   4   2 569.262 15.4266   1
  -1   4   2 542.323 15.0599   2
  -1   4   2 563.782 15.6362   2
  -1   4   2 561.898 15.6061   2
   0  -4  -2 238.262 7.90373   1
   0  -4  -2 252.923 7.96362   1
   0  -4  -2 242.135 7.58540   2
   0  -4  -2 253.327 8.11161   2
   0   4   2 259.258 7.54380   2
   0   4   2 252.133 7.76959   1
  -1  -4  -2 35.0507 2.25370   1
  -1  -4  -2 35.2224 2.03318   2
  -1  -4  -2 36.1952 2.34734   2
  -1  -4  -2 32.9714 2.17687   1
   1   4   2 36.6180 2.10416   1
   1   4   2 41.0509 1.94292   5
  -2  -4  -2 5.33421 1.03505   1
  -2  -4  -2 4.93704 1.09689   2
  -2  -4  -2 5.19838 1.02482   1
  -2  -4  -2 4.28607 0.85758   2
   2   4   2 4.59232 0.86727   1
   2   4   2 4.40083 0.76463   2
   2   4   2 3.38473 0.74781   5
  -3  -4  -2 306.042 9.71294   2
  -3  -4  -2 312.104 9.16545   2
  -3  -4  -2 294.896 9.57181   1
  -3  -4  -2 304.391 9.55537   1
   3   4   2 295.873 9.23756   5
   3   4   2 307.191 8.49181   2
   3   4   2 312.359 8.93650   1
  -4  -4  -2 12.9908 1.75527   2
  -4  -4  -2 13.4235 1.70725   1
  -4  -4  -2 15.3255 1.67313   2
  -4  -4  -2 14.0237 1.75644   1
   4   4   2 12.4029 1.25846   1
   4   4   2 13.8412 1.77888   5
  -5  -4  -2 5.49233 1.03889   2
  -5  -4  -2 4.40836 1.10940   1
  -5  -4  -2 5.63726 1.19432   1
  -5  -4  -2 5.68525 1.27680   2
  -5  -4  -2 7.04729 1.16953   3
   5   4   2 5.67478 1.27752   5
   5   4   2 6.82075 0.76740   1
  -6  -4  -2 -0.1847 0.55852   3
  -6  -4  -2 0.50842 0.76647   2
  -6  -4  -2 0.81113 0.75027   1
   6   4   2 0.81013 0.82218   5
  -7  -4  -2 80.1914 4.39960   2
  -7  -4  -2 85.2027 4.34626   1
  -7  -4  -2 76.6424 3.79128   3
   7   4   2 90.2671 4.78297   5
  -8  -4  -2 18.8762 2.44824   1
  -8  -4  -2 16.1360 2.37798   2
  -8  -4  -2 19.7580 2.26573   3
   8   4   2 12.8774 2.29440   5
  -9  -4  -2 0.87991 1.08169   3
  -9  -4  -2 3.53039 1.33381   1
  -9  -4  -2 2.21234 1.26201   2
   9   4   2 -0.1677 0.94906   5
 -12   5   2 4.25126 0.93283   1
 -12   5   2 4.95275 1.05422   2
 -11   5   2 6.23418 1.17529   1
 -11   5   2 5.78117 1.11399   2
 -10   5   2 15.6988 1.91633   2
 -10   5   2 16.8480 1.75076   2
 -10   5   2 15.2265 1.76038   1
 -10   5   2 17.3997 1.99556   2
  -9   5   2 59.7115 3.24027   2
  -9   5   2 59.9680 2.96613   2
  -9   5   2 61.4023 3.15596   1
   8  -5  -2 88.5333 2.75842   1
  -8   5   2 86.1376 3.87588   1
  -8   5   2 90.4765 3.72504   2
  -8   5   2 79.4794 3.89708   2
   7  -5  -2 58.4463 2.69281   1
  -7   5   2 56.5897 2.99691   1
  -7   5   2 60.9114 2.88902   2
  -7   5   2 58.1947 3.14290   2
   6  -5  -2 29.1191 1.85634   2
   6  -5  -2 31.3137 2.00162   1
  -6   5   2 28.8006 2.51865   2
  -6   5   2 27.9651 2.00702   1
  -6   5   2 26.9470 1.60889   4
  -6   5   2 28.6941 1.87817   2
   5  -5  -2 540.337 15.0755   1
   5  -5  -2 521.746 15.0514   2
   5  -5  -2 540.749 14.1741   4
  -5   5   2 540.683 14.7928   2
  -5   5   2 532.813 15.3596   2
  -5   5   2 526.004 15.1215   1
   4  -5  -2 484.458 12.5407   4
   4  -5  -2 465.639 13.8423   2
   4  -5  -2 476.932 13.7410   1
  -4   5   2 478.177 13.3797   2
  -4   5   2 492.622 14.0474   2
  -4   5   2 462.681 13.6642   1
   3  -5  -2 174.518 6.41400   2
   3  -5  -2 175.584 6.28706   1
  -3   5   2 171.589 6.35050   2
  -3   5   2 179.623 5.94141   2
  -3   5   2 170.827 6.13326   1
   2  -5  -2 170.889 6.17345   1
   2  -5  -2 168.956 6.27284   2
   2  -5  -2 169.455 6.13813   1
  -2   5   2 167.619 6.22138   2
  -2   5   2 167.855 5.68876   2
  -2   5   2 157.687 5.85870   1
  -2   5   2 168.948 6.23764   2
   1  -5  -2 162.231 6.39280   2
   1  -5  -2 176.344 6.35484   1
   1  -5  -2 181.093 6.05631   2
   1  -5  -2 175.743 6.35694   1
  -1   5   2 165.439 6.06396   1
  -1   5   2 179.481 5.92210   2
   0  -5  -2 147.096 5.68422   1
   0  -5  -2 151.008 5.95317   2
   0  -5  -2 148.302 5.73428   1
   0  -5  -2 140.610 5.31049   2
   0   5   2 147.056 5.47730   1
   0   5   2 155.752 5.26565   2
  -1  -5  -2 101.688 4.52158   1
  -1  -5  -2 101.675 4.67840   2
  -1  -5  -2 101.886 4.17182   2
  -1  -5  -2 104.066 4.50981   1
   1   5   2 97.2929 3.80240   5
   1   5   2 102.105 4.19457   1
  -2  -5  -2 5.77102 1.22719   1
  -2  -5  -2 5.38494 1.27775   2
  -2  -5  -2 5.65036 1.24231   1
  -2  -5  -2 6.49008 1.21098   2
   2   5   2 8.19305 1.23007   5
   2   5   2 7.11318 1.17003   1
   2   5   2 8.19300 1.15946   2
  -3  -5  -2 224.198 7.85969   1
  -3  -5  -2 207.308 7.18566   2
  -3  -5  -2 207.188 7.60336   1
  -3  -5  -2 223.284 8.05278   2
   3   5   2 215.973 6.98634   1
   3   5   2 209.609 6.54091   2
   3   5   2 211.444 7.22436   5
  -4  -5  -2 3.45398 0.96063   2
  -4  -5  -2 5.02538 1.32690   2
  -4  -5  -2 5.49072 1.29372   1
  -4  -5  -2 3.73369 1.13146   1
   4   5   2 3.96440 1.07632   5
   4   5   2 1.00473 0.50204   1
  -5  -5  -2 31.9836 3.19061   2
  -5  -5  -2 32.9181 3.15536   1
   5   5   2 32.1411 3.01522   5
  -6  -5  -2 1.46305 1.06022   2
  -6  -5  -2 2.14334 1.08651   1
   6   5   2 0.77198 0.88613   5
  -7  -5  -2 7.42654 1.74378   1
  -7  -5  -2 9.45920 2.05456   2
   7   5   2 10.5770 2.09516   5
  -8  -5  -2 3.03051 1.21756   1
  -8  -5  -2 2.42675 1.34039   2
   8   5   2 3.01582 1.32374   5
 -12   6   2 -1.3751 0.49617   1
 -12   6   2 -0.0716 0.59391   2
 -11   6   2 7.93962 1.39668   1
 -11   6   2 6.40253 1.21777   2
 -10   6   2 30.6520 2.64493   1
 -10   6   2 27.0860 2.44904   2
  -9   6   2 3.17440 0.90459   2
  -9   6   2 1.99810 0.91338   1
  -9   6   2 0.33459 0.71963   2
   8  -6  -2 182.603 5.98140   1
  -8   6   2 171.560 6.25710   2
  -8   6   2 167.729 6.44846   1
  -8   6   2 183.466 6.89671   2
   7  -6  -2 179.824 6.32608   1
   7  -6  -2 156.565 6.96701   2
  -7   6   2 189.971 6.66125   1
  -7   6   2 166.048 6.69834   2
  -7   6   2 188.719 6.35459   2
   6  -6  -2 2.08698 0.83831   2
   6  -6  -2 4.04232 0.99350   1
   6  -6  -2 4.18653 0.75191   4
  -6   6   2 3.73334 0.93500   2
  -6   6   2 2.68482 0.96251   2
  -6   6   2 4.58619 1.09947   1
   5  -6  -2 69.4107 3.57635   1
   5  -6  -2 66.8436 2.67451   4
  -5   6   2 67.2746 3.26965   2
  -5   6   2 68.2548 3.50174   1
  -5   6   2 62.2745 3.58058   2
   4  -6  -2 102.295 4.68890   1
   4  -6  -2 106.738 4.87248   2
   4  -6  -2 110.440 3.60178   4
  -4   6   2 105.494 4.60848   1
  -4   6   2 107.374 4.36856   2
   3  -6  -2 773.883 21.9318   1
   3  -6  -2 805.214 22.2695   2
  -3   6   2 821.575 23.0232   2
  -3   6   2 785.320 21.3505   2
  -3   6   2 771.622 21.6706   1
   2  -6  -2 5.73353 1.38978   2
   2  -6  -2 8.66851 1.49272   1
  -2   6   2 9.23190 1.40672   2
  -2   6   2 8.28519 1.47469   1
   1  -6  -2 83.6602 4.25746   2
   1  -6  -2 77.1696 4.05486   1
   1  -6  -2 83.6008 4.28865   2
  -1   6   2 81.3811 3.90863   1
  -1   6   2 77.9217 3.63875   2
   0  -6  -2 39.5717 3.47802   2
   0  -6  -2 48.3224 3.09607   1
   0  -6  -2 44.1637 2.73494   2
   0  -6  -2 54.3743 3.30082   1
   0   6   2 49.1851 2.91554   1
   0   6   2 52.7047 2.76533   2
  -1  -6  -2 0.68895 0.59988   2
  -1  -6  -2 0.44835 0.67756   1
  -1  -6  -2 0.97822 0.70743   1
  -1  -6  -2 -0.3352 0.59660   2
   1   6   2 0.17036 0.31787   2
   1   6   2 0.12966 0.40743   5
   1   6   2 0.14070 0.47967   1
  -2  -6  -2 31.4022 2.73201   2
  -2  -6  -2 32.6484 3.16157   1
  -2  -6  -2 28.2820 2.92251   1
  -2  -6  -2 30.8915 3.08888   2
   2   6   2 30.5605 2.04047   2
   2   6   2 24.6282 2.26463   5
   2   6   2 31.8495 2.26523   1
  -3  -6  -2 21.5229 2.68975   2
  -3  -6  -2 20.2830 2.25213   2
  -3  -6  -2 24.2452 2.70588   1
  -3  -6  -2 22.9817 2.71964   1
   3   6   2 30.4240 2.71852   5
   3   6   2 23.6199 2.28596   1
  -4  -6  -2 37.3290 3.52494   1
  -4  -6  -2 37.3963 3.66285   2
   4   6   2 44.3642 3.61269   5
  -5  -6  -2 -1.8324 0.51844   2
  -5  -6  -2 -0.6213 0.77608   1
   5   6   2 -0.8940 0.55885   5
  -6  -6  -2 9.90087 2.07488   1
  -6  -6  -2 9.85685 2.11614   2
   6   6   2 11.8569 2.15201   5
  -7  -6  -2 -0.9684 0.73878   2
  -7  -6  -2 1.01322 1.11326   1
   7   6   2 0.21096 0.90374   5
 -12   7   2 1.77776 0.84314   1
 -12   7   2 3.35381 1.06908   2
 -11   7   2 10.0144 1.63568   2
 -11   7   2 9.16609 1.61679   1
 -10   7   2 20.0892 2.19922   2
 -10   7   2 24.8297 2.56932   1
  -9   7   2 13.6160 1.97620   1
  -9   7   2 15.6892 1.93259   2
   8  -7  -2 9.67143 1.57961   1
  -8   7   2 14.2331 2.18119   2
  -8   7   2 9.19110 1.65478   1
  -8   7   2 8.79570 1.48456   2
   7  -7  -2 163.584 5.75376   4
   7  -7  -2 172.063 6.43500   2
   7  -7  -2 170.146 6.52069   1
  -7   7   2 157.682 6.83830   2
  -7   7   2 173.798 6.62532   1
  -7   7   2 170.732 6.32902   2
   6  -7  -2 0.72498 0.73902   1
   6  -7  -2 0.17701 0.67444   2
   6  -7  -2 0.16483 0.39654   4
  -6   7   2 1.57586 0.86711   2
  -6   7   2 0.50070 0.56680   2
  -6   7   2 0.54415 0.73365   1
   5  -7  -2 16.9265 2.18164   1
   5  -7  -2 20.8403 1.38880   4
   5  -7  -2 21.3802 2.54754   2
  -5   7   2 20.9965 2.17119   2
  -5   7   2 19.2912 2.47183   2
  -5   7   2 19.7208 2.28252   1
   4  -7  -2 9.96391 1.24184   4
   4  -7  -2 9.07725 1.77118   2
   4  -7  -2 9.11576 1.67295   1
  -4   7   2 7.50182 1.44310   1
  -4   7   2 14.5275 1.82226   2
   3  -7  -2 1.49176 0.96208   2
   3  -7  -2 0.67426 0.78274   1
  -3   7   2 0.03319 0.49381   2
  -3   7   2 1.00784 0.73696   1
   2  -7  -2 183.141 7.36981   2
   2  -7  -2 166.263 6.90534   1
  -2   7   2 172.207 6.36084   2
  -2   7   2 162.431 6.54674   1
   1  -7  -2 47.7901 3.29265   1
   1  -7  -2 43.5960 3.91388   2
  -1   7   2 44.4608 2.98256   1
  -1   7   2 48.7420 2.89033   2
   0  -7  -2 100.169 5.02210   1
   0  -7  -2 86.0459 4.34161   2
   0  -7  -2 91.6805 5.01645   2
   0   7   2 91.6576 4.18015   2
   0   7   2 98.8721 4.56774   1
  -1  -7  -2 5.13429 1.46169   2
  -1  -7  -2 6.31734 1.33591   2
  -1  -7  -2 4.66514 1.37719   1
   1   7   2 2.82438 0.83027   2
   1   7   2 4.27331 1.13519   1
   1   7   2 3.56853 1.00045   5
  -2  -7  -2 18.4647 2.68226   2
  -2  -7  -2 20.2176 2.73801   1
   2   7   2 15.3022 1.98717   1
   2   7   2 18.5386 2.19354   5
  -3  -7  -2 -0.1448 0.90549   1
  -3  -7  -2 0.21494 0.81129   2
   3   7   2 -0.4690 0.50188   5
  -4  -7  -2 -0.0066 0.88506   2
  -4  -7  -2 2.45758 1.31310   1
   4   7   2 0.85682 0.89284   5
  -5  -7  -2 0.20104 1.16638   2
  -5  -7  -2 -0.0145 1.01360   1
   5   7   2 -0.2354 0.72242   5
  -6  -7  -2 3.25031 1.58031   1
  -6  -7  -2 6.89862 2.05524   2
   6   7   2 2.48007 1.28456   5
 -12   8   2 6.98751 1.56344   2
 -12   8   2 9.19577 1.86746   1
 -11   8   2 12.6540 1.88454   2
 -11   8   2 21.0046 2.64747   1
 -10   8   2 45.7158 3.02144   2
 -10   8   2 44.7547 3.23458   1
  -9   8   2 78.7002 4.41458   1
  -9   8   2 89.0245 4.34233   2
   8  -8  -2 10.5875 1.49636   4
   8  -8  -2 11.1268 1.87609   1
  -8   8   2 6.62621 1.39607   2
  -8   8   2 10.8302 1.89538   1
   7  -8  -2 0.76446 0.55267   4
   7  -8  -2 -0.1784 0.68914   1
  -7   8   2 1.72912 1.26539   2
  -7   8   2 2.17654 0.93583   2
  -7   8   2 -0.4239 0.74368   1
   6  -8  -2 104.541 3.99959   4
   6  -8  -2 109.344 5.32872   1
   6  -8  -2 101.741 5.25128   2
  -6   8   2 103.947 5.44819   2
  -6   8   2 98.9672 4.72411   2
  -6   8   2 107.573 5.12610   1
   5  -8  -2 -0.0087 0.36961   4
   5  -8  -2 0.08889 0.69726   2
   5  -8  -2 0.24417 0.72545   1
  -5   8   2 0.29035 0.59671   2
  -5   8   2 -0.0919 0.70070   1
   4  -8  -2 71.1850 4.25657   1
   4  -8  -2 65.1228 4.18889   2
  -4   8   2 64.3482 3.62519   2
  -4   8   2 65.7763 3.88997   1
   3  -8  -2 0.54777 0.90370   1
   3  -8  -2 -0.0352 0.77365   2
  -3   8   2 -0.5230 0.60471   1
  -3   8   2 0.39811 0.66412   2
   2  -8  -2 178.556 7.51684   1
   2  -8  -2 181.764 7.80813   2
  -2   8   2 169.502 6.68249   2
  -2   8   2 169.713 6.98731   1
   1  -8  -2 22.2337 2.94820   1
   1  -8  -2 22.5497 3.08633   2
  -1   8   2 19.9936 2.50204   1
  -1   8   2 21.2145 2.44800   2
   0  -8  -2 7.72825 1.96962   2
   0  -8  -2 10.7741 2.05654   1
   0   8   2 8.72367 1.56637   2
   0   8   2 9.23596 1.76553   1
  -1  -8  -2 16.5744 2.65535   1
  -1  -8  -2 16.2070 2.68166   2
   1   8   2 15.4469 1.95348   5
   1   8   2 18.2878 2.34261   1
  -2  -8  -2 25.7833 3.51497   2
  -2  -8  -2 25.7435 3.29596   1
   2   8   2 29.5937 2.99732   1
   2   8   2 30.9163 2.87471   5
  -3  -8  -2 -0.4305 0.95588   2
  -3  -8  -2 -0.0204 1.03504   1
   3   8   2 2.44831 1.10408   5
  -4  -8  -2 1.28524 1.32029   2
  -4  -8  -2 -1.2162 0.78029   1
   4   8   2 0.24336 0.74151   5
  -5  -8  -2 3.66294 1.78402   1
  -5  -8  -2 7.21721 2.10569   2
   5   8   2 6.47650 1.70495   5
   6   8   2 -0.0207 0.91107   5
 -12   9   2 1.31157 0.98695   2
 -12   9   2 1.12350 1.08091   1
 -11   9   2 0.33520 0.68478   2
 -11   9   2 0.28050 0.81701   1
 -10   9   2 5.09773 1.56284   1
 -10   9   2 3.09271 1.08851   2
  -9   9   2 -0.7009 0.63918   1
  -9   9   2 0.91122 0.80228   2
   8  -9  -2 76.5698 4.57362   1
   8  -9  -2 82.0786 3.74779   4
  -8   9   2 77.3517 4.25313   2
  -8   9   2 75.0717 4.48127   1
   7  -9  -2 0.96787 0.58431   4
   7  -9  -2 1.76918 1.09933   1
  -7   9   2 2.72933 1.18778   1
  -7   9   2 2.71498 1.02329   2
   6  -9  -2 14.5734 2.53161   2
   6  -9  -2 14.9680 2.49491   1
   6  -9  -2 13.5525 1.52209   4
  -6   9   2 13.2275 2.07195   2
  -6   9   2 13.3772 2.16427   1
   5  -9  -2 88.2388 5.16764   2
   5  -9  -2 79.5820 4.77978   1
   5  -9  -2 78.9639 3.49202   4
  -5   9   2 73.7526 4.39043   1
  -5   9   2 75.4485 4.16393   2
   4  -9  -2 9.99278 2.13784   2
   4  -9  -2 14.5412 2.51398   1
  -4   9   2 12.1605 1.89659   2
  -4   9   2 12.7867 2.16367   1
   3  -9  -2 5.89446 1.70716   1
   3  -9  -2 4.34604 1.71545   2
  -3   9   2 3.54923 1.18880   2
  -3   9   2 4.94621 1.46450   1
   2  -9  -2 6.51250 1.95341   2
   2  -9  -2 5.36119 1.68267   1
  -2   9   2 6.37045 1.47965   2
  -2   9   2 6.72524 1.61340   1
   1  -9  -2 45.2865 4.36162   1
   1  -9  -2 46.1806 4.64589   2
  -1   9   2 48.0265 3.24920   2
  -1   9   2 51.6683 3.60011   1
   0  -9  -2 90.5951 5.74813   2
   0  -9  -2 93.4344 5.62796   1
   0   9   2 97.7001 5.12489   1
  -1  -9  -2 1.75265 1.37925   2
  -1  -9  -2 0.60389 1.07620   1
   1   9   2 0.79138 0.93529   1
   1   9   2 1.14098 0.77404   5
  -2  -9  -2 9.06807 2.10409   1
  -2  -9  -2 11.2385 2.59386   2
   2   9   2 9.54369 1.76515   5
  -3  -9  -2 40.3037 4.50875   1
  -3  -9  -2 44.7008 4.96234   2
   3   9   2 59.4455 3.81745   5
  -4  -9  -2 30.3709 4.19603   1
  -4  -9  -2 34.2719 4.47729   2
   4   9   2 25.5138 3.18669   5
   5   9   2 20.9379 3.23294   5
 -12  10   2 21.0665 2.83514   2
 -12  10   2 23.5058 3.05485   1
 -11  10   2 3.74843 1.34809   2
 -11  10   2 1.88945 1.32983   1
 -10  10   2 1.19368 1.06484   2
 -10  10   2 0.36772 1.04413   1
   9 -10  -2 4.10513 1.10393   4
  -9  10   2 1.92265 1.18150   2
  -9  10   2 2.79782 1.28936   1
   8 -10  -2 2.64128 0.85762   4
  -8  10   2 3.64423 1.20817   2
  -8  10   2 1.73693 1.18631   1
   7 -10  -2 7.53923 1.87358   1
   7 -10  -2 7.02691 1.23898   4
  -7  10   2 4.45654 1.29472   2
  -7  10   2 5.32460 1.54213   1
   6 -10  -2 106.070 4.32846   4
   6 -10  -2 105.204 5.96288   1
  -6  10   2 110.678 5.46827   2
  -6  10   2 103.701 5.63007   1
   5 -10  -2 53.5302 5.01530   2
   5 -10  -2 62.4239 3.41443   4
   5 -10  -2 52.4493 4.75377   1
  -5  10   2 56.4044 3.73512   2
  -5  10   2 61.2799 4.15449   1
   4 -10  -2 22.5724 3.41366   2
   4 -10  -2 19.4448 3.05055   1
  -4  10   2 25.8608 3.18150   1
  -4  10   2 20.6532 2.65302   2
   3 -10  -2 10.0149 2.25815   1
   3 -10  -2 8.72903 2.20905   2
  -3  10   2 12.4156 2.08378   2
  -3  10   2 14.1122 2.29660   1
   2 -10  -2 12.9176 2.74900   2
   2 -10  -2 16.2790 2.92829   1
  -2  10   2 12.1036 2.10351   2
  -2  10   2 15.0786 2.49374   1
   1 -10  -2 -1.0683 0.73427   1
   1 -10  -2 -0.6260 1.01869   2
  -1  10   2 -0.0158 0.78363   1
   0 -10  -2 22.2886 3.57822   2
   0 -10  -2 27.3932 3.90656   1
   0  10   2 20.1403 2.39771   5
   0  10   2 21.8783 2.89274   1
  -1 -10  -2 75.1838 6.68526   2
  -1 -10  -2 73.0829 5.34068   1
   1  10   2 68.5854 4.08940   5
  -2 -10  -2 10.7663 2.83728   2
  -2 -10  -2 7.43885 2.25055   1
   2  10   2 4.00345 1.43712   5
  -3 -10  -2 0.43519 1.35500   2
  -3 -10  -2 2.76511 1.63352   1
   3  10   2 0.41297 1.13537   5
 -11  11   2 8.20205 2.00651   1
 -11  11   2 13.2059 2.42547   2
 -10  11   2 27.7773 3.27791   2
 -10  11   2 24.9906 3.42228   1
   9 -11  -2 2.34996 0.93724   4
  -9  11   2 2.30965 1.32954   1
  -9  11   2 0.43545 0.90723   2
   8 -11  -2 5.33462 1.23505   4
  -8  11   2 5.48871 1.58896   1
  -8  11   2 5.13776 1.62970   2
   7 -11  -2 17.6012 1.94536   4
   7 -11  -2 15.1971 2.72387   1
  -7  11   2 15.7793 2.52593   2
  -7  11   2 18.5590 2.79463   1
   6 -11  -2 -0.9925 1.02759   1
   6 -11  -2 0.99462 0.63972   4
  -6  11   2 0.25256 0.94160   1
  -6  11   2 1.74746 0.96908   2
   5 -11  -2 2.36842 1.53863   4
   5 -11  -2 2.51186 1.40999   1
  -5  11   2 0.66235 1.02964   1
  -5  11   2 4.69332 1.50133   2
   4 -11  -2 -0.9384 0.79584   1
   4 -11  -2 0.00380 1.01043   2
  -4  11   2 -0.1627 0.84782   1
  -4  11   2 0.58706 0.88572   2
   3 -11  -2 10.8074 2.44110   1
   3 -11  -2 10.2115 2.59194   2
  -3  11   2 9.69917 2.06100   1
  -3  11   2 7.89536 1.79066   2
   2 -11  -2 8.38130 2.38130   2
   2 -11  -2 5.42819 1.87553   1
  -2  11   2 8.46792 1.98546   1
   1 -11  -2 63.8100 6.26901   2
   1 -11  -2 58.4795 5.86635   1
  -1  11   2 54.2526 4.98540   1
   0 -11  -2 1.65553 1.56960   2
   0 -11  -2 2.26662 1.47819   1
   0  11   2 -1.2558 0.56182   5
  -1 -11  -2 95.5626 6.67128   1
  -1 -11  -2 103.617 7.05117   2
   1  11   2 102.083 5.37826   5
  -2 -11  -2 13.9782 3.24434   2
  -2 -11  -2 15.4475 3.37546   1
   2  11   2 17.7636 2.72099   5
 -11  12   2 6.60788 1.87090   2
 -11  12   2 4.01859 1.73001   1
  10 -12  -2 0.11413 0.64540   4
 -10  12   2 0.22421 1.08951   1
 -10  12   2 0.60361 0.97488   2
   9 -12  -2 12.3217 1.81887   4
  -9  12   2 10.9354 2.39463   1
  -9  12   2 11.0701 2.23760   2
   8 -12  -2 2.13400 0.93735   4
  -8  12   2 2.81879 1.29099   2
  -8  12   2 3.01520 1.44982   1
   7 -12  -2 -0.0499 1.05404   1
   7 -12  -2 -0.1133 0.60935   4
  -7  12   2 0.35402 0.94906   2
  -7  12   2 0.74600 1.00475   1
   6 -12  -2 -0.4354 1.14583   1
   6 -12  -2 0.82983 0.71740   4
  -6  12   2 0.10693 0.99379   1
  -6  12   2 -0.3953 0.78474   2
   5 -12  -2 1.44964 1.41702   1
  -5  12   2 3.64570 1.51266   2
  -5  12   2 2.51155 1.36427   1
   4 -12  -2 23.6903 3.74325   1
   4 -12  -2 19.5697 5.07329   2
  -4  12   2 19.1384 2.83595   2
  -4  12   2 17.2678 2.95269   1
   3 -12  -2 19.4444 3.68163   2
   3 -12  -2 29.4551 4.19824   1
  -3  12   2 23.9060 3.32187   1
   2 -12  -2 1.30542 1.60257   2
   2 -12  -2 2.54312 1.74456   1
  -2  12   2 1.06096 1.15088   1
   1 -12  -2 0.53138 1.28818   1
   1 -12  -2 0.91184 1.55477   2
   0 -12  -2 12.6456 3.18509   2
   0 -12  -2 9.66148 2.62110   1
   0  12   2 13.3636 2.32775   5
  -1 -12  -2 0.45833 1.53836   2
  -1 -12  -2 -0.3907 1.39633   1
   1  12   2 0.78620 1.14812   5
 -10  13   2 1.35102 1.33286   2
  -9  13   2 4.16300 1.69797   1
  -9  13   2 1.89905 1.51403   2
   8 -13  -2 1.60728 0.94874   4
  -8  13   2 -0.0183 1.14611   2
  -8  13   2 0.78909 1.12296   1
   7 -13  -2 22.5380 2.39790   4
  -7  13   2 26.8060 3.78743   1
  -7  13   2 31.8265 3.98345   2
   6 -13  -2 4.46643 1.43930   4
   6 -13  -2 5.16555 2.04428   1
  -6  13   2 3.43192 1.55473   2
  -6  13   2 2.86310 1.72400   1
   5 -13  -2 -0.1440 1.32570   1
  -5  13   2 2.43775 1.59568   1
   4 -13  -2 16.9354 3.37049   1
  -4  13   2 18.2395 3.15249   1
   3 -13  -2 4.37550 2.01325   1
  -3  13   2 2.87775 1.49654   1
   2 -13  -2 7.49302 2.57032   2
   2 -13  -2 4.04199 2.07144   1
  -2  13   2 3.59854 1.81813   1
   1 -13  -2 4.57450 2.31778   2
   1 -13  -2 6.85169 2.42382   1
  -1  13   2 3.69406 1.48194   5
  -7  14   2 0.74976 1.21827   2
  -7  14   2 0.28278 1.25936   1
   6 -14  -2 -0.7256 1.33617   1
  -6  14   2 0.80628 1.19141   1
   5 -14  -2 34.0317 4.83978   1
  -5  14   2 37.1062 4.61783   1
   4 -14  -2 21.4602 3.93035   1
  -4  14  -3 1.29161 1.31513   1
   4 -14   3 1.14546 1.74273   1
  -5  14  -3 5.08123 1.98552   1
   5 -14   3 6.00152 2.45345   1
  -6  14  -3 1.66847 1.48775   1
  -6  14  -3 1.65611 1.30856   2
   6 -14   3 -6.9016 1.70370   4
  -1  13  -3 1.40383 1.09187   5
   1 -13   3 1.05436 1.94889   2
   1 -13   3 1.46488 1.53346   1
  -2  13  -3 1.15482 1.24558   1
   2 -13   3 0.04796 1.43512   1
  -3  13  -3 -1.4494 0.85579   1
   3 -13   3 -0.4580 1.34833   1
  -4  13  -3 12.3182 2.66318   1
   4 -13   3 9.95384 2.80144   1
  -5  13  -3 12.4710 2.67824   1
  -5  13  -3 13.3631 2.63115   2
   5 -13   3 15.9118 3.33333   1
  -6  13  -3 8.67379 2.15401   2
  -6  13  -3 16.7508 2.92371   1
   6 -13   3 4.12909 2.10211   4
   6 -13   3 7.18823 2.36123   1
  -7  13  -3 1.37896 1.12471   1
  -7  13  -3 0.21734 0.99457   2
   7 -13   3 0.96524 0.84637   4
  -8  13  -3 8.09726 2.18370   1
  -8  13  -3 6.64747 1.96170   2
   8 -13   3 3.56117 1.44763   4
  -9  13  -3 2.69157 1.37394   2
  -9  13  -3 2.33783 1.50735   1
   9 -13   3 1.72085 1.15627   4
   1  12  -3 1.86958 1.08899   5
  -1 -12   3 0.61040 1.64910   2
  -1 -12   3 1.99336 1.80066   1
   0  12  -3 0.44750 0.92405   5
   0 -12   3 3.21282 2.06744   2
   0 -12   3 1.82745 1.66046   1
  -1  12  -3 -0.1862 0.76934   5
  -1  12  -3 0.53017 1.12273   1
   1 -12   3 0.06218 1.14284   1
   1 -12   3 -1.0631 1.09295   2
  -2  12  -3 7.18428 2.02170   1
   2 -12   3 7.03905 2.49003   1
   2 -12   3 8.37558 2.63755   2
  -3  12  -3 4.44795 1.67153   1
   3 -12   3 4.93024 2.04055   1
   3 -12   3 6.37971 2.42001   2
  -4  12  -3 2.08089 1.30504   1
  -4  12  -3 1.19004 1.11741   2
   4 -12   3 4.76464 1.98672   1
  -5  12  -3 31.7643 3.76545   1
  -5  12  -3 37.0082 4.06170   2
   5 -12   3 38.1326 4.62500   1
  -6  12  -3 3.84154 1.45550   2
  -6  12  -3 5.72530 1.77014   1
   6 -12   3 4.52902 1.86666   1
   6 -12   3 4.22253 1.65703   4
  -7  12  -3 2.48621 1.37639   1
  -7  12  -3 2.19014 1.26153   2
   7 -12   3 1.63427 1.01494   4
  -8  12  -3 0.60636 1.00188   1
  -8  12  -3 1.12623 1.21392   2
   8 -12   3 0.44356 0.80730   4
  -9  12  -3 12.5567 2.43524   2
  -9  12  -3 12.6701 2.53400   1
   9 -12   3 14.0056 2.26785   4
 -10  12  -3 13.4297 2.47403   2
 -10  12  -3 12.8020 2.62033   1
  10 -12   3 11.6446 2.17899   4
   3  11  -3 2.39912 1.19207   5
  -3 -11   3 3.38428 2.04013   2
  -3 -11   3 1.05051 1.65146   1
   2  11  -3 -0.1938 0.81396   5
  -2 -11   3 0.55665 1.45797   2
  -2 -11   3 1.53876 1.41053   1
   1  11  -3 21.9756 2.71294   5
  -1 -11   3 19.9189 3.53303   1
  -1 -11   3 16.5779 3.50407   2
   0  11  -3 10.0763 1.83910   5
   0  11  -3 5.61489 1.67383   1
   0 -11   3 3.44961 1.92113   2
   0 -11   3 8.12291 2.40305   1
  -1  11  -3 14.1538 2.48154   1
   1 -11   3 13.7717 3.01199   2
   1 -11   3 12.9855 2.73346   1
  -2  11  -3 2.56777 1.30652   1
  -2  11  -3 1.70319 1.13949   2
   2 -11   3 2.25766 1.58553   2
   2 -11   3 0.69286 1.27118   1
  -3  11  -3 18.9573 2.83288   1
  -3  11  -3 19.3577 2.85576   2
   3 -11   3 14.1568 3.02645   2
   3 -11   3 18.7530 3.25742   1
  -4  11  -3 62.6215 4.36600   1
  -4  11  -3 51.1354 4.50782   2
   4 -11   3 48.9997 5.63151   2
   4 -11   3 57.7375 5.47347   1
  -5  11  -3 4.45634 1.45104   2
  -5  11  -3 5.26324 1.73636   1
   5 -11   3 7.13427 2.06917   1
   5 -11   3 7.63650 2.20355   4
  -6  11  -3 16.2861 2.58679   2
  -6  11  -3 10.5171 2.11615   1
   6 -11   3 10.9576 2.46737   1
   6 -11   3 12.8701 1.99622   4
  -7  11  -3 2.20106 1.14898   2
  -7  11  -3 0.96946 0.99777   1
   7 -11   3 -0.0416 0.65771   4
  -8  11  -3 22.6036 3.01667   2
  -8  11  -3 19.9764 2.92906   1
   8 -11   3 20.2309 2.54605   4
  -9  11  -3 22.2474 3.09261   1
  -9  11  -3 25.1263 3.13576   2
   9 -11   3 24.2907 2.88144   4
 -10  11  -3 2.63708 1.44403   1
 -10  11  -3 0.95063 1.08427   2
  10 -11   3 2.97214 1.26650   4
 -11  11  -3 -0.4900 0.90936   1
 -11  11  -3 1.88433 1.13523   2
  11 -11   3 -0.4401 0.89755   4
   4  10  -3 1.83499 1.29389   5
  -4 -10   3 0.95396 1.46294   1
  -4 -10   3 -1.2376 1.16454   2
   3  10  -3 4.25459 1.42955   5
  -3 -10   3 0.61407 1.55568   1
  -3 -10   3 1.27687 1.49370   2
   2  10  -3 0.25680 0.72197   5
  -2 -10   3 0.62941 1.29217   1
  -2 -10   3 1.66330 1.64938   2
   1  10  -3 45.3274 4.23839   1
   1  10  -3 55.8357 3.50982   5
  -1 -10   3 52.8165 5.51738   2
  -1 -10   3 52.6607 5.38543   1
   0  10  -3 32.9700 2.96503   5
   0  10  -3 31.9358 3.55700   1
   0 -10   3 33.5317 4.18799   1
   0 -10   3 32.7526 4.19323   2
  -1  10  -3 1.41984 1.09111   1
  -1  10  -3 2.00395 1.11051   2
   1 -10   3 1.18224 1.24793   2
   1 -10   3 1.82985 1.39320   1
  -2  10  -3 12.8797 2.22954   1
  -2  10  -3 18.9794 2.64530   2
   2 -10   3 19.4372 3.04225   1
   2 -10   3 16.5932 3.03364   2
  -3  10  -3 29.7654 3.45216   1
  -3  10  -3 19.9321 2.60872   2
   3 -10   3 21.4356 3.36517   2
   3 -10   3 25.6779 3.45829   1
  -4  10  -3 40.5747 3.79292   2
  -4  10  -3 38.7358 3.79395   1
   4 -10   3 44.5470 4.71689   2
   4 -10   3 39.7971 4.31141   1
  -5  10  -3 31.1133 3.27580   2
  -5  10  -3 25.2964 3.10120   1
   5 -10   3 26.0479 3.04042   4
   5 -10   3 38.5759 4.30924   1
  -6  10  -3 30.9165 3.26034   2
  -6  10  -3 34.4039 3.57219   1
   6 -10   3 40.4722 4.30919   1
   6 -10   3 32.2071 2.92155   4
  -7  10  -3 0.37636 0.84763   2
  -7  10  -3 0.32603 0.82234   1
   7 -10   3 0.35875 0.66456   4
   7 -10   3 1.17512 1.16906   1
  -8  10  -3 14.3122 2.35738   1
  -8  10  -3 16.1965 2.39896   2
   8 -10   3 15.2781 2.14609   4
  -9  10  -3 1.20192 0.89102   1
  -9  10  -3 1.33862 1.02436   2
   9 -10   3 2.63489 1.08528   4
 -10  10  -3 13.2772 2.24482   1
 -10  10  -3 11.2101 2.05989   2
  10 -10   3 13.8172 2.30086   4
 -11  10  -3 3.99364 1.48671   1
 -11  10  -3 3.25586 1.34804   2
   5   9  -3 0.17677 0.98272   5
  -5  -9   3 0.53452 1.36324   1
  -5  -9   3 -0.5396 1.23246   2
   4   9  -3 0.55659 0.95213   5
  -4  -9   3 0.96234 1.30648   2
  -4  -9   3 -0.6644 1.09390   1
   3   9  -3 0.16295 0.74657   5
  -3  -9   3 0.37469 1.07473   2
  -3  -9   3 -1.5366 0.87133   1
   2   9  -3 0.00097 0.64099   5
   2   9  -3 3.46493 1.24552   1
  -2  -9   3 2.37544 1.45931   2
  -2  -9   3 3.98097 1.55761   1
   1   9  -3 3.06197 1.02288   5
   1   9  -3 4.00250 1.34980   1
  -1  -9   3 2.52277 1.56736   1
  -1  -9   3 3.08450 1.73899   2
   0   9  -3 16.2011 1.97962   5
   0   9  -3 17.1302 2.38189   1
   0   9  -3 15.3676 2.31170   2
   0  -9   3 15.7509 2.79996   1
   0  -9   3 16.9552 2.92707   2
  -1   9  -3 13.6070 2.08063   2
  -1   9  -3 11.4983 2.01354   1
   1  -9   3 12.7537 2.45827   1
   1  -9   3 20.5656 3.28188   2
  -2   9  -3 13.8680 2.20189   1
  -2   9  -3 14.8561 2.11481   2
   2  -9   3 9.45055 2.22444   2
   2  -9   3 15.8739 2.63212   1
  -3   9  -3 6.75280 1.51391   2
  -3   9  -3 5.17794 1.47022   1
   3  -9   3 4.07412 1.55823   2
   3  -9   3 8.36320 2.03926   1
  -4   9  -3 4.74761 1.35039   1
  -4   9  -3 5.08589 1.36561   2
   4  -9   3 6.26957 1.76511   1
   4  -9   3 5.53440 1.70787   2
  -5   9  -3 2.19415 1.12622   1
  -5   9  -3 -0.3226 0.66548   2
   5  -9   3 3.16587 1.40892   1
   5  -9   3 0.70480 1.20314   4
   5  -9   3 0.43776 0.96856   2
  -6   9  -3 0.06232 0.73887   2
  -6   9  -3 0.62237 0.84011   1
   6  -9   3 -0.1046 0.89464   1
   6  -9   3 0.60927 0.71472   4
  -7   9  -3 11.4900 1.90888   2
  -7   9  -3 9.75436 1.84258   1
   7  -9   3 8.05295 1.51942   4
   7  -9   3 9.54086 2.02191   1
  -8   9  -3 1.81196 0.98586   2
  -8   9  -3 1.53896 1.00263   1
   8  -9   3 0.96763 0.80120   4
  -9   9  -3 2.61133 1.07381   2
  -9   9  -3 1.71196 1.01496   1
   9  -9   3 1.54757 0.86367   4
 -10   9  -3 11.0582 1.92608   2
 -10   9  -3 11.9584 2.07361   1
  10  -9   3 14.9288 2.33456   4
 -11   9  -3 -0.1214 0.81574   2
 -11   9  -3 -0.6150 0.64805   1
   6   8  -3 1.40214 1.28688   5
  -6  -8   3 1.14569 1.42260   2
  -6  -8   3 1.96753 1.53540   1
   5   8  -3 0.33023 0.92334   5
  -5  -8   3 0.70484 1.25372   2
  -5  -8   3 3.21714 1.62432   1
   4   8  -3 4.92867 1.38883   5
  -4  -8   3 3.74258 1.64556   2
  -4  -8   3 -0.7343 1.09231   1
   3   8  -3 18.7645 2.38437   5
  -3  -8   3 19.3780 3.11979   2
  -3  -8   3 13.1807 2.56661   1
   2   8  -3 -0.5136 0.45604   5
   2   8  -3 -0.5043 0.60711   1
  -2  -8   3 1.21439 1.11408   1
  -2  -8   3 0.96656 1.22475   2
   1   8  -3 3.82977 1.03358   5
   1   8  -3 3.38210 1.15242   2
   1   8  -3 3.42164 1.24079   1
  -1  -8   3 0.86765 1.21535   2
  -1  -8   3 3.96349 1.59754   1
   0   8  -3 16.8751 2.20147   2
   0   8  -3 20.3596 2.49915   1
   0  -8   3 25.6297 3.48565   2
   0  -8   3 19.8448 2.84522   1
  -1   8  -3 8.32426 1.61855   2
  -1   8  -3 7.62320 1.57966   1
   1  -8   3 10.8892 2.15969   1
   1  -8   3 11.8046 2.36576   2
  -2   8  -3 31.0657 2.91765   2
  -2   8  -3 31.5396 3.05973   1
   2  -8   3 37.9838 3.81158   1
   2  -8   3 34.6792 3.74665   2
  -3   8  -3 3.00118 1.00647   2
  -3   8  -3 1.76596 0.93477   1
   3  -8   3 0.49384 0.86797   1
   3  -8   3 1.19923 1.01299   2
  -4   8  -3 71.1020 4.03156   1
  -4   8  -3 75.6712 3.97562   2
   4  -8   3 83.4491 4.73809   2
   4  -8   3 75.4447 4.53736   1
  -5   8  -3 104.476 4.80676   2
  -5   8  -3 98.0835 5.50023   2
  -5   8  -3 98.3463 4.83787   1
   5  -8   3 104.704 5.36900   1
   5  -8   3 104.551 4.43090   4
   5  -8   3 97.8981 5.19137   2
  -6   8  -3 8.98812 1.55513   2
  -6   8  -3 9.02769 1.67908   1
  -6   8  -3 10.5696 2.06927   2
   6  -8   3 10.6630 1.59358   4
   6  -8   3 10.7500 1.96257   1
   6  -8   3 9.74248 1.84105   2
  -7   8  -3 -0.0036 0.57474   2
  -7   8  -3 -0.3200 0.59124   1
  -7   8  -3 -0.0401 0.89815   1
   7  -8   3 0.20266 0.71644   1
   7  -8   3 0.05595 0.55797   4
  -8   8  -3 33.3862 3.07234   1
  -8   8  -3 32.1692 2.89243   2
   8  -8   3 29.0172 2.80593   4
  -9   8  -3 2.14931 1.01376   1
  -9   8  -3 2.15609 0.90369   2
   9  -8   3 3.29363 1.11233   4
 -10   8  -3 2.61644 1.08033   2
 -10   8  -3 3.11181 1.15663   1
 -11   8  -3 0.49273 0.74547   1
 -11   8  -3 -0.0748 0.65601   2
 -12   8  -3 -0.1594 0.64713   1
 -12   8  -3 1.06280 0.86554   2
   7   7  -3 1.77847 1.21517   5
  -7  -7   3 1.29298 1.44846   2
  -7  -7   3 -0.4761 1.12800   1
   6   7  -3 0.05737 0.79232   5
  -6  -7   3 -0.8918 0.88734   1
  -6  -7   3 -0.5985 0.97792   2
   5   7  -3 16.5113 2.36171   5
  -5  -7   3 15.6292 2.77588   2
  -5  -7   3 16.9922 2.79031   1
   4   7  -3 49.9966 3.23697   5
  -4  -7   3 49.0622 4.77273   2
  -4  -7   3 49.2030 4.54019   1
   3   7  -3 12.3822 1.77674   5
   3   7  -3 10.7884 1.79414   1
  -3  -7   3 11.8552 2.24542   2
  -3  -7   3 12.4531 2.24763   1
   2   7  -3 22.0243 2.43223   1
   2   7  -3 21.0288 2.15814   5
  -2  -7   3 22.7789 3.00758   1
  -2  -7   3 17.9414 2.69789   2
  -2  -7   3 22.5111 2.48131   2
   1   7  -3 1.48401 0.85206   1
   1   7  -3 1.31555 0.64233   5
   1   7  -3 -0.4719 0.49383   2
  -1  -7   3 0.69950 0.87144   1
  -1  -7   3 0.89159 0.74255   2
  -1  -7   3 -0.4044 0.79889   2
   0   7  -3 5.98933 1.35761   1
   0   7  -3 10.2184 1.65419   2
   0  -7   3 5.95218 1.73181   2
   0  -7   3 5.94246 1.61985   1
  -1   7  -3 88.6942 4.21851   2
  -1   7  -3 87.2224 4.30326   1
   1  -7   3 81.8661 4.79956   2
   1  -7   3 87.6251 4.78809   1
  -2   7  -3 105.481 4.83124   1
  -2   7  -3 111.405 4.81942   2
   2  -7   3 117.389 5.61573   2
   2  -7   3 104.119 5.29113   1
  -3   7  -3 99.6181 4.42796   2
  -3   7  -3 100.553 4.55586   1
   3  -7   3 92.2952 4.86902   1
   3  -7   3 95.5427 4.97427   2
  -4   7  -3 238.752 8.06441   1
  -4   7  -3 229.240 7.80802   2
  -4   7  -3 218.509 8.64721   2
   4  -7   3 195.722 7.39863   4
   4  -7   3 232.414 8.46199   2
   4  -7   3 232.040 8.47975   1
  -5   7  -3 3.56479 1.30077   1
  -5   7  -3 7.03429 1.73338   2
  -5   7  -3 4.39568 1.07476   2
  -5   7  -3 5.07770 1.20032   1
   5  -7   3 3.95446 1.26206   1
   5  -7   3 4.87378 1.01124   4
  -6   7  -3 53.3903 3.00101   2
  -6   7  -3 49.1579 3.03081   1
  -6   7  -3 49.1716 3.36126   1
  -6   7  -3 44.1277 3.90372   2
   6  -7   3 49.4060 3.22239   1
   6  -7   3 48.4091 2.81235   4
   6  -7   3 47.0373 2.96127   2
  -7   7  -3 0.76621 0.66751   2
  -7   7  -3 1.16084 0.83258   1
  -7   7  -3 1.55686 0.77459   1
  -7   7  -3 0.89753 0.86004   2
   7  -7   3 0.11266 0.69099   1
   7  -7   3 0.77958 0.66021   4
  -8   7  -3 1.08586 0.76173   1
  -8   7  -3 0.65137 0.65489   2
   8  -7   3 0.69383 0.71455   4
  -9   7  -3 6.48913 1.36913   1
  -9   7  -3 8.97164 1.49078   2
 -10   7  -3 0.56826 0.67283   2
 -10   7  -3 0.75863 0.70805   1
 -11   7  -3 6.20905 1.39302   1
 -11   7  -3 9.25966 1.54678   2
 -12   7  -3 5.42079 1.25434   2
 -12   7  -3 4.36780 1.13849   1
   8   6  -3 -0.8713 0.81847   5
  -8  -6   3 -1.7262 1.14962   3
  -8  -6   3 0.45043 1.27582   1
  -8  -6   3 0.30413 1.29941   2
   7   6  -3 0.37803 0.82976   5
  -7  -6   3 0.53381 1.04505   1
  -7  -6   3 -1.1628 0.80390   3
  -7  -6   3 -0.8905 1.01656   2
   6   6  -3 10.9191 1.98998   5
  -6  -6   3 8.35924 2.01979   1
  -6  -6   3 7.15534 1.90155   2
  -6  -6   3 4.90820 1.42470   3
   5   6  -3 19.9676 2.45470   5
  -5  -6   3 24.6642 3.23649   2
  -5  -6   3 28.2063 2.61663   3
  -5  -6   3 23.9816 3.01574   1
   4   6  -3 24.9474 2.50359   5
   4   6  -3 23.5004 2.32198   1
  -4  -6   3 24.9190 3.06036   2
  -4  -6   3 24.2961 3.08489   1
   3   6  -3 2.74766 0.87433   2
   3   6  -3 3.81463 0.99835   5
   3   6  -3 3.49091 1.02683   1
  -3  -6   3 5.73146 1.51401   1
  -3  -6   3 4.51635 1.12158   2
  -3  -6   3 2.89896 1.20999   2
  -3  -6   3 3.22399 1.09888   1
   2   6  -3 26.9008 2.30488   5
   2   6  -3 21.9138 2.27980   1
  -2  -6   3 22.4675 2.77063   1
  -2  -6   3 27.6033 3.12777   2
  -2  -6   3 23.9363 2.33599   2
  -2  -6   3 22.5701 2.47241   1
   1   6  -3 30.0493 1.90181   5
   1   6  -3 29.2968 2.62691   1
   1   6  -3 33.9461 2.32631   2
  -1  -6   3 30.3993 3.15856   1
  -1  -6   3 34.7984 2.38394   2
  -1  -6   3 32.7275 3.29575   2
   0   6  -3 9.43240 1.48725   2
   0   6  -3 7.13354 1.29904   1
   0  -6   3 10.1298 1.86938   1
   0  -6   3 8.43494 1.72918   2
  -1   6  -3 0.59077 0.59287   2
  -1   6  -3 0.43990 0.57242   1
   1  -6   3 0.59540 0.80287   2
   1  -6   3 0.79214 0.71721   1
  -2   6  -3 102.249 4.41444   1
  -2   6  -3 98.3590 4.25325   2
   2  -6   3 102.290 4.88924   2
  -3   6  -3 37.5801 2.38075   2
  -3   6  -3 31.5443 3.09173   2
  -3   6  -3 41.0104 2.51260   1
  -3   6  -3 38.0291 2.73848   1
   3  -6   3 38.9564 3.35134   1
   3  -6   3 36.5828 3.25602   2
  -4   6  -3 11.3470 1.90639   2
  -4   6  -3 8.50114 1.35099   2
  -4   6  -3 8.03883 1.50839   1
  -4   6  -3 9.75478 1.44444   1
   4  -6   3 10.5913 1.66023   1
   4  -6   3 9.76882 1.59224   2
   4  -6   3 10.5830 1.38140   4
  -5   6  -3 110.942 5.04019   1
  -5   6  -3 115.302 5.26209   2
  -5   6  -3 110.156 4.62896   1
  -5   6  -3 107.819 4.45366   2
   5  -6   3 115.527 4.45586   4
   5  -6   3 107.415 4.68609   2
   5  -6   3 118.804 5.04166   1
  -6   6  -3 15.5709 2.05576   1
  -6   6  -3 17.5780 1.91043   1
  -6   6  -3 18.2262 2.31187   2
  -6   6  -3 16.2187 1.78756   2
   6  -6   3 19.5554 2.14780   1
   6  -6   3 17.9478 1.92877   4
   6  -6   3 17.1713 1.78423   2
  -7   6  -3 15.6355 1.80169   1
  -7   6  -3 13.9589 1.96421   1
  -7   6  -3 13.8369 1.63874   2
  -7   6  -3 13.3661 2.00464   2
   7  -6   3 13.7133 1.78618   4
   7  -6   3 15.4232 1.73538   1
  -8   6  -3 114.083 4.60643   2
  -8   6  -3 110.916 5.24867   2
  -8   6  -3 122.116 4.84659   1
   8  -6   3 116.004 5.14497   4
  -9   6  -3 2.23851 0.80591   2
  -9   6  -3 0.78917 0.64957   1
 -10   6  -3 0.55380 0.60724   2
 -10   6  -3 -0.2151 0.50328   1
 -11   6  -3 0.36314 0.62512   2
 -11   6  -3 0.08269 0.56842   1
 -12   6  -3 1.10416 0.73507   2
 -12   6  -3 1.55182 0.69516   1
   8   5  -3 0.20705 0.84404   5
  -8  -5   3 -1.4995 0.71552   1
  -8  -5   3 -1.0310 0.61554   3
  -8  -5   3 0.53994 0.92933   2
   7   5  -3 1.41114 0.98664   5
  -7  -5   3 0.37610 0.89210   1
  -7  -5   3 0.43016 1.11646   2
  -7  -5   3 0.57080 0.77231   3
   6   5  -3 1.18038 0.86453   5
  -6  -5   3 1.47845 0.89562   3
  -6  -5   3 2.53307 1.15566   1
  -6  -5   3 0.78417 0.94971   2
   5   5  -3 0.41746 0.65438   5
  -5  -5   3 -0.1591 0.78014   2
  -5  -5   3 -0.1620 0.58312   3
  -5  -5   3 1.94944 0.91948   1
   4   5  -3 5.86129 1.23782   5
   4   5  -3 5.95189 0.99840   2
   4   5  -3 8.19430 1.31338   1
  -4  -5   3 6.05461 1.22083   2
  -4  -5   3 5.70771 1.30000   1
  -4  -5   3 6.21309 1.54830   2
  -4  -5   3 6.71208 1.60345   1
  -4  -5   3 7.78453 1.26844   3
   3   5  -3 -0.0462 0.42770   5
   3   5  -3 0.63364 0.52789   2
   3   5  -3 0.13565 0.43106   1
  -3  -5   3 1.07476 0.86469   2
  -3  -5   3 1.79712 0.72449   1
  -3  -5   3 0.59646 0.59650   3
  -3  -5   3 0.12771 0.54152   2
  -3  -5   3 -0.3046 0.60112   1
   2   5  -3 12.7993 1.66596   1
   2   5  -3 10.4906 1.24139   5
  -2  -5   3 10.3604 1.73037   1
  -2  -5   3 6.40382 1.17251   2
  -2  -5   3 10.5498 1.60368   1
  -2  -5   3 8.12110 1.60386   2
   1   5  -3 50.0667 2.25016   5
   1   5  -3 46.9446 2.60730   2
   1   5  -3 49.3922 2.73333   1
  -1  -5   3 42.7493 2.65393   1
  -1  -5   3 42.0918 2.93357   1
  -1  -5   3 46.5809 3.15489   2
  -1  -5   3 45.0396 2.54473   2
   0   5  -3 278.749 8.71144   2
   0   5  -3 283.474 8.83292   1
   0  -5   3 269.581 9.28908   1
   0  -5   3 292.141 9.59586   2
   0  -5   3 273.225 8.62926   2
   0  -5   3 273.858 8.82207   1
  -1   5  -3 222.805 7.25445   1
  -1   5  -3 221.687 7.12490   2
   1  -5   3 212.625 7.72936   2
   1  -5   3 204.206 8.12893   1
  -2   5  -3 17.1773 1.76641   2
  -2   5  -3 18.9056 2.21901   2
  -2   5  -3 14.1934 1.65782   1
  -2   5  -3 12.3844 1.72415   1
   2  -5   3 15.0826 1.91855   2
   2  -5   3 18.7422 2.23808   1
  -3   5  -3 14.5729 1.86193   1
  -3   5  -3 14.8715 1.92960   2
  -3   5  -3 17.2204 1.70727   2
  -3   5  -3 19.5840 1.88731   1
   3  -5   3 19.4589 2.12388   1
   3  -5   3 17.5675 2.06581   2
   3  -5   3 8.14882 1.31762   4
  -4   5  -3 1.68329 0.65879   1
  -4   5  -3 2.38411 0.74449   2
  -4   5  -3 4.55950 1.09997   1
  -4   5  -3 2.11105 0.89024   2
   4  -5   3 3.56907 0.95059   2
   4  -5   3 3.10673 0.74388   4
   4  -5   3 4.10149 1.10352   1
  -5   5  -3 133.568 4.79380   2
  -5   5  -3 132.304 5.44320   2
  -5   5  -3 129.527 4.87576   1
  -5   5  -3 131.729 5.29973   1
   5  -5   3 127.047 4.74985   2
   5  -5   3 130.583 4.83653   4
   5  -5   3 141.636 5.20939   1
  -6   5  -3 12.3372 1.70462   1
  -6   5  -3 11.7396 1.67821   2
  -6   5  -3 13.7020 1.56809   1
  -6   5  -3 11.9661 1.37983   2
   6  -5   3 15.9262 1.72184   4
  -7   5  -3 36.1625 2.20675   1
  -7   5  -3 32.1022 1.98680   2
  -7   5  -3 36.2222 2.44764   1
  -7   5  -3 35.2450 2.47841   2
   7  -5   3 34.4733 2.39337   4
   7  -5   3 33.8150 1.64139   1
  -8   5  -3 427.505 12.9261   1
  -8   5  -3 441.443 12.3652   2
  -8   5  -3 440.877 12.5146   1
  -8   5  -3 430.277 13.1265   2
  -9   5  -3 97.3415 4.03327   1
  -9   5  -3 101.379 3.97843   2
  -9   5  -3 99.3706 4.55146   2
 -10   5  -3 5.99723 1.07243   1
 -10   5  -3 5.47830 1.01215   2
 -11   5  -3 0.75525 0.59107   2
 -11   5  -3 0.05474 0.45829   1
 -12   5  -3 1.58795 0.66735   2
   9   4  -3 28.2621 3.45560   5
  -9  -4   3 34.5681 3.30872   3
  -9  -4   3 37.6039 3.63157   1
  -9  -4   3 29.4769 3.41938   2
   8   4  -3 -0.3646 0.64300   5
  -8  -4   3 -1.0583 0.74062   2
  -8  -4   3 -0.4072 0.72048   1
  -8  -4   3 -0.8422 0.57794   3
   7   4  -3 8.31206 1.69789   5
  -7  -4   3 8.13968 1.73410   2
  -7  -4   3 5.73333 1.29964   3
  -7  -4   3 6.45566 1.61914   1
   6   4  -3 22.3690 2.53326   5
  -6  -4   3 26.2956 3.03526   2
  -6  -4   3 25.2513 2.73129   1
  -6  -4   3 23.3598 2.29430   3
   5   4  -3 56.5958 2.66229   1
   5   4  -3 51.4553 3.04154   5
  -5  -4   3 55.2417 3.09472   1
  -5  -4   3 57.6249 3.01995   2
  -5  -4   3 61.9693 3.03525   3
  -5  -4   3 56.4287 3.58504   2
  -5  -4   3 64.2304 3.66259   1
   4   4  -3 40.4969 2.38315   5
   4   4  -3 32.3906 1.83196   2
   4   4  -3 36.6053 2.12681   1
  -4  -4   3 31.5955 1.99573   3
  -4  -4   3 29.8814 2.92642   2
  -4  -4   3 34.1948 2.20895   2
  -4  -4   3 34.6083 2.31014   1
  -4  -4   3 38.9380 2.72937   1
   3   4  -3 0.62076 0.43224   2
   3   4  -3 0.37275 0.43297   1
   3   4  -3 0.67951 0.47976   5
  -3  -4   3 -0.2928 0.34199   3
  -3  -4   3 -0.1316 0.52873   1
  -3  -4   3 0.02020 0.58550   2
  -3  -4   3 0.07302 0.43864   1
  -3  -4   3 -0.2804 0.37389   2
   2   4  -3 176.068 5.56837   5
   2   4  -3 166.579 5.92580   1
  -2  -4   3 184.708 5.56026   3
  -2  -4   3 176.610 5.96149   2
  -2  -4   3 165.188 6.54381   2
  -2  -4   3 171.695 6.03845   1
  -2  -4   3 184.016 6.60374   1
   1   4  -3 249.028 7.09979   5
   1   4  -3 249.784 7.68673   2
   1   4  -3 239.056 7.67859   1
  -1  -4   3 248.374 7.67271   2
  -1  -4   3 250.583 7.81457   1
  -1  -4   3 251.010 8.40631   2
  -1  -4   3 236.582 8.18473   1
   0   4  -3 11.7481 1.40741   2
   0   4  -3 9.29923 1.25780   1
   0   4  -3 12.3394 1.59802   1
   0  -4   3 12.4426 1.37907   2
   0  -4   3 10.9468 1.38000   1
   0  -4   3 11.0770 1.60970   1
   0  -4   3 12.1979 1.68961   2
  -1   4  -3 76.5628 3.25149   2
  -1   4  -3 80.0492 3.67568   1
  -1   4  -3 82.9430 3.40623   1
  -1   4  -3 73.6465 3.66643   2
   1  -4   3 81.0875 3.71355   1
   1  -4   3 73.8236 3.64406   2
   1  -4   3 73.9826 3.15121   2
   1  -4   3 78.8379 3.33005   1
  -2   4  -3 22.8492 2.14585   1
  -2   4  -3 26.9772 2.49461   2
  -2   4  -3 24.2001 1.62463   2
  -2   4  -3 24.8155 1.70291   1
   2  -4   3 23.7075 1.65241   1
   2  -4   3 20.3381 1.98678   1
   2  -4   3 29.6160 2.46539   2
  -3   4  -3 64.0086 2.85129   1
  -3   4  -3 64.7058 3.15642   1
  -3   4  -3 67.1640 3.25681   2
  -3   4  -3 61.2451 2.72993   2
   3  -4   3 60.0993 2.60569   4
   3  -4   3 58.8983 2.96759   1
   3  -4   3 60.3503 3.03899   1
  -4   4  -3 20.7223 2.10298   2
  -4   4  -3 19.8079 1.75808   1
  -4   4  -3 20.3090 1.44133   2
  -4   4  -3 21.7289 2.02371   1
   4  -4   3 21.1559 1.46379   4
   4  -4   3 20.8788 1.93321   1
   4  -4   3 22.5450 1.57070   2
  -5   4  -3 0.77536 0.55063   1
  -5   4  -3 -0.3597 0.29783   1
  -5   4  -3 0.38898 0.46543   2
  -5   4  -3 0.14328 0.35537   2
   5  -4   3 0.13897 0.17962   1
   5  -4   3 0.50519 0.43981   4
   5  -4   3 0.08578 0.28312   2
  -6   4  -3 61.2421 2.98913   2
  -6   4  -3 56.6239 2.64774   1
  -6   4  -3 59.4556 2.57961   2
  -6   4  -3 58.5098 2.93075   1
   6  -4   3 54.8729 2.92585   4
   6  -4   3 56.3624 2.24168   1
  -7   4  -3 7.11573 1.02596   1
  -7   4  -3 7.67458 1.22238   1
  -7   4  -3 7.07815 1.17852   2
  -7   4  -3 7.22181 0.97687   2
  -8   4  -3 34.9975 2.26508   2
  -8   4  -3 31.1183 2.09994   1
  -8   4  -3 35.5912 1.92197   2
  -8   4  -3 38.4179 2.07144   1
  -9   4  -3 4.32149 0.81227   2
  -9   4  -3 4.55261 0.89626   1
  -9   4  -3 5.25238 1.09597   2
 -10   4  -3 16.7976 1.52090   1
 -10   4  -3 13.9610 1.66452   2
 -10   4  -3 15.2217 1.47121   2
 -11   4  -3 0.23711 0.50227   2
 -11   4  -3 0.12902 0.67787   1
 -12   4  -3 -0.0624 0.50076   2
  10   3  -3 -0.5740 0.82372   5
 -10  -3   3 0.88910 1.00556   1
 -10  -3   3 1.34151 1.02623   3
 -10  -3   3 1.22302 1.14131   2
   9   3  -3 37.5112 3.71384   5
  -9  -3   3 35.4558 3.32518   1
  -9  -3   3 27.3560 2.86105   3
  -9  -3   3 31.1385 3.18056   2
   8   3  -3 1.57727 0.90456   5
  -8  -3   3 -0.3389 0.66477   2
  -8  -3   3 1.75657 0.85366   3
  -8  -3   3 1.08277 0.87525   1
   7   3  -3 25.9636 2.73282   5
  -7  -3   3 25.7355 2.68222   1
  -7  -3   3 24.0741 2.37913   3
  -7  -3   3 25.3453 2.66135   2
  -7  -3   3 26.5783 2.29819   2
   6   3  -3 7.33269 1.44369   5
  -6  -3   3 11.2632 1.52341   1
  -6  -3   3 7.87963 1.49740   2
  -6  -3   3 11.5451 1.79484   1
  -6  -3   3 9.61291 1.43869   3
  -6  -3   3 9.13469 1.33255   2
   5   3  -3 0.44498 0.38807   1
   5   3  -3 0.39789 0.55323   5
  -5  -3   3 0.22295 0.46586   2
  -5  -3   3 0.22571 0.63043   1
  -5  -3   3 0.08637 0.56870   2
  -5  -3   3 0.38004 0.43784   1
  -5  -3   3 0.49866 0.52016   3
   4   3  -3 58.8868 2.76756   5
   4   3  -3 50.1080 2.19923   2
   4   3  -3 54.1943 2.48800   1
  -4  -3   3 54.3699 2.72214   1
  -4  -3   3 57.7154 3.14152   2
  -4  -3   3 52.9908 2.64710   2
  -4  -3   3 56.9475 2.60530   3
  -4  -3   3 57.8970 3.13025   1
   3   3  -3 58.3089 2.54757   5
   3   3  -3 52.2434 2.42498   2
   3   3  -3 58.1585 2.59595   1
  -3  -3   3 51.9592 2.58360   2
  -3  -3   3 58.9412 3.10187   2
  -3  -3   3 58.3400 2.48408   3
  -3  -3   3 57.4297 2.72422   1
  -3  -3   3 49.8021 2.88715   1
   2   3  -3 56.6006 2.66489   1
   2   3  -3 55.8333 2.34842   5
   2   3  -3 56.7120 3.13942   1
  -2  -3   3 57.2374 2.70792   1
  -2  -3   3 52.9388 2.92910   1
  -2  -3   3 57.6254 3.05789   2
  -2  -3   3 57.7432 2.65078   2
  -2  -3   3 71.9596 2.50041   3
   1   3  -3 470.347 12.8168   2
   1   3  -3 466.708 12.1588   5
   1   3  -3 472.181 13.2636   1
   1   3  -3 446.902 12.8266   1
   1   3  -3 470.958 12.5234   3
  -1  -3   3 469.683 12.2080   3
  -1  -3   3 474.589 13.4494   2
  -1  -3   3 465.485 12.8143   2
  -1  -3   3 455.675 12.8647   1
   0   3  -3 567.732 15.7806   1
   0   3  -3 583.594 14.6457   3
   0   3  -3 578.033 15.3952   1
   0   3  -3 608.198 15.4358   2
   0  -3   3 586.794 15.9243   2
   0  -3   3 517.788 15.7080   1
   0  -3   3 559.025 15.3617   1
   0  -3   3 567.877 15.2896   2
  -1   3  -3 8.25017 1.29841   2
  -1   3  -3 8.22771 1.04649   2
  -1   3  -3 10.5606 1.38867   1
  -1   3  -3 10.1764 1.21656   1
   1  -3   3 8.82515 1.28068   1
   1  -3   3 8.76101 1.08193   1
   1  -3   3 9.03717 1.05915   2
   1  -3   3 7.58335 1.20416   2
  -2   3  -3 2.99947 0.86315   1
  -2   3  -3 3.55201 0.70504   1
  -2   3  -3 4.16822 0.77769   2
  -2   3  -3 3.33755 0.82274   2
   2  -3   3 3.10576 0.77530   2
   2  -3   3 4.15291 0.76224   1
   2  -3   3 2.68520 0.76852   1
  -3   3  -3 12.3672 1.20281   2
  -3   3  -3 10.9066 1.33096   1
  -3   3  -3 10.4709 1.12570   1
  -3   3  -3 10.9228 1.31887   2
   3  -3   3 11.9934 1.41621   1
   3  -3   3 13.0205 1.24237   1
   3  -3   3 11.9606 1.24819   2
   3  -3   3 12.3481 1.18288   4
  -4   3  -3 149.945 5.04825   4
  -4   3  -3 155.387 5.34632   1
  -4   3  -3 160.342 4.90012   2
  -4   3  -3 157.804 4.99710   1
  -4   3  -3 141.750 5.17957   2
   4  -3   3 152.427 5.02441   1
   4  -3   3 153.803 4.76504   1
   4  -3   3 155.172 5.13982   4
   4  -3   3 156.438 4.63618   2
  -5   3  -3 69.1466 3.11620   1
  -5   3  -3 70.5111 2.86333   1
  -5   3  -3 71.6269 3.08061   2
  -5   3  -3 76.1583 2.80076   2
   5  -3   3 73.5926 2.47658   1
   5  -3   3 71.8298 2.58184   1
   5  -3   3 78.9163 3.33354   4
  -6   3  -3 67.7862 2.92239   1
  -6   3  -3 64.3988 2.49777   2
  -6   3  -3 61.5386 2.77688   2
  -6   3  -3 57.2672 2.51538   1
  -7   3  -3 0.91140 0.44543   1
  -7   3  -3 1.27758 0.58252   1
  -7   3  -3 0.58716 0.38356   2
  -7   3  -3 0.33515 0.43536   2
  -8   3  -3 4.24715 0.71211   2
  -8   3  -3 5.17686 0.82594   1
  -8   3  -3 3.25424 0.79358   2
  -8   3  -3 4.30114 0.85710   1
  -9   3  -3 0.62011 0.41793   1
  -9   3  -3 1.03090 0.45367   2
  -9   3  -3 0.88163 0.54437   2
 -10   3  -3 8.46270 1.01829   2
 -10   3  -3 8.78935 0.96166   1
 -10   3  -3 9.66812 1.23702   2
 -11   3  -3 0.00258 0.38503   2
  10   2  -3 1.70640 1.06797   5
 -10  -2   3 2.54343 1.08845   2
 -10  -2   3 1.79911 1.04547   3
 -10  -2   3 1.45689 0.97174   1
   9   2  -3 14.6804 2.32732   5
  -9  -2   3 18.7119 2.28589   2
  -9  -2   3 21.7034 2.43067   1
  -9  -2   3 23.5002 2.59133   3
   8   2  -3 38.5762 3.46848   5
  -8  -2   3 34.1196 2.97605   2
  -8  -2   3 35.8719 2.59870   1
  -8  -2   3 32.6287 2.16977   2
  -8  -2   3 36.1843 3.07080   3
   7   2  -3 5.89079 1.35745   5
  -7  -2   3 5.39174 1.27977   2
  -7  -2   3 5.93949 1.05602   2
  -7  -2   3 6.04225 1.55710   1
  -7  -2   3 5.80143 1.18880   3
  -7  -2   3 6.25067 1.30546   1
   6   2  -3 120.560 4.99501   5
  -6  -2   3 126.103 4.83901   3
  -6  -2   3 118.504 4.50504   2
  -6  -2   3 127.313 4.59924   1
  -6  -2   3 126.368 5.03983   2
  -6  -2   3 128.228 5.07021   1
   5   2  -3 0.36405 0.33712   1
   5   2  -3 -0.1084 0.42760   5
  -5  -2   3 -0.1916 0.50968   2
  -5  -2   3 0.09811 0.47167   1
  -5  -2   3 0.02641 0.42614   3
  -5  -2   3 0.46722 0.44341   1
  -5  -2   3 -0.4426 0.29501   2
   4   2  -3 41.6647 2.22509   5
   4   2  -3 44.9661 1.79716   2
  -4  -2   3 43.1502 2.21278   1
  -4  -2   3 45.9477 2.54401   2
  -4  -2   3 45.7542 2.22552   3
  -4  -2   3 46.7110 2.23263   2
  -4  -2   3 41.7380 2.45307   1
   3   2  -3 120.747 3.99283   2
   3   2  -3 114.564 4.04858   1
   3   2  -3 118.389 4.30052   1
   3   2  -3 118.060 4.05040   5
  -3  -2   3 122.442 4.03142   3
  -3  -2   3 127.534 4.22957   2
  -3  -2   3 113.713 4.51294   2
  -3  -2   3 120.147 4.21172   1
  -3  -2   3 122.205 4.57866   1
   2   2  -3 169.894 5.81568   1
   2   2  -3 182.228 5.62084   1
   2   2  -3 188.127 5.29331   5
  -2  -2   3 179.794 5.64757   1
  -2  -2   3 180.204 5.20867   5
  -2  -2   3 175.393 5.99130   2
  -2  -2   3 180.396 5.27040   3
  -2  -2   3 174.624 5.59605   2
   1   2  -3 3556.46 86.3828   2
   1   2  -3 3380.45 90.5429   1
   1   2  -3 3478.35 87.7022   5
   1   2  -3 3481.69 90.1481   1
   1   2  -3 3577.76 88.7634   3
   1   2  -3 3547.86 91.4724   2
  -1  -2   3 3364.59 86.9228   2
  -1  -2   3 3562.78 88.9074   3
  -1  -2   3 3403.53 94.3481   2
  -1  -2   3 3405.81 94.4090   1
  -1  -2   3 3594.74 91.4911   1
   0   2  -3 1.09780 0.47888   1
   0   2  -3 1.55716 0.33797   3
   0   2  -3 1.95207 0.63833   2
   0   2  -3 1.93589 0.67861   1
   0   2  -3 1.58180 0.53577   2
   0  -2   3 2.06253 0.69117   2
   0  -2   3 1.57687 0.51516   2
   0  -2   3 1.80042 0.55182   1
   0  -2   3 1.96616 0.67988   1
  -1   2  -3 52.0089 2.55757   1
  -1   2  -3 61.2378 2.69984   2
  -1   2  -3 60.0431 2.42259   2
  -1   2  -3 55.8936 2.40530   1
   1  -2   3 59.9872 2.39240   1
   1  -2   3 57.7459 2.66153   1
   1  -2   3 57.9972 2.60540   2
   1  -2   3 58.2758 2.32587   2
  -2   2  -3 161.412 5.02030   1
  -2   2  -3 163.560 4.96218   2
  -2   2  -3 153.008 5.24756   1
  -2   2  -3 169.614 5.34098   2
  -2   2  -3 161.442 4.49310   5
   2  -2   3 162.358 4.95223   1
   2  -2   3 158.761 5.24281   1
   2  -2   3 162.234 4.86602   4
  -3   2  -3 33.8369 1.68162   1
  -3   2  -3 32.7596 1.79638   2
  -3   2  -3 35.1858 1.70216   4
  -3   2  -3 34.9738 1.54626   5
  -3   2  -3 34.4575 1.63459   2
  -3   2  -3 30.9596 1.82019   1
   3  -2   3 34.1231 1.56520   1
   3  -2   3 32.2417 1.52092   2
   3  -2   3 34.4591 1.72636   4
   3  -2   3 34.6311 1.78463   1
  -4   2  -3 21.1688 1.45021   1
  -4   2  -3 23.0998 1.33832   1
  -4   2  -3 23.6029 1.43909   2
  -4   2  -3 22.1104 1.25208   2
  -4   2  -3 21.1150 1.42327   4
   4  -2   3 21.5957 1.19452   1
   4  -2   3 21.4968 1.07256   1
   4  -2   3 20.6778 1.45565   4
  -5   2  -3 1.23232 0.49107   1
  -5   2  -3 1.58682 0.43577   2
  -5   2  -3 0.95628 0.37453   1
  -5   2  -3 1.33078 0.46236   2
  -6   2  -3 0.61122 0.36294   2
  -6   2  -3 -0.0493 0.23713   1
  -6   2  -3 0.07574 0.25019   2
  -6   2  -3 0.30558 0.39352   1
   6  -2   3 0.35549 0.45797   5
  -7   2  -3 121.931 3.92724   1
  -7   2  -3 121.929 3.80207   2
  -7   2  -3 115.523 3.97509   2
  -7   2  -3 114.920 4.08979   1
   7  -2   3 123.395 4.82855   5
  -8   2  -3 41.4965 1.94481   2
  -8   2  -3 38.3663 1.74573   2
  -8   2  -3 38.6689 1.79925   1
  -8   2  -3 38.3596 1.95948   1
  -9   2  -3 0.16274 0.31597   1
  -9   2  -3 -0.1410 0.29471   2
  -9   2  -3 -0.4729 0.36740   2
 -10   2  -3 4.43220 1.15326   3
 -10   2  -3 4.37452 0.72987   2
 -10   2  -3 4.25450 0.75555   2
 -11   2  -3 0.18275 0.51366   2
 -11   2  -3 1.34734 0.49930   2
 -11   2  -3 0.78416 0.80691   3
  11   1  -3 2.40953 1.35416   5
 -11  -1   3 2.70039 1.21477   3
 -11  -1   3 2.79746 1.15494   2
  10   1  -3 15.5397 2.41586   5
 -10  -1   3 18.4417 2.15752   2
 -10  -1   3 22.0823 2.23394   1
 -10  -1   3 20.4728 2.57967   3
   9   1  -3 0.01995 0.68377   5
  -9  -1   3 1.26000 0.86904   3
  -9  -1   3 0.26854 0.69675   2
  -9  -1   3 0.70542 0.60765   2
  -9  -1   3 0.79373 0.65653   1
   8   1  -3 18.7668 2.29142   5
  -8  -1   3 19.6160 1.82367   2
  -8  -1   3 23.6147 2.23814   2
  -8  -1   3 19.9261 2.20952   3
  -8  -1   3 21.2218 2.16523   1
   7   1  -3 29.1823 2.70043   5
  -7  -1   3 25.6093 2.27439   2
  -7  -1   3 27.3699 1.75457   2
  -7  -1   3 27.1142 1.73572   1
  -7  -1   3 27.1717 2.33065   1
  -7  -1   3 29.2024 2.47136   3
   6   1  -3 49.0714 2.71527   5
  -6  -1   3 44.8370 2.24854   1
  -6  -1   3 45.5469 2.22917   2
  -6  -1   3 43.5522 2.50248   1
  -6  -1   3 46.6414 2.54135   2
   5   1  -3 67.7190 3.12922   5
   5   1  -3 71.5467 2.47551   1
  -5  -1   3 71.7207 2.93507   1
  -5  -1   3 71.2841 3.07398   3
  -5  -1   3 76.6477 3.28805   1
  -5  -1   3 74.1978 2.93148   2
  -5  -1   3 72.4747 3.19686   2
   4   1  -3 0.27236 0.24012   1
   4   1  -3 0.67038 0.43773   5
   4   1  -3 1.74924 0.37444   2
   4   1  -3 1.31278 0.46666   1
  -4  -1   3 1.57868 0.51173   3
  -4  -1   3 1.74345 0.51262   2
  -4  -1   3 1.08297 0.54490   1
  -4  -1   3 2.28444 0.66803   2
  -4  -1   3 0.91657 0.43060   1
   3   1  -3 217.487 6.27636   1
   3   1  -3 217.034 6.14951   2
   3   1  -3 217.144 6.23182   5
   3   1  -3 203.743 6.39975   1
  -3  -1   3 217.803 6.69194   2
  -3  -1   3 206.178 6.64276   1
  -3  -1   3 210.269 6.21262   3
  -3  -1   3 214.157 6.36074   1
  -3  -1   3 212.366 6.34659   2
  -3  -1   3 209.907 6.18647   5
   2   1  -3 60.9705 2.78129   2
   2   1  -3 53.7666 2.00692   5
   2   1  -3 58.3377 2.53612   1
   2   1  -3 55.8349 2.31310   1
  -2  -1   3 59.3052 2.61175   2
  -2  -1   3 54.8547 2.32264   1
  -2  -1   3 52.4485 2.53599   1
  -2  -1   3 56.8730 2.07607   3
  -2  -1   3 56.6289 2.00552   5
  -2  -1   3 55.8383 2.32484   2
   1   1  -3 107.864 3.65977   2
   1   1  -3 107.986 3.04639   5
   1   1  -3 100.212 3.81552   1
   1   1  -3 115.724 3.71690   1
   1   1  -3 103.833 3.85097   2
  -1  -1   3 105.912 3.15687   3
  -1  -1   3 110.174 3.02537   5
  -1  -1   3 114.953 4.03295   1
  -1  -1   3 108.373 3.91197   2
  -1  -1   3 108.264 3.65593   2
  -1  -1   3 112.428 3.69165   1
   0   1  -3 25.9509 1.43598   2
   0   1  -3 27.5050 1.49551   1
   0   1  -3 26.3758 1.62800   2
   0   1  -3 28.4412 0.95783   3
   0   1  -3 27.2680 1.65729   1
   0   1  -3 27.2939 0.74976   5
   0  -1   3 25.3810 1.39796   2
   0  -1   3 26.9419 0.93181   3
   0  -1   3 25.2894 1.41562   1
   0  -1   3 25.7876 1.59645   2
   0  -1   3 25.7084 1.62548   1
  -1   1  -3 3.59621 0.31295   5
  -1   1  -3 4.27019 0.68528   2
  -1   1  -3 3.30594 0.67653   2
  -1   1  -3 4.13688 0.69401   1
  -1   1  -3 3.04089 0.68155   1
   1  -1   3 3.20994 0.71382   1
   1  -1   3 3.41492 0.57734   2
   1  -1   3 3.91152 0.63164   1
   1  -1   3 4.14110 0.54709   4
   1  -1   3 3.61000 0.67756   2
  -2   1  -3 15.6652 0.82179   5
  -2   1  -3 16.5945 1.05731   2
  -2   1  -3 16.2015 1.06674   1
  -2   1  -3 15.8606 0.97565   4
  -2   1  -3 16.5771 1.17130   2
  -2   1  -3 14.1543 1.31767   1
   2  -1   3 14.5336 0.79972   5
   2  -1   3 16.3228 1.01273   4
   2  -1   3 15.1207 0.97182   1
   2  -1   3 15.8914 0.92662   2
   2  -1   3 14.2147 1.25699   1
   2  -1   3 16.2018 1.02193   2
  -3   1  -3 34.5655 1.55931   5
  -3   1  -3 33.2173 1.58431   1
  -3   1  -3 32.7201 1.74751   1
  -3   1  -3 31.2247 1.64510   4
  -3   1  -3 35.4501 1.56596   2
  -3   1  -3 37.1601 1.70561   2
   3  -1   3 31.8529 1.39690   1
   3  -1   3 36.3012 1.59795   5
   3  -1   3 31.7980 1.52510   1
   3  -1   3 35.1307 1.21990   2
   3  -1   3 35.2457 1.76184   4
  -4   1  -3 0.57053 0.42556   4
  -4   1  -3 0.59784 0.38510   1
  -4   1  -3 0.86395 0.32368   2
  -4   1  -3 0.08489 0.26716   1
  -4   1  -3 0.44121 0.33674   2
   4  -1   3 0.68664 0.19177   1
   4  -1   3 0.45302 0.15779   1
   4  -1   3 0.77535 0.45478   5
  -5   1  -3 21.1219 1.19904   2
  -5   1  -3 21.7383 1.22241   1
  -5   1  -3 19.3893 1.31777   1
  -5   1  -3 19.9834 1.12176   2
   5  -1   3 19.2871 1.71538   5
  -6   1  -3 7.25709 0.82763   2
  -6   1  -3 6.41404 0.74190   2
  -6   1  -3 7.01905 0.96068   1
  -6   1  -3 6.73534 0.80428   1
   6  -1   3 7.58898 1.23079   5
  -7   1  -3 23.0553 1.34602   1
  -7   1  -3 27.0602 1.54444   1
  -7   1  -3 25.5332 1.32410   2
  -7   1  -3 23.9809 1.34661   2
   7  -1   3 24.1874 2.32352   5
  -8   1  -3 0.55559 0.61745   3
  -8   1  -3 1.45021 0.47176   2
  -8   1  -3 1.19957 0.49462   1
  -8   1  -3 2.12014 0.50073   2
   8  -1   3 3.15168 1.13653   5
  -9   1  -3 27.9373 2.48223   3
  -9   1  -3 29.8341 1.60901   2
  -9   1  -3 29.1706 1.58495   2
   9  -1   3 37.9237 3.55648   5
 -10   1  -3 3.62447 0.73340   2
 -10   1  -3 4.68180 0.79497   2
 -10   1  -3 3.97061 1.09141   3
  10  -1   3 4.62038 1.35268   5
 -11   1  -3 3.32427 0.69933   2
 -11   1  -3 5.88155 1.34794   3
 -11   0   3 0.54321 0.74375   2
 -11   0   3 0.71328 0.90482   3
  10   0  -3 18.2664 2.51110   5
 -10   0   3 11.0288 1.57280   2
 -10   0   3 15.0468 1.70357   1
 -10   0   3 10.8628 1.90789   3
   9   0  -3 4.98431 1.30405   5
  -9   0   3 4.11301 0.99964   1
  -9   0   3 1.60873 0.95301   3
  -9   0   3 3.63930 0.78132   2
  -9   0   3 4.51549 1.04852   2
   8   0  -3 17.1898 2.11185   5
  -8   0   3 21.0947 1.75297   1
  -8   0   3 20.2310 1.95312   1
  -8   0   3 19.6006 1.90045   2
  -8   0   3 16.0991 2.00508   3
  -8   0   3 17.9966 1.60262   2
   7   0  -3 3.02572 0.98349   5
  -7   0   3 2.58274 0.82072   1
  -7   0   3 3.07210 0.67852   1
  -7   0   3 2.44298 0.73388   2
  -7   0   3 1.37950 0.51977   2
   6   0  -3 36.0553 2.20615   5
  -6   0   3 32.3015 2.00916   1
  -6   0   3 34.5296 1.83298   1
  -6   0   3 38.3511 2.10110   2
  -6   0   3 36.4941 1.86848   2
   5   0  -3 86.7216 3.44538   5
   5   0  -3 84.5372 2.72264   1
  -5   0   3 84.2936 3.11764   2
  -5   0   3 82.7799 3.38621   1
  -5   0   3 84.1671 3.15232   1
  -5   0   3 85.7997 3.36338   2
   4   0  -3 2.74332 0.60960   5
   4   0  -3 3.60564 0.64912   1
   4   0  -3 4.40641 0.52969   2
  -4   0   3 3.58369 0.68389   1
  -4   0   3 3.32497 0.63799   2
  -4   0   3 4.78789 0.81585   2
  -4   0   3 1.82567 0.60071   1
   3   0  -3 19.1465 1.15259   2
   3   0  -3 17.2636 1.07110   5
   3   0  -3 16.4900 1.23508   1
  -3   0   3 19.3377 1.39736   1
  -3   0   3 18.2990 1.19219   2
  -3   0   3 17.5636 1.18883   1
  -3   0   3 18.6516 1.55131   2
  -3   0   3 18.4259 1.10910   5
   2   0  -3 553.273 14.2323   1
   2   0  -3 533.042 13.7359   5
   2   0  -3 532.998 14.4584   1
   2   0  -3 529.339 14.3622   2
  -2   0   3 557.674 14.4779   2
  -2   0   3 547.093 14.2406   1
  -2   0   3 538.846 14.2337   2
  -2   0   3 529.669 13.7498   5
   1   0  -3 10.4549 1.15901   2
   1   0  -3 8.09793 0.89316   2
   1   0  -3 9.50998 1.11186   1
   1   0  -3 7.13725 0.86229   1
  -1   0   3 9.34252 0.48539   5
  -1   0   3 9.89449 1.19036   1
  -1   0   3 9.21762 0.97275   2
  -1   0   3 9.45574 1.00443   1
  -1   0   3 8.65981 1.02201   2
   0   0  -3 1702.94 46.4041   1
   0   0  -3 1805.30 47.2840   1
   0   0  -3 1832.63 46.1661   2
   0   0  -3 1727.25 45.8759   2
   0   0   3 1685.71 45.4155   1
   0   0   3 1789.13 44.2649   2
   0   0   3 1792.45 45.3110   4
   0   0   3 1830.52 46.7156   1
   0   0   3 1822.64 45.5625   2
  -1   0  -3 278.181 7.66909   2
  -1   0  -3 270.929 7.67800   1
  -1   0  -3 271.984 7.73861   2
  -1   0  -3 275.250 7.28635   4
  -1   0  -3 276.745 7.94763   1
  -1   0  -3 277.530 7.05710   5
   1   0   3 279.108 7.87022   1
   1   0   3 271.430 7.07072   5
   1   0   3 271.496 7.61504   1
   1   0   3 278.033 7.30417   4
   1   0   3 261.919 7.52400   2
  -2   0  -3 50.3717 2.24991   1
  -2   0  -3 53.2826 2.14193   2
  -2   0  -3 51.3848 2.11372   1
  -2   0  -3 49.0153 2.05047   2
  -2   0  -3 50.8138 1.85121   5
  -2   0  -3 51.3770 2.02158   4
  -2   0  -3 50.8209 1.57037   3
   2   0   3 50.1887 1.96850   1
   2   0   3 52.6109 2.14712   1
   2   0   3 51.1472 1.89239   5
   2   0   3 51.0203 1.87338   2
  -3   0  -3 -0.0697 0.27859   1
  -3   0  -3 0.41007 0.23921   3
  -3   0  -3 -0.0004 0.24534   2
  -3   0  -3 0.02253 0.27703   4
  -3   0  -3 -0.0149 0.24126   2
  -3   0  -3 -0.1879 0.31244   1
  -3   0  -3 0.51689 0.32578   5
   3   0   3 0.04981 0.24377   1
   3   0   3 -0.3055 0.29157   5
   3   0   3 -0.0723 0.20106   1
  -4   0  -3 22.7215 1.25256   2
  -4   0  -3 23.0793 1.44086   1
  -4   0  -3 24.8410 1.30883   2
  -4   0  -3 25.5753 1.38019   1
  -4   0  -3 24.6114 1.24123   3
   4   0   3 26.4026 1.57999   5
  -5   0  -3 49.4785 2.29545   1
  -5   0  -3 52.2899 2.11075   2
  -5   0  -3 53.6680 2.08929   2
  -5   0  -3 56.3436 2.26741   3
   5   0   3 52.1099 2.61485   5
  -6   0  -3 56.3057 2.24042   2
  -6   0  -3 60.3518 2.56069   1
  -6   0  -3 60.1847 2.34170   2
  -6   0  -3 59.7069 2.59882   3
   6   0   3 53.8586 2.94922   5
  -7   0  -3 0.10021 0.33103   2
  -7   0  -3 -0.2381 0.31260   1
  -7   0  -3 -0.1703 0.31106   2
  -7   0  -3 -0.2916 0.40377   3
   7   0   3 0.28705 0.65346   5
  -8   0  -3 5.83734 0.82339   2
  -8   0  -3 6.67955 0.92844   2
  -8   0  -3 5.77294 1.13070   3
   8   0   3 5.25755 1.30311   5
  -9   0  -3 0.71786 0.46424   2
  -9   0  -3 0.40835 0.42670   1
  -9   0  -3 0.44913 0.47423   2
  -9   0  -3 1.21533 0.71578   3
   9   0   3 -0.4621 0.59922   5
 -10   0  -3 0.68028 0.72244   3
 -10   0  -3 0.53735 0.59286   2
  10   0   3 1.79688 1.15009   5
 -12   1   3 3.53910 1.34518   3
 -12   1   3 2.65062 0.92086   2
 -11   1   3 6.07881 1.53462   3
 -11   1   3 2.87578 0.93318   2
 -11   1   3 4.19569 0.94783   1
 -10   1   3 5.39167 1.07930   2
 -10   1   3 5.36301 1.05126   1
 -10   1   3 4.44707 0.87797   2
  -9   1   3 -0.0806 0.49295   1
  -9   1   3 -0.6250 0.45371   2
  -9   1   3 -0.5755 0.36596   2
   8  -1  -3 0.16824 0.56162   5
  -8   1   3 -0.6655 0.34171   2
  -8   1   3 -0.1072 0.33773   1
  -8   1   3 0.19988 0.40674   2
  -8   1   3 -0.0790 0.42999   1
   7  -1  -3 22.0355 2.13221   5
  -7   1   3 21.2841 1.86229   1
  -7   1   3 21.0816 1.41249   1
  -7   1   3 20.1862 1.74889   2
  -7   1   3 19.9246 1.38028   2
   6  -1  -3 1.55581 0.62076   5
  -6   1   3 1.90933 0.53196   2
  -6   1   3 1.33220 0.58877   1
  -6   1   3 1.66537 0.51350   1
  -6   1   3 1.43797 0.57378   2
   5  -1  -3 13.3992 0.91970   1
  -5   1   3 12.4333 1.26750   2
  -5   1   3 14.3901 1.43861   1
  -5   1   3 13.6192 1.25773   1
  -5   1   3 12.9056 1.26523   2
   4  -1  -3 8.12169 0.99553   1
   4  -1  -3 8.12013 0.81489   2
  -4   1   3 8.15599 1.02016   2
  -4   1   3 9.27993 1.01211   2
  -4   1   3 7.21087 0.92263   1
  -4   1   3 7.66015 1.04871   1
   3  -1  -3 30.6710 1.60905   2
   3  -1  -3 31.2201 1.75590   1
  -3   1   3 32.7357 1.67829   1
  -3   1   3 32.7735 1.75158   2
  -3   1   3 31.6930 1.69196   2
  -3   1   3 33.6666 1.53360   5
  -3   1   3 33.8357 1.87563   1
   2  -1  -3 1.24832 0.49020   2
   2  -1  -3 0.60838 0.46325   1
   2  -1  -3 1.26467 0.51091   2
  -2   1   3 0.34636 0.36421   1
  -2   1   3 1.43447 0.52986   2
  -2   1   3 0.38702 0.46883   1
  -2   1   3 0.33607 0.38795   2
   1  -1  -3 -1.6068 0.32903   2
   1  -1  -3 -1.3178 0.44711   1
   1  -1  -3 -1.8437 0.34822   2
  -1   1   3 -1.7849 0.32626   2
  -1   1   3 -0.9536 0.42413   2
  -1   1   3 -2.0370 0.27448   1
  -1   1   3 -1.7027 0.43667   1
   0  -1  -3 578.369 15.4795   2
   0  -1  -3 577.079 15.0570   4
   0  -1  -3 595.585 15.7344   1
   0  -1  -3 596.595 15.5417   2
   0   1   3 584.824 15.4555   1
   0   1   3 589.084 15.4029   2
   0   1   3 605.800 15.7062   1
   0   1   3 587.113 15.4522   2
  -1  -1  -3 5.98050 0.80778   2
  -1  -1  -3 4.92923 0.80937   1
  -1  -1  -3 4.18467 0.53330   4
  -1  -1  -3 5.73084 0.80551   2
   1   1   3 3.78325 0.70046   1
   1   1   3 2.11579 0.46081   2
   1   1   3 4.75867 0.39407   3
   1   1   3 6.32901 0.79483   2
   1   1   3 6.13756 0.60887   5
   1   1   3 4.54315 0.69336   1
  -2  -1  -3 259.554 7.60036   1
  -2  -1  -3 260.046 7.30607   2
  -2  -1  -3 255.917 7.10086   5
  -2  -1  -3 257.698 6.72987   3
  -2  -1  -3 259.216 7.38150   2
   2   1   3 259.512 6.97955   2
   2   1   3 249.469 7.27534   1
   2   1   3 256.122 7.15892   5
   2   1   3 252.131 7.20392   1
  -3  -1  -3 8.61729 0.77773   3
  -3  -1  -3 9.57704 0.99618   2
  -3  -1  -3 9.85276 1.02706   2
  -3  -1  -3 8.07341 1.05476   1
   3   1   3 9.73749 1.09452   5
   3   1   3 9.30008 0.85134   1
   3   1   3 9.08044 0.46078   2
   3   1   3 11.1992 0.95226   1
  -4  -1  -3 24.0306 1.43860   2
  -4  -1  -3 23.9686 1.37329   2
  -4  -1  -3 26.7415 1.60679   1
  -4  -1  -3 23.8689 1.29602   3
   4   1   3 24.7211 1.63850   5
   4   1   3 23.3541 0.82230   1
   4   1   3 23.8555 0.82760   1
  -5  -1  -3 7.51992 0.95713   2
  -5  -1  -3 7.00486 0.99533   1
  -5  -1  -3 6.88622 0.88259   2
  -5  -1  -3 6.08550 0.85982   3
   5   1   3 6.37578 1.12163   5
  -6  -1  -3 64.6987 2.83470   3
  -6  -1  -3 69.0230 2.84821   2
  -6  -1  -3 63.7938 2.62739   2
  -6  -1  -3 64.2182 2.92132   1
   6   1   3 68.9578 3.46632   5
  -7  -1  -3 133.966 4.66030   2
  -7  -1  -3 131.963 4.74813   1
  -7  -1  -3 134.068 4.84436   3
  -7  -1  -3 122.614 4.37356   2
   7   1   3 134.037 5.57611   5
  -8  -1  -3 2.05714 0.68653   2
  -8  -1  -3 3.09888 0.90433   3
  -8  -1  -3 3.15067 0.79325   1
  -8  -1  -3 3.19462 0.73604   2
   8   1   3 3.28117 1.13858   5
  -9  -1  -3 0.33086 0.58059   3
  -9  -1  -3 1.50734 0.73972   2
  -9  -1  -3 0.55683 0.63329   2
  -9  -1  -3 1.17747 0.56819   1
   9   1   3 -0.3499 0.69279   5
 -10  -1  -3 1.30530 0.64476   2
 -10  -1  -3 1.96212 0.92150   3
  10   1   3 2.02708 1.11770   5
 -12   2   3 -0.5647 0.85384   3
 -12   2   3 -0.9162 0.53498   2
 -11   2   3 12.2149 1.48131   1
 -11   2   3 13.5647 1.59543   2
 -10   2   3 0.10589 0.47186   2
 -10   2   3 -0.1516 0.46805   2
 -10   2   3 0.36481 0.56243   1
  -9   2   3 6.15647 0.98877   2
  -9   2   3 8.61526 1.25468   1
  -9   2   3 9.87645 1.31244   2
  -8   2   3 0.35723 0.48629   2
  -8   2   3 0.23878 0.48736   1
  -8   2   3 0.28793 0.41681   2
  -8   2   3 0.06772 0.39021   1
  -7   2   3 11.5127 1.27535   2
  -7   2   3 12.4530 1.45511   1
  -7   2   3 11.0035 1.27506   2
  -7   2   3 10.3029 1.21635   1
   6  -2  -3 26.7893 1.15221   1
   6  -2  -3 24.5731 1.09270   1
  -6   2   3 26.2711 1.76556   1
  -6   2   3 24.7178 1.63016   2
  -6   2   3 26.9912 1.63057   2
   5  -2  -3 0.69064 0.37296   1
   5  -2  -3 0.93789 0.33351   2
   5  -2  -3 1.10867 0.47745   1
  -5   2   3 1.25995 0.54464   2
  -5   2   3 0.93190 0.48982   2
  -5   2   3 0.85004 0.60044   1
   4  -2  -3 42.6890 2.16541   1
   4  -2  -3 47.0073 2.06219   2
  -4   2   3 45.8039 2.31509   1
  -4   2   3 42.9907 2.16725   2
  -4   2   3 44.9626 2.16702   2
   3  -2  -3 10.1549 1.25774   1
  -3   2   3 11.2621 1.21680   2
  -3   2   3 10.0099 1.16408   2
  -3   2   3 10.5057 1.27679   1
   2  -2  -3 581.908 15.8469   1
   2  -2  -3 578.410 15.6175   2
   2  -2  -3 575.265 15.6779   2
  -2   2   3 574.400 14.6004   4
  -2   2   3 599.754 15.9055   1
  -2   2   3 599.235 15.6103   2
  -2   2   3 600.658 15.7153   2
   1  -2  -3 0.51529 0.09776   4
   1  -2  -3 0.37127 0.38143   2
   1  -2  -3 0.51207 0.44321   2
   1  -2  -3 0.37631 0.48794   1
  -1   2   3 -0.1789 0.32002   2
  -1   2   3 0.47467 0.44000   2
  -1   2   3 1.58335 0.62749   1
   0  -2  -3 425.936 12.1983   1
   0  -2  -3 420.993 12.0620   2
   0  -2  -3 441.225 11.9492   2
   0   2   3 464.100 12.1819   1
   0   2   3 431.692 11.9918   2
   0   2   3 437.813 11.8156   2
  -1  -2  -3 6.68608 1.04377   1
  -1  -2  -3 6.82184 1.05483   2
  -1  -2  -3 7.22569 0.98564   2
   1   2   3 6.81442 0.76316   5
   1   2   3 7.48531 0.65707   3
   1   2   3 5.70955 0.88928   1
   1   2   3 4.29772 0.68367   2
  -2  -2  -3 247.651 7.39726   2
  -2  -2  -3 242.702 7.47058   1
  -2  -2  -3 239.571 7.15266   2
   2   2   3 247.961 7.16801   1
   2   2   3 239.626 7.12677   1
   2   2   3 239.587 6.65649   3
   2   2   3 243.797 6.81295   2
   2   2   3 246.213 7.05536   5
  -3  -2  -3 45.2211 1.83139   3
  -3  -2  -3 43.2559 2.08519   2
  -3  -2  -3 42.4847 2.28857   1
  -3  -2  -3 44.2435 2.25887   2
   3   2   3 45.7673 1.57100   2
   3   2   3 40.8907 2.13072   5
   3   2   3 43.0553 1.94581   1
  -4  -2  -3 0.98594 0.52596   2
  -4  -2  -3 1.30751 0.49930   2
  -4  -2  -3 0.94474 0.51122   1
  -4  -2  -3 0.56555 0.38255   3
   4   2   3 0.39285 0.49294   5
   4   2   3 1.64428 0.35916   1
   4   2   3 1.32475 0.34763   1
  -5  -2  -3 0.01108 0.40099   1
  -5  -2  -3 0.02265 0.35720   2
  -5  -2  -3 0.08879 0.42980   2
  -5  -2  -3 0.58901 0.40611   3
   5   2   3 0.54369 0.60899   5
  -6  -2  -3 3.49245 0.89844   1
  -6  -2  -3 2.93107 0.78432   3
  -6  -2  -3 2.80181 0.82277   2
  -6  -2  -3 3.76179 0.76966   2
   6   2   3 4.26039 1.17329   5
  -7  -2  -3 39.8787 2.22774   2
  -7  -2  -3 38.1123 2.35919   1
  -7  -2  -3 35.4727 2.37038   2
  -7  -2  -3 44.0414 2.44887   3
   7   2   3 41.8946 3.48911   5
  -8  -2  -3 0.00642 0.59540   2
  -8  -2  -3 0.06558 0.54505   1
  -8  -2  -3 -0.2717 0.53686   3
   8   2   3 -0.4323 0.78873   5
  -9  -2  -3 0.65804 0.61509   1
  -9  -2  -3 1.08477 0.69895   3
  -9  -2  -3 0.50205 0.73094   2
   9   2   3 0.83414 1.00038   5
 -10  -2  -3 -0.6687 0.70922   2
 -10  -2  -3 1.19702 0.72865   3
  10   2   3 0.27830 1.06221   5
 -12   3   3 0.24660 0.62743   2
 -11   3   3 1.61261 0.68451   1
 -11   3   3 2.46985 0.79250   2
 -10   3   3 2.05385 0.74930   2
 -10   3   3 3.28771 0.83343   2
 -10   3   3 1.86219 0.70753   1
  -9   3   3 15.2285 1.64825   2
  -9   3   3 16.5560 1.75740   1
  -9   3   3 16.1799 1.65773   2
  -8   3   3 7.90531 1.13755   2
  -8   3   3 8.84750 1.24920   2
  -8   3   3 10.0197 1.40806   1
  -7   3   3 -0.0279 0.40674   2
  -7   3   3 0.44694 0.47754   2
  -7   3   3 0.85041 0.52853   1
   6  -3  -3 65.2414 2.56036   1
  -6   3   3 65.7044 2.96649   2
  -6   3   3 60.7703 2.69927   4
  -6   3   3 65.2761 3.07841   1
  -6   3   3 65.9101 2.91552   2
   5  -3  -3 481.301 13.0917   1
   5  -3  -3 477.635 12.9426   2
   5  -3  -3 468.052 13.6625   1
  -5   3   3 482.115 13.2358   2
  -5   3   3 476.381 13.3854   2
  -5   3   3 479.132 13.5191   1
  -5   3   3 490.476 12.7661   4
   4  -3  -3 0.84756 0.44790   1
   4  -3  -3 2.12903 0.71534   1
   4  -3  -3 2.67268 0.70948   2
  -4   3   3 0.96187 0.52248   2
  -4   3   3 1.80045 0.70760   1
  -4   3   3 1.09258 0.53362   2
  -4   3   3 1.64087 0.36612   4
   3  -3  -3 808.263 21.5227   2
   3  -3  -3 793.572 21.5975   1
  -3   3   3 807.672 21.3162   2
  -3   3   3 831.232 21.6458   1
  -3   3   3 817.819 20.1923   4
  -3   3   3 828.406 21.5886   2
   2  -3  -3 173.228 5.54615   2
   2  -3  -3 156.826 5.70095   1
   2  -3  -3 173.147 5.73196   2
   2  -3  -3 168.456 4.27770   4
   2  -3  -3 165.287 5.69623   2
  -2   3   3 180.594 5.80324   1
  -2   3   3 153.772 5.37851   2
  -2   3   3 159.905 5.58761   2
   1  -3  -3 899.359 23.1672   2
   1  -3  -3 848.551 23.4212   1
   1  -3  -3 919.814 23.5249   2
   1  -3  -3 922.498 23.5083   2
  -1   3   3 899.996 23.3604   1
  -1   3   3 857.824 22.9878   2
  -1   3   3 870.463 23.3358   2
   0  -3  -3 6.05469 0.98037   2
   0  -3  -3 4.69882 0.92799   1
   0  -3  -3 4.88360 0.94010   2
   0   3   3 5.55348 0.95873   1
   0   3   3 6.13037 0.91356   2
  -1  -3  -3 60.5957 2.87683   2
  -1  -3  -3 54.8505 2.78659   1
  -1  -3  -3 53.6676 2.54743   2
   1   3   3 53.9821 2.02182   3
   1   3   3 53.8446 2.23829   5
   1   3   3 51.6430 2.56002   1
  -2  -3  -3 108.380 4.34127   2
  -2  -3  -3 111.626 4.06934   2
  -2  -3  -3 103.316 4.30556   1
   2   3   3 111.334 3.92962   5
   2   3   3 113.266 3.77413   2
   2   3   3 114.105 4.05984   1
  -3  -3  -3 78.1435 3.28822   2
  -3  -3  -3 79.9910 3.59950   2
  -3  -3  -3 82.8587 3.65518   1
   3   3   3 85.6982 3.45700   5
   3   3   3 77.2277 3.08455   1
   3   3   3 80.5641 2.73776   2
  -4  -3  -3 4.67266 1.02512   2
  -4  -3  -3 3.62905 0.91892   1
  -4  -3  -3 6.16764 1.01718   2
  -4  -3  -3 3.32582 0.76947   3
   4   3   3 3.85294 0.93170   5
   4   3   3 3.46305 0.62197   1
  -5  -3  -3 56.1812 3.05206   1
  -5  -3  -3 60.8493 2.71519   3
  -5  -3  -3 58.3099 2.85331   2
  -5  -3  -3 58.5684 3.13236   1
  -5  -3  -3 60.0231 3.19286   2
  -5  -3  -3 64.9240 3.25677   2
   5   3   3 60.1941 3.24054   5
  -6  -3  -3 44.0833 2.48305   2
  -6  -3  -3 39.9392 2.71968   2
  -6  -3  -3 47.6739 2.80766   1
  -6  -3  -3 47.6082 2.50738   3
  -6  -3  -3 44.9657 2.82936   2
   6   3   3 37.0649 3.24797   5
  -7  -3  -3 3.48507 1.10058   2
  -7  -3  -3 3.44828 0.92007   3
  -7  -3  -3 2.36668 0.91161   1
   7   3   3 0.55615 0.75117   5
  -8  -3  -3 40.2269 2.73429   1
  -8  -3  -3 38.5234 3.29750   2
  -8  -3  -3 37.4894 2.98878   3
   8   3   3 38.0973 3.77734   5
  -9  -3  -3 4.69916 1.20862   3
  -9  -3  -3 3.51769 1.08844   1
  -9  -3  -3 2.99610 1.26836   2
   9   3   3 2.79141 1.31255   5
 -12   4   3 3.26417 0.93821   1
 -12   4   3 1.13981 0.70093   2
 -11   4   3 1.46464 0.77517   1
 -11   4   3 -0.2952 0.50663   2
 -10   4   3 0.39881 0.50039   2
 -10   4   3 0.38668 0.57996   1
 -10   4   3 0.16684 0.52601   2
  -9   4   3 0.11424 0.50500   2
  -9   4   3 0.49458 0.55306   2
  -9   4   3 0.76291 0.59559   1
  -8   4   3 -0.3407 0.47132   2
  -8   4   3 -0.3272 0.40707   1
  -8   4   3 -0.1235 0.40236   2
   7  -4  -3 10.7985 1.16089   1
  -7   4   3 11.6558 1.54946   2
  -7   4   3 12.8206 1.47519   2
  -7   4   3 13.1713 1.60777   1
   6  -4  -3 24.3062 1.63384   1
   6  -4  -3 21.5417 1.45706   2
  -6   4   3 18.4491 1.93083   2
  -6   4   3 23.4228 1.43105   4
  -6   4   3 18.4163 1.76130   2
  -6   4   3 23.9463 2.23699   1
  -6   4   3 21.7019 2.07545   2
   5  -4  -3 52.5961 2.66698   2
   5  -4  -3 53.9581 2.66808   1
  -5   4   3 52.7415 2.81750   2
  -5   4   3 54.1390 2.66535   2
  -5   4   3 54.8376 2.14885   4
  -5   4   3 52.4346 2.82489   1
  -5   4   3 52.0237 2.81204   2
   4  -4  -3 21.0510 1.92385   1
  -4   4   3 23.0766 1.23973   4
  -4   4   3 22.3463 1.97651   2
  -4   4   3 20.8871 2.00577   2
  -4   4   3 23.7179 2.17994   1
  -4   4   3 21.0488 2.07541   2
   3  -4  -3 72.7377 3.49569   1
   3  -4  -3 71.9643 3.36762   1
   3  -4  -3 76.2304 3.50097   2
   3  -4  -3 75.5931 2.29652   4
  -3   4   3 75.2400 3.50614   2
  -3   4   3 76.3661 3.23823   2
  -3   4   3 74.1140 3.41639   1
   2  -4  -3 27.1600 2.37394   2
   2  -4  -3 29.2984 2.01883   1
   2  -4  -3 28.8613 2.44501   2
   2  -4  -3 26.5168 2.38498   1
  -2   4   3 26.4632 2.33193   2
  -2   4   3 28.1385 1.80844   2
  -2   4   3 27.3044 1.99688   1
   1  -4  -3 204.229 7.17846   2
   1  -4  -3 208.792 7.22025   1
   1  -4  -3 216.669 6.96403   2
  -1   4   3 225.855 6.82565   2
  -1   4   3 208.209 7.05176   1
   0  -4  -3 42.4234 2.54403   2
   0  -4  -3 37.6449 2.42864   2
   0  -4  -3 36.5654 2.39341   1
   0  -4  -3 34.5361 2.15009   2
   0   4   3 39.0573 2.32894   1
   0   4   3 42.5709 2.17227   2
  -1  -4  -3 340.157 10.3870   1
  -1  -4  -3 332.522 10.4078   2
  -1  -4  -3 329.608 10.3584   2
  -1  -4  -3 341.225 9.95658   2
   1   4   3 316.199 9.89915   1
   1   4   3 341.550 9.49498   5
  -2  -4  -3 6.94316 1.24016   1
  -2  -4  -3 6.59287 1.24377   1
  -2  -4  -3 7.68612 1.20485   2
  -2  -4  -3 7.04126 1.29790   2
  -2  -4  -3 4.58021 1.08595   2
   2   4   3 6.46335 0.92102   2
   2   4   3 6.76459 1.04505   5
   2   4   3 8.40452 1.20402   1
  -3  -4  -3 155.541 5.92211   1
  -3  -4  -3 155.758 6.00640   2
  -3  -4  -3 168.340 6.15555   2
  -3  -4  -3 141.572 5.47352   2
  -3  -4  -3 157.208 5.96747   1
   3   4   3 156.824 5.57447   5
   3   4   3 155.313 4.88326   2
   3   4   3 153.464 5.29699   1
  -4  -4  -3 41.7111 2.47111   2
  -4  -4  -3 41.1152 2.78588   2
  -4  -4  -3 38.4979 2.63106   1
  -4  -4  -3 38.6262 2.64751   1
   4   4   3 39.2803 2.03599   1
   4   4   3 39.8020 2.54394   5
  -5  -4  -3 9.19855 1.53667   1
  -5  -4  -3 14.1237 1.74941   2
  -5  -4  -3 12.9381 1.85837   2
   5   4   3 8.76936 1.60979   5
  -6  -4  -3 2.12853 0.99852   1
  -6  -4  -3 1.47359 0.81886   2
   6   4   3 2.03300 0.99624   5
  -7  -4  -3 0.73274 0.78833   1
  -7  -4  -3 0.88841 0.93061   2
   7   4   3 1.54724 0.97927   5
  -8  -4  -3 0.39243 0.87852   1
  -8  -4  -3 1.89466 1.14691   2
   8   4   3 1.69323 1.02085   5
 -12   5   3 1.37380 0.81358   1
 -12   5   3 1.89205 0.92001   2
 -11   5   3 4.63236 1.09444   2
 -11   5   3 3.05335 0.99717   1
 -10   5   3 0.91543 0.74336   1
 -10   5   3 1.51123 0.70939   2
  -9   5   3 131.258 5.42697   2
  -9   5   3 132.244 5.35211   1
  -9   5   3 130.177 5.14225   2
   8  -5  -3 9.91397 1.17963   1
  -8   5   3 10.1790 1.43695   2
  -8   5   3 8.34765 1.51426   1
  -8   5   3 7.53915 1.45667   2
  -8   5   3 8.94547 1.56765   2
   7  -5  -3 9.40660 1.32761   1
  -7   5   3 8.52124 1.32528   2
  -7   5   3 7.80355 1.39577   1
  -7   5   3 7.92092 1.45048   2
  -7   5   3 6.52963 1.35769   2
   6  -5  -3 52.6739 2.77387   2
   6  -5  -3 53.0846 2.83756   1
  -6   5   3 52.3298 3.04164   2
  -6   5   3 54.4618 2.82771   2
  -6   5   3 51.3696 3.01458   2
  -6   5   3 54.1287 3.03510   1
  -6   5   3 47.4990 2.19130   4
   5  -5  -3 30.2417 2.18136   1
   5  -5  -3 28.8686 2.57268   2
  -5   5   3 28.9202 2.63319   2
  -5   5   3 31.8724 2.76284   2
  -5   5   3 35.2706 2.19202   2
  -5   5   3 32.7954 2.32370   1
   4  -5  -3 282.751 8.99142   2
   4  -5  -3 264.009 8.74796   1
   4  -5  -3 274.767 7.39504   4
  -4   5   3 266.725 8.78892   1
  -4   5   3 267.588 8.98161   2
  -4   5   3 272.910 8.48304   2
  -4   5   3 269.763 8.99699   2
   3  -5  -3 143.719 4.09632   4
   3  -5  -3 140.023 5.64544   2
   3  -5  -3 134.916 5.42160   1
  -3   5   3 144.077 5.48911   1
  -3   5   3 133.787 5.51970   2
  -3   5   3 145.281 5.21381   2
  -3   5   3 133.547 5.53430   2
   2  -5  -3 131.323 5.43938   2
   2  -5  -3 129.567 5.29707   1
  -2   5   3 141.134 5.03867   2
  -2   5   3 129.265 5.19876   1
   1  -5  -3 66.1204 3.48822   1
   1  -5  -3 70.8636 3.71012   2
   1  -5  -3 63.7975 3.49529   1
   1  -5  -3 71.6389 3.37800   2
  -1   5   3 65.2089 3.10261   2
  -1   5   3 69.9264 3.44681   1
   0  -5  -3 598.124 17.3464   2
   0  -5  -3 630.618 18.0443   2
   0  -5  -3 624.617 17.9210   1
   0  -5  -3 636.937 17.8977   1
   0   5   3 632.815 17.5673   1
   0   5   3 637.425 17.1916   2
  -1  -5  -3 21.5414 2.30072   1
  -1  -5  -3 19.3081 2.30517   2
  -1  -5  -3 23.7908 2.20498   2
  -1  -5  -3 19.3962 2.14910   1
   1   5   3 22.0095 2.15100   1
   1   5   3 22.9677 1.89817   5
  -2  -5  -3 71.8611 3.91668   2
  -2  -5  -3 70.1054 3.76986   1
  -2  -5  -3 70.1705 3.81102   1
  -2  -5  -3 73.2087 3.55745   2
   2   5   3 67.0786 3.33602   1
   2   5   3 72.5291 3.13634   2
   2   5   3 73.0449 3.30301   5
  -3  -5  -3 -0.1365 0.66898   2
  -3  -5  -3 -0.1047 0.60189   1
  -3  -5  -3 0.32626 0.56874   2
  -3  -5  -3 -0.2259 0.58277   1
   3   5   3 0.43340 0.48955   1
   3   5   3 0.41540 0.41758   2
   3   5   3 -0.2719 0.43570   5
  -4  -5  -3 0.22516 0.61706   1
  -4  -5  -3 0.38615 0.58170   2
  -4  -5  -3 -0.5356 0.58145   2
   4   5   3 0.02017 0.37717   1
   4   5   3 0.07883 0.53103   5
  -5  -5  -3 2.77731 1.16677   2
  -5  -5  -3 2.78709 1.12022   1
   5   5   3 3.17214 1.07746   5
  -6  -5  -3 -0.0046 0.87912   2
  -6  -5  -3 0.10709 0.77335   1
   6   5   3 -0.5484 0.62344   5
  -7  -5  -3 -0.0787 0.83487   1
  -7  -5  -3 1.36311 1.07510   2
   7   5   3 1.50170 1.08881   5
  -8  -5  -3 4.17196 1.59774   2
  -8  -5  -3 6.28882 1.51224   1
   8   5   3 2.57223 1.39211   5
 -12   6   3 0.07659 0.64232   1
 -12   6   3 -0.2990 0.59086   2
 -11   6   3 1.97501 0.82549   2
 -11   6   3 0.32345 0.70466   1
 -10   6   3 0.09303 0.62965   2
 -10   6   3 -0.9588 0.55340   1
  -9   6   3 102.662 4.56459   2
  -9   6   3 104.957 4.85593   1
  -8   6   3 136.434 5.90844   2
  -8   6   3 139.388 5.51974   2
  -8   6   3 143.057 5.84839   1
  -8   6   3 144.688 6.02297   2
   7  -6  -3 0.87452 0.66110   1
   7  -6  -3 0.17481 0.63426   2
  -7   6   3 0.80165 0.70655   2
  -7   6   3 1.74597 0.83071   1
  -7   6   3 0.80807 0.73107   2
  -7   6   3 0.62305 0.58607   2
   6  -6  -3 2.67039 0.91049   1
   6  -6  -3 2.72490 0.93663   2
  -6   6   3 1.44456 0.90513   2
  -6   6   3 1.88384 0.90289   2
  -6   6   3 2.45491 0.80727   2
  -6   6   3 1.37540 0.88399   1
   5  -6  -3 6.28177 1.33170   2
   5  -6  -3 8.73032 1.45636   1
   5  -6  -3 7.23397 0.86245   4
  -5   6   3 6.98253 1.43720   1
  -5   6   3 7.11584 1.27636   2
  -5   6   3 6.79412 1.41308   2
  -5   6   3 7.33493 1.46372   2
   4  -6  -3 484.913 14.4766   2
   4  -6  -3 472.924 12.3997   4
   4  -6  -3 474.946 14.2429   1
  -4   6   3 461.084 14.3775   2
  -4   6   3 478.729 13.7692   2
  -4   6   3 471.225 14.1349   1
  -4   6   3 462.264 14.3856   2
   3  -6  -3 29.0806 2.85488   2
   3  -6  -3 34.7639 3.08844   1
  -3   6   3 34.5526 2.95669   1
  -3   6   3 28.0791 2.45978   2
   2  -6  -3 102.478 4.93908   2
   2  -6  -3 97.2135 4.67281   1
  -2   6   3 104.928 4.33953   2
  -2   6   3 99.5294 4.54137   1
   1  -6  -3 52.3371 3.29175   1
   1  -6  -3 47.0366 3.29753   2
  -1   6   3 49.2172 2.80532   2
  -1   6   3 55.4376 3.19277   1
   0  -6  -3 19.4377 2.44698   2
   0  -6  -3 28.8108 2.89000   1
   0  -6  -3 31.7874 2.81699   2
   0   6   3 27.6655 2.69560   1
   0   6   3 24.3544 2.26530   2
  -1  -6  -3 7.56923 1.59770   1
  -1  -6  -3 4.68766 1.26591   2
  -1  -6  -3 6.25792 1.44781   1
  -1  -6  -3 4.51377 1.15412   2
   1   6   3 7.24003 1.19081   5
   1   6   3 4.82575 1.14771   1
  -2  -6  -3 157.969 6.74383   2
  -2  -6  -3 136.446 5.84502   2
  -2  -6  -3 144.345 6.36377   1
  -2  -6  -3 155.600 6.48718   1
   2   6   3 146.421 5.59699   5
   2   6   3 149.931 5.44046   2
   2   6   3 157.444 5.89884   1
  -3  -6  -3 5.11912 1.59216   1
  -3  -6  -3 4.30548 1.41996   2
  -3  -6  -3 7.64088 1.64839   1
   3   6   3 3.30375 1.01072   5
   3   6   3 5.43585 1.17172   1
  -4  -6  -3 2.65852 1.27853   1
  -4  -6  -3 4.26444 1.38087   2
   4   6   3 3.55037 1.14885   5
  -5  -6  -3 6.61501 1.66978   1
  -5  -6  -3 2.97061 1.33227   2
   5   6   3 3.54959 1.19406   5
  -6  -6  -3 4.51967 1.59392   2
  -6  -6  -3 4.60867 1.44453   1
   6   6   3 5.23167 1.55036   5
  -7  -6  -3 -1.1475 0.91273   2
  -7  -6  -3 -0.4335 0.81570   1
   7   6   3 -0.3720 0.77391   5
 -12   7   3 0.20199 0.64737   2
 -12   7   3 1.32570 0.87167   1
 -11   7   3 0.38117 0.73529   1
 -11   7   3 1.43824 0.78662   2
 -10   7   3 5.31085 1.26747   2
 -10   7   3 6.93377 1.53008   1
  -9   7   3 53.1445 3.22674   2
  -9   7   3 53.2465 3.45155   1
   8  -7  -3 68.9590 3.67598   1
  -8   7   3 67.6658 3.63742   2
  -8   7   3 64.5129 3.82839   1
   7  -7  -3 42.6339 2.97212   2
   7  -7  -3 40.8417 2.91082   1
  -7   7   3 40.8910 3.64617   2
  -7   7   3 47.0129 2.93004   2
  -7   7   3 42.1020 3.75003   2
  -7   7   3 44.6914 3.08484   1
   6  -7  -3 3.41271 0.72527   4
   6  -7  -3 0.34092 0.46267   2
   6  -7  -3 2.62161 1.01080   1
  -6   7   3 2.52010 1.07791   1
  -6   7   3 5.70224 1.48788   2
  -6   7   3 3.70051 1.00595   2
  -6   7   3 2.47353 1.14452   2
   5  -7  -3 -0.3097 0.56867   2
   5  -7  -3 0.23930 0.29749   4
   5  -7  -3 0.69475 0.72947   1
  -5   7   3 0.07350 0.62471   1
  -5   7   3 -0.5847 0.57028   2
  -5   7   3 0.38136 0.58423   2
  -5   7   3 0.17584 0.60233   2
   4  -7  -3 0.31694 0.56842   4
   4  -7  -3 1.79012 0.89471   1
   4  -7  -3 0.78773 0.88784   2
  -4   7   3 -0.0047 0.52769   2
  -4   7   3 -0.2790 0.59082   1
   3  -7  -3 1.89201 0.99578   2
   3  -7  -3 2.39886 1.02951   1
  -3   7   3 3.44922 1.13478   1
  -3   7   3 2.99042 0.98886   2
   2  -7  -3 101.419 5.26024   2
   2  -7  -3 110.414 5.29530   1
  -2   7   3 98.8859 4.56038   2
  -2   7   3 107.560 4.95548   1
   1  -7  -3 13.0727 2.18842   2
   1  -7  -3 17.5290 2.40606   1
  -1   7   3 15.2341 1.88907   2
  -1   7   3 15.2775 2.19236   1
   0  -7  -3 1.61485 0.87651   2
   0  -7  -3 0.53441 0.80324   1
   0  -7  -3 -0.5079 0.76444   2
   0   7   3 -0.6557 0.37011   2
   0   7   3 -0.5069 0.57189   1
  -1  -7  -3 1.15199 1.01391   2
  -1  -7  -3 2.21240 1.02452   2
  -1  -7  -3 1.98803 1.10819   1
   1   7   3 0.08078 0.38110   2
   1   7   3 2.05932 0.79609   5
   1   7   3 2.56838 1.05685   1
  -2  -7  -3 0.79780 0.93532   1
  -2  -7  -3 0.41158 0.86846   2
   2   7   3 0.34245 0.65495   1
   2   7   3 0.30131 0.60641   5
  -3  -7  -3 12.1462 2.31303   2
  -3  -7  -3 13.4603 2.43693   1
   3   7   3 15.0604 2.07505   5
  -4  -7  -3 14.5379 2.56397   1
  -4  -7  -3 16.2796 2.76879   2
   4   7   3 17.7874 2.38242   5
  -5  -7  -3 4.75838 1.58085   1
  -5  -7  -3 4.18315 1.67425   2
   5   7   3 4.37803 1.42096   5
  -6  -7  -3 1.02275 1.09173   1
  -6  -7  -3 0.38390 1.11214   2
   6   7   3 0.24384 0.94726   5
 -12   8   3 17.0029 2.35402   2
 -12   8   3 17.5186 2.41393   1
 -11   8   3 13.2029 2.06341   2
 -11   8   3 13.1108 2.16657   1
 -10   8   3 3.04465 1.13272   2
 -10   8   3 2.64950 1.21416   1
  -9   8   3 6.95738 1.49358   2
  -9   8   3 6.64984 1.58372   1
   8  -8  -3 8.25896 1.67845   1
  -8   8   3 7.06149 1.62386   1
  -8   8   3 8.47022 1.62347   2
   7  -8  -3 3.28675 1.19794   1
   7  -8  -3 3.69440 0.84418   4
  -7   8   3 2.07699 0.97030   2
  -7   8   3 1.66690 1.04931   1
   6  -8  -3 82.1658 3.37844   4
   6  -8  -3 91.8981 4.96262   2
   6  -8  -3 89.5080 4.83069   1
  -6   8   3 87.7522 5.02350   2
  -6   8   3 84.8745 4.95722   2
  -6   8   3 93.6680 4.49080   2
  -6   8   3 88.6346 4.66331   1
   5  -8  -3 54.8480 3.86362   2
   5  -8  -3 56.5157 3.78098   1
   5  -8  -3 55.8561 2.47231   4
  -5   8   3 61.1179 3.77380   1
  -5   8   3 52.7275 3.26233   2
   4  -8  -3 103.512 5.32309   1
   4  -8  -3 107.702 5.53457   2
  -4   8   3 99.9207 4.71071   2
  -4   8   3 90.5839 4.88208   1
   3  -8  -3 3.27533 1.26616   1
   3  -8  -3 3.55377 1.36994   2
  -3   8   3 4.47770 1.19810   2
  -3   8   3 3.60982 1.16685   1
   2  -8  -3 34.0111 3.74499   2
   2  -8  -3 22.2533 2.91026   1
  -2   8   3 26.3928 2.90671   1
  -2   8   3 29.1766 2.87709   2
   1  -8  -3 3.96848 1.35890   1
   1  -8  -3 3.37240 1.38479   2
  -1   8   3 3.90378 1.28470   1
  -1   8   3 3.43182 1.10652   2
   0  -8  -3 18.4618 2.90076   2
   0  -8  -3 14.9006 2.48967   1
   0   8   3 20.2058 2.55416   1
   0   8   3 19.8369 2.25995   2
  -1  -8  -3 5.75722 1.70166   1
  -1  -8  -3 8.42480 2.09465   2
   1   8   3 4.89387 1.36300   1
   1   8   3 7.57277 1.48154   5
  -2  -8  -3 92.8801 5.73329   2
  -2  -8  -3 99.7261 5.69655   1
   2   8   3 92.0460 4.54916   5
  -3  -8  -3 100.234 5.91623   1
  -3  -8  -3 102.850 6.18811   2
   3   8   3 98.4891 4.97598   5
  -4  -8  -3 29.3356 3.98926   2
  -4  -8  -3 19.9478 3.10208   1
   4   8   3 19.3121 2.64614   5
  -5  -8  -3 -0.2538 1.06968   1
  -5  -8  -3 -0.7622 0.98041   2
   5   8   3 1.50697 1.21464   5
 -12   9   3 1.73391 1.15318   1
 -12   9   3 0.39968 0.92653   2
 -11   9   3 14.7361 2.26134   2
 -11   9   3 14.4980 2.46890   1
 -10   9   3 36.6673 3.69804   1
 -10   9   3 33.1153 3.22555   2
  -9   9   3 5.59597 1.44084   2
  -9   9   3 7.68708 1.77919   1
   8  -9  -3 1.46053 1.00243   1
   8  -9  -3 -0.1867 0.43645   4
  -8   9   3 -0.3121 0.76125   1
  -8   9   3 -0.0040 0.63529   2
   7  -9  -3 6.86857 1.12205   4
   7  -9  -3 5.48878 1.59792   1
  -7   9   3 2.42481 1.06166   2
  -7   9   3 6.37021 1.63239   1
   6  -9  -3 85.4600 5.05605   2
   6  -9  -3 74.3555 4.68419   1
   6  -9  -3 70.5992 3.16266   4
  -6   9   3 80.1202 4.33078   2
  -6   9   3 77.5041 4.58904   1
   5  -9  -3 0.20288 1.04730   2
   5  -9  -3 1.78516 1.10468   1
   5  -9  -3 0.48377 0.52803   4
  -5   9   3 1.36278 0.83332   2
  -5   9   3 0.53894 0.88629   1
   4  -9  -3 0.94746 0.89406   1
   4  -9  -3 0.28419 0.93505   2
  -4   9   3 2.08844 1.02497   2
  -4   9   3 1.23331 0.95325   1
   3  -9  -3 16.7204 2.71692   2
   3  -9  -3 14.1462 2.47989   1
  -3   9   3 15.2266 2.15442   2
  -3   9   3 19.6198 2.75184   1
   2  -9  -3 1.53546 1.21164   1
   2  -9  -3 6.05391 1.89911   2
  -2   9   3 3.66430 1.33592   1
  -2   9   3 1.45368 0.99635   2
   1  -9  -3 0.63322 1.04525   2
   1  -9  -3 2.52325 1.32532   1
  -1   9   3 0.01340 0.76515   1
  -1   9   3 -0.0375 0.71529   2
   0  -9  -3 13.0738 2.62984   2
   0  -9  -3 12.3319 2.49239   1
   0   9   3 9.13399 1.83310   1
  -1  -9  -3 1.14536 1.16963   1
  -1  -9  -3 1.55233 1.37032   2
   1   9   3 0.93045 0.93407   1
   1   9   3 0.95233 0.78296   5
  -2  -9  -3 31.8355 4.15703   1
  -2  -9  -3 25.2280 3.77181   2
   2   9   3 28.4305 3.02503   5
  -3  -9  -3 15.8247 2.90203   1
  -3  -9  -3 20.8201 3.49445   2
   3   9   3 16.6182 2.46138   5
  -4  -9  -3 3.31458 1.77032   1
  -4  -9  -3 2.57317 1.76480   2
   4   9   3 2.24244 1.41259   5
 -12  10   3 4.94748 1.55058   2
 -12  10   3 4.64896 1.64678   1
 -11  10   3 1.12788 0.93452   2
 -11  10   3 0.92603 1.19704   1
 -10  10   3 -0.1948 0.79719   2
 -10  10   3 0.09932 0.90407   1
  -9  10   3 14.6452 2.31169   2
  -9  10   3 21.2971 3.02633   1
   8 -10  -3 14.8694 1.72956   4
  -8  10   3 19.7767 2.63794   2
  -8  10   3 19.3097 2.79995   1
   7 -10  -3 7.61426 1.19876   4
   7 -10  -3 6.37898 1.82099   1
  -7  10   3 6.19113 1.69735   1
  -7  10   3 6.65745 1.63940   2
   6 -10  -3 106.499 4.25751   4
   6 -10  -3 108.874 6.10810   1
  -6  10   3 110.550 5.91669   1
  -6  10   3 112.709 5.59240   2
   5 -10  -3 34.5374 2.40267   4
   5 -10  -3 33.9548 4.06700   2
   5 -10  -3 36.3535 4.03184   1
  -5  10   3 47.0831 4.39164   1
  -5  10   3 36.1400 3.51499   2
   4 -10  -3 2.43363 1.48338   2
   4 -10  -3 0.88984 1.10703   1
  -4  10   3 0.61164 0.93715   1
  -4  10   3 1.29179 0.85792   2
   3 -10  -3 7.06640 2.14574   2
   3 -10  -3 5.35984 1.81118   1
  -3  10   3 6.27589 1.65943   1
  -3  10   3 4.15173 1.38453   2
   2 -10  -3 9.68034 2.43067   2
   2 -10  -3 12.9696 2.57814   1
  -2  10   3 10.9740 2.02363   2
  -2  10   3 16.1085 2.59559   1
   1 -10  -3 0.88577 1.13753   1
   1 -10  -3 0.34249 1.12545   2
  -1  10   3 5.01764 1.53170   1
   0 -10  -3 69.4296 6.33440   2
   0 -10  -3 62.0243 5.68482   1
   0  10   3 60.1420 3.66440   5
   0  10   3 61.5513 4.23837   1
  -1 -10  -3 0.18260 1.23395   1
  -1 -10  -3 -0.4573 1.23991   2
   1  10   3 0.54177 0.89477   5
  -2 -10  -3 8.41059 2.47745   2
  -2 -10  -3 8.97524 2.31302   1
   2  10   3 8.29370 1.82082   5
  -3 -10  -3 0.44782 1.32761   1
  -3 -10  -3 0.70702 1.36338   2
   3  10   3 -0.2121 0.84889   5
 -11  11   3 17.7723 2.87169   1
 -11  11   3 13.0580 2.44151   2
 -10  11   3 6.73894 1.93875   1
 -10  11   3 8.03886 1.95025   2
   9 -11  -3 5.92514 1.23931   4
  -9  11   3 4.93053 1.58607   2
  -9  11   3 7.72573 2.07755   1
   8 -11  -3 1.26986 0.68336   4
  -8  11   3 -0.2573 0.88274   2
  -8  11   3 4.01378 1.56074   1
   7 -11  -3 26.0471 2.29782   4
   7 -11  -3 32.0666 3.93747   1
  -7  11   3 26.8768 3.28246   2
  -7  11   3 23.5165 3.17674   1
   6 -11  -3 32.7612 2.14851   4
   6 -11  -3 25.3270 3.48490   1
  -6  11   3 30.6152 3.57861   1
  -6  11   3 29.9452 3.47518   2
   5 -11  -3 78.5036 5.45941   1
   5 -11  -3 80.9819 4.10599   4
  -5  11   3 80.3192 5.15644   1
  -5  11   3 78.3473 4.75123   2
   4 -11  -3 11.7942 2.59256   1
   4 -11  -3 14.4421 3.00249   2
  -4  11   3 14.3485 2.39192   2
  -4  11   3 12.9361 2.49678   1
   3 -11  -3 7.10782 2.30375   2
   3 -11  -3 3.08433 1.70372   1
  -3  11   3 5.21200 1.63244   1
  -3  11   3 4.18325 1.64666   2
   2 -11  -3 0.41189 1.34233   2
   2 -11  -3 1.47712 1.42414   1
  -2  11   3 0.49033 0.97566   1
   1 -11  -3 9.78616 2.67617   2
   1 -11  -3 8.18072 2.32688   1
  -1  11   3 8.04126 1.99298   1
   0 -11  -3 0.44858 1.22680   1
   0 -11  -3 3.39278 2.01242   2
   0  11   3 2.86982 1.14864   5
  -1 -11  -3 2.88870 1.94517   2
  -1 -11  -3 5.76761 2.09769   1
   1  11   3 3.56660 1.38346   5
  -2 -11  -3 1.38975 1.70528   2
  -2 -11  -3 -3.0412 0.89793   1
   2  11   3 0.61823 0.90870   5
 -10  12   3 13.9805 2.48084   2
 -10  12   3 16.9061 2.95710   1
  -9  12   3 -0.0022 0.94970   2
  -9  12   3 1.33620 1.24297   1
   8 -12  -3 2.16351 0.98885   4
  -8  12   3 3.88895 1.62062   1
  -8  12   3 1.37711 1.17104   2
   7 -12  -3 2.61875 1.39700   1
   7 -12  -3 1.08267 0.72348   4
  -7  12   3 1.52674 1.08054   2
  -7  12   3 1.24416 1.29336   1
   6 -12  -3 0.59885 0.60056   4
   6 -12  -3 -0.6247 1.21858   1
  -6  12   3 0.13127 1.01776   1
  -6  12   3 -0.2037 0.80258   2
   5 -12  -3 6.19736 2.13963   1
   5 -12  -3 2.39804 1.72714   4
  -5  12   3 10.0040 2.20846   2
  -5  12   3 9.20047 2.16849   1
   4 -12  -3 7.96614 2.28889   1
  -4  12   3 11.6802 2.49467   1
   3 -12  -3 19.0473 3.42266   1
   3 -12  -3 12.4182 3.09873   2
  -3  12   3 26.4410 3.63762   1
   2 -12  -3 0.83130 1.46789   1
   2 -12  -3 0.09393 1.34034   2
  -2  12   3 2.20513 1.32923   1
   1 -12  -3 0.07927 1.46635   2
   1 -12  -3 0.93539 1.35989   1
   0 -12  -3 2.79817 1.62901   1
   0 -12  -3 6.52139 2.71121   2
   0  12   3 4.64276 1.56174   5
  -9  13   3 10.3911 2.35179   2
  -9  13   3 11.7531 2.53534   1
  -8  13   3 1.65822 1.34866   1
  -8  13   3 0.72047 1.21391   2
   7 -13  -3 -0.6281 1.97078   1
  -7  13   3 2.85260 1.60999   1
  -7  13   3 2.97591 1.49999   2
   6 -13  -3 15.7593 3.21121   1
  -6  13   3 14.4324 2.63352   2
  -6  13   3 15.8399 2.93655   1
   5 -13  -3 19.0254 3.45560   1
  -5  13   3 22.4166 3.48609   1
   4 -13  -3 3.40485 1.85277   1
  -4  13   3 -0.2156 1.19322   1
   3 -13  -3 12.0499 3.13619   1
  -3  13   3 13.0158 2.80405   1
   2 -13  -3 3.65801 2.00382   1
   2 -13  -3 7.39165 2.57305   2
   6 -14  -3 1.13284 1.63618   1
  -1  13  -4 -0.3686 0.80524   5
   1 -13   4 2.15938 1.94217   2
   1 -13   4 -0.4277 1.25573   1
  -2  13  -4 1.00865 1.43875   1
   2 -13   4 -0.5538 1.24631   1
  -3  13  -4 12.1452 2.69030   1
   3 -13   4 15.9798 3.33950   1
  -4  13  -4 10.5421 2.53445   1
   4 -13   4 12.6260 3.10353   1
  -5  13  -4 1.09793 1.31728   1
  -5  13  -4 1.44267 1.29038   2
   5 -13   4 -0.4020 1.28337   1
  -6  13  -4 2.67971 1.40602   2
  -6  13  -4 5.69919 1.94071   1
   6 -13   4 -0.2035 1.72167   4
  -7  13  -4 6.85240 2.13418   1
  -7  13  -4 5.34863 2.03927   2
   7 -13   4 6.84673 1.67890   4
  -8  13  -4 -0.2984 1.10384   1
  -8  13  -4 -0.1438 1.11159   2
   8 -13   4 -1.0743 0.64468   4
   1  12  -4 -0.3012 0.84604   5
  -1 -12   4 0.83843 1.61024   1
  -1 -12   4 -1.5580 1.45592   2
   0  12  -4 -0.0907 0.69932   5
   0 -12   4 1.20641 1.56238   2
   0 -12   4 -1.1063 1.08717   1
  -1  12  -4 2.15091 1.37279   1
  -1  12  -4 1.60256 0.92714   5
   1 -12   4 3.55024 1.93514   1
   1 -12   4 1.83418 1.73932   2
  -2  12  -4 5.77259 1.86023   1
   2 -12   4 8.43541 2.67162   2
   2 -12   4 5.18572 2.09778   1
  -3  12  -4 12.2752 2.57767   1
   3 -12   4 10.4973 2.70819   1
  -4  12  -4 15.8447 2.84356   1
  -4  12  -4 10.6238 2.35297   2
   4 -12   4 11.2028 2.72322   1
  -5  12  -4 34.5955 4.03067   1
  -5  12  -4 36.2030 4.07089   2
   5 -12   4 26.8491 3.99849   1
  -6  12  -4 -0.2218 1.00576   1
  -6  12  -4 0.69697 1.02286   2
   6 -12   4 -0.3939 1.18303   4
   6 -12   4 0.87105 1.47733   1
  -7  12  -4 3.64360 1.57589   1
  -7  12  -4 -0.2075 0.95100   2
   7 -12   4 -0.0124 0.87357   4
  -8  12  -4 1.48186 1.27399   2
  -8  12  -4 3.93199 1.63678   1
   8 -12   4 3.48377 1.26769   4
  -9  12  -4 2.59893 1.37340   2
  -9  12  -4 1.06881 1.35910   1
   9 -12   4 2.90988 1.21091   4
 -10  12  -4 2.75108 1.47104   2
  10 -12   4 3.20818 1.35738   4
   2  11  -4 12.6686 2.32944   5
  -2 -11   4 17.7818 3.70472   2
  -2 -11   4 9.33755 2.68400   1
   1  11  -4 0.42414 0.77715   5
  -1 -11   4 -0.2026 1.63386   2
  -1 -11   4 0.47599 1.29259   1
   0  11  -4 13.2472 2.58549   1
   0  11  -4 13.8411 2.05810   5
   0 -11   4 15.8988 3.05311   1
   0 -11   4 15.2443 3.38088   2
  -1  11  -4 19.7793 2.94708   1
   1 -11   4 15.5302 3.14902   2
   1 -11   4 15.5877 3.17904   1
  -2  11  -4 3.15246 1.43384   1
  -2  11  -4 2.40842 1.99956   2
   2 -11   4 3.33595 1.86500   1
   2 -11   4 2.44444 1.75807   2
  -3  11  -4 16.4580 2.73496   1
  -3  11  -4 18.1623 2.73972   2
   3 -11   4 20.4152 3.37252   1
   3 -11   4 15.7589 3.12866   2
  -4  11  -4 0.75052 0.97154   1
  -4  11  -4 -1.2809 0.67929   2
   4 -11   4 1.67968 1.43379   1
  -5  11  -4 14.7617 2.46497   2
  -5  11  -4 11.2666 2.31483   1
   5 -11   4 12.2730 2.60094   4
   5 -11   4 15.0350 3.05474   1
  -6  11  -4 -0.5505 0.75636   2
  -6  11  -4 -0.3752 0.65125   1
   6 -11   4 -0.4833 0.64068   4
   6 -11   4 0.14792 1.03536   1
  -7  11  -4 -0.5432 0.80918   1
  -7  11  -4 -0.3283 0.68449   2
   7 -11   4 0.28853 0.67085   4
  -8  11  -4 12.1374 2.21103   2
  -8  11  -4 13.2853 2.54342   1
   8 -11   4 10.6506 1.91894   4
  -9  11  -4 1.37444 1.21859   1
  -9  11  -4 3.97880 1.50640   2
   9 -11   4 3.57749 1.34330   4
 -10  11  -4 5.42192 1.60376   2
 -10  11  -4 5.17498 1.83134   1
  10 -11   4 3.88099 1.43635   4
   4  10  -4 0.02782 1.00969   5
  -4 -10   4 0.21684 1.51959   1
  -4 -10   4 -0.6833 1.21678   2
   3  10  -4 12.1446 2.15728   5
  -3 -10   4 10.1980 2.75941   1
  -3 -10   4 8.90011 2.62957   2
   2  10  -4 6.75798 1.63729   5
  -2 -10   4 8.51317 2.47199   1
  -2 -10   4 9.97541 2.71298   2
   1  10  -4 10.8783 1.81181   5
   1  10  -4 10.8112 2.10323   1
  -1 -10   4 14.7219 3.11196   2
  -1 -10   4 9.05900 2.46725   1
   0  10  -4 -0.8224 0.52969   5
   0  10  -4 0.08589 0.88159   1
   0 -10   4 0.15439 1.39143   2
   0 -10   4 -1.0494 0.90822   1
  -1  10  -4 1.90406 1.06276   1
  -1  10  -4 1.54825 1.18976   2
   1 -10   4 1.61441 1.37847   2
   1 -10   4 1.09832 1.22453   1
  -2  10  -4 1.21866 0.98664   2
  -2  10  -4 0.77662 1.02208   1
   2 -10   4 2.00205 1.44411   1
   2 -10   4 2.39288 1.50066   2
  -3  10  -4 12.7511 2.34810   1
  -3  10  -4 15.0934 2.48221   2
   3 -10   4 10.5505 2.47009   2
   3 -10   4 11.2985 2.38342   1
  -4  10  -4 49.8507 4.39872   1
  -4  10  -4 54.9440 3.84061   2
   4 -10   4 47.8382 4.74723   1
   4 -10   4 64.1555 5.62388   2
  -5  10  -4 38.7252 3.87187   1
  -5  10  -4 44.5785 4.06839   2
   5 -10   4 31.4003 3.93617   1
   5 -10   4 45.1060 4.02554   4
  -6  10  -4 0.18510 0.79408   1
  -6  10  -4 1.98412 1.09934   2
   6 -10   4 0.28126 0.75375   4
   6 -10   4 0.90572 1.12642   1
  -7  10  -4 0.82295 0.96045   2
  -7  10  -4 1.63513 1.05600   1
   7 -10   4 0.82332 0.78246   4
  -8  10  -4 0.89530 0.90719   2
  -8  10  -4 2.50169 1.24461   1
   8 -10   4 1.09519 0.91150   4
  -9  10  -4 1.51372 0.99321   1
  -9  10  -4 0.86573 1.07722   2
   9 -10   4 1.62057 1.02397   4
 -10  10  -4 7.76637 1.88122   1
 -10  10  -4 8.69084 1.87832   2
  10 -10   4 3.80035 1.34872   4
 -11  10  -4 2.60696 1.23668   2
   5   9  -4 -0.2607 0.76211   5
  -5  -9   4 0.30146 1.48993   1
  -5  -9   4 -0.5772 1.07717   2
   4   9  -4 5.92109 1.61269   5
  -4  -9   4 2.65733 1.55353   1
  -4  -9   4 1.29705 1.55583   2
   3   9  -4 8.18923 1.75516   5
  -3  -9   4 6.70820 2.05936   1
  -3  -9   4 4.25904 1.88200   2
   2   9  -4 1.17768 0.99191   1
   2   9  -4 0.22882 0.65572   5
  -2  -9   4 -0.3985 1.04892   2
  -2  -9   4 -0.3484 1.00943   1
   1   9  -4 19.5991 2.24702   5
   1   9  -4 26.1684 3.07870   1
  -1  -9   4 24.9032 3.73351   2
  -1  -9   4 32.0353 4.11244   1
   0   9  -4 49.7530 3.64244   1
   0   9  -4 45.1590 2.73993   5
   0   9  -4 48.7972 4.15508   2
   0  -9   4 45.3496 4.86056   2
   0  -9   4 51.4094 4.98194   1
  -1   9  -4 0.43774 0.80692   2
  -1   9  -4 -0.1511 0.67389   1
   1  -9   4 1.90786 1.35080   1
   1  -9   4 2.08127 1.30768   2
  -2   9  -4 2.40097 1.15646   2
  -2   9  -4 3.88703 1.34703   1
   2  -9   4 2.88925 1.45293   1
   2  -9   4 2.26869 1.41270   2
  -3   9  -4 0.52078 0.86693   1
  -3   9  -4 -0.3564 0.56856   2
   3  -9   4 0.77536 1.02516   1
   3  -9   4 -1.1546 0.78178   2
  -4   9  -4 9.06495 1.82343   2
  -4   9  -4 8.88008 1.85096   1
   4  -9   4 9.01651 2.08829   2
   4  -9   4 6.99588 1.93289   1
  -5   9  -4 25.3061 2.91510   1
  -5   9  -4 21.0307 2.66155   2
   5  -9   4 26.0491 3.30662   2
   5  -9   4 25.7899 3.36878   1
   5  -9   4 23.3321 2.59107   4
  -6   9  -4 37.9272 3.56533   1
  -6   9  -4 49.4502 3.37860   2
   6  -9   4 42.2460 4.08870   1
   6  -9   4 44.0601 2.90688   4
  -7   9  -4 1.54767 0.99269   1
  -7   9  -4 2.66580 1.08481   2
   7  -9   4 1.60520 1.39761   1
   7  -9   4 2.56324 0.99383   4
  -8   9  -4 -0.3313 0.64848   1
  -8   9  -4 0.65776 0.72406   2
   8  -9   4 -0.3553 0.58799   4
  -9   9  -4 2.61273 1.15643   2
  -9   9  -4 4.57329 1.44525   1
   9  -9   4 2.87329 1.10567   4
 -10   9  -4 6.18599 1.64995   1
 -10   9  -4 2.69963 1.15265   2
  10  -9   4 3.68781 1.29903   4
 -11   9  -4 1.95256 1.17835   2
 -11   9  -4 5.75693 1.58712   1
   6   8  -4 0.91793 1.03288   5
  -6  -8   4 1.68358 1.46387   2
  -6  -8   4 0.43311 1.44875   1
   5   8  -4 0.33246 0.88611   5
  -5  -8   4 -0.5494 1.25125   1
  -5  -8   4 0.76757 1.33359   2
   4   8  -4 -0.2745 0.68426   5
  -4  -8   4 -0.6311 1.28510   1
  -4  -8   4 1.37898 1.44976   2
   3   8  -4 37.4186 3.25470   5
  -3  -8   4 34.3131 4.08602   1
  -3  -8   4 30.5005 3.92673   2
   2   8  -4 -0.2488 0.65530   1
   2   8  -4 1.00013 0.75935   5
  -2  -8   4 -0.9567 0.84500   1
  -2  -8   4 0.31058 1.01414   2
   1   8  -4 0.14870 0.54241   5
   1   8  -4 -0.0691 0.78700   1
   1   8  -4 -0.2109 0.67904   2
  -1  -8   4 0.70606 1.10267   2
  -1  -8   4 2.14045 1.24488   1
   0   8  -4 31.7094 2.49523   5
   0   8  -4 32.5959 3.06596   2
   0   8  -4 33.0780 3.34578   1
   0  -8   4 25.0813 3.36845   1
   0  -8   4 29.2617 3.64889   2
  -1   8  -4 51.9038 3.48896   1
  -1   8  -4 54.4249 3.44067   2
   1  -8   4 49.2387 4.50383   1
   1  -8   4 57.1247 5.10807   2
  -2   8  -4 48.9780 3.39649   1
  -2   8  -4 61.2773 3.59201   2
   2  -8   4 52.8090 4.70058   1
   2  -8   4 41.1656 4.15890   2
  -3   8  -4 29.2517 2.92886   2
  -3   8  -4 37.4093 3.42303   1
   3  -8   4 39.0592 4.00654   2
   3  -8   4 26.6436 3.30634   1
  -4   8  -4 50.9061 3.32619   1
  -4   8  -4 41.5023 2.95484   2
   4  -8   4 37.2992 3.70815   2
   4  -8   4 37.4187 3.73868   1
  -5   8  -4 5.55760 1.33000   2
  -5   8  -4 4.85122 1.67898   2
  -5   8  -4 5.63059 1.36827   1
   5  -8   4 4.59605 1.41517   2
   5  -8   4 5.03585 1.58927   1
   5  -8   4 4.45480 1.15574   4
  -6   8  -4 16.3882 2.12166   2
  -6   8  -4 16.0986 2.21469   1
   6  -8   4 19.5854 2.67716   1
   6  -8   4 17.7825 2.07139   4
  -7   8  -4 131.965 5.79507   2
  -7   8  -4 139.870 6.09281   1
   7  -8   4 134.186 5.70278   4
   7  -8   4 143.612 6.30592   1
  -8   8  -4 23.3485 2.56712   2
  -8   8  -4 34.0493 3.28178   1
   8  -8   4 34.9298 3.20314   4
  -9   8  -4 -0.0604 0.67096   2
  -9   8  -4 2.50209 1.11164   1
   9  -8   4 1.40103 0.91591   4
 -10   8  -4 0.80403 0.80036   2
 -10   8  -4 2.69453 1.07850   1
 -11   8  -4 1.98908 1.06029   2
 -11   8  -4 2.28037 1.17067   1
   7   7  -4 2.38850 1.37723   5
  -7  -7   4 0.24908 1.18931   1
  -7  -7   4 -1.4645 0.95532   2
   6   7  -4 -0.4918 0.86120   5
  -6  -7   4 1.06485 1.24736   2
  -6  -7   4 -0.6053 1.02886   1
   5   7  -4 0.74514 0.88256   5
  -5  -7   4 -0.0459 1.10370   1
  -5  -7   4 -0.6262 0.97572   2
   4   7  -4 0.05262 0.69409   5
  -4  -7   4 0.23677 1.03935   2
  -4  -7   4 0.60635 1.06657   1
   3   7  -4 0.05239 0.67118   1
   3   7  -4 -0.3915 0.47851   5
  -3  -7   4 -1.2578 0.67613   2
  -3  -7   4 1.64335 1.13725   1
   2   7  -4 87.3622 3.97994   5
   2   7  -4 89.1289 4.53845   1
   2   7  -4 87.4442 4.37789   2
  -2  -7   4 84.6981 5.26920   2
  -2  -7   4 102.134 5.53589   1
   1   7  -4 67.5041 3.15007   5
   1   7  -4 62.2652 3.61721   2
   1   7  -4 66.0819 3.76408   1
  -1  -7   4 61.2866 4.24401   1
  -1  -7   4 62.8303 4.38634   2
   0   7  -4 19.7629 2.33130   2
   0   7  -4 21.3769 2.47644   1
   0  -7   4 16.8186 2.62238   1
   0  -7   4 19.6569 2.74563   2
  -1   7  -4 8.01996 1.56674   2
  -1   7  -4 6.50719 1.37602   1
   1  -7   4 5.89593 1.62423   2
   1  -7   4 5.94016 1.66316   1
  -2   7  -4 39.8277 2.75123   2
  -2   7  -4 39.7740 2.83228   1
   2  -7   4 41.1712 3.91269   1
   2  -7   4 38.8535 3.74054   2
  -3   7  -4 95.7914 4.57617   1
  -3   7  -4 96.1384 4.45348   2
   3  -7   4 89.9878 4.92686   1
   3  -7   4 95.8050 5.05006   2
  -4   7  -4 37.5667 3.73500   2
  -4   7  -4 52.4551 3.07548   2
  -4   7  -4 49.8427 3.12595   1
   4  -7   4 45.9909 3.24885   2
   4  -7   4 44.7125 3.30591   1
   4  -7   4 46.0987 2.95572   4
  -5   7  -4 12.5491 2.26254   1
  -5   7  -4 11.2681 1.63677   2
  -5   7  -4 11.8396 2.09437   2
  -5   7  -4 14.4978 2.00353   1
   5  -7   4 8.05229 1.61039   2
   5  -7   4 11.8040 1.59293   4
   5  -7   4 12.6925 2.04025   1
  -6   7  -4 7.98841 1.65633   1
  -6   7  -4 9.10090 1.53689   1
  -6   7  -4 9.06636 1.84272   2
  -6   7  -4 7.28201 1.39590   2
   6  -7   4 8.30090 1.64104   1
   6  -7   4 7.09585 1.29672   4
   6  -7   4 6.89241 1.42663   2
  -7   7  -4 1.60225 1.25987   1
  -7   7  -4 3.02754 0.96389   2
  -7   7  -4 2.68071 1.00666   1
   7  -7   4 2.28955 0.92304   4
   7  -7   4 3.33184 1.16129   1
  -8   7  -4 48.8241 3.14602   1
  -8   7  -4 51.4029 3.07612   2
   8  -7   4 44.3074 3.06469   4
  -9   7  -4 63.4638 3.63122   2
  -9   7  -4 75.8811 3.94293   1
   9  -7   4 72.1964 4.14248   4
 -10   7  -4 11.5411 1.86150   1
 -10   7  -4 10.3491 1.66351   2
 -11   7  -4 -0.4181 0.57422   1
 -11   7  -4 0.00315 0.62143   2
   8   6  -4 -1.2677 0.73159   5
  -8  -6   4 0.40516 1.33457   2
  -8  -6   4 -0.9946 0.94504   3
  -8  -6   4 -0.6307 1.10988   1
   7   6  -4 -0.0008 0.73877   5
  -7  -6   4 -1.0980 0.90712   3
  -7  -6   4 -0.2626 0.93531   2
  -7  -6   4 -0.3942 0.95091   1
   6   6  -4 4.00134 1.32565   5
  -6  -6   4 4.22402 1.60547   2
  -6  -6   4 3.66769 1.46664   1
  -6  -6   4 4.57074 1.35516   3
   5   6  -4 1.31075 0.88490   5
  -5  -6   4 0.53566 0.88606   3
  -5  -6   4 2.60937 1.36985   2
  -5  -6   4 1.57474 1.30425   1
   4   6  -4 6.89660 1.34118   5
   4   6  -4 4.06122 1.13225   1
  -4  -6   4 2.84023 1.34900   1
  -4  -6   4 3.09048 1.42823   2
   3   6  -4 1.54117 0.78931   1
   3   6  -4 3.62733 0.98767   5
   3   6  -4 3.64031 0.99675   2
  -3  -6   4 4.19406 1.41532   2
  -3  -6   4 1.95496 0.93111   2
  -3  -6   4 2.25332 1.28011   1
   2   6  -4 3.30870 1.03830   1
   2   6  -4 2.68339 0.90035   2
   2   6  -4 4.28319 0.95363   5
  -2  -6   4 2.54067 1.18158   1
  -2  -6   4 3.84023 1.06117   2
  -2  -6   4 4.87142 1.47370   2
   1   6  -4 106.018 4.70606   1
   1   6  -4 103.599 4.57860   2
   1   6  -4 103.620 3.95897   5
  -1  -6   4 94.0311 5.08346   1
  -1  -6   4 106.529 4.62190   2
  -1  -6   4 100.682 5.28206   2
   0   6  -4 130.989 5.24149   2
   0   6  -4 122.828 5.23324   1
   0  -6   4 129.176 5.98455   2
   0  -6   4 115.844 5.66372   1
  -1   6  -4 25.3904 2.52875   1
  -1   6  -4 20.7016 2.20761   2
   1  -6   4 26.7416 2.94999   1
   1  -6   4 18.4110 2.40718   2
  -2   6  -4 54.2445 3.06660   2
  -2   6  -4 58.6240 3.26885   1
   2  -6   4 59.5253 3.67066   1
   2  -6   4 56.5964 3.58430   2
  -3   6  -4 1.35095 0.75448   1
  -3   6  -4 1.03164 0.63654   2
  -3   6  -4 2.09937 0.90963   2
   3  -6   4 0.62455 0.77170   2
   3  -6   4 0.20612 0.67154   1
  -4   6  -4 7.08531 1.32075   1
  -4   6  -4 6.94247 1.50145   1
  -4   6  -4 7.18526 1.55083   2
  -4   6  -4 7.71195 1.32739   2
   4  -6   4 8.24861 1.54439   2
   4  -6   4 9.25649 1.33717   4
   4  -6   4 8.17041 1.57308   1
  -5   6  -4 48.3795 2.91404   1
  -5   6  -4 48.8207 4.03902   2
  -5   6  -4 44.6009 3.13644   1
  -5   6  -4 56.0130 2.95496   2
   5  -6   4 48.2201 3.11693   1
   5  -6   4 46.4345 2.65882   4
   5  -6   4 50.0138 2.96215   2
  -6   6  -4 14.3112 2.12942   1
  -6   6  -4 15.5034 1.85438   1
  -6   6  -4 13.5926 2.07603   2
  -6   6  -4 14.2456 1.73634   2
   6  -6   4 13.7199 1.64752   2
   6  -6   4 13.7769 1.73245   4
   6  -6   4 14.8115 1.95680   1
  -7   6  -4 161.386 6.63599   1
  -7   6  -4 159.904 5.99050   2
  -7   6  -4 159.932 6.76754   2
  -7   6  -4 160.002 6.11569   1
   7  -6   4 166.644 6.29370   4
   7  -6   4 162.565 5.87507   1
  -8   6  -4 64.3709 3.42689   1
  -8   6  -4 58.7782 3.21344   2
   8  -6   4 66.3681 3.78948   4
  -9   6  -4 7.33809 1.34984   1
  -9   6  -4 5.62868 1.18927   2
 -10   6  -4 5.65216 1.19395   2
 -10   6  -4 6.41450 1.28176   1
 -11   6  -4 2.31589 0.85924   1
 -11   6  -4 1.44045 0.80637   2
 -12   6  -4 -0.2242 0.62499   2
   8   5  -4 4.47463 1.47226   5
  -8  -5   4 3.04610 1.16374   3
  -8  -5   4 3.42196 1.53465   2
  -8  -5   4 1.20263 1.14450   1
   7   5  -4 -0.0821 0.74368   5
  -7  -5   4 -0.1698 1.01210   2
  -7  -5   4 -0.3043 0.60763   3
  -7  -5   4 -1.1809 0.62474   1
   6   5  -4 6.88888 1.52782   5
  -6  -5   4 7.61459 1.81444   2
  -6  -5   4 5.88525 1.30241   3
  -6  -5   4 13.4218 2.39490   1
   5   5  -4 10.1780 1.61939   5
  -5  -5   4 12.0185 1.63763   3
  -5  -5   4 9.60069 1.95751   2
  -5  -5   4 12.4326 2.20563   1
   4   5  -4 52.4227 2.99148   5
   4   5  -4 56.8717 2.99460   2
   4   5  -4 53.5199 3.04663   1
  -4  -5   4 60.6523 3.01610   3
  -4  -5   4 58.5618 3.85555   1
  -4  -5   4 62.9247 4.00366   2
  -4  -5   4 53.9232 3.26673   1
  -4  -5   4 60.3645 3.30707   2
   3   5  -4 76.2831 3.37205   5
   3   5  -4 74.5486 3.63027   1
   3   5  -4 67.8865 3.39178   2
  -3  -5   4 73.6424 3.79669   1
  -3  -5   4 75.0794 3.27156   3
  -3  -5   4 75.8181 4.37211   2
  -3  -5   4 73.6673 4.25805   1
  -3  -5   4 68.6611 3.56922   2
   2   5  -4 0.71230 0.66777   1
   2   5  -4 0.96801 0.65027   2
   2   5  -4 -0.5841 0.35903   5
  -2  -5   4 1.18757 0.76217   1
  -2  -5   4 0.85456 0.80316   1
  -2  -5   4 1.36117 0.73158   2
  -2  -5   4 0.11463 0.69489   2
   1   5  -4 0.97322 0.65345   2
   1   5  -4 0.30775 0.38276   5
   1   5  -4 1.64971 0.81061   1
  -1  -5   4 0.89841 0.65251   1
  -1  -5   4 0.68279 0.59486   2
  -1  -5   4 0.51830 0.85226   1
  -1  -5   4 1.19402 0.95350   2
   0   5  -4 20.1305 2.04592   1
   0   5  -4 23.8656 2.21176   2
   0  -5   4 24.0502 2.61571   1
   0  -5   4 19.0123 2.41784   2
  -1   5  -4 106.618 4.36498   2
  -1   5  -4 100.096 4.37019   1
   1  -5   4 112.095 5.01934   1
   1  -5   4 100.392 4.81843   2
  -2   5  -4 227.301 7.57804   1
  -2   5  -4 223.359 8.19824   2
  -2   5  -4 210.439 7.89706   1
  -2   5  -4 234.362 7.52484   2
   2  -5   4 227.065 8.05932   2
   2  -5   4 228.119 8.07888   1
  -3   5  -4 21.9165 2.41297   1
  -3   5  -4 22.9827 2.17675   1
  -3   5  -4 24.9002 2.19319   2
  -3   5  -4 23.9232 2.59871   2
   3  -5   4 21.2993 2.05937   4
   3  -5   4 25.8440 2.61320   1
   3  -5   4 24.6339 2.47015   2
  -4   5  -4 0.42751 0.53027   1
  -4   5  -4 2.11374 0.93058   2
  -4   5  -4 0.21753 0.48536   2
  -4   5  -4 1.76341 0.79896   1
   4  -5   4 -0.1693 0.48005   2
   4  -5   4 0.48095 0.62812   1
   4  -5   4 0.99912 0.51274   4
  -5   5  -4 79.1580 3.49458   2
  -5   5  -4 73.9348 3.94385   2
  -5   5  -4 81.1340 3.64790   1
  -5   5  -4 73.7565 3.86997   1
   5  -5   4 75.4417 3.45100   4
   5  -5   4 77.8141 3.41758   2
   5  -5   4 81.6757 3.82468   1
  -6   5  -4 27.4780 2.34960   1
  -6   5  -4 25.4237 2.56431   2
  -6   5  -4 25.4209 2.17192   2
  -6   5  -4 23.6274 2.52788   1
   6  -5   4 23.0637 2.17393   4
  -7   5  -4 6.76249 1.35428   1
  -7   5  -4 8.68576 1.55029   2
  -7   5  -4 8.28177 1.26303   2
  -7   5  -4 8.60407 1.38814   1
   7  -5   4 9.32615 1.09414   1
   7  -5   4 7.85609 1.43891   4
  -8   5  -4 9.41926 1.37378   2
  -8   5  -4 8.58051 1.34276   1
  -8   5  -4 7.79196 1.51400   2
  -9   5  -4 8.68689 1.31254   2
  -9   5  -4 8.44585 1.31256   1
 -10   5  -4 23.1784 2.16079   1
 -10   5  -4 24.2185 2.20384   2
 -11   5  -4 0.23593 0.57244   1
 -11   5  -4 0.27415 0.52279   2
   9   4  -4 1.92129 1.24634   5
  -9  -4   4 -0.2741 0.87765   2
  -9  -4   4 -1.8218 0.77539   1
  -9  -4   4 0.14502 0.76134   3
   8   4  -4 10.2321 1.96333   5
  -8  -4   4 13.6218 2.36375   1
  -8  -4   4 12.9316 1.94537   3
  -8  -4   4 14.2106 2.53522   2
   7   4  -4 4.76634 1.36236   5
  -7  -4   4 9.54515 1.91303   1
  -7  -4   4 9.16254 1.62461   3
  -7  -4   4 10.1671 2.03534   2
   6   4  -4 1.94120 0.91628   5
  -6  -4   4 3.35536 1.02013   3
  -6  -4   4 1.70582 1.12003   2
  -6  -4   4 2.48561 1.04745   1
   5   4  -4 33.3483 2.73517   5
   5   4  -4 28.7297 1.92863   1
  -5  -4   4 22.7474 2.27680   2
  -5  -4   4 24.6833 2.25486   3
  -5  -4   4 28.7543 2.68740   1
  -5  -4   4 27.6116 2.93941   2
  -5  -4   4 25.7532 2.80928   1
   4   4  -4 82.8144 3.48614   2
   4   4  -4 86.0347 3.74061   5
   4   4  -4 85.7701 3.75697   1
  -4  -4   4 81.1572 3.52374   3
  -4  -4   4 83.9566 3.86212   2
  -4  -4   4 87.6463 4.53176   2
  -4  -4   4 87.5449 3.99182   1
  -4  -4   4 88.8969 4.52893   1
   3   4  -4 231.743 7.76428   2
   3   4  -4 242.518 7.94456   1
   3   4  -4 248.503 7.64872   5
  -3  -4   4 245.500 8.02575   2
  -3  -4   4 248.810 7.52788   3
  -3  -4   4 247.059 8.13919   1
  -3  -4   4 254.463 8.88842   2
  -3  -4   4 263.568 8.90001   1
   2   4  -4 94.9551 3.96331   1
   2   4  -4 87.1971 3.29843   5
   2   4  -4 82.8405 3.69927   2
  -2  -4   4 80.5765 3.70567   2
  -2  -4   4 80.8129 3.77794   1
  -2  -4   4 91.8890 4.40346   1
  -2  -4   4 94.2015 4.51079   2
  -2  -4   4 86.2081 3.27299   3
   1   4  -4 970.859 24.6579   5
   1   4  -4 980.325 25.6626   2
   1   4  -4 997.354 25.7561   1
  -1  -4   4 951.439 25.5677   2
  -1  -4   4 945.345 26.3920   1
  -1  -4   4 981.819 25.7519   1
  -1  -4   4 969.059 26.4572   2
   0   4  -4 199.655 6.68548   2
   0   4  -4 202.666 6.78226   1
   0  -4   4 200.041 6.63736   2
   0  -4   4 198.455 6.72424   1
   0  -4   4 212.383 7.42418   2
  -1   4  -4 87.6463 4.15494   1
  -1   4  -4 95.5245 3.95546   1
  -1   4  -4 94.5514 3.90096   2
  -1   4  -4 96.2335 4.41444   2
   1  -4   4 106.044 4.49489   2
   1  -4   4 92.3341 3.87017   1
   1  -4   4 98.9080 4.42851   1
  -2   4  -4 160.762 5.63017   2
  -2   4  -4 160.031 6.18104   2
  -2   4  -4 156.942 6.04511   1
  -2   4  -4 176.619 5.84137   1
   2  -4   4 162.544 6.07172   2
   2  -4   4 168.276 6.18902   1
  -3   4  -4 21.3376 1.88709   2
  -3   4  -4 24.1138 2.06267   1
  -3   4  -4 21.8965 2.21899   1
  -3   4  -4 21.6916 2.28864   2
   3  -4   4 16.0951 1.84313   2
   3  -4   4 21.7525 1.51008   4
   3  -4   4 27.0581 2.49453   1
  -4   4  -4 2.27951 0.82675   2
  -4   4  -4 2.34315 0.66978   2
  -4   4  -4 3.19102 0.79450   1
  -4   4  -4 2.09657 0.77322   1
   4  -4   4 2.74796 0.83026   1
   4  -4   4 2.64864 0.68776   4
   4  -4   4 3.14970 0.80078   2
  -5   4  -4 22.9804 2.22757   1
  -5   4  -4 25.5176 1.80713   1
  -5   4  -4 27.7382 1.78778   2
  -5   4  -4 23.6440 2.27280   2
   5  -4   4 26.7254 1.51637   2
   5  -4   4 25.9390 1.84306   1
   5  -4   4 26.9741 1.86209   4
  -6   4  -4 0.04428 0.42211   1
  -6   4  -4 0.40821 0.53109   1
  -6   4  -4 -0.1704 0.47434   2
  -6   4  -4 -0.1142 0.39190   2
   6  -4   4 -0.1706 0.36537   1
   6  -4   4 -0.3304 0.37721   4
  -7   4  -4 42.8064 2.67283   2
  -7   4  -4 39.8935 2.56635   1
  -7   4  -4 42.7463 2.38450   1
  -7   4  -4 44.9890 2.34650   2
  -8   4  -4 121.890 4.62854   1
  -8   4  -4 128.230 4.60091   2
  -8   4  -4 120.037 5.01962   2
  -9   4  -4 48.5524 2.56057   1
  -9   4  -4 48.0280 2.89028   2
  -9   4  -4 48.4160 2.52756   2
 -10   4  -4 13.8619 1.53017   1
 -10   4  -4 11.5716 1.43924   2
 -11   4  -4 6.22645 1.11284   2
 -11   4  -4 6.42610 1.05933   1
  10   3  -4 9.71622 2.21509   5
 -10  -3   4 8.43483 1.79515   3
 -10  -3   4 6.46010 1.78377   2
 -10  -3   4 7.39659 1.84898   1
   9   3  -4 21.8934 2.92397   5
  -9  -3   4 23.0845 2.89086   2
  -9  -3   4 26.1868 3.03771   1
  -9  -3   4 24.7206 2.74518   3
   8   3  -4 2.55829 1.22912   5
  -8  -3   4 3.05143 1.27694   2
  -8  -3   4 2.56605 1.20522   1
  -8  -3   4 1.63539 0.91062   3
   7   3  -4 23.5572 2.57950   5
  -7  -3   4 26.4293 2.80938   1
  -7  -3   4 16.8814 2.33497   2
  -7  -3   4 23.4438 2.39340   3
   6   3  -4 85.9873 3.98588   5
  -6  -3   4 79.2419 4.23932   2
  -6  -3   4 73.2554 3.65251   1
  -6  -3   4 77.7669 3.65737   2
  -6  -3   4 75.7176 4.16413   1
  -6  -3   4 71.8659 3.56177   3
   5   3  -4 14.8788 1.74996   5
  -5  -3   4 12.1241 1.84556   2
  -5  -3   4 13.3376 1.58467   3
  -5  -3   4 13.1625 1.65030   2
  -5  -3   4 11.1201 1.77461   1
  -5  -3   4 13.4938 1.71179   1
   4   3  -4 7.05447 1.12869   5
   4   3  -4 6.00068 0.99716   1
   4   3  -4 4.95086 0.86654   2
  -4  -3   4 7.29394 1.22531   1
  -4  -3   4 5.54626 1.28652   2
  -4  -3   4 7.98499 1.17064   3
  -4  -3   4 6.38783 1.31987   1
  -4  -3   4 8.27859 1.25754   2
   3   3  -4 372.879 10.7178   1
   3   3  -4 339.228 10.4533   2
   3   3  -4 377.453 10.3336   5
  -3  -3   4 365.401 10.7393   2
  -3  -3   4 373.213 11.4474   2
  -3  -3   4 364.273 10.8257   1
  -3  -3   4 353.925 11.3050   1
  -3  -3   4 374.349 10.2839   3
   2   3  -4 2165.21 54.1943   1
   2   3  -4 2073.60 54.0758   2
   2   3  -4 2163.57 53.4472   5
  -2  -3   4 2129.96 54.9095   2
  -2  -3   4 2248.43 55.0112   1
  -2  -3   4 2164.48 55.3258   3
  -2  -3   4 2147.74 54.2930   1
  -2  -3   4 2148.39 54.1592   2
   1   3  -4 13.4996 1.48358   1
   1   3  -4 12.3546 1.41780   2
   1   3  -4 11.9128 1.55993   1
   1   3  -4 13.0489 0.86043   5
  -1  -3   4 12.7303 1.42477   2
  -1  -3   4 13.0456 1.70770   2
  -1  -3   4 14.3969 1.82851   1
  -1  -3   4 12.1367 1.05498   3
  -1  -3   4 11.9546 1.48730   1
   0   3  -4 1.79711 0.63418   2
   0   3  -4 1.43590 0.71232   1
   0   3  -4 1.14133 0.56276   1
   0   3  -4 1.00903 0.33604   3
   0   3  -4 0.17609 0.60911   2
   0  -3   4 0.68462 0.66407   1
   0  -3   4 1.08283 0.54018   2
   0  -3   4 1.07276 0.66411   2
   0  -3   4 0.83245 0.47611   1
  -1   3  -4 50.6848 2.44021   2
  -1   3  -4 45.9852 2.68859   1
  -1   3  -4 46.6319 2.67783   2
  -1   3  -4 51.0176 2.50885   1
   1  -3   4 41.9642 2.62604   1
   1  -3   4 49.5615 2.42948   1
   1  -3   4 46.6698 2.67099   2
  -2   3  -4 16.3864 1.57086   1
  -2   3  -4 22.1302 2.14507   1
  -2   3  -4 21.5934 1.81282   2
  -2   3  -4 22.8525 2.16646   2
   2  -3   4 17.8479 1.88287   1
   2  -3   4 19.4408 1.87445   2
   2  -3   4 20.8212 1.77897   1
   2  -3   4 19.7526 1.45368   4
  -3   3  -4 1.48278 0.41018   5
  -3   3  -4 1.95000 0.76518   1
  -3   3  -4 1.44132 0.65946   2
  -3   3  -4 1.98670 0.65004   1
  -3   3  -4 1.61332 0.58943   2
   3  -3   4 2.49095 0.73364   2
   3  -3   4 1.95532 0.64880   1
   3  -3   4 0.88219 0.43797   4
   3  -3   4 2.51215 0.79561   1
  -4   3  -4 1.64446 0.62841   1
  -4   3  -4 1.47489 0.56807   2
  -4   3  -4 2.05835 0.71791   1
   4  -3   4 2.45210 0.70539   1
   4  -3   4 2.41903 0.59488   2
   4  -3   4 2.04423 0.62069   4
  -5   3  -4 3.13095 0.82128   2
  -5   3  -4 3.54630 0.94268   1
  -5   3  -4 3.02574 0.70046   2
  -5   3  -4 3.17401 0.75986   1
   5  -3   4 2.67329 0.64367   1
   5  -3   4 3.61015 0.83126   4
  -6   3  -4 27.9741 1.68935   2
  -6   3  -4 26.8197 1.73771   1
  -6   3  -4 26.7854 2.33016   1
  -6   3  -4 28.8546 1.97224   2
  -7   3  -4 20.0230 1.95937   1
  -7   3  -4 19.8511 1.72559   1
  -7   3  -4 17.7130 1.79634   2
  -7   3  -4 20.6371 1.45262   2
  -8   3  -4 5.60193 0.96988   1
  -8   3  -4 6.15409 1.11573   2
  -8   3  -4 6.12026 1.01661   2
  -9   3  -4 13.9598 1.65559   2
  -9   3  -4 12.7449 1.44471   1
  -9   3  -4 14.4476 1.50941   2
 -10   3  -4 4.97828 0.87148   1
 -10   3  -4 4.98844 0.95525   2
 -11   3  -4 0.25201 0.68100   3
 -11   3  -4 0.00151 0.45215   2
  10   2  -4 11.2341 2.08662   5
 -10  -2   4 8.09666 1.77961   2
 -10  -2   4 8.41955 1.77805   1
 -10  -2   4 11.5095 2.07637   3
   9   2  -4 69.7705 4.25615   5
  -9  -2   4 71.0822 4.05554   1
  -9  -2   4 64.5156 3.83315   3
  -9  -2   4 68.3978 4.06700   2
   8   2  -4 42.8908 3.65141   5
  -8  -2   4 39.5216 3.41622   1
  -8  -2   4 42.1447 2.82542   3
  -8  -2   4 37.2244 3.33078   2
   7   2  -4 66.6733 3.66964   5
  -7  -2   4 61.1705 3.15497   2
  -7  -2   4 71.2203 3.81775   1
  -7  -2   4 66.5932 3.70015   2
  -7  -2   4 61.8457 3.34189   3
   6   2  -4 155.575 5.85248   5
  -6  -2   4 151.659 5.53933   2
  -6  -2   4 162.405 6.20454   1
  -6  -2   4 156.804 5.63797   1
  -6  -2   4 146.734 6.03630   2
  -6  -2   4 159.585 5.72735   3
   5   2  -4 79.1480 3.40161   1
   5   2  -4 103.431 4.07811   5
  -5  -2   4 97.9991 3.95526   2
  -5  -2   4 102.110 4.04614   1
  -5  -2   4 101.951 3.96293   3
  -5  -2   4 103.314 4.49900   1
  -5  -2   4 103.748 4.51198   2
   4   2  -4 114.613 4.15533   1
   4   2  -4 110.877 3.92411   2
   4   2  -4 109.138 4.09240   5
  -4  -2   4 112.564 4.72473   2
  -4  -2   4 108.997 4.28486   1
  -4  -2   4 115.461 4.76159   1
  -4  -2   4 116.108 4.14359   3
  -4  -2   4 117.673 4.34795   2
   3   2  -4 41.5448 1.99182   5
   3   2  -4 44.2546 2.25489   1
   3   2  -4 43.1002 2.17464   2
  -3  -2   4 40.1526 2.52127   2
  -3  -2   4 42.9639 2.59467   1
  -3  -2   4 43.3818 2.31060   1
  -3  -2   4 38.9869 2.19313   2
  -3  -2   4 43.2443 2.02027   3
   2   2  -4 106.336 3.38341   5
   2   2  -4 106.488 3.97730   1
   2   2  -4 105.692 4.23482   1
   2   2  -4 102.976 3.90154   2
  -2  -2   4 107.390 4.02751   1
  -2  -2   4 98.9059 3.87769   2
  -2  -2   4 106.649 4.36319   1
  -2  -2   4 103.995 3.31900   5
  -2  -2   4 102.513 3.43637   3
  -2  -2   4 105.533 4.36929   2
   1   2  -4 8.19489 0.68496   5
   1   2  -4 11.6301 1.32798   1
   1   2  -4 8.87256 1.12358   2
   1   2  -4 8.42620 0.81631   3
   1   2  -4 9.06946 1.32886   1
  -1  -2   4 11.9736 1.61781   1
  -1  -2   4 10.4529 0.89127   3
  -1  -2   4 9.41489 1.39498   2
  -1  -2   4 8.95596 1.16536   1
  -1  -2   4 9.30651 1.17145   2
   0   2  -4 8.90305 0.59865   3
   0   2  -4 8.43351 1.07946   2
   0   2  -4 6.52871 1.11403   1
   0   2  -4 9.71117 1.22015   1
   0   2  -4 7.51097 1.20261   2
   0   2  -4 9.50696 0.47016   5
   0  -2   4 7.92111 1.23376   2
   0  -2   4 11.5587 1.29713   2
   0  -2   4 10.4372 1.40874   1
   0  -2   4 8.20298 1.10906   1
  -1   2  -4 972.271 23.5864   3
  -1   2  -4 961.864 24.8694   2
  -1   2  -4 932.335 24.3827   1
  -1   2  -4 893.831 24.7395   1
  -1   2  -4 959.907 24.4089   2
   1  -2   4 903.749 24.2628   1
   1  -2   4 962.290 24.8588   1
   1  -2   4 940.629 24.2625   2
   1  -2   4 947.415 24.7064   2
  -2   2  -4 47.4380 1.70224   5
  -2   2  -4 51.7156 2.36236   1
  -2   2  -4 50.2636 2.59573   2
  -2   2  -4 52.2642 2.37013   2
  -2   2  -4 49.3885 2.61156   1
   2  -2   4 51.5251 2.13997   4
   2  -2   4 49.2234 2.54734   1
   2  -2   4 49.0284 2.26921   1
  -3   2  -4 104.113 4.08370   1
  -3   2  -4 100.351 3.26274   5
  -3   2  -4 99.5930 3.66567   2
  -3   2  -4 99.9339 3.95774   2
  -3   2  -4 103.019 3.66231   4
  -3   2  -4 101.345 3.71430   1
   3  -2   4 99.9718 3.55588   1
   3  -2   4 105.207 3.69120   4
   3  -2   4 96.3878 3.84336   1
   3  -2   4 103.227 3.60430   2
  -4   2  -4 61.7815 2.63570   2
  -4   2  -4 64.5154 3.02601   1
  -4   2  -4 64.9053 2.91740   2
  -4   2  -4 70.9687 2.82045   1
   4  -2   4 61.8004 2.41337   1
   4  -2   4 60.7885 2.82045   4
   4  -2   4 65.2278 2.15708   2
  -5   2  -4 82.5665 3.32557   2
  -5   2  -4 77.8090 3.10580   1
  -5   2  -4 75.4236 3.02312   2
  -5   2  -4 79.7793 3.44638   1
   5  -2   4 80.3058 2.54170   1
   5  -2   4 77.6704 2.45132   1
  -6   2  -4 1.27662 0.60083   1
  -6   2  -4 1.09812 0.46530   2
  -6   2  -4 1.46808 0.61176   2
  -6   2  -4 1.38172 0.54239   1
   6  -2   4 0.45408 0.53350   5
  -7   2  -4 18.6841 1.70714   2
  -7   2  -4 18.2093 1.57503   1
  -7   2  -4 17.2063 1.76425   1
  -7   2  -4 19.8440 1.61740   2
   7  -2   4 16.2805 1.87301   5
  -8   2  -4 76.5555 3.10750   1
  -8   2  -4 74.6749 3.06580   2
  -8   2  -4 74.2248 3.23644   2
  -9   2  -4 10.4913 1.23835   2
  -9   2  -4 10.8358 1.37569   2
  -9   2  -4 10.7293 1.23924   1
  -9   2  -4 11.9437 1.58300   3
 -10   2  -4 0.62910 0.54385   2
 -10   2  -4 0.51060 0.60328   3
 -11   2  -4 2.98072 1.04994   3
 -11   2  -4 2.97470 0.81388   2
  11   1  -4 7.26689 1.92032   5
 -11  -1   4 7.73933 1.74856   3
 -11  -1   4 7.33986 1.54066   1
 -11  -1   4 8.36874 1.70429   2
  10   1  -4 0.15598 0.76401   5
 -10  -1   4 -0.8540 0.65874   2
 -10  -1   4 0.30819 0.76951   1
 -10  -1   4 0.75023 0.95410   3
   9   1  -4 -0.1335 0.75690   5
  -9  -1   4 -0.2422 0.69808   3
  -9  -1   4 1.91060 0.94559   1
  -9  -1   4 -0.3416 0.69414   2
   8   1  -4 0.73310 0.67193   5
  -8  -1   4 -0.1134 0.60367   1
  -8  -1   4 -0.8368 0.54149   2
  -8  -1   4 0.33782 0.52503   2
  -8  -1   4 0.95358 0.74559   3
   7   1  -4 17.8530 2.09663   5
  -7  -1   4 21.6172 2.25514   1
  -7  -1   4 14.7917 1.80923   3
  -7  -1   4 21.9121 1.99666   1
  -7  -1   4 22.3352 2.28803   2
  -7  -1   4 18.1918 1.83081   2
   6   1  -4 8.54453 1.35558   5
  -6  -1   4 10.4222 1.41061   3
  -6  -1   4 11.3439 1.37962   2
  -6  -1   4 11.3643 1.38699   1
  -6  -1   4 9.71301 1.55089   1
  -6  -1   4 8.99838 1.44330   2
   5   1  -4 140.180 5.01387   5
  -5  -1   4 137.355 5.37442   1
  -5  -1   4 136.134 4.91811   2
  -5  -1   4 145.458 4.98279   1
  -5  -1   4 137.184 4.91475   3
  -5  -1   4 142.244 5.33816   2
   4   1  -4 125.199 4.35088   5
   4   1  -4 123.331 4.20443   2
   4   1  -4 125.218 4.35514   1
  -4  -1   4 120.377 4.87711   1
  -4  -1   4 133.105 4.41693   3
  -4  -1   4 130.310 4.56426   2
  -4  -1   4 128.605 4.54883   1
  -4  -1   4 126.146 4.84878   2
   3   1  -4 69.3054 2.89553   1
   3   1  -4 66.5741 2.78603   2
   3   1  -4 68.7757 2.58592   5
  -3  -1   4 68.8496 3.20523   2
  -3  -1   4 66.4888 2.88585   1
  -3  -1   4 70.8731 3.30227   1
  -3  -1   4 71.1236 2.59642   5
  -3  -1   4 69.1830 2.94680   2
  -3  -1   4 66.6230 2.61840   3
   2   1  -4 0.55623 0.42558   2
   2   1  -4 0.88279 0.59142   1
   2   1  -4 0.60658 0.47440   1
   2   1  -4 0.09863 0.22455   5
  -2  -1   4 0.55917 0.42465   2
  -2  -1   4 1.08936 0.57393   2
  -2  -1   4 0.11286 0.44178   1
  -2  -1   4 -0.0291 0.35320   1
  -2  -1   4 0.11392 0.21023   5
  -2  -1   4 0.07201 0.25814   3
   1   1  -4 53.6700 2.43451   1
   1   1  -4 53.1800 1.63124   5
   1   1  -4 54.0240 2.63966   2
   1   1  -4 49.9977 2.35733   2
   1   1  -4 46.3334 2.55792   1
  -1  -1   4 48.7416 2.32593   2
  -1  -1   4 49.6178 2.63981   1
  -1  -1   4 54.4229 2.42420   1
  -1  -1   4 48.7596 2.57774   2
  -1  -1   4 53.0154 1.60303   5
  -1  -1   4 53.7032 1.81810   3
   0   1  -4 5.27190 0.97043   2
   0   1  -4 3.34325 0.70990   1
   0   1  -4 4.06384 0.77118   2
   0   1  -4 4.14900 0.92402   1
   0  -1   4 3.93082 0.91936   1
   0  -1   4 4.01636 0.75053   2
   0  -1   4 3.92643 0.80965   1
   0  -1   4 4.47482 0.39664   3
   0  -1   4 6.12031 1.06692   2
  -1   1  -4 293.814 7.37295   5
  -1   1  -4 292.097 8.48438   1
  -1   1  -4 286.906 7.24248   3
  -1   1  -4 303.493 8.52269   2
  -1   1  -4 299.036 8.78156   2
  -1   1  -4 294.954 8.85212   1
   1  -1   4 291.886 7.93683   4
   1  -1   4 287.573 8.77985   1
   1  -1   4 288.982 8.35415   2
   1  -1   4 293.256 8.44529   1
   1  -1   4 300.118 8.64173   2
  -2   1  -4 243.990 7.43511   2
  -2   1  -4 246.672 6.89480   4
  -2   1  -4 243.593 6.48001   5
  -2   1  -4 240.923 7.16537   2
  -2   1  -4 242.748 7.21837   1
  -2   1  -4 233.681 7.52051   1
   2  -1   4 241.444 6.48900   5
   2  -1   4 252.116 7.16788   2
   2  -1   4 234.276 7.06056   1
   2  -1   4 234.660 6.89765   4
   2  -1   4 249.702 7.46603   1
  -3   1  -4 1278.72 32.6046   2
  -3   1  -4 1312.92 32.4757   1
  -3   1  -4 1305.15 32.8651   1
  -3   1  -4 1270.20 32.3777   4
  -3   1  -4 1247.52 31.9764   5
  -3   1  -4 1290.15 32.3919   2
   3  -1   4 1233.72 31.9184   2
   3  -1   4 1311.60 32.4954   4
   3  -1   4 1271.26 32.4552   1
   3  -1   4 1300.27 32.0356   5
   3  -1   4 1253.66 32.1277   1
  -4   1  -4 170.242 5.56594   2
  -4   1  -4 177.429 5.51701   1
  -4   1  -4 165.318 5.76255   1
  -4   1  -4 178.411 5.45226   2
   4  -1   4 169.595 4.96647   1
   4  -1   4 175.362 5.15472   1
   4  -1   4 176.331 5.45734   5
  -5   1  -4 20.3925 1.86908   1
  -5   1  -4 22.7944 1.43469   2
  -5   1  -4 23.6199 1.50595   1
  -5   1  -4 21.3637 1.47554   2
   5  -1   4 24.1350 1.96171   5
  -6   1  -4 21.3367 1.47371   1
  -6   1  -4 20.6057 1.63641   3
  -6   1  -4 20.7366 1.83780   1
  -6   1  -4 22.8066 1.46879   2
  -6   1  -4 20.9630 1.46919   2
   6  -1   4 19.4945 1.92645   5
  -7   1  -4 0.02312 0.36740   1
  -7   1  -4 -0.0703 0.38181   2
  -7   1  -4 0.03092 0.41975   2
  -7   1  -4 0.26431 0.51347   1
  -7   1  -4 -0.3530 0.35993   3
   7  -1   4 0.01839 0.57998   5
  -8   1  -4 -0.0716 0.44245   2
  -8   1  -4 -0.0924 0.46840   3
  -8   1  -4 1.09123 0.56007   2
   8  -1   4 0.63335 0.69847   5
  -9   1  -4 6.70201 1.06178   2
  -9   1  -4 6.97670 1.05981   2
  -9   1  -4 4.98786 1.09540   3
   9  -1   4 4.54343 1.27651   5
 -10   1  -4 12.4255 1.66699   3
 -10   1  -4 8.04805 1.17250   2
  10  -1   4 7.51619 1.58587   5
 -11   1  -4 7.15747 1.41754   3
 -11   1  -4 7.86307 1.17423   2
 -11   0   4 2.90638 1.06172   1
 -11   0   4 1.02607 0.95702   3
 -11   0   4 1.50482 0.87615   2
  10   0  -4 0.39121 0.74208   5
 -10   0   4 -0.6615 0.56374   3
 -10   0   4 1.28279 0.81200   2
 -10   0   4 0.12001 0.68576   1
   9   0  -4 -0.2674 0.55962   5
  -9   0   4 0.15929 0.64678   1
  -9   0   4 0.89344 0.80624   3
  -9   0   4 -0.6390 0.56392   2
  -9   0   4 -0.1651 0.46938   2
   8   0  -4 0.74223 0.71200   5
  -8   0   4 0.61664 0.61848   2
  -8   0   4 -0.3299 0.51493   3
  -8   0   4 0.01657 0.65017   1
  -8   0   4 0.37599 0.51416   2
   7   0  -4 47.0769 2.81387   5
  -7   0   4 47.4841 2.53429   2
  -7   0   4 54.0035 2.94904   1
  -7   0   4 47.9011 2.50620   1
  -7   0   4 53.5218 2.88784   2
   6   0  -4 152.521 5.52981   5
  -6   0   4 158.069 5.73722   1
  -6   0   4 150.395 5.25993   2
  -6   0   4 152.994 5.60285   2
  -6   0   4 157.257 5.34642   1
   5   0  -4 136.999 4.85910   5
  -5   0   4 144.836 4.93270   2
  -5   0   4 145.678 5.31848   1
  -5   0   4 139.981 4.88873   1
  -5   0   4 137.915 5.12945   2
   4   0  -4 33.2020 1.72369   2
   4   0  -4 33.8683 1.94482   1
   4   0  -4 31.1766 1.68145   5
  -4   0   4 30.3338 1.98232   2
  -4   0   4 30.5642 2.05825   1
  -4   0   4 35.2398 1.93496   2
  -4   0   4 31.5080 1.85985   1
   3   0  -4 2.50190 0.63071   2
   3   0  -4 1.96096 0.68202   1
   3   0  -4 1.24648 0.38825   5
  -3   0   4 3.02512 0.57480   5
  -3   0   4 2.96623 0.71610   2
  -3   0   4 2.08895 0.70521   1
  -3   0   4 1.90737 0.56602   1
  -3   0   4 1.13043 0.54739   2
   2   0  -4 47.0576 2.23715   2
   2   0  -4 49.5228 2.29981   1
   2   0  -4 43.3822 2.40906   1
  -2   0   4 42.2888 2.16380   1
  -2   0   4 46.8956 1.69964   5
  -2   0   4 49.2935 2.44021   2
  -2   0   4 47.4602 2.50763   1
  -2   0   4 48.7063 2.29492   2
   1   0  -4 251.655 7.50988   1
   1   0  -4 243.215 7.78177   1
   1   0  -4 258.073 7.74688   2
   1   0  -4 247.454 7.46879   2
  -1   0   4 248.091 6.43039   5
  -1   0   4 247.732 7.44535   2
  -1   0   4 249.426 7.46471   1
  -1   0   4 259.323 7.68306   2
  -1   0   4 252.854 7.83088   1
   0   0  -4 101.031 3.75093   1
   0   0  -4 102.508 3.90078   2
   0   0  -4 99.8390 3.69763   2
   0   0  -4 106.073 4.05946   1
   0   0   4 103.188 3.71662   2
   0   0   4 104.444 3.04989   4
   0   0   4 102.568 3.83120   2
   0   0   4 110.438 3.77824   1
   0   0   4 100.060 3.98235   1
  -1   0  -4 96.9552 3.56173   1
  -1   0  -4 94.0684 3.51157   2
  -1   0  -4 96.7415 3.01891   4
  -1   0  -4 101.475 3.86541   1
  -1   0  -4 95.5315 3.64348   2
   1   0   4 95.1476 3.03989   4
   1   0   4 96.6042 3.74834   1
   1   0   4 94.1284 3.49260   2
   1   0   4 96.0137 2.76382   5
   1   0   4 88.4034 3.40958   1
  -2   0  -4 375.871 10.0959   5
  -2   0  -4 392.479 10.7593   2
  -2   0  -4 381.349 9.63789   3
  -2   0  -4 380.086 10.7751   1
  -2   0  -4 386.461 11.1174   1
  -2   0  -4 392.901 10.4393   4
  -2   0  -4 382.992 10.8487   2
   2   0   4 387.662 10.1745   5
   2   0   4 396.048 10.6044   1
   2   0   4 388.369 10.4647   2
   2   0   4 388.650 10.8937   1
  -3   0  -4 103.317 3.03002   3
  -3   0  -4 106.687 3.75159   2
  -3   0  -4 100.640 3.46225   5
  -3   0  -4 98.9129 3.95373   1
  -3   0  -4 105.181 3.81109   1
  -3   0  -4 108.187 3.76917   4
  -3   0  -4 107.914 3.83559   2
   3   0   4 99.6248 3.17293   2
   3   0   4 106.365 3.50835   1
   3   0   4 107.029 3.58087   5
  -4   0  -4 3.54909 0.72754   2
  -4   0  -4 4.44621 0.89888   1
  -4   0  -4 3.92770 0.57070   3
  -4   0  -4 3.56465 0.72403   1
  -4   0  -4 4.41074 0.75808   2
   4   0   4 4.34495 0.56628   1
   4   0   4 4.20951 0.57400   1
   4   0   4 2.72587 0.65711   5
  -5   0  -4 173.352 5.83475   1
  -5   0  -4 174.144 5.55037   2
  -5   0  -4 173.752 5.22752   3
  -5   0  -4 168.730 5.51499   2
   5   0   4 170.310 5.85340   5
  -6   0  -4 53.1773 2.37616   3
  -6   0  -4 52.4981 2.47093   2
  -6   0  -4 52.2814 2.69392   1
  -6   0  -4 53.9613 2.49404   2
   6   0   4 50.8990 2.85933   5
  -7   0  -4 36.7907 2.08285   2
  -7   0  -4 34.4490 2.19326   1
  -7   0  -4 35.8594 2.04988   2
  -7   0  -4 39.2565 2.13951   3
   7   0   4 39.2040 2.62719   5
  -8   0  -4 2.17950 0.73208   2
  -8   0  -4 1.38895 0.61263   2
  -8   0  -4 2.14886 0.74519   3
   8   0   4 2.57352 1.02638   5
  -9   0  -4 4.56864 1.05329   3
  -9   0  -4 5.25103 1.04605   2
   9   0   4 2.92685 1.21123   5
 -10   0  -4 1.51347 0.77358   3
 -10   0  -4 0.95256 0.69440   2
  10   0   4 -0.6540 0.61634   5
 -11   1   4 1.33657 0.80111   2
 -11   1   4 0.04130 0.63549   1
 -11   1   4 -0.1310 0.69449   3
 -10   1   4 0.29301 0.63655   2
 -10   1   4 -1.2503 0.46637   1
  -9   1   4 15.6151 1.88181   2
  -9   1   4 17.1602 1.80265   2
  -9   1   4 19.7964 2.14852   1
  -8   1   4 91.5682 4.07878   1
  -8   1   4 86.8612 3.92103   2
  -8   1   4 86.9077 3.65627   2
  -8   1   4 86.4210 3.65535   1
  -7   1   4 6.45882 1.03767   1
  -7   1   4 8.41734 1.32827   2
  -7   1   4 8.15107 1.33624   1
  -7   1   4 7.82581 1.15856   2
  -6   1   4 57.1351 2.71457   1
  -6   1   4 64.4620 2.82479   2
  -6   1   4 51.3274 2.86548   1
  -6   1   4 57.7026 2.88381   2
   5  -1  -4 7.59074 0.85330   2
  -5   1   4 10.7062 1.43079   1
  -5   1   4 9.37194 1.25495   1
  -5   1   4 6.99204 1.10186   2
  -5   1   4 8.14105 1.15084   2
   4  -1  -4 0.68074 0.45731   2
   4  -1  -4 0.11504 0.43254   1
  -4   1   4 -0.1122 0.33020   2
  -4   1   4 0.06253 0.37627   1
  -4   1   4 0.40306 0.48168   2
  -4   1   4 -0.6162 0.31146   1
   3  -1  -4 27.1167 1.82346   1
  -3   1   4 27.2309 1.35621   5
  -3   1   4 28.3015 1.71733   1
  -3   1   4 28.0679 1.71760   2
  -3   1   4 27.6262 1.80915   2
  -3   1   4 26.1412 1.87430   1
   2  -1  -4 83.5299 3.49843   2
   2  -1  -4 88.8884 3.48549   2
   2  -1  -4 85.7864 3.65718   1
  -2   1   4 87.5626 3.68977   1
  -2   1   4 91.7864 3.49812   2
  -2   1   4 90.5249 3.47636   1
  -2   1   4 95.2226 3.60222   2
   1  -1  -4 3.50835 0.80420   2
   1  -1  -4 5.18620 0.99279   1
   1  -1  -4 3.40517 0.76823   2
  -1   1   4 4.29665 0.37889   4
  -1   1   4 4.51231 0.80969   1
  -1   1   4 3.81732 0.78488   2
  -1   1   4 6.99088 1.02477   2
   0  -1  -4 210.252 6.81923   2
   0  -1  -4 228.778 6.83313   2
   0  -1  -4 226.566 5.82741   4
   0  -1  -4 211.881 7.00672   1
   0   1   4 226.820 6.75805   2
   0   1   4 222.249 5.85826   4
   0   1   4 211.896 6.72534   1
   0   1   4 222.035 7.03240   1
  -1  -1  -4 906.396 22.8856   4
  -1  -1  -4 873.116 23.9105   1
  -1  -1  -4 915.296 23.7125   2
  -1  -1  -4 904.229 23.6357   2
   1   1   4 893.178 22.6227   3
   1   1   4 918.335 22.7902   5
   1   1   4 918.460 23.8181   1
   1   1   4 952.833 23.6185   1
  -2  -1  -4 96.7055 3.92473   1
  -2  -1  -4 102.158 3.27420   5
  -2  -1  -4 91.7669 3.63524   2
  -2  -1  -4 99.0875 3.41865   4
  -2  -1  -4 100.525 3.76019   2
   2   1   4 102.250 3.75264   1
   2   1   4 104.753 3.37396   5
   2   1   4 101.013 3.39233   2
   2   1   4 100.244 3.60574   1
  -3  -1  -4 118.045 4.17896   4
  -3  -1  -4 120.929 3.52475   3
  -3  -1  -4 115.663 4.44665   1
  -3  -1  -4 122.260 4.29214   2
  -3  -1  -4 120.703 4.21427   2
   3   1   4 122.491 4.09242   5
   3   1   4 111.248 3.89451   1
   3   1   4 116.374 3.53828   2
  -4  -1  -4 1.15675 0.60793   1
  -4  -1  -4 2.18020 0.63780   2
  -4  -1  -4 2.25911 0.62126   2
  -4  -1  -4 1.97813 0.46051   3
   4   1   4 1.81451 0.40721   1
   4   1   4 2.12406 0.45299   1
   4   1   4 1.06360 0.51083   5
  -5  -1  -4 26.6925 1.48033   3
  -5  -1  -4 26.8455 1.70318   2
  -5  -1  -4 25.6406 1.73245   2
  -5  -1  -4 24.3877 2.13485   1
   5   1   4 23.3538 2.12795   5
  -6  -1  -4 163.314 5.71568   2
  -6  -1  -4 162.631 5.33641   3
  -6  -1  -4 162.648 5.84907   1
  -6  -1  -4 160.285 5.50734   2
   6   1   4 178.439 6.30595   5
  -7  -1  -4 21.1797 2.01312   2
  -7  -1  -4 21.9624 1.89019   3
  -7  -1  -4 22.1919 1.89456   2
   7   1   4 18.6956 2.25321   5
  -8  -1  -4 19.2803 1.92559   3
  -8  -1  -4 23.5085 2.18416   2
  -8  -1  -4 18.1100 1.81817   2
   8   1   4 18.3603 2.41373   5
  -9  -1  -4 -0.5137 0.52983   3
  -9  -1  -4 -0.1038 0.61340   2
  -9  -1  -4 -0.4235 0.48884   1
   9   1   4 -0.7371 0.59027   5
 -10  -1  -4 -0.9703 0.55839   2
 -10  -1  -4 0.38617 0.65726   3
  10   1   4 2.40106 1.38720   5
 -12   2   4 3.90421 1.15930   2
 -12   2   4 3.27125 1.34196   3
 -11   2   4 6.98456 1.32602   2
 -11   2   4 8.27407 1.46662   1
 -10   2   4 1.35909 0.80864   1
 -10   2   4 1.81919 0.82720   2
  -9   2   4 7.12907 1.27271   2
  -9   2   4 7.00825 1.23334   2
  -9   2   4 5.23331 1.15592   1
  -8   2   4 11.0574 1.41373   1
  -8   2   4 10.8673 1.52637   1
  -8   2   4 11.1346 1.41126   2
  -8   2   4 9.81659 1.41691   2
   7  -2  -4 61.8948 2.06691   1
   7  -2  -4 65.2453 2.22905   1
  -7   2   4 59.5900 2.91428   1
  -7   2   4 62.8589 3.00137   2
  -7   2   4 60.0267 3.17427   1
  -7   2   4 66.7561 3.15061   2
   6  -2  -4 98.7249 3.53041   1
  -6   2   4 98.6303 4.21370   1
  -6   2   4 97.1842 3.97448   2
  -6   2   4 102.369 3.96601   1
  -6   2   4 101.908 4.00419   2
   5  -2  -4 16.2954 1.41500   2
  -5   2   4 13.9646 1.49742   2
  -5   2   4 14.1702 1.53755   2
  -5   2   4 12.9504 1.59137   1
   4  -2  -4 8.91258 1.30846   1
   4  -2  -4 8.12167 1.07957   2
   4  -2  -4 8.10637 1.11152   2
  -4   2   4 6.96984 1.08744   2
  -4   2   4 10.1794 1.29625   2
  -4   2   4 10.6660 1.46984   1
   3  -2  -4 3.42675 0.84121   2
   3  -2  -4 3.54885 0.92537   1
  -3   2   4 2.58317 0.76106   2
  -3   2   4 2.34822 0.68769   2
  -3   2   4 3.97431 0.91555   1
   2  -2  -4 33.6446 2.10377   1
   2  -2  -4 29.2709 1.88246   2
   2  -2  -4 28.0059 1.84711   2
  -2   2   4 30.2499 1.89273   2
  -2   2   4 32.7415 1.94179   2
  -2   2   4 31.5275 2.06559   1
   1  -2  -4 7.27976 1.11510   2
   1  -2  -4 8.40925 1.28919   1
   1  -2  -4 8.43042 1.19333   2
  -1   2   4 8.24742 1.11733   2
  -1   2   4 10.4831 1.31132   2
  -1   2   4 8.81965 1.31792   1
   0  -2  -4 225.209 7.40335   2
   0  -2  -4 246.870 7.41140   2
   0  -2  -4 232.419 7.60271   1
   0  -2  -4 241.140 6.30649   4
   0   2   4 241.974 7.53489   1
   0   2   4 236.799 7.21147   2
  -1  -2  -4 2.26916 0.77893   1
  -1  -2  -4 3.66180 0.83530   2
  -1  -2  -4 2.95675 0.75613   2
   1   2   4 2.86873 0.53173   5
   1   2   4 2.98760 0.43000   3
   1   2   4 3.42226 0.80506   1
   1   2   4 3.28789 0.74413   1
  -2  -2  -4 568.968 15.2814   2
  -2  -2  -4 517.180 15.5451   1
  -2  -2  -4 558.591 15.4599   2
   2   2   4 578.588 14.8571   5
   2   2   4 580.621 14.7864   2
   2   2   4 549.784 14.3174   3
   2   2   4 561.103 15.2094   1
  -3  -2  -4 182.697 6.08571   2
  -3  -2  -4 175.457 5.83221   2
  -3  -2  -4 172.951 6.17666   1
   3   2   4 172.806 5.70689   5
   3   2   4 178.451 5.57582   1
   3   2   4 174.254 5.11239   2
  -4  -2  -4 5.28392 1.09859   1
  -4  -2  -4 8.50491 1.25952   2
  -4  -2  -4 7.11326 0.88091   3
  -4  -2  -4 8.93297 1.20451   2
   4   2   4 7.30258 1.15257   5
   4   2   4 10.5689 1.04372   1
  -5  -2  -4 14.3791 1.82347   1
  -5  -2  -4 11.6844 1.23094   3
  -5  -2  -4 11.3225 1.51245   2
  -5  -2  -4 13.5645 1.52666   2
   5   2   4 14.0106 1.74553   5
  -6  -2  -4 8.25960 1.19426   3
  -6  -2  -4 6.25767 1.13459   2
  -6  -2  -4 6.70752 1.22715   2
   6   2   4 6.35716 1.32360   5
  -7  -2  -4 111.692 4.80019   2
  -7  -2  -4 113.514 4.37111   3
  -7  -2  -4 108.088 4.49189   2
   7   2   4 118.483 5.34049   5
  -8  -2  -4 11.9482 1.78243   2
  -8  -2  -4 11.2094 1.53548   3
  -8  -2  -4 9.02881 1.55786   2
  -8  -2  -4 10.8857 1.62308   1
   8   2   4 9.29471 1.86619   5
  -9  -2  -4 8.81491 1.47840   1
  -9  -2  -4 7.64142 1.44237   3
  -9  -2  -4 10.7534 1.69283   2
   9   2   4 8.63028 1.91085   5
 -12   3   4 4.44248 1.11896   1
 -12   3   4 3.50030 1.03777   2
 -11   3   4 -0.5687 0.56064   1
 -11   3   4 -1.0747 0.53631   2
 -10   3   4 19.3167 2.06153   2
 -10   3   4 22.3291 2.31317   1
  -9   3   4 48.0003 2.74639   2
  -9   3   4 47.3400 2.87484   1
  -9   3   4 36.9823 2.48346   2
  -8   3   4 89.5598 3.93633   2
  -8   3   4 83.0026 3.83833   2
  -8   3   4 93.7640 4.19786   1
   7  -3  -4 76.8123 2.94764   1
  -7   3   4 87.4831 3.70600   2
  -7   3   4 79.3149 3.77607   1
  -7   3   4 72.8510 3.48430   2
   6  -3  -4 42.1135 2.03397   2
   6  -3  -4 45.1642 2.24262   1
  -6   3   4 43.7011 2.48009   2
  -6   3   4 40.2191 2.42062   2
  -6   3   4 42.4440 2.61227   1
  -6   3   4 41.0925 2.04903   4
   5  -3  -4 100.968 3.92882   2
  -5   3   4 109.492 4.18854   2
  -5   3   4 97.1682 4.25104   1
  -5   3   4 98.9432 3.35006   4
  -5   3   4 95.9611 4.08348   2
  -4   3   4 160.071 5.74240   1
  -4   3   4 145.381 5.31151   2
  -4   3   4 156.527 5.51909   2
  -4   3   4 146.244 4.28937   4
   3  -3  -4 28.0600 1.96639   2
   3  -3  -4 28.5055 2.04529   1
   3  -3  -4 27.7308 2.32901   2
  -3   3   4 26.4366 0.93672   4
  -3   3   4 28.7353 2.08473   1
  -3   3   4 29.3347 2.38331   2
  -3   3   4 25.8682 1.79793   2
   2  -3  -4 130.420 5.13300   1
   2  -3  -4 135.440 5.11639   2
  -2   3   4 131.842 5.01765   2
  -2   3   4 142.289 4.91949   2
  -2   3   4 135.516 5.14308   1
   1  -3  -4 1205.04 30.9726   2
   1  -3  -4 1216.49 31.3860   1
   1  -3  -4 1204.40 31.2068   2
  -1   3   4 1145.31 30.7200   2
  -1   3   4 1204.54 31.1771   1
   0  -3  -4 886.021 24.5615   1
   0  -3  -4 946.848 24.2836   2
   0  -3  -4 913.923 24.4486   2
   0   3   4 943.008 24.4123   1
   0   3   4 898.303 23.8870   2
  -1  -3  -4 479.872 14.4868   1
  -1  -3  -4 514.360 14.1833   2
  -1  -3  -4 524.341 14.4985   2
   1   3   4 500.349 14.1700   1
   1   3   4 510.427 13.4820   5
   1   3   4 499.756 13.0328   3
  -2  -3  -4 260.769 8.04335   2
  -2  -3  -4 244.424 8.29837   1
  -2  -3  -4 251.241 8.22900   2
   2   3   4 251.061 7.46418   2
   2   3   4 254.263 7.87596   1
   2   3   4 255.968 7.56975   5
  -3  -3  -4 159.535 6.16482   1
  -3  -3  -4 174.046 5.90551   2
  -3  -3  -4 163.164 6.08974   2
   3   3   4 164.480 5.05308   2
   3   3   4 171.405 5.74269   5
   3   3   4 171.965 5.59965   1
  -4  -3  -4 13.6901 1.75789   2
  -4  -3  -4 14.5404 1.86602   1
  -4  -3  -4 15.3471 1.70119   2
   4   3   4 16.3172 1.39878   1
   4   3   4 16.4505 1.81546   5
  -5  -3  -4 55.1189 3.01107   2
  -5  -3  -4 60.3649 3.40305   1
  -5  -3  -4 61.1478 3.37071   2
   5   3   4 59.1373 2.02753   1
   5   3   4 66.1969 3.39638   5
  -6  -3  -4 13.8136 1.84496   1
  -6  -3  -4 10.7920 1.67495   2
  -6  -3  -4 11.6300 1.48861   3
  -6  -3  -4 13.5052 1.89117   2
   6   3   4 17.0849 2.23111   5
  -7  -3  -4 71.5180 4.03199   2
  -7  -3  -4 80.9836 4.01878   1
  -7  -3  -4 71.9889 3.42660   3
  -7  -3  -4 79.9827 4.15232   2
   7   3   4 77.0611 4.34190   5
  -8  -3  -4 8.89539 1.60513   1
  -8  -3  -4 7.70117 1.62999   2
  -8  -3  -4 5.51638 1.33846   3
   8   3   4 9.08409 1.89045   5
  -9  -3  -4 -0.6533 1.15125   3
  -9  -3  -4 5.03149 1.23733   1
  -9  -3  -4 3.04984 1.23734   2
   9   3   4 2.17091 1.29345   5
 -12   4   4 0.14264 0.68408   2
 -12   4   4 -1.2240 0.55392   1
 -11   4   4 5.51351 1.22659   2
 -11   4   4 7.15861 1.41369   1
 -10   4   4 102.852 4.73109   1
 -10   4   4 108.924 4.62951   2
  -9   4   4 7.50724 1.39422   2
  -9   4   4 5.94252 1.23466   2
  -9   4   4 7.88362 1.49482   1
   8  -4  -4 110.613 3.73318   1
  -8   4   4 110.247 4.58075   2
  -8   4   4 112.127 4.72691   2
  -8   4   4 105.723 4.74644   1
  -7   4   4 28.2994 2.41485   2
  -7   4   4 27.6000 2.53941   2
  -7   4   4 29.0845 2.65702   1
   6  -4  -4 47.2458 2.52558   2
   6  -4  -4 46.5549 2.54464   1
  -6   4   4 41.9603 2.66017   2
  -6   4   4 46.3595 2.09408   4
  -6   4   4 52.8934 2.76703   2
  -6   4   4 44.8593 2.80408   1
   5  -4  -4 247.090 8.03245   1
   5  -4  -4 248.208 8.08884   2
  -5   4   4 248.381 8.26126   2
  -5   4   4 254.612 6.94547   4
  -5   4   4 240.177 7.98956   2
  -5   4   4 257.609 8.40406   1
   4  -4  -4 58.7843 3.01733   1
   4  -4  -4 57.1490 3.06232   2
  -4   4   4 54.8777 3.08288   1
  -4   4   4 59.5141 2.95696   2
  -4   4   4 55.7115 3.05523   2
   3  -4  -4 206.456 7.30374   2
  -3   4   4 209.355 7.30611   2
  -3   4   4 227.835 7.49844   1
  -3   4   4 210.768 7.05370   2
   2  -4  -4 210.337 7.36337   2
   2  -4  -4 214.255 7.42710   2
   2  -4  -4 215.573 7.54220   1
  -2   4   4 216.428 7.00684   2
  -2   4   4 208.512 7.28899   1
  -2   4   4 208.215 7.82598   2
   1  -4  -4 56.7743 3.15089   2
   1  -4  -4 56.7334 3.22334   1
   1  -4  -4 59.3817 3.01118   2
   1  -4  -4 55.5327 3.12150   2
  -1   4   4 59.7476 2.86283   2
  -1   4   4 53.7548 3.03160   1
   0  -4  -4 0.31203 0.50524   2
   0  -4  -4 0.14692 0.53340   1
   0  -4  -4 0.34350 0.58453   2
   0  -4  -4 -0.2152 0.44970   2
   0   4   4 0.44135 0.57188   1
   0   4   4 -0.5651 0.31003   2
  -1  -4  -4 18.3319 2.13227   2
  -1  -4  -4 16.2114 1.82088   2
  -1  -4  -4 22.1527 2.42702   1
   1   4   4 18.5663 1.58311   5
   1   4   4 21.7583 2.11390   1
  -2  -4  -4 61.5091 3.50024   1
  -2  -4  -4 70.7011 3.37392   2
  -2  -4  -4 62.5991 3.49249   2
   2   4   4 65.5427 2.96176   5
   2   4   4 67.2790 2.88513   2
   2   4   4 65.9874 3.16201   1
  -3  -4  -4 11.9237 1.73538   2
  -3  -4  -4 13.3274 1.85417   1
  -3  -4  -4 15.7594 1.85753   2
  -3  -4  -4 11.7880 1.76333   2
   3   4   4 14.4599 1.64962   5
   3   4   4 15.2080 1.37292   2
   3   4   4 12.9482 1.53164   1
  -4  -4  -4 28.0937 2.78938   2
  -4  -4  -4 28.7251 2.81493   2
  -4  -4  -4 23.3629 2.30717   2
  -4  -4  -4 31.3776 2.99915   1
  -4  -4  -4 25.3727 2.62901   1
   4   4   4 34.3048 2.82917   5
   4   4   4 30.6815 1.86597   1
  -5  -4  -4 0.89949 0.85693   2
  -5  -4  -4 -0.3352 0.65328   2
  -5  -4  -4 0.51232 0.70938   1
   5   4   4 0.11899 0.63805   5
  -6  -4  -4 2.23448 1.06935   2
  -6  -4  -4 3.68207 1.22696   1
   6   4   4 4.10805 1.29106   5
  -7  -4  -4 0.77472 0.74584   1
  -7  -4  -4 -0.8415 0.76118   2
   7   4   4 -0.3140 0.65565   5
  -8  -4  -4 0.56756 0.97194   1
  -8  -4  -4 -0.2135 0.93371   2
   8   4   4 1.44203 1.24466   5
 -12   5   4 0.43757 0.74876   2
 -12   5   4 1.57982 0.87318   1
 -11   5   4 0.89379 0.76408   1
 -11   5   4 0.63487 0.75349   2
 -10   5   4 1.24024 0.77240   1
 -10   5   4 1.13668 0.77871   2
  -9   5   4 34.8057 2.46663   2
  -9   5   4 37.8637 3.27180   1
  -9   5   4 29.0725 3.18117   2
   8  -5  -4 6.08031 1.08858   1
  -8   5   4 6.58697 1.30687   2
  -8   5   4 5.47461 1.26969   2
  -8   5   4 7.17254 1.51780   1
   7  -5  -4 -0.0364 0.53580   2
   7  -5  -4 0.05068 0.47350   1
  -7   5   4 -0.2287 0.45515   2
  -7   5   4 -0.3367 0.52135   1
  -7   5   4 0.04228 0.34051   4
  -7   5   4 0.40686 0.58197   2
   6  -5  -4 1.15815 0.66338   1
   6  -5  -4 3.43360 0.93662   2
  -6   5   4 1.53709 0.79578   1
  -6   5   4 1.94823 0.83529   2
  -6   5   4 1.31758 0.75011   2
  -6   5   4 0.88702 0.38307   4
   5  -5  -4 100.767 4.46526   1
  -5   5   4 94.1754 4.49774   1
  -5   5   4 99.4205 4.61300   2
  -5   5   4 107.176 4.41308   2
   4  -5  -4 1.22713 0.76846   2
   4  -5  -4 2.59376 0.87392   1
   4  -5  -4 1.91813 0.36413   4
  -4   5   4 0.97947 0.71391   2
  -4   5   4 2.00384 0.77975   2
  -4   5   4 1.29423 0.74617   1
   3  -5  -4 11.4165 1.72201   2
   3  -5  -4 11.3254 1.65179   1
   3  -5  -4 11.7859 0.65005   4
  -3   5   4 14.3615 2.19911   2
  -3   5   4 17.2968 1.89586   2
  -3   5   4 13.4924 1.87963   1
   2  -5  -4 97.6082 4.65955   2
   2  -5  -4 97.1726 4.51043   1
  -2   5   4 96.3097 4.44147   1
  -2   5   4 104.899 4.24908   2
   1  -5  -4 44.0542 2.73299   2
   1  -5  -4 48.1703 3.09334   2
   1  -5  -4 52.2171 3.08320   1
  -1   5   4 43.8914 2.84109   1
  -1   5   4 47.2484 2.64692   2
   0  -5  -4 1.93780 0.94660   1
   0  -5  -4 2.12212 0.92148   1
   0  -5  -4 1.75632 0.92106   2
   0  -5  -4 1.99072 0.81074   2
   0   5   4 2.36227 0.93819   1
   0   5   4 2.96408 0.89891   2
  -1  -5  -4 0.47621 0.59058   2
  -1  -5  -4 0.74359 0.75365   2
  -1  -5  -4 0.36026 0.67952   1
  -1  -5  -4 0.56676 0.66618   1
   1   5   4 -0.0122 0.23062   2
   1   5   4 0.59543 0.58309   1
   1   5   4 0.12677 0.37109   5
  -2  -5  -4 118.878 5.25365   1
  -2  -5  -4 113.126 5.30657   1
  -2  -5  -4 111.332 5.27543   2
  -2  -5  -4 107.202 4.81872   2
   2   5   4 111.868 4.45506   5
   2   5   4 111.170 4.33464   2
   2   5   4 121.767 4.82459   1
  -3  -5  -4 0.38809 0.73738   2
  -3  -5  -4 1.57701 0.77110   1
  -3  -5  -4 0.26145 0.65691   2
  -3  -5  -4 0.31597 0.64671   1
   3   5   4 -0.0222 0.50039   5
   3   5   4 -0.1136 0.56901   2
   3   5   4 -0.1556 0.46876   1
  -4  -5  -4 6.05308 1.52807   2
  -4  -5  -4 8.06612 1.68419   1
   4   5   4 8.82391 1.54736   5
  -5  -5  -4 17.2193 2.44983   1
  -5  -5  -4 15.4680 2.36502   2
   5   5   4 17.7896 2.33730   5
  -6  -5  -4 -0.7942 0.80144   2
  -6  -5  -4 0.20698 0.81890   1
   6   5   4 0.12412 0.81030   5
  -7  -5  -4 1.83294 1.26227   2
  -7  -5  -4 -0.0143 0.84449   1
   7   5   4 -0.4944 0.88429   5
 -12   6   4 -1.0177 0.59230   1
 -12   6   4 0.34736 0.76563   2
 -11   6   4 4.09248 1.21630   2
 -11   6   4 4.78082 1.31717   1
 -10   6   4 46.7142 3.05505   2
 -10   6   4 51.1149 3.34118   1
  -9   6   4 209.993 7.71354   2
  -9   6   4 223.661 8.19865   1
   8  -6  -4 24.3387 2.34396   1
  -8   6   4 26.6337 2.62060   2
  -8   6   4 28.5325 2.94009   2
  -8   6   4 29.4127 2.95989   1
   7  -6  -4 5.14494 1.22772   2
   7  -6  -4 5.76410 1.23899   1
  -7   6   4 2.48752 0.91558   4
  -7   6   4 5.44385 1.36695   1
  -7   6   4 5.40486 1.20255   2
  -7   6   4 4.03251 1.19773   2
   6  -6  -4 20.3956 2.31167   2
   6  -6  -4 20.1477 2.30951   1
  -6   6   4 23.6412 2.39630   2
  -6   6   4 19.1725 2.45406   2
  -6   6   4 18.6464 2.26729   1
   5  -6  -4 63.3416 3.53598   1
   5  -6  -4 62.0497 2.27866   4
   5  -6  -4 52.8592 3.40391   2
  -5   6   4 58.2527 3.47795   1
  -5   6   4 56.5246 3.56042   2
  -5   6   4 58.7786 3.22368   2
   4  -6  -4 92.0602 2.95580   4
   4  -6  -4 102.822 4.87544   2
   4  -6  -4 89.5417 4.50810   1
  -4   6   4 90.0970 5.10736   2
  -4   6   4 94.6558 4.57474   1
  -4   6   4 95.1982 4.28305   2
   3  -6  -4 295.321 10.1930   2
   3  -6  -4 292.469 9.91625   1
  -3   6   4 286.783 9.81083   1
  -3   6   4 292.615 9.41761   2
   2  -6  -4 507.312 15.7110   1
   2  -6  -4 501.554 15.8739   2
  -2   6   4 524.694 15.1032   2
  -2   6   4 549.489 15.6565   1
   1  -6  -4 20.1913 2.48485   2
   1  -6  -4 21.5553 2.54255   1
  -1   6   4 25.7124 2.33180   2
  -1   6   4 25.1490 2.51417   1
   0  -6  -4 21.6892 2.63426   1
   0  -6  -4 11.6998 1.96411   2
   0  -6  -4 15.7938 2.05471   2
   0   6   4 13.3730 1.67751   2
   0   6   4 15.2536 2.06505   1
  -1  -6  -4 44.4495 3.00320   2
  -1  -6  -4 42.5271 3.76754   1
  -1  -6  -4 46.5376 4.07075   2
   1   6   4 47.4931 3.02829   1
   1   6   4 49.9084 2.65958   5
  -2  -6  -4 68.9008 4.15864   1
  -2  -6  -4 58.4210 3.62479   2
  -2  -6  -4 69.6066 4.28154   2
  -2  -6  -4 69.1913 4.22038   1
   2   6   4 68.2784 3.61104   1
   2   6   4 72.7531 3.48452   5
  -3  -6  -4 11.0930 2.01915   1
  -3  -6  -4 18.9980 2.67149   2
   3   6   4 18.5336 2.18039   5
   3   6   4 17.1501 2.25146   1
  -4  -6  -4 6.11365 1.68697   2
  -4  -6  -4 9.23375 1.82427   1
   4   6   4 6.94989 1.48888   5
  -5  -6  -4 0.24273 0.85955   1
  -5  -6  -4 0.57634 1.08135   2
   5   6   4 0.26456 0.73330   5
  -6  -6  -4 4.30640 1.65041   2
  -6  -6  -4 4.99123 1.64124   1
   6   6   4 5.60813 1.61830   5
  -7  -6  -4 0.93310 1.08016   1
  -7  -6  -4 -0.1146 1.11248   2
   7   6   4 -0.6866 0.85063   5
 -12   7   4 -1.2692 0.63486   1
 -12   7   4 0.78762 0.86163   2
 -11   7   4 14.9721 2.23981   1
 -11   7   4 14.2306 2.12185   2
 -10   7   4 1.54118 0.90908   2
 -10   7   4 1.39477 0.99050   1
  -9   7   4 0.94555 0.82849   2
  -9   7   4 0.19029 0.84389   1
   8  -7  -4 39.0297 2.84521   1
  -8   7   4 38.6496 3.26540   2
  -8   7   4 44.1060 3.81505   1
   7  -7  -4 7.09100 1.59748   2
   7  -7  -4 9.67355 1.75629   1
  -7   7   4 10.1223 1.86542   1
  -7   7   4 9.07226 1.84136   2
  -7   7   4 9.45818 1.64531   2
   6  -7  -4 1.23444 0.91714   1
   6  -7  -4 3.12255 1.05729   2
   6  -7  -4 2.15993 0.55735   4
  -6   7   4 3.22342 1.21371   1
  -6   7   4 1.60988 0.99471   2
  -6   7   4 0.88114 0.71205   2
   5  -7  -4 29.2787 1.49466   4
   5  -7  -4 26.0307 2.96783   2
   5  -7  -4 26.7545 2.86106   1
  -5   7   4 35.3617 3.01282   2
  -5   7   4 33.3673 3.30857   1
   4  -7  -4 8.01358 0.84736   4
   4  -7  -4 9.63160 1.81913   2
   4  -7  -4 11.3774 1.94822   1
  -4   7   4 8.17503 1.45693   2
  -4   7   4 6.20693 1.46478   1
   3  -7  -4 5.21949 1.41048   1
   3  -7  -4 3.45455 1.34247   2
  -3   7   4 4.67250 1.17507   2
  -3   7   4 4.57532 1.29136   1
   2  -7  -4 51.2421 3.54085   1
   2  -7  -4 43.3768 3.99017   2
  -2   7   4 48.1062 3.01250   2
  -2   7   4 50.5653 3.32152   1
   1  -7  -4 74.5508 4.55781   2
   1  -7  -4 74.4586 4.33993   1
  -1   7   4 65.5076 3.63181   2
  -1   7   4 74.1648 4.07029   1
   0  -7  -4 60.1908 3.98368   1
   0  -7  -4 60.5917 4.15713   2
   0   7   4 63.7962 3.41586   2
   0   7   4 57.3004 3.59203   1
  -1  -7  -4 32.2746 3.65916   2
  -1  -7  -4 35.4235 3.51101   1
   1   7   4 35.7527 3.22091   1
   1   7   4 38.3123 2.48562   5
  -2  -7  -4 47.6468 4.28247   1
  -2  -7  -4 50.0584 4.59649   2
   2   7   4 45.7728 3.12471   1
   2   7   4 52.0972 3.06565   5
  -3  -7  -4 168.977 7.79105   1
  -3  -7  -4 180.262 8.22311   2
   3   7   4 179.348 6.96809   5
  -4  -7  -4 38.8703 4.32942   2
  -4  -7  -4 37.9986 3.99462   1
   4   7   4 42.5845 3.71499   5
  -5  -7  -4 7.17816 1.95363   1
  -5  -7  -4 5.98426 1.85230   2
   5   7   4 5.18842 1.48256   5
  -6  -7  -4 1.52396 1.20243   1
  -6  -7  -4 -0.9288 0.98338   2
   6   7   4 -0.6849 0.82898   5
 -12   8   4 11.3673 2.03848   2
 -12   8   4 9.26314 1.94352   1
 -11   8   4 1.99240 0.96589   2
 -11   8   4 3.92334 1.39926   1
 -10   8   4 2.90757 1.08445   2
 -10   8   4 2.67264 1.17683   1
  -9   8   4 34.6924 3.37518   2
  -9   8   4 34.5381 3.48726   1
   8  -8  -4 44.5356 3.83641   1
  -8   8   4 39.0274 3.79485   1
  -8   8   4 49.3451 3.29708   2
   7  -8  -4 25.3449 2.90275   1
  -7   8   4 32.6584 3.24915   1
  -7   8   4 29.4189 2.87205   2
   6  -8  -4 137.486 6.33366   1
   6  -8  -4 118.990 6.16583   2
   6  -8  -4 135.691 4.50306   4
  -6   8   4 139.599 5.93451   2
  -6   8   4 136.161 6.24307   1
   5  -8  -4 107.122 5.44752   1
   5  -8  -4 96.8049 3.46547   4
   5  -8  -4 89.8595 5.22947   2
  -5   8   4 98.6924 4.78520   2
  -5   8   4 104.962 5.28108   1
   4  -8  -4 304.045 11.2714   1
   4  -8  -4 307.629 9.01657   4
   4  -8  -4 325.587 11.6916   2
  -4   8   4 338.912 10.7874   2
  -4   8   4 323.495 11.1141   1
   3  -8  -4 92.0437 5.39690   2
   3  -8  -4 106.341 5.51375   1
  -3   8   4 100.787 5.15469   1
  -3   8   4 90.8718 4.62964   2
   2  -8  -4 26.2468 3.42404   2
   2  -8  -4 36.2854 3.70889   1
  -2   8   4 32.6277 3.02108   2
  -2   8   4 42.8407 3.89775   1
   1  -8  -4 0.69815 1.06611   2
   1  -8  -4 0.00278 0.96453   1
  -1   8   4 0.40372 0.67017   2
  -1   8   4 1.67814 1.08391   1
   0  -8  -4 57.6557 4.19568   1
   0  -8  -4 63.3809 5.34257   2
   0   8   4 54.4767 3.66997   1
  -1  -8  -4 34.6527 4.04885   2
  -1  -8  -4 29.7775 3.53032   1
   1   8   4 32.9991 3.28020   1
   1   8   4 32.9856 2.92778   5
  -2  -8  -4 35.9168 4.09353   2
  -2  -8  -4 38.7735 4.17430   1
   2   8   4 34.2571 3.14547   5
  -3  -8  -4 89.3598 5.79602   2
  -3  -8  -4 80.3205 5.42455   1
   3   8   4 83.8855 4.55758   5
  -4  -8  -4 7.83541 2.09399   1
  -4  -8  -4 10.8589 2.53021   2
   4   8   4 10.6513 2.02174   5
  -5  -8  -4 8.87533 2.42225   2
  -5  -8  -4 7.79734 2.21439   1
   5   8   4 4.81345 1.60992   5
 -12   9   4 -0.7062 0.90149   1
 -12   9   4 -0.2467 0.67031   2
 -11   9   4 16.0277 2.45684   2
 -11   9   4 15.0497 2.60267   1
 -10   9   4 23.0979 3.06897   1
 -10   9   4 21.9246 2.82686   2
  -9   9   4 -0.4567 0.71236   1
  -9   9   4 0.74701 0.82461   2
   8  -9  -4 4.78874 1.57938   1
  -8   9   4 5.87790 1.52356   2
  -8   9   4 7.00623 1.80417   1
   7  -9  -4 72.7796 4.65452   1
   7  -9  -4 72.1472 3.14990   4
  -7   9   4 79.1105 4.37572   2
  -7   9   4 74.2233 4.56640   1
   6  -9  -4 92.4045 5.59034   2
   6  -9  -4 94.1941 3.62986   4
   6  -9  -4 110.888 5.75740   1
  -6   9   4 95.0147 5.30289   1
  -6   9   4 95.6779 4.93183   2
   5  -9  -4 9.59734 1.14531   4
   5  -9  -4 8.47097 1.90279   1
   5  -9  -4 11.4282 2.35401   2
  -5   9   4 9.76386 1.98663   1
  -5   9   4 10.3721 1.88192   2
   4  -9  -4 4.47405 1.62680   2
   4  -9  -4 1.29139 1.09056   1
  -4   9   4 4.48351 1.26936   2
  -4   9   4 2.63034 1.24293   1
   3  -9  -4 10.4010 2.25501   2
   3  -9  -4 9.61939 2.06018   1
  -3   9   4 8.68593 1.93762   1
  -3   9   4 9.09736 1.75856   2
   2  -9  -4 114.514 6.25803   1
   2  -9  -4 125.178 6.75866   2
  -2   9   4 115.642 5.57069   2
  -2   9   4 114.704 5.87760   1
   1  -9  -4 157.262 8.00202   2
   1  -9  -4 166.193 7.90959   1
  -1   9   4 172.485 7.41074   1
   0  -9  -4 24.3107 3.53093   2
   0  -9  -4 22.6430 3.37221   1
   0   9   4 25.7964 3.15537   1
  -1  -9  -4 35.3091 4.07454   1
  -1  -9  -4 27.6073 3.80577   2
   1   9   4 35.1960 3.25114   5
  -2  -9  -4 -1.6324 0.80418   1
  -2  -9  -4 0.10647 1.10780   2
   2   9   4 -0.4355 0.76883   5
  -3  -9  -4 2.78165 1.69075   2
  -3  -9  -4 7.35965 2.16163   1
   3   9   4 4.23672 1.38669   5
  -4  -9  -4 4.66891 2.04823   1
  -4  -9  -4 2.49235 1.78619   2
   4   9   4 8.31174 2.16234   5
 -12  10   4 1.10737 1.04271   2
 -12  10   4 1.41237 1.25512   1
 -11  10   4 2.48016 1.22326   2
 -11  10   4 0.35889 1.10673   1
 -10  10   4 1.21764 1.22267   1
 -10  10   4 3.01763 1.34453   2
  -9  10   4 15.7873 2.61055   1
  -9  10   4 16.1304 2.42838   2
   8 -10  -4 11.6963 1.48255   4
  -8  10   4 11.6789 2.27821   1
  -8  10   4 13.3599 2.20047   2
   7 -10  -4 22.5437 3.17976   1
   7 -10  -4 18.5078 1.75465   4
  -7  10   4 18.4248 2.61564   2
  -7  10   4 20.4152 2.98463   1
   6 -10  -4 0.38787 1.06913   1
   6 -10  -4 -0.1247 0.40209   4
  -6  10   4 0.67208 0.93760   2
  -6  10   4 2.32432 1.33129   1
   5 -10  -4 1.84484 1.39872   2
   5 -10  -4 2.37888 0.79507   4
   5 -10  -4 3.51557 1.55884   1
  -5  10   4 4.61680 1.41976   2
  -5  10   4 2.72529 1.31323   1
   4 -10  -4 -0.3998 0.77290   1
   4 -10  -4 -0.1271 1.07550   2
  -4  10   4 -1.1697 0.75864   1
  -4  10   4 0.97223 0.85328   2
   3 -10  -4 0.08869 1.07889   2
   3 -10  -4 -0.6124 0.77406   1
  -3  10   4 0.13981 0.89887   1
  -3  10   4 1.11178 0.97564   2
   2 -10  -4 4.21115 1.79823   2
   2 -10  -4 0.75135 1.19780   1
  -2  10   4 2.64334 1.23926   1
   1 -10  -4 81.6418 5.55377   1
   1 -10  -4 62.4882 5.92072   2
  -1  10   4 72.4961 4.71223   1
   0 -10  -4 61.6060 5.99413   2
   0 -10  -4 61.0566 5.78119   1
   0  10   4 60.0200 3.69935   5
   0  10   4 64.0501 4.38704   1
  -1 -10  -4 20.7207 3.38743   1
  -1 -10  -4 16.2003 3.23898   2
   1  10   4 18.6657 2.56971   5
  -2 -10  -4 1.88254 1.54502   2
  -2 -10  -4 0.93776 1.37218   1
   2  10   4 0.31627 0.90322   5
  -3 -10  -4 -0.4120 1.44699   2
  -3 -10  -4 5.86776 2.18018   1
   3  10   4 1.20668 1.12177   5
 -11  11   4 30.0411 3.62728   2
 -11  11   4 29.8800 3.98951   1
 -10  11   4 8.42777 2.19652   1
 -10  11   4 7.84633 1.94660   2
  -9  11   4 6.18712 1.74629   2
  -9  11   4 4.01128 1.60309   1
  -8  11   4 4.80733 1.54111   2
  -8  11   4 4.14549 1.65497   1
   7 -11  -4 34.8449 4.25674   1
   7 -11  -4 31.6198 2.07477   4
  -7  11   4 23.6478 3.14832   2
  -7  11   4 26.5198 3.57982   1
   6 -11  -4 1.42740 1.35021   1
   6 -11  -4 0.00452 0.45884   4
  -6  11   4 1.01603 1.01716   2
  -6  11   4 0.47754 1.14128   1
   5 -11  -4 12.6973 1.80555   4
   5 -11  -4 13.1183 2.73190   1
  -5  11   4 18.1811 2.65629   2
  -5  11   4 18.2175 3.03479   1
   4 -11  -4 21.4463 3.60984   2
   4 -11  -4 14.4226 2.88700   1
  -4  11   4 16.7879 2.67170   2
  -4  11   4 17.9679 2.93443   1
   3 -11  -4 1.03169 1.45566   2
   3 -11  -4 -1.1673 0.86553   1
  -3  11   4 0.52828 1.03543   1
   2 -11  -4 14.9436 3.06921   2
   2 -11  -4 19.4759 3.41182   1
  -2  11   4 17.4937 2.84751   1
   1 -11  -4 0.28570 1.43686   2
   1 -11  -4 1.38541 1.49195   1
  -1  11   4 1.14441 1.11044   1
   0 -11  -4 10.2300 2.56532   1
   0 -11  -4 11.1475 2.96716   2
   0  11   4 10.5297 2.05995   5
  -1 -11  -4 1.55327 1.66317   2
  -1 -11  -4 4.31377 2.01480   1
   1  11   4 0.80737 1.00619   5
 -10  12   4 5.31917 2.02212   1
 -10  12   4 4.10904 1.58259   2
  -9  12   4 2.02506 1.29768   2
  -9  12   4 -0.7324 1.03550   1
  -8  12   4 8.39303 2.05925   2
  -8  12   4 3.37980 1.54808   1
   7 -12  -4 2.85690 1.54219   1
  -7  12   4 1.46157 1.36130   1
  -7  12   4 -0.6465 0.74857   2
   6 -12  -4 4.45806 1.92933   1
  -6  12   4 3.82207 1.59424   1
  -6  12   4 4.69081 1.62950   2
   5 -12  -4 75.5279 6.81037   1
  -5  12   4 58.7608 5.11621   2
  -5  12   4 63.8908 5.72337   1
   4 -12  -4 16.7809 3.30021   1
  -4  12   4 20.1685 3.22287   1
   3 -12  -4 0.47723 1.56686   2
   3 -12  -4 0.53372 1.19611   1
  -3  12   4 -0.0981 1.01427   1
   2 -12  -4 0.74684 1.38887   1
   2 -12  -4 1.51015 1.56345   2
  -2  12   4 0.99842 1.05859   1
   1 -12  -4 4.75315 1.96582   1
   1 -12  -4 1.46658 1.76321   2
  -1  12   4 1.74093 1.21030   5
   0 -12  -4 2.88398 1.95892   2
   0 -12  -4 -0.0620 1.33302   1
   0  12   4 0.21971 0.95919   5
  -9  13   4 10.9215 2.67814   1
  -9  13   4 16.0126 3.02293   2
  -8  13   4 4.32898 1.82035   1
  -8  13   4 5.38877 1.88112   2
  -7  13   4 16.5025 2.84527   2
  -7  13   4 15.1679 2.95257   1
   6 -13  -4 0.61401 1.39984   1
  -6  13   4 -0.5963 1.19560   2
  -6  13   4 0.33191 1.25983   1
   5 -13  -4 2.18789 1.63551   1
  -5  13   4 3.64172 1.69762   1
   4 -13  -4 -1.4390 1.13724   1
  -4  13   4 -0.3932 1.11654   1
   3 -13  -4 8.07880 2.49369   1
  -3  13   4 6.73020 2.18436   1
   2 -13  -4 0.44612 1.73839   2
   2 -13  -4 1.49062 1.53349   1
  -2  13  -5 -0.7088 0.82714   5
  -2  13  -5 1.37177 1.45035   1
   2 -13   5 0.22189 1.41396   1
  -3  13  -5 20.5338 3.43718   1
   3 -13   5 21.6834 4.07496   1
  -4  13  -5 12.5751 2.78688   1
   4 -13   5 13.2439 3.15038   1
  -5  13  -5 -0.8136 0.98286   2
  -5  13  -5 -0.4368 0.97681   1
   5 -13   5 6.78396 2.67980   4
   5 -13   5 0.11587 1.45468   1
  -6  13  -5 0.43803 1.10024   1
  -6  13  -5 2.05189 1.36934   2
   6 -13   5 -1.3690 1.45360   4
  -7  13  -5 2.54159 1.40887   2
  -7  13  -5 1.38844 1.40166   1
   7 -13   5 1.52539 1.08719   4
  -8  13  -5 8.05484 2.21563   2
   8 -13   5 8.78175 2.01802   4
   1  12  -5 20.3391 2.73872   5
  -1 -12   5 17.3114 3.62620   1
  -1 -12   5 17.5650 3.75003   2
   0  12  -5 3.84767 1.33035   5
   0 -12   5 2.51938 1.82483   2
   0 -12   5 3.98412 2.11371   1
  -1  12  -5 0.01027 1.02140   1
  -1  12  -5 0.03891 0.72982   5
   1 -12   5 1.99617 1.85862   2
   1 -12   5 2.04521 1.84889   1
  -2  12  -5 0.26094 1.08643   1
   2 -12   5 2.38123 1.79577   2
   2 -12   5 1.09349 1.65273   1
  -3  12  -5 2.50933 1.45840   1
   3 -12   5 -0.1540 1.30318   1
  -4  12  -5 6.51561 1.89013   1
  -4  12  -5 6.49752 1.89248   2
   4 -12   5 7.83151 2.44850   1
  -5  12  -5 -0.8470 0.65910   2
  -5  12  -5 0.67098 1.09463   1
   5 -12   5 2.22529 2.25660   4
   5 -12   5 0.53102 1.32359   1
  -6  12  -5 3.06407 1.47204   2
  -6  12  -5 1.85228 1.37611   1
   6 -12   5 1.99630 1.38634   4
  -7  12  -5 39.7189 4.33382   1
  -7  12  -5 29.1695 3.69038   2
   7 -12   5 43.6464 3.86657   4
  -8  12  -5 -0.0949 1.03364   2
  -8  12  -5 0.42441 1.08031   1
   8 -12   5 0.41734 0.90444   4
  -9  12  -5 0.52285 1.34435   1
  -9  12  -5 2.47267 1.46060   2
   9 -12   5 0.63848 1.06969   4
   2  11  -5 0.08762 0.93353   5
  -2 -11   5 1.15811 1.52629   1
  -2 -11   5 0.37143 1.59894   2
   1  11  -5 2.26996 1.17067   5
  -1 -11   5 -0.7663 1.01456   1
  -1 -11   5 -1.1022 1.18251   2
   0  11  -5 -0.6085 0.73583   5
   0  11  -5 0.06485 0.96366   1
   0 -11   5 -0.0163 1.16322   2
   0 -11   5 0.04452 1.35437   1
  -1  11  -5 6.65679 1.43322   5
  -1  11  -5 2.99174 1.44623   1
   1 -11   5 4.60547 1.86347   2
   1 -11   5 7.08930 2.34907   1
  -2  11  -5 -0.3011 0.96847   1
   2 -11   5 0.57473 1.49895   1
   2 -11   5 -0.7703 1.07100   2
  -3  11  -5 8.59878 2.08621   1
  -3  11  -5 10.8928 2.12733   2
   3 -11   5 10.6131 2.65125   2
   3 -11   5 10.4159 2.67372   1
  -4  11  -5 0.12397 0.94848   1
  -4  11  -5 0.67071 0.91832   2
   4 -11   5 0.46486 1.30547   1
  -5  11  -5 -1.2430 0.62585   2
  -5  11  -5 -0.0867 0.88520   1
   5 -11   5 -0.2055 1.98864   4
   5 -11   5 -1.3733 0.80771   1
  -6  11  -5 1.28343 1.07597   2
  -6  11  -5 -0.0427 0.83015   1
   6 -11   5 0.14109 0.79443   4
   6 -11   5 -0.3318 1.18141   1
  -7  11  -5 0.96948 0.95362   1
  -7  11  -5 -0.3827 0.93174   2
   7 -11   5 0.59630 0.72007   4
  -8  11  -5 12.0918 2.42118   1
  -8  11  -5 19.1313 2.89894   2
   8 -11   5 10.3854 1.97498   4
  -9  11  -5 14.7398 2.65299   1
  -9  11  -5 21.0640 3.01087   2
   9 -11   5 22.9923 2.93527   4
 -10  11  -5 3.77875 1.55006   2
 -10  11  -5 3.13652 1.56828   1
  10 -11   5 3.29541 1.44554   4
   4  10  -5 -1.6609 0.88024   5
  -4 -10   5 -0.6320 1.35177   2
  -4 -10   5 -1.2822 1.31189   1
   3  10  -5 0.51720 0.95241   5
  -3 -10   5 2.94042 1.86023   2
  -3 -10   5 -0.4990 1.16767   1
   2  10  -5 2.85941 1.10252   5
  -2 -10   5 2.69229 1.78469   2
  -2 -10   5 3.94783 1.90460   1
   1  10  -5 20.9605 2.47563   5
   1  10  -5 22.6642 3.20169   1
  -1 -10   5 21.2728 3.69903   2
  -1 -10   5 27.3067 4.16000   1
   0  10  -5 7.35737 1.81293   1
   0  10  -5 9.18510 1.55352   5
   0 -10   5 8.13588 2.34902   1
   0 -10   5 6.01936 2.08712   2
  -1  10  -5 2.37452 1.25977   1
  -1  10  -5 0.27861 1.48888   2
   1 -10   5 2.26696 1.38192   2
   1 -10   5 1.84766 1.64384   1
  -2  10  -5 6.52497 1.80780   1
  -2  10  -5 5.56575 1.64698   2
   2 -10   5 7.95227 2.38635   2
   2 -10   5 7.05529 2.20176   1
  -3  10  -5 0.48816 0.91225   1
  -3  10  -5 0.30072 0.93085   2
   3 -10   5 2.49816 1.53320   2
   3 -10   5 2.89075 1.58581   1
  -4  10  -5 17.8303 2.77407   1
  -4  10  -5 17.8811 2.65498   2
   4 -10   5 16.1140 2.91122   1
  -5  10  -5 1.17781 1.04500   2
  -5  10  -5 -0.0643 0.89831   1
   5 -10   5 -3.1518 1.39304   4
   5 -10   5 2.32079 1.40840   1
  -6  10  -5 0.91690 0.93618   1
  -6  10  -5 3.87232 1.29523   2
   6 -10   5 2.54021 1.00347   4
   6 -10   5 3.50518 1.65630   1
  -7  10  -5 15.4022 2.51225   1
  -7  10  -5 11.2080 2.18584   2
   7 -10   5 13.9409 2.11446   4
  -8  10  -5 3.46657 1.37762   2
  -8  10  -5 3.52852 1.36043   1
   8 -10   5 2.85692 1.18229   4
  -9  10  -5 1.21974 1.05882   1
  -9  10  -5 -0.0155 0.72462   2
   9 -10   5 0.19335 0.71612   4
 -10  10  -5 0.33227 0.94255   2
 -10  10  -5 -0.7490 0.82038   1
  10 -10   5 0.19332 0.84064   4
   5   9  -5 1.22560 1.12358   5
  -5  -9   5 3.78256 1.96574   2
  -5  -9   5 -0.6967 1.28835   1
   4   9  -5 4.25833 1.49012   5
  -4  -9   5 -0.7165 1.32732   1
  -4  -9   5 4.00819 1.91144   2
   3   9  -5 9.70492 1.80188   5
  -3  -9   5 5.26221 2.12069   2
  -3  -9   5 5.95904 2.17485   1
   2   9  -5 5.02655 1.29137   5
   2   9  -5 4.04694 1.48167   1
  -2  -9   5 4.76056 1.93340   2
  -2  -9   5 2.18491 1.57054   1
   1   9  -5 1.05744 1.00455   1
   1   9  -5 1.48868 0.78569   5
  -1  -9   5 2.75537 1.64812   1
  -1  -9   5 0.06256 1.08094   2
   0   9  -5 3.46017 0.97018   5
   0   9  -5 -0.0551 0.81317   1
   0   9  -5 1.79563 1.16820   2
   0  -9   5 1.10625 1.27630   2
   0  -9   5 1.41095 1.38083   1
  -1   9  -5 2.23062 1.11126   1
  -1   9  -5 1.82676 1.07142   2
   1  -9   5 1.76246 1.29682   1
   1  -9   5 1.64511 1.24038   2
  -2   9  -5 31.7207 3.41923   2
  -2   9  -5 25.5672 3.00459   1
   2  -9   5 31.5230 3.91425   1
   2  -9   5 30.9760 3.85391   2
  -3   9  -5 102.681 5.45061   1
  -3   9  -5 108.803 5.43663   2
   3  -9   5 94.1584 5.89937   1
   3  -9   5 105.398 6.11316   2
  -4   9  -5 94.1234 5.25209   1
  -4   9  -5 96.4826 5.13760   2
   4  -9   5 110.659 6.08748   1
   4  -9   5 103.732 5.92057   2
  -5   9  -5 -0.1289 0.76796   1
  -5   9  -5 0.51826 0.69268   2
   5  -9   5 -0.2734 0.89871   1
   5  -9   5 -1.3074 0.91304   4
  -6   9  -5 7.30410 1.65034   2
  -6   9  -5 3.68405 1.33717   1
   6  -9   5 4.91918 1.26784   4
   6  -9   5 7.42270 1.93723   1
  -7   9  -5 3.05799 1.23727   1
  -7   9  -5 5.74416 1.50940   2
   7  -9   5 5.20760 1.34737   4
  -8   9  -5 10.5612 1.97586   2
  -8   9  -5 11.0248 2.05115   1
   8  -9   5 12.8734 2.10264   4
  -9   9  -5 0.41306 0.85936   1
  -9   9  -5 0.13360 0.80059   2
   9  -9   5 0.42445 0.77211   4
 -10   9  -5 4.87494 1.40234   2
 -10   9  -5 5.94595 1.67414   1
  10  -9   5 8.80572 1.99127   4
 -11   9  -5 8.30800 1.88741   1
 -11   9  -5 6.00614 1.65567   2
   6   8  -5 9.23343 2.03963   5
  -6  -8   5 8.37424 2.46072   2
  -6  -8   5 8.73650 2.54132   1
   5   8  -5 3.45932 1.33266   5
  -5  -8   5 9.61182 2.49367   1
  -5  -8   5 5.40599 1.99986   2
   4   8  -5 2.60781 1.01092   5
  -4  -8   5 0.73963 1.21741   1
  -4  -8   5 2.06157 1.57027   2
   3   8  -5 4.53092 1.26144   5
  -3  -8   5 4.78936 1.84451   1
  -3  -8   5 3.48401 1.80333   2
   2   8  -5 0.53740 0.69371   5
   2   8  -5 1.18235 0.97278   1
  -2  -8   5 1.46658 1.24381   2
  -2  -8   5 2.67900 1.42197   1
   1   8  -5 0.23015 0.75045   2
   1   8  -5 1.54512 0.66132   5
   1   8  -5 -0.5180 0.63262   1
  -1  -8   5 0.39566 1.09484   2
  -1  -8   5 -1.0469 0.94090   1
   0   8  -5 65.1718 4.07076   1
   0   8  -5 65.3295 3.14996   5
   0   8  -5 72.3014 4.14651   2
   0  -8   5 76.5632 5.05016   1
   0  -8   5 61.5011 5.37182   2
  -1   8  -5 72.3563 4.16235   2
  -1   8  -5 73.7390 4.31581   1
   1  -8   5 68.8019 4.78718   2
   1  -8   5 69.1786 4.81630   1
  -2   8  -5 114.515 5.38495   2
  -2   8  -5 108.500 5.38089   1
   2  -8   5 104.081 5.90426   1
   2  -8   5 108.785 6.04238   2
  -3   8  -5 7.16319 1.64845   1
  -3   8  -5 9.25400 1.78779   2
   3  -8   5 6.39916 1.78437   2
   3  -8   5 6.89067 1.89912   1
  -4   8  -5 18.5393 2.40006   2
  -4   8  -5 23.7329 2.74965   1
   4  -8   5 23.6288 3.07818   2
   4  -8   5 17.5525 2.69324   1
   4  -8   5 12.1721 2.16756   4
  -5   8  -5 28.6577 2.97954   2
  -5   8  -5 20.7500 2.57546   1
   5  -8   5 25.9721 2.51391   4
   5  -8   5 28.5057 3.26454   2
   5  -8   5 26.3060 3.29800   1
  -6   8  -5 0.18916 0.74121   2
  -6   8  -5 -0.2101 0.74674   1
   6  -8   5 -1.1911 0.67001   1
   6  -8   5 -0.1231 0.62582   4
  -7   8  -5 11.7476 1.95886   1
  -7   8  -5 12.3471 2.02044   2
   7  -8   5 12.5179 1.91565   4
  -8   8  -5 16.0389 2.35985   1
  -8   8  -5 11.1660 1.92817   2
   8  -8   5 12.3244 1.98075   4
  -9   8  -5 1.82594 1.05736   2
  -9   8  -5 2.87347 1.19997   1
   9  -8   5 2.25810 1.10025   4
 -10   8  -5 -0.5605 0.64230   2
 -10   8  -5 -0.6303 0.67363   1
 -11   8  -5 6.90304 1.66929   2
 -11   8  -5 4.88034 1.49415   1
   7   7  -5 6.56984 1.80462   5
  -7  -7   5 10.8331 2.64351   2
  -7  -7   5 5.85851 2.06221   1
   6   7  -5 4.92352 1.50109   5
  -6  -7   5 6.92732 2.19325   2
  -6  -7   5 6.19205 2.00294   1
   5   7  -5 -0.4122 0.54880   5
  -5  -7   5 0.30980 1.17680   1
  -5  -7   5 0.79783 1.18182   2
   4   7  -5 9.54247 1.70362   5
  -4  -7   5 6.93548 2.08594   2
  -4  -7   5 10.3999 2.32482   1
   3   7  -5 14.1792 2.10856   1
   3   7  -5 12.0485 1.78649   5
  -3  -7   5 13.5862 2.51302   1
  -3  -7   5 10.6525 2.35778   2
   2   7  -5 35.8933 2.33833   5
   2   7  -5 32.2987 3.18526   1
  -2  -7   5 32.4221 3.69522   1
  -2  -7   5 27.9901 3.58895   2
   1   7  -5 36.6534 3.27765   2
   1   7  -5 31.5736 3.05336   1
   1   7  -5 38.9498 2.28324   5
  -1  -7   5 35.1017 3.88876   2
  -1  -7   5 43.8868 4.30052   1
   0   7  -5 3.98112 1.23808   2
   0   7  -5 3.22944 1.17766   1
   0   7  -5 2.81499 0.73452   5
   0  -7   5 1.97794 1.18801   1
   0  -7   5 1.56214 1.10918   2
  -1   7  -5 71.0687 3.86320   2
  -1   7  -5 71.8904 3.94206   1
   1  -7   5 60.1395 4.21076   2
   1  -7   5 61.5050 4.25899   1
  -2   7  -5 61.4250 3.68239   1
  -2   7  -5 59.1617 3.54436   2
   2  -7   5 62.9005 4.16861   1
   2  -7   5 59.4068 4.85934   2
  -3   7  -5 14.2107 1.93763   2
  -3   7  -5 10.1438 1.75467   1
   3  -7   5 11.2922 2.13123   2
   3  -7   5 16.4536 2.43595   1
  -4   7  -5 17.1062 2.17051   1
  -4   7  -5 18.1745 2.66183   2
  -4   7  -5 18.8879 2.27725   2
   4  -7   5 21.0566 2.63540   2
   4  -7   5 20.3908 2.32240   4
   4  -7   5 19.1465 2.57785   1
  -5   7  -5 3.24461 1.16525   1
  -5   7  -5 2.34602 1.19276   2
  -5   7  -5 2.19562 0.89986   2
   5  -7   5 2.12304 1.02292   2
   5  -7   5 1.04524 0.72345   4
   5  -7   5 1.82472 1.06178   1
  -6   7  -5 11.9462 1.94834   1
  -6   7  -5 10.9127 1.77105   2
  -6   7  -5 9.50264 1.95892   1
   6  -7   5 9.66430 1.56778   4
   6  -7   5 9.49590 1.81349   1
  -7   7  -5 127.807 5.54956   2
  -7   7  -5 125.837 5.63738   1
   7  -7   5 130.483 5.57957   4
  -8   7  -5 194.079 7.23721   2
  -8   7  -5 181.998 7.23243   1
   8  -7   5 185.145 7.34392   4
  -9   7  -5 14.7848 2.07993   1
  -9   7  -5 14.3366 2.01729   2
   9  -7   5 13.9886 2.17442   4
 -10   7  -5 0.08065 0.69763   1
 -10   7  -5 -0.1974 0.65473   2
 -11   7  -5 0.43550 0.67994   2
 -11   7  -5 1.06531 0.80836   1
   8   6  -5 -0.8061 0.79108   5
  -8  -6   5 1.58294 1.39860   2
  -8  -6   5 -1.7181 0.75114   3
  -8  -6   5 -0.4379 1.11667   1
   7   6  -5 8.24465 1.79300   5
  -7  -6   5 3.39895 1.61136   2
  -7  -6   5 3.04784 1.31163   3
  -7  -6   5 4.20809 1.73999   1
   6   6  -5 -0.5067 0.59388   5
  -6  -6   5 0.14719 1.16005   2
  -6  -6   5 1.54771 1.35655   1
  -6  -6   5 1.31618 0.94043   3
   5   6  -5 -0.0718 0.59548   5
  -5  -6   5 0.29488 0.81161   3
  -5  -6   5 -0.4915 0.90456   1
  -5  -6   5 1.08746 1.08127   2
   4   6  -5 16.4129 2.04321   5
   4   6  -5 17.9338 2.18078   1
  -4  -6   5 22.7511 3.10779   2
  -4  -6   5 15.7548 2.66820   1
   3   6  -5 11.5556 1.87854   1
   3   6  -5 14.4924 1.72764   5
  -3  -6   5 13.9957 2.44175   2
  -3  -6   5 13.5485 2.41958   1
   2   6  -5 154.232 6.18813   2
   2   6  -5 161.309 5.54839   5
   2   6  -5 157.499 6.34604   1
  -2  -6   5 148.917 6.17391   2
  -2  -6   5 154.899 7.11019   1
  -2  -6   5 152.049 7.13563   2
   1   6  -5 281.788 9.77218   1
   1   6  -5 292.794 8.62809   5
   1   6  -5 294.918 9.74649   2
  -1  -6   5 279.464 10.5723   1
  -1  -6   5 306.886 10.8665   2
   0   6  -5 164.678 5.27645   5
   0   6  -5 161.442 6.46267   1
   0   6  -5 165.928 6.40560   2
   0  -6   5 156.589 7.09357   2
   0  -6   5 175.490 7.32636   1
  -1   6  -5 0.18391 0.62248   2
  -1   6  -5 0.52215 0.71543   1
   1  -6   5 -0.5351 0.64190   2
   1  -6   5 -0.3088 0.63012   1
  -2   6  -5 112.042 4.93600   2
  -2   6  -5 121.340 5.14716   1
   2  -6   5 113.070 5.48202   2
   2  -6   5 112.679 5.56741   1
  -3   6  -5 20.9441 2.31616   2
  -3   6  -5 28.2710 2.66317   1
  -3   6  -5 26.8176 3.11365   2
   3  -6   5 20.7537 2.60286   2
   3  -6   5 26.2283 2.87234   1
  -4   6  -5 1.55398 0.79190   1
  -4   6  -5 -0.0914 0.63866   1
  -4   6  -5 0.23245 0.58132   2
  -4   6  -5 0.55811 0.82654   2
   4  -6   5 0.52096 0.84487   1
   4  -6   5 0.22528 0.64952   2
   4  -6   5 -0.2976 0.46190   4
  -5   6  -5 8.72962 1.48546   2
  -5   6  -5 10.0197 1.95470   2
  -5   6  -5 10.2691 1.59692   1
  -5   6  -5 7.85328 1.70841   1
   5  -6   5 11.8664 1.99230   1
   5  -6   5 5.82763 1.16834   4
   5  -6   5 8.44050 1.52926   2
  -6   6  -5 21.6647 2.30432   1
  -6   6  -5 21.7542 2.27365   2
  -6   6  -5 11.5822 1.95246   1
  -6   6  -5 13.5947 2.12429   2
   6  -6   5 16.0995 2.11339   1
   6  -6   5 17.4145 2.00467   4
   6  -6   5 16.0250 1.85848   2
  -7   6  -5 145.238 5.81582   1
  -7   6  -5 145.131 5.74016   2
   7  -6   5 138.061 5.78971   4
  -8   6  -5 76.7818 3.92611   1
  -8   6  -5 72.7471 3.82939   2
   8  -6   5 79.4996 4.25033   4
  -9   6  -5 0.95435 0.72822   2
  -9   6  -5 1.13697 0.78397   1
 -10   6  -5 10.0939 1.66978   1
 -10   6  -5 8.35203 1.46653   2
 -11   6  -5 0.01622 0.63856   2
 -11   6  -5 -1.2491 0.53697   1
   8   5  -5 -0.7729 0.64371   5
  -8  -5   5 -0.6138 0.92675   1
  -8  -5   5 1.35307 0.99258   3
  -8  -5   5 -0.1094 1.08898   2
   7   5  -5 8.88391 1.85594   5
  -7  -5   5 4.26419 1.64904   2
  -7  -5   5 6.53602 2.00736   1
  -7  -5   5 6.35057 1.43861   3
   6   5  -5 3.61065 1.17000   5
  -6  -5   5 2.62702 0.97065   3
  -6  -5   5 3.56847 1.54586   1
  -6  -5   5 3.79689 1.55243   2
   5   5  -5 3.25188 1.03981   5
  -5  -5   5 2.42265 1.02031   3
  -5  -5   5 3.39420 1.45192   2
  -5  -5   5 5.46204 1.65194   1
   4   5  -5 45.1773 2.70401   5
   4   5  -5 46.4135 2.92530   1
  -4  -5   5 46.5971 4.16328   2
  -4  -5   5 48.3232 2.71367   3
  -4  -5   5 41.7172 2.98565   1
  -4  -5   5 44.1219 4.13747   1
   3   5  -5 0.43234 0.47134   5
   3   5  -5 0.12005 0.51158   2
   3   5  -5 -1.2638 0.41011   1
  -3  -5   5 0.12367 0.73244   1
  -3  -5   5 0.21991 0.56501   3
  -3  -5   5 0.34820 0.76894   2
  -3  -5   5 -0.4214 0.50760   2
  -3  -5   5 -0.6357 0.46955   1
   2   5  -5 4.75456 0.90770   5
   2   5  -5 5.43823 1.15674   2
   2   5  -5 3.65935 1.02160   1
  -2  -5   5 4.61261 1.12132   2
  -2  -5   5 4.46288 1.30464   1
  -2  -5   5 4.65190 1.39707   2
   1   5  -5 191.785 5.99852   5
   1   5  -5 205.473 7.14177   2
   1   5  -5 191.182 7.09740   1
  -1  -5   5 200.510 7.82779   1
  -1  -5   5 202.180 7.89665   2
  -1  -5   5 193.578 6.99107   2
   0   5  -5 42.3652 2.71855   1
   0   5  -5 40.7568 2.60209   2
   0   5  -5 36.4318 1.75347   5
   0  -5   5 40.4475 3.57395   2
  -1   5  -5 64.1041 3.46366   1
  -1   5  -5 69.6863 3.53154   2
   1  -5   5 72.4539 4.04170   1
   1  -5   5 69.0722 3.98693   2
  -2   5  -5 10.3394 1.55390   2
  -2   5  -5 10.5852 1.83690   2
  -2   5  -5 16.3424 1.97200   1
   2  -5   5 8.82439 1.69216   2
   2  -5   5 11.0991 1.93154   1
  -3   5  -5 -0.0848 0.51705   1
  -3   5  -5 -0.5108 0.64074   2
  -3   5  -5 -0.1060 0.54773   1
  -3   5  -5 0.04751 0.44156   2
   3  -5   5 1.27923 0.78403   1
   3  -5   5 -0.5650 0.45804   2
   3  -5   5 0.35423 0.84615   4
  -4   5  -5 122.499 4.99466   1
  -4   5  -5 121.953 4.92084   2
  -4   5  -5 121.007 5.53256   2
  -4   5  -5 117.911 5.37266   1
   4  -5   5 124.954 5.18361   2
   4  -5   5 126.840 5.44359   1
   4  -5   5 123.546 4.68877   4
  -5   5  -5 2.00232 0.74787   1
  -5   5  -5 1.22747 0.70592   1
  -5   5  -5 1.56921 0.87606   2
  -5   5  -5 0.31004 0.50229   2
   5  -5   5 0.13235 0.40903   4
   5  -5   5 0.12572 0.63620   1
   5  -5   5 -0.4685 0.43990   2
  -6   5  -5 -0.3551 0.42428   2
  -6   5  -5 1.07833 0.75313   1
  -6   5  -5 1.59367 0.76932   1
  -6   5  -5 1.11761 0.81327   2
   6  -5   5 0.97863 0.56643   4
   6  -5   5 0.52204 0.62529   1
  -7   5  -5 17.5586 2.50133   1
  -7   5  -5 15.4376 1.89006   1
  -7   5  -5 11.7983 1.92603   2
  -7   5  -5 14.2551 1.74821   2
   7  -5   5 15.1750 1.96680   4
  -8   5  -5 3.46397 0.98074   2
  -8   5  -5 1.68929 0.81622   1
  -9   5  -5 -0.2975 0.46708   2
  -9   5  -5 -0.4658 0.44323   1
 -10   5  -5 2.07711 0.84548   1
 -10   5  -5 1.81255 0.85925   2
 -11   5  -5 3.19722 0.96010   1
 -11   5  -5 1.74531 0.84872   2
   9   4  -5 9.43433 2.04927   5
  -9  -4   5 7.73827 1.68164   3
  -9  -4   5 14.1034 2.50243   1
  -9  -4   5 13.4183 2.72092   2
   8   4  -5 7.15244 1.73373   5
  -8  -4   5 5.03853 1.74654   2
  -8  -4   5 8.07710 1.90972   1
  -8  -4   5 6.97334 1.50439   3
   7   4  -5 1.92637 0.95862   5
  -7  -4   5 2.89267 1.38805   2
  -7  -4   5 1.21776 0.86509   3
  -7  -4   5 2.50934 1.38277   1
   6   4  -5 2.13848 0.92381   5
  -6  -4   5 3.68363 1.39331   2
  -6  -4   5 4.86715 1.51614   1
  -6  -4   5 1.75562 0.84774   3
   5   4  -5 0.00332 0.63302   5
   5   4  -5 -0.1866 0.47444   1
  -5  -4   5 0.28624 0.59346   2
  -5  -4   5 0.03154 0.58056   1
  -5  -4   5 -0.5105 0.77327   1
  -5  -4   5 0.21053 0.53468   3
  -5  -4   5 0.49552 0.87582   2
   4   4  -5 78.5364 3.43418   5
   4   4  -5 69.5823 3.48038   1
   4   4  -5 63.0607 3.22900   2
  -4  -4   5 71.2825 3.62528   2
  -4  -4   5 77.6336 4.35960   2
  -4  -4   5 66.0333 3.14364   3
  -4  -4   5 68.7949 3.66532   1
  -4  -4   5 77.9364 4.36180   1
   3   4  -5 134.751 5.25205   1
   3   4  -5 120.338 4.98456   2
   3   4  -5 133.530 4.68365   5
  -3  -4   5 128.988 4.61419   3
  -3  -4   5 130.501 5.33355   1
  -3  -4   5 138.093 6.02746   2
  -3  -4   5 127.560 5.86141   1
  -3  -4   5 131.349 5.22141   2
   2   4  -5 935.291 25.3703   2
   2   4  -5 959.129 25.5211   1
   2   4  -5 960.904 24.4341   5
  -2  -4   5 951.122 24.4841   3
  -2  -4   5 926.619 26.3209   1
  -2  -4   5 939.158 25.4467   2
  -2  -4   5 960.093 25.6076   1
  -2  -4   5 966.408 26.4689   2
   1   4  -5 868.750 22.0919   5
   1   4  -5 905.069 23.4762   2
   1   4  -5 850.021 23.3645   1
  -1  -4   5 857.204 24.1726   2
  -1  -4   5 878.185 24.2290   1
  -1  -4   5 857.445 23.4277   1
  -1  -4   5 850.534 23.3210   2
   0   4  -5 1.35513 0.38315   5
   0   4  -5 0.97557 0.60786   2
   0   4  -5 2.10802 0.74035   1
   0  -4   5 3.00717 1.03455   2
   0  -4   5 2.24410 1.00180   1
  -1   4  -5 0.43969 0.91730   2
  -1   4  -5 0.41601 0.62350   1
  -1   4  -5 -0.2563 0.55421   1
  -1   4  -5 0.33294 0.30650   3
  -1   4  -5 0.53913 0.56337   2
   1  -4   5 0.25196 0.63740   2
   1  -4   5 -0.8201 0.49972   1
  -2   4  -5 7.64874 1.24223   2
  -2   4  -5 7.42101 1.41460   2
  -2   4  -5 6.28738 1.13314   1
  -2   4  -5 6.33737 1.38603   1
   2  -4   5 5.46044 1.19300   2
   2  -4   5 6.41142 1.39084   1
  -3   4  -5 36.9490 2.33912   1
  -3   4  -5 36.5211 3.15641   1
  -3   4  -5 31.9988 2.14773   2
  -3   4  -5 34.8510 3.11832   2
   3  -4   5 36.4550 2.03245   4
   3  -4   5 36.4403 2.42132   2
   3  -4   5 35.8680 2.55612   1
  -4   4  -5 4.06273 1.09732   2
  -4   4  -5 3.57368 1.06067   1
  -4   4  -5 4.36531 0.98859   2
  -4   4  -5 3.22334 0.88605   1
   4  -4   5 4.35054 1.05021   1
   4  -4   5 3.06954 0.86255   2
   4  -4   5 4.56828 0.91050   4
  -5   4  -5 31.4971 2.01864   2
  -5   4  -5 26.5107 2.59847   2
  -5   4  -5 19.9826 2.24386   1
  -5   4  -5 25.8908 2.27866   1
   5  -4   5 26.5118 1.92392   4
   5  -4   5 28.8321 2.44368   1
   5  -4   5 23.6903 1.60144   2
  -6   4  -5 7.13193 1.38003   2
  -6   4  -5 9.53295 1.36924   1
  -6   4  -5 7.85563 1.48676   1
  -6   4  -5 6.47428 1.11916   2
   6  -4   5 6.30710 1.23345   4
   6  -4   5 6.91932 1.09200   1
  -7   4  -5 81.2886 4.06366   2
  -7   4  -5 76.7803 3.64351   1
  -7   4  -5 82.3418 3.64912   2
  -7   4  -5 76.1686 3.96187   1
  -8   4  -5 0.01177 0.66330   2
  -8   4  -5 0.15514 0.47287   1
  -8   4  -5 0.05753 0.47781   2
  -9   4  -5 5.95615 1.15357   2
  -9   4  -5 5.72677 1.15087   1
 -10   4  -5 13.2365 1.64868   1
 -10   4  -5 12.5250 1.61122   2
 -11   4  -5 14.5954 1.78532   2
 -11   4  -5 12.3796 1.56215   1
  10   3  -5 5.28505 1.70716   5
 -10  -3   5 8.88831 2.04865   1
 -10  -3   5 8.62690 1.84643   3
 -10  -3   5 11.1291 2.24301   2
   9   3  -5 7.92516 1.81488   5
  -9  -3   5 11.3953 2.22779   1
  -9  -3   5 9.57894 1.81839   3
  -9  -3   5 13.9297 2.34379   2
   8   3  -5 52.8903 3.50883   5
  -8  -3   5 50.9738 3.75476   1
  -8  -3   5 48.1414 4.21713   2
  -8  -3   5 49.0007 3.20038   3
   7   3  -5 7.59570 1.54360   5
  -7  -3   5 6.08068 1.62105   1
  -7  -3   5 2.71228 1.29346   2
  -7  -3   5 5.96527 1.28378   3
   6   3  -5 20.6762 2.22395   5
  -6  -3   5 17.1160 2.06461   2
  -6  -3   5 17.7331 2.39002   1
  -6  -3   5 17.5222 1.97615   3
  -6  -3   5 17.6952 2.41543   2
   5   3  -5 0.28146 0.45360   1
   5   3  -5 0.28477 0.48549   5
  -5  -3   5 0.89004 0.86786   1
  -5  -3   5 0.17868 0.54406   2
  -5  -3   5 0.41248 0.61290   3
  -5  -3   5 1.44380 0.85375   2
  -5  -3   5 0.43741 0.58595   1
   4   3  -5 0.81571 0.57403   1
   4   3  -5 1.43775 0.62416   2
   4   3  -5 1.03835 0.56363   5
  -4  -3   5 1.41843 0.71969   2
  -4  -3   5 1.52413 0.93882   2
  -4  -3   5 1.01356 0.78212   1
  -4  -3   5 1.41198 0.75127   1
  -4  -3   5 1.57572 0.65766   3
   3   3  -5 174.683 5.54836   5
   3   3  -5 168.397 5.98171   2
   3   3  -5 171.335 6.10362   1
  -3  -3   5 172.272 6.22867   1
  -3  -3   5 186.830 6.94384   1
  -3  -3   5 163.052 6.10039   2
  -3  -3   5 179.394 6.84039   2
  -3  -3   5 173.145 5.56628   3
   2   3  -5 162.530 5.93510   1
   2   3  -5 172.741 5.97162   2
   2   3  -5 167.027 5.09468   5
  -2  -3   5 167.883 5.94473   2
  -2  -3   5 155.182 5.87226   1
  -2  -3   5 172.623 6.60066   2
  -2  -3   5 176.857 6.62302   1
  -2  -3   5 163.772 5.16658   3
   1   3  -5 9.11386 1.35063   2
   1   3  -5 7.37940 1.23687   1
   1   3  -5 6.81316 0.71825   5
  -1  -3   5 5.72455 1.05310   2
  -1  -3   5 5.98974 1.28792   2
  -1  -3   5 5.25833 0.71529   3
  -1  -3   5 5.63819 1.07076   1
  -1  -3   5 8.60895 1.58388   1
   0   3  -5 111.694 4.43862   1
   0   3  -5 105.643 4.36155   2
   0   3  -5 115.532 3.51797   3
   0   3  -5 110.121 3.22075   5
   0   3  -5 109.765 4.81110   1
   0  -3   5 117.394 6.01927   2
   0  -3   5 107.540 4.37015   1
   0  -3   5 122.670 4.99824   2
   0  -3   5 114.574 4.95257   1
  -1   3  -5 70.8373 3.63318   1
  -1   3  -5 75.0604 3.36510   1
  -1   3  -5 72.3225 2.35881   3
  -1   3  -5 70.9042 3.68539   2
  -1   3  -5 77.8556 3.42049   2
   1  -3   5 71.3418 3.59363   2
   1  -3   5 74.5005 3.76549   1
  -2   3  -5 163.099 6.35588   2
  -2   3  -5 177.154 6.09106   1
  -2   3  -5 164.508 6.38936   1
  -2   3  -5 180.682 6.04706   2
   2  -3   5 176.572 5.60660   4
   2  -3   5 178.980 6.46720   1
   2  -3   5 181.017 6.30179   2
  -3   3  -5 333.701 10.7546   1
  -3   3  -5 346.830 10.8063   2
  -3   3  -5 334.979 10.3265   1
  -3   3  -5 347.366 9.31268   5
  -3   3  -5 345.705 10.2786   2
   3  -3   5 352.248 10.3689   2
   3  -3   5 364.117 10.0428   4
   3  -3   5 354.280 10.7130   1
  -4   3  -5 22.2140 2.19660   2
  -4   3  -5 25.7723 1.80444   2
  -4   3  -5 27.4899 1.88057   1
  -4   3  -5 23.8350 2.39436   1
   4  -3   5 28.5461 2.01052   1
   4  -3   5 23.1898 1.68275   4
   4  -3   5 26.9201 1.69380   2
  -5   3  -5 9.88797 1.49350   2
  -5   3  -5 9.92164 1.33495   1
  -5   3  -5 14.4380 1.58196   2
  -5   3  -5 10.9184 1.65135   1
   5  -3   5 8.65777 1.27191   4
  -6   3  -5 60.8133 3.30612   2
  -6   3  -5 63.1462 3.37926   1
  -6   3  -5 69.1488 3.11079   2
  -6   3  -5 64.4182 3.09247   1
   6  -3   5 66.5183 2.44007   1
  -7   3  -5 85.2844 4.02580   1
  -7   3  -5 86.8508 3.73319   1
  -7   3  -5 84.8828 3.65047   2
  -7   3  -5 82.9537 3.96917   2
  -8   3  -5 21.9573 2.03447   1
  -8   3  -5 21.4099 1.98397   2
  -8   3  -5 23.9690 2.33379   2
  -9   3  -5 37.6011 2.34398   2
  -9   3  -5 37.2294 2.29782   1
 -10   3  -5 2.26524 0.75117   1
 -10   3  -5 3.82911 1.05202   3
 -10   3  -5 3.74975 0.96238   2
 -11   3  -5 15.9829 1.81460   2
  10   2  -5 10.3105 2.09978   5
 -10  -2   5 13.3231 2.32293   1
 -10  -2   5 11.9815 2.06014   3
 -10  -2   5 13.6844 2.29856   2
   9   2  -5 6.41017 1.58071   5
  -9  -2   5 6.34012 1.58356   1
  -9  -2   5 4.65693 1.49628   2
  -9  -2   5 6.88295 1.52550   3
   8   2  -5 10.7555 1.89464   5
  -8  -2   5 9.73497 1.96410   1
  -8  -2   5 14.2068 1.97784   3
  -8  -2   5 9.79700 1.83598   2
   7   2  -5 6.62702 1.39693   5
  -7  -2   5 5.73732 1.41087   2
  -7  -2   5 6.12099 1.30022   3
  -7  -2   5 5.09856 1.27410   2
  -7  -2   5 7.86193 1.64508   1
   6   2  -5 0.19192 0.62489   5
  -6  -2   5 0.54020 0.63847   1
  -6  -2   5 1.02141 0.65111   2
  -6  -2   5 -0.2088 0.65190   2
  -6  -2   5 1.32136 0.86110   1
  -6  -2   5 0.59236 0.64398   3
   5   2  -5 10.7616 1.58103   2
   5   2  -5 10.9325 1.36811   1
   5   2  -5 12.9309 1.56085   5
  -5  -2   5 9.34252 1.63487   1
  -5  -2   5 11.5112 1.54954   1
  -5  -2   5 8.95378 1.58727   2
  -5  -2   5 10.1698 1.37075   3
  -5  -2   5 11.3419 1.54077   2
   4   2  -5 -0.1210 0.35311   2
   4   2  -5 -0.3757 0.34468   1
   4   2  -5 0.03739 0.35801   5
  -4  -2   5 0.12571 0.54270   1
  -4  -2   5 0.16436 0.46001   3
  -4  -2   5 0.17568 0.50306   1
  -4  -2   5 0.22709 0.40221   2
  -4  -2   5 1.44997 0.81339   2
   3   2  -5 42.1456 2.38629   1
   3   2  -5 44.5050 1.96290   5
   3   2  -5 29.8558 1.99637   2
  -3  -2   5 42.7190 2.79027   1
  -3  -2   5 41.7728 2.39634   2
  -3  -2   5 42.1848 2.00519   3
  -3  -2   5 41.2068 2.72069   2
  -3  -2   5 42.1821 2.42740   1
   2   2  -5 8.71821 0.84104   5
   2   2  -5 11.2378 1.45423   1
   2   2  -5 8.44697 1.18546   2
  -2  -2   5 9.16097 0.83651   5
  -2  -2   5 9.37839 1.50807   2
  -2  -2   5 9.82583 1.31880   1
  -2  -2   5 7.01244 1.33697   1
  -2  -2   5 6.20997 1.06091   2
  -2  -2   5 9.50277 0.97743   3
   1   2  -5 347.302 8.94872   5
   1   2  -5 346.176 10.2987   1
   1   2  -5 357.602 10.8040   1
   1   2  -5 345.780 10.2840   2
  -1  -2   5 350.347 10.2886   1
  -1  -2   5 334.883 10.1718   2
  -1  -2   5 345.639 9.20688   3
  -1  -2   5 337.609 10.7698   1
  -1  -2   5 354.389 10.7726   2
   0   2  -5 0.64196 0.54776   1
   0   2  -5 0.09903 0.59354   2
   0   2  -5 0.13866 0.43418   2
   0   2  -5 0.00144 0.20370   3
   0   2  -5 0.41662 0.14247   5
   0   2  -5 1.11029 0.66504   1
   0  -2   5 0.65139 0.62299   2
   0  -2   5 0.49668 0.52140   2
   0  -2   5 1.36640 0.74940   1
   0  -2   5 1.16737 0.58268   1
  -1   2  -5 1.24730 0.17853   5
  -1   2  -5 0.62870 0.61928   1
  -1   2  -5 1.47212 0.62581   1
  -1   2  -5 1.44036 0.67212   2
  -1   2  -5 1.28270 0.55982   2
  -1   2  -5 1.21100 0.23437   3
   1  -2   5 0.79219 0.60655   4
   1  -2   5 0.76893 0.49931   1
   1  -2   5 0.97223 0.61888   2
   1  -2   5 1.19238 0.65313   1
  -2   2  -5 2.62453 0.85837   2
  -2   2  -5 4.21595 1.04898   1
  -2   2  -5 3.92959 0.87864   2
  -2   2  -5 2.67351 0.73951   1
  -2   2  -5 3.92512 0.45515   5
   2  -2   5 3.01267 0.65264   4
   2  -2   5 2.83345 0.85665   1
   2  -2   5 2.51690 0.76977   2
  -3   2  -5 14.8386 0.94517   5
  -3   2  -5 15.1195 1.55628   4
  -3   2  -5 15.2886 1.78354   2
  -3   2  -5 16.9861 1.65467   2
  -3   2  -5 18.0006 1.72958   1
  -3   2  -5 14.2518 1.78166   1
   3  -2   5 13.8429 1.60624   1
   3  -2   5 16.0599 1.55814   2
   3  -2   5 15.5573 1.50481   4
  -4   2  -5 15.1267 1.76106   2
  -4   2  -5 18.0201 1.98514   1
  -4   2  -5 19.2281 1.80978   2
  -4   2  -5 12.7590 1.45288   1
   4  -2   5 15.0666 1.06423   2
   4  -2   5 17.2349 1.69742   4
   4  -2   5 15.1386 1.58121   1
  -5   2  -5 6.81880 1.24730   1
  -5   2  -5 9.28473 1.39076   2
  -5   2  -5 7.77617 1.13217   2
  -5   2  -5 7.12631 1.16983   1
   5  -2   5 7.61603 0.97495   1
  -6   2  -5 10.1453 1.53421   1
  -6   2  -5 9.97846 1.42872   2
  -6   2  -5 11.3324 1.39542   1
  -6   2  -5 10.3662 1.34511   2
  -7   2  -5 27.7412 2.47699   1
  -7   2  -5 25.4036 1.80737   2
  -7   2  -5 25.3835 2.27210   2
  -7   2  -5 27.4947 1.91012   1
  -8   2  -5 11.5033 1.57650   2
  -8   2  -5 12.5463 1.54538   1
  -8   2  -5 12.6516 1.50006   2
  -8   2  -5 11.9459 1.43495   3
  -9   2  -5 24.2137 2.11337   2
  -9   2  -5 21.5803 2.07127   3
 -10   2  -5 7.14226 1.18560   2
 -10   2  -5 6.97099 1.29362   3
 -11   2  -5 16.2259 1.83965   2
 -11  -1   5 2.90760 1.25718   1
 -11  -1   5 3.39793 1.31299   2
 -11  -1   5 4.48393 1.50668   3
  10   1  -5 0.89985 0.98944   5
 -10  -1   5 0.28864 0.76927   2
 -10  -1   5 0.97545 1.02215   1
 -10  -1   5 1.20035 0.98487   3
   9   1  -5 10.7712 1.96093   5
  -9  -1   5 13.0851 2.06173   1
  -9  -1   5 15.2503 2.23969   2
  -9  -1   5 10.4962 1.79973   3
   8   1  -5 20.2295 2.41873   5
  -8  -1   5 23.5978 2.69299   1
  -8  -1   5 26.1045 2.60774   3
  -8  -1   5 24.0286 2.70851   2
   7   1  -5 62.7093 3.36924   5
  -7  -1   5 60.7839 3.49536   1
  -7  -1   5 64.3523 3.30950   2
  -7  -1   5 68.3605 3.77705   2
  -7  -1   5 67.7332 3.81310   1
  -7  -1   5 63.0961 3.31795   3
   6   1  -5 94.0635 4.02842   5
  -6  -1   5 99.0701 4.05460   3
  -6  -1   5 92.1862 4.02730   2
  -6  -1   5 100.560 4.58613   2
  -6  -1   5 99.5680 4.60902   1
  -6  -1   5 83.5882 3.95028   1
   5   1  -5 19.8162 1.82478   5
   5   1  -5 17.9917 1.54916   2
  -5  -1   5 17.8868 1.71990   3
  -5  -1   5 20.1777 1.98765   2
  -5  -1   5 15.5471 1.92866   1
  -5  -1   5 18.5427 2.14924   2
  -5  -1   5 18.7009 1.89685   1
   4   1  -5 9.89011 1.23066   2
   4   1  -5 10.1460 1.16933   5
   4   1  -5 8.34267 1.19741   1
  -4  -1   5 6.58899 1.30645   2
  -4  -1   5 8.84852 1.10253   3
  -4  -1   5 10.8141 1.44554   2
  -4  -1   5 7.94640 1.21439   1
  -4  -1   5 13.3590 1.82353   1
   3   1  -5 10.5488 1.40843   1
   3   1  -5 11.6358 1.05951   5
  -3  -1   5 8.70976 1.22755   2
  -3  -1   5 9.94755 0.96285   5
  -3  -1   5 10.6591 1.49328   2
  -3  -1   5 9.59505 1.26710   1
  -3  -1   5 9.57608 1.03522   3
  -3  -1   5 10.9523 1.64311   1
   2   1  -5 1.43927 0.68467   1
   2   1  -5 0.62246 0.27409   5
   2   1  -5 0.59240 0.49235   1
   2   1  -5 0.58515 0.43350   2
  -2  -1   5 0.92531 0.51680   2
  -2  -1   5 0.54211 0.26479   5
  -2  -1   5 0.32048 0.56321   1
  -2  -1   5 0.14071 0.47896   2
  -2  -1   5 0.18078 0.41483   1
  -2  -1   5 0.29490 0.30942   3
   1   1  -5 46.4665 2.39637   1
   1   1  -5 37.8743 2.45270   1
   1   1  -5 38.9677 2.23008   2
  -1  -1   5 40.7672 2.53497   1
  -1  -1   5 41.5382 2.25166   1
  -1  -1   5 41.2799 1.29626   5
  -1  -1   5 41.7808 2.47592   2
  -1  -1   5 41.7993 1.57001   3
  -1  -1   5 42.1667 2.29356   2
   0   1  -5 33.6775 2.03574   2
   0   1  -5 32.5248 2.25231   1
   0   1  -5 33.6479 2.19492   2
   0   1  -5 34.3996 2.03503   1
   0  -1   5 34.2043 2.17333   2
   0  -1   5 33.7478 1.97840   1
   0  -1   5 29.9549 1.87363   2
   0  -1   5 32.1835 2.23306   1
   0  -1   5 32.4825 1.12107   3
  -1   1  -5 23.9285 1.68595   1
  -1   1  -5 19.2726 1.95346   2
  -1   1  -5 23.8543 1.99759   2
  -1   1  -5 21.5865 2.08885   1
   1  -1   5 24.6605 2.09183   2
   1  -1   5 19.2484 1.15501   4
   1  -1   5 19.7675 1.96848   1
   1  -1   5 22.3132 1.56237   1
  -2   1  -5 106.447 4.47480   1
  -2   1  -5 111.531 3.76641   4
  -2   1  -5 109.316 3.20369   5
  -2   1  -5 110.843 4.15923   2
  -2   1  -5 101.901 4.28305   2
  -2   1  -5 112.564 4.19964   1
   2  -1   5 93.2384 3.88525   2
   2  -1   5 109.200 3.73428   4
   2  -1   5 105.472 4.32399   1
   2  -1   5 111.420 3.24511   5
   2  -1   5 135.130 5.70310   1
  -3   1  -5 1.09433 0.44905   4
  -3   1  -5 1.44195 0.58080   2
  -3   1  -5 1.63396 0.42242   5
  -3   1  -5 1.13325 0.53935   1
  -3   1  -5 1.48853 0.24035   3
  -3   1  -5 1.72271 0.65649   2
  -3   1  -5 1.22306 0.67173   1
   3  -1   5 1.22274 0.41798   5
   3  -1   5 1.24447 0.50411   4
   3  -1   5 1.49181 0.63503   1
   3  -1   5 1.65679 0.51989   2
  -4   1  -5 119.797 4.54473   2
  -4   1  -5 110.640 4.61881   1
  -4   1  -5 115.626 4.34522   2
  -4   1  -5 120.513 4.41742   1
  -4   1  -5 117.461 3.44814   3
   4  -1   5 117.806 4.04630   5
  -5   1  -5 49.3244 2.49383   1
  -5   1  -5 42.6067 1.79381   3
  -5   1  -5 44.4971 2.47165   2
  -5   1  -5 43.5824 2.34014   2
  -5   1  -5 43.1330 2.57744   1
   5  -1   5 45.2978 2.33708   5
   5  -1   5 39.7579 1.73139   1
  -6   1  -5 83.7346 3.52127   2
  -6   1  -5 76.9174 3.55450   2
  -6   1  -5 82.8670 3.80931   1
  -6   1  -5 81.1968 3.03792   3
  -6   1  -5 87.6384 3.62909   1
   6  -1   5 79.6180 3.60611   5
  -7   1  -5 5.83734 1.16418   2
  -7   1  -5 7.52680 1.22396   1
  -7   1  -5 7.50740 1.20357   2
  -7   1  -5 7.36592 1.02156   3
   7  -1   5 9.37608 1.53798   5
  -8   1  -5 19.3930 1.99947   2
  -8   1  -5 21.6680 1.94982   3
  -8   1  -5 21.4129 1.99043   2
   8  -1   5 20.6231 2.40608   5
  -9   1  -5 8.13203 1.32466   2
  -9   1  -5 7.49522 1.24631   3
   9  -1   5 8.19847 1.71624   5
 -10   1  -5 1.58743 0.78517   2
 -10   1  -5 1.03233 0.70734   3
  10  -1   5 -0.6301 0.77734   5
 -11   0   5 0.37489 0.84629   2
 -11   0   5 2.26883 1.03867   1
 -11   0   5 -0.1781 0.76631   3
 -10   0   5 2.22639 1.07283   3
 -10   0   5 0.14937 0.73452   1
 -10   0   5 1.05756 0.86495   2
  -9   0   5 2.61280 1.04305   2
  -9   0   5 4.47598 1.21558   3
  -9   0   5 2.71994 1.14669   1
   8   0  -5 18.0849 2.20080   5
  -8   0   5 18.5657 2.21430   2
  -8   0   5 16.3824 2.01681   3
  -8   0   5 16.3613 1.91932   2
  -8   0   5 18.8906 2.32207   1
   7   0  -5 27.0444 2.47554   5
  -7   0   5 25.5551 2.32648   2
  -7   0   5 26.2219 2.59191   1
  -7   0   5 25.1382 2.52262   2
  -7   0   5 22.8006 2.16542   1
   6   0  -5 78.6861 3.46329   5
  -6   0   5 79.2506 3.55855   2
  -6   0   5 75.4066 3.50823   1
  -6   0   5 80.1891 3.99422   1
  -6   0   5 74.2209 3.77537   2
   5   0  -5 19.4016 1.38257   2
   5   0  -5 20.9485 1.79702   5
  -5   0   5 18.8702 2.13385   1
  -5   0   5 21.5035 1.98061   2
  -5   0   5 18.7351 1.99312   2
  -5   0   5 19.4651 1.92841   1
   4   0  -5 43.3270 2.29289   2
  -4   0   5 46.9483 2.80667   1
  -4   0   5 43.7058 2.60298   2
  -4   0   5 43.5879 2.40695   2
  -4   0   5 40.4442 2.32632   1
   3   0  -5 14.4050 1.58074   1
   3   0  -5 16.7205 1.65230   2
  -3   0   5 10.5844 1.44402   2
  -3   0   5 14.6229 1.60478   1
  -3   0   5 12.2731 1.05430   5
  -3   0   5 12.7671 1.67442   1
  -3   0   5 13.2642 1.54601   2
   2   0  -5 119.557 4.50103   2
   2   0  -5 124.542 4.88532   1
   2   0  -5 123.247 4.55568   1
  -2   0   5 126.193 4.79316   2
  -2   0   5 121.588 4.55374   1
  -2   0   5 120.148 4.87402   1
  -2   0   5 120.831 4.52604   2
  -2   0   5 121.907 3.57646   5
   1   0  -5 7.40221 1.25136   1
   1   0  -5 12.2038 1.53322   2
   1   0  -5 10.7657 1.35230   2
   1   0  -5 8.94715 1.25259   1
  -1   0   5 12.8898 1.46853   1
  -1   0   5 10.7238 1.30619   2
  -1   0   5 10.2377 0.51855   5
  -1   0   5 9.53501 1.35362   2
  -1   0   5 11.3675 1.54074   1
   0   0  -5 2.10041 0.72873   2
   0   0  -5 2.01872 0.74404   1
   0   0  -5 2.54489 0.76638   1
   0   0  -5 1.99382 0.71419   2
   0   0   5 1.42243 0.57808   1
   0   0   5 2.58682 0.78960   2
   0   0   5 1.70396 0.21288   5
   0   0   5 1.95394 0.78424   1
   0   0   5 2.49819 0.42099   4
  -1   0  -5 591.215 15.9870   2
  -1   0  -5 568.722 16.3333   1
  -1   0  -5 569.796 16.1137   2
  -1   0  -5 600.659 16.0360   1
  -1   0  -5 590.552 15.1093   4
   1   0   5 569.508 16.2205   1
   1   0   5 580.316 15.1009   4
   1   0   5 596.483 15.8836   1
   1   0   5 573.328 14.6623   5
   1   0   5 593.169 15.9402   2
  -2   0  -5 19.6499 1.04276   5
  -2   0  -5 24.5899 2.05222   2
  -2   0  -5 18.7402 1.90785   1
  -2   0  -5 24.3723 1.71011   1
  -2   0  -5 21.6716 1.97589   2
  -2   0  -5 21.6473 1.29819   4
   2   0   5 25.6397 1.82101   1
   2   0   5 21.3584 1.44526   2
   2   0   5 19.5568 1.27088   4
   2   0   5 21.4095 1.11850   5
  -3   0  -5 26.4694 1.81121   1
  -3   0  -5 26.4376 1.78710   2
  -3   0  -5 24.2603 2.30718   1
  -3   0  -5 26.4175 1.01004   3
  -3   0  -5 28.1590 1.86620   2
  -3   0  -5 26.9296 1.61086   4
   3   0   5 25.4552 1.45305   5
   3   0   5 23.6374 1.39114   2
   3   0   5 29.1288 1.81317   1
  -4   0  -5 89.5762 3.67610   1
  -4   0  -5 87.4653 2.76810   3
  -4   0  -5 89.7533 3.96226   1
  -4   0  -5 93.6540 3.76612   2
  -4   0  -5 83.5197 3.58113   2
   4   0   5 85.2929 3.38654   5
   4   0   5 83.5307 3.23287   1
  -5   0  -5 39.7554 2.50347   1
  -5   0  -5 37.9420 2.27759   2
  -5   0  -5 40.0553 2.25125   2
  -5   0  -5 39.3955 1.73533   3
   5   0   5 34.9080 2.18706   5
   5   0   5 38.7783 1.45921   1
  -6   0  -5 1.97482 0.85647   2
  -6   0  -5 1.47970 0.71480   2
  -6   0  -5 1.60810 0.76640   1
  -6   0  -5 2.17802 0.58037   3
   6   0   5 2.71920 0.90425   5
  -7   0  -5 24.6223 1.91512   3
  -7   0  -5 21.6913 2.07620   2
  -7   0  -5 18.2392 1.90846   2
   7   0   5 20.8226 2.28006   5
  -8   0  -5 25.5388 2.27180   2
  -8   0  -5 23.4265 1.97349   3
   8   0   5 21.5637 2.56271   5
  -9   0  -5 3.68578 1.05903   2
  -9   0  -5 3.61383 0.93484   3
   9   0   5 3.84081 1.27210   5
 -10   0  -5 0.88189 0.78614   2
  10   0   5 1.92385 1.21352   5
 -11   1   5 -0.0116 0.68820   2
 -11   1   5 1.18422 0.95301   3
 -11   1   5 0.35380 0.80447   1
 -10   1   5 2.97114 1.14824   1
 -10   1   5 0.66146 0.78680   2
  -9   1   5 5.26637 1.28923   2
  -9   1   5 5.94802 1.38751   1
  -8   1   5 5.01357 1.25943   1
  -8   1   5 3.78579 1.00256   2
  -8   1   5 2.98353 1.03872   2
  -7   1   5 21.9910 2.26711   2
  -7   1   5 17.4614 1.93333   1
  -7   1   5 21.7488 2.38709   1
  -7   1   5 21.1840 2.08265   2
  -6   1   5 34.1282 2.79970   2
  -6   1   5 32.1360 2.82019   1
  -6   1   5 29.7609 2.05341   1
  -6   1   5 31.3831 2.10672   2
   5  -1  -5 25.2937 1.69018   2
  -5   1   5 29.9532 2.49178   2
  -5   1   5 26.3693 2.30580   1
  -5   1   5 27.2824 1.90881   2
  -5   1   5 23.8434 2.34772   1
   4  -1  -5 35.1725 2.08136   2
  -4   1   5 34.8604 2.37752   1
  -4   1   5 34.0265 2.23998   2
  -4   1   5 32.2450 2.07099   2
  -4   1   5 34.5997 2.12832   1
   3  -1  -5 26.2903 1.83703   2
  -3   1   5 24.0356 1.76298   1
  -3   1   5 27.5835 1.85408   2
  -3   1   5 26.8636 1.35404   5
  -3   1   5 31.5822 2.68050   1
  -3   1   5 24.6555 2.17115   2
   2  -1  -5 58.7087 2.92597   2
   2  -1  -5 65.6814 3.26945   1
  -2   1   5 60.8422 3.02996   2
  -2   1   5 65.5672 3.00635   2
  -2   1   5 62.5567 3.21312   1
  -2   1   5 58.3217 2.88831   1
   1  -1  -5 102.625 4.14173   2
   1  -1  -5 97.7680 3.97459   2
   1  -1  -5 97.6068 4.24513   1
  -1   1   5 98.0092 4.01720   2
  -1   1   5 104.256 4.32098   1
  -1   1   5 91.5410 3.84733   1
  -1   1   5 99.8980 3.95384   2
  -1   1   5 98.4224 2.80222   4
   0  -1  -5 316.992 9.58930   2
   0  -1  -5 313.693 9.68320   2
   0  -1  -5 317.171 9.95863   1
   0   1   5 318.626 8.42235   4
   0   1   5 318.442 9.51879   2
   0   1   5 336.006 9.96181   1
   0   1   5 328.200 9.58472   1
  -1  -1  -5 317.076 8.58555   4
  -1  -1  -5 317.738 9.62584   2
  -1  -1  -5 316.175 9.52572   2
  -1  -1  -5 298.613 9.78496   1
   1   1   5 321.346 8.45806   5
   1   1   5 323.896 9.32355   2
   1   1   5 313.871 7.98310   3
   1   1   5 333.885 9.83384   1
  -2  -1  -5 8.91592 1.36358   1
  -2  -1  -5 8.67193 1.26871   2
  -2  -1  -5 9.03273 1.32076   2
  -2  -1  -5 7.45635 0.94806   4
   2   1   5 8.55345 1.20955   1
   2   1   5 6.23766 0.90973   2
   2   1   5 8.77868 0.91732   5
  -3  -1  -5 7.31993 1.18945   2
  -3  -1  -5 5.09552 0.96238   4
  -3  -1  -5 5.71119 1.19379   1
  -3  -1  -5 5.54621 1.01703   2
   3   1   5 6.17920 0.80200   2
   3   1   5 5.59439 0.95351   1
   3   1   5 5.47781 0.85409   5
  -4  -1  -5 -0.2460 0.40327   2
  -4  -1  -5 0.49588 0.54352   1
  -4  -1  -5 -0.2494 0.24266   3
  -4  -1  -5 0.53243 0.49249   2
   4   1   5 0.76424 0.49715   5
   4   1   5 0.14071 0.35097   1
  -5  -1  -5 220.773 6.24694   3
  -5  -1  -5 205.247 7.04061   2
  -5  -1  -5 209.189 6.99632   2
  -5  -1  -5 205.604 7.33668   1
   5   1   5 220.082 7.16725   5
   5   1   5 209.354 5.67902   1
  -6  -1  -5 74.9834 3.47604   2
  -6  -1  -5 71.5505 2.92760   3
  -6  -1  -5 74.8419 3.60546   2
   6   1   5 76.0415 3.76993   5
  -7  -1  -5 45.7818 2.72002   2
  -7  -1  -5 43.7873 2.28169   3
  -7  -1  -5 41.9300 2.70882   2
   7   1   5 47.6211 3.10047   5
  -8  -1  -5 2.15460 0.88256   2
  -8  -1  -5 1.31666 0.63289   3
   8   1   5 1.18869 0.87123   5
  -9  -1  -5 1.15716 0.90669   2
  -9  -1  -5 1.96633 0.79669   3
   9   1   5 1.08191 1.14902   5
 -12   2   5 4.74921 1.29268   1
 -12   2   5 5.35679 1.34842   2
 -12   2   5 2.46649 1.27854   3
 -11   2   5 0.73833 0.82870   1
 -11   2   5 0.08333 0.71212   2
 -10   2   5 0.98458 0.76628   2
 -10   2   5 0.13876 0.65640   1
  -9   2   5 1.20710 0.86213   2
  -9   2   5 0.83004 0.74683   2
  -9   2   5 1.67207 0.87372   1
  -8   2   5 19.5778 2.09991   2
  -8   2   5 20.1463 2.12477   1
  -8   2   5 22.5807 2.46606   1
  -8   2   5 23.5263 2.34274   2
   7  -2  -5 2.89750 0.69730   1
  -7   2   5 4.20102 1.02211   2
  -7   2   5 2.31545 0.95043   1
  -7   2   5 1.88338 0.78441   1
  -7   2   5 2.36229 0.79343   2
   6  -2  -5 0.30199 0.44171   2
  -6   2   5 0.67367 0.60860   2
  -6   2   5 0.29640 0.47770   1
  -6   2   5 0.25386 0.48388   2
  -6   2   5 0.43753 0.64337   1
   5  -2  -5 37.6770 2.17147   2
   5  -2  -5 39.2628 2.20284   2
  -5   2   5 37.0715 2.31097   1
  -5   2   5 35.2381 2.49859   1
  -5   2   5 37.5392 2.39747   2
  -5   2   5 36.6191 2.28100   2
  -4   2   5 15.7911 1.74978   2
  -4   2   5 16.7903 1.84974   2
  -4   2   5 11.5296 1.50715   1
  -4   2   5 10.2075 1.54868   1
   3  -2  -5 0.15428 0.45946   2
  -3   2   5 -0.1060 0.38189   2
  -3   2   5 0.40458 0.57471   2
  -3   2   5 0.47799 0.51489   1
  -3   2   5 -0.4012 0.44896   1
   2  -2  -5 2.15148 0.80967   2
   2  -2  -5 1.05675 0.73633   1
  -2   2   5 2.69396 0.82978   1
  -2   2   5 2.08476 0.74610   2
  -2   2   5 2.15920 0.76250   2
  -2   2   5 2.52805 0.87127   1
   1  -2  -5 154.896 5.59941   2
   1  -2  -5 143.861 5.48544   2
   1  -2  -5 144.661 5.67868   1
  -1   2   5 154.989 5.76982   1
  -1   2   5 148.338 5.43597   1
  -1   2   5 157.322 5.42866   2
   0  -2  -5 31.2921 1.26177   4
   0  -2  -5 32.5106 2.14618   2
   0  -2  -5 23.3009 2.28733   1
   0  -2  -5 31.3131 2.12322   2
   0   2   5 31.6125 1.97773   2
   0   2   5 33.7671 2.28535   1
  -1  -2  -5 206.283 7.21817   1
  -1  -2  -5 191.922 6.82177   2
  -1  -2  -5 206.314 5.94633   4
  -1  -2  -5 217.601 7.08280   2
   1   2   5 205.760 5.54377   3
   1   2   5 211.348 7.04742   1
   1   2   5 210.032 6.01650   5
   1   2   5 207.736 6.58498   2
  -2  -2  -5 59.0685 2.97252   2
  -2  -2  -5 61.8740 2.56526   4
  -2  -2  -5 62.1886 3.29116   1
  -2  -2  -5 58.2253 3.05090   2
   2   2   5 61.5056 2.53965   5
   2   2   5 58.5080 2.95862   1
   2   2   5 61.0588 2.64320   2
   2   2   5 60.8648 2.09681   3
  -3  -2  -5 2.26003 0.74289   2
  -3  -2  -5 2.33485 0.77376   2
  -3  -2  -5 1.93245 0.83076   1
   3   2   5 1.59361 0.48863   2
   3   2   5 1.73775 0.66839   1
   3   2   5 2.03496 0.62703   5
  -4  -2  -5 4.53583 1.18792   1
  -4  -2  -5 2.48629 0.84562   2
  -4  -2  -5 3.38215 0.89661   2
   4   2   5 4.51645 0.96436   5
   4   2   5 4.21167 0.79306   1
  -5  -2  -5 9.97493 1.51729   2
  -5  -2  -5 10.2448 1.68222   1
  -5  -2  -5 12.9669 1.66637   2
  -5  -2  -5 12.0314 1.28189   3
   5   2   5 10.7438 0.79315   1
   5   2   5 10.0240 1.54980   5
  -6  -2  -5 20.7482 2.11746   2
  -6  -2  -5 23.6809 1.85760   3
  -6  -2  -5 19.0282 2.19586   2
   6   2   5 24.3761 2.57900   5
  -7  -2  -5 4.41521 1.18008   2
  -7  -2  -5 3.68385 0.94104   3
   7   2   5 4.81018 1.34451   5
  -8  -2  -5 5.55334 1.13936   3
  -8  -2  -5 5.33742 1.35358   2
  -8  -2  -5 6.76071 1.37006   1
   8   2   5 11.3641 2.03786   5
  -9  -2  -5 1.93600 0.86572   1
  -9  -2  -5 0.15323 0.85733   2
  -9  -2  -5 1.40351 0.96103   2
  -9  -2  -5 -0.8677 0.68897   3
   9   2   5 1.38413 1.05367   5
 -12   3   5 -0.5702 0.69976   2
 -12   3   5 1.84561 1.01707   1
 -11   3   5 4.83871 1.36054   1
 -11   3   5 5.57825 1.30820   2
 -10   3   5 39.9607 3.40053   1
 -10   3   5 32.9827 2.98858   2
  -9   3   5 20.0080 2.21171   2
  -9   3   5 16.5948 2.21150   1
  -9   3   5 9.33581 1.97934   2
   8  -3  -5 26.5033 1.52198   1
  -8   3   5 25.8086 2.51253   2
  -8   3   5 29.1494 2.85768   1
  -8   3   5 25.4534 2.39733   1
  -8   3   5 25.3733 2.49279   2
  -7   3   5 39.3807 2.73249   1
  -7   3   5 26.7877 2.53519   2
  -7   3   5 36.6220 2.48423   2
   6  -3  -5 7.14477 1.16981   2
  -6   3   5 4.83014 1.06369   2
  -6   3   5 8.53764 1.42392   2
  -6   3   5 5.15141 1.21790   1
   5  -3  -5 87.1527 3.74353   2
  -5   3   5 81.8460 4.04730   1
  -5   3   5 82.8078 3.84798   2
  -5   3   5 75.5553 3.72337   2
  -5   3   5 84.0355 2.86029   4
   4  -3  -5 3.76253 0.98320   2
   4  -3  -5 4.32408 1.03384   2
  -4   3   5 5.79211 1.16953   2
  -4   3   5 5.13731 0.49917   4
  -4   3   5 3.72105 0.98265   2
  -4   3   5 4.38236 1.06410   1
   3  -3  -5 0.79556 0.65182   2
  -3   3   5 1.19253 0.66800   2
  -3   3   5 1.79659 0.84634   1
  -3   3   5 1.51682 0.71744   2
   2  -3  -5 373.636 11.2054   2
   2  -3  -5 365.882 12.0069   1
  -2   3   5 377.922 11.3788   1
  -2   3   5 344.485 10.9846   2
  -2   3   5 360.155 10.8767   2
   1  -3  -5 96.0049 4.20956   2
   1  -3  -5 101.017 4.35743   2
   1  -3  -5 101.346 2.70394   4
   1  -3  -5 87.4035 4.29145   1
  -1   3   5 101.737 4.09765   2
  -1   3   5 94.5823 4.30854   1
   0  -3  -5 20.8888 2.29531   1
   0  -3  -5 21.3547 2.13351   2
   0  -3  -5 21.6121 1.07208   4
   0  -3  -5 25.4522 2.39583   2
   0   3   5 20.9022 1.90499   2
   0   3   5 23.5591 2.27930   1
  -1  -3  -5 12.5174 1.74389   2
  -1  -3  -5 10.5755 1.66162   1
  -1  -3  -5 11.8779 1.59512   2
   1   3   5 10.7685 1.17777   5
   1   3   5 12.0678 0.96087   3
   1   3   5 12.3823 1.66035   1
  -2  -3  -5 -0.5034 0.35670   2
  -2  -3  -5 -0.2759 0.50325   1
  -2  -3  -5 0.30847 0.54438   2
   2   3   5 -0.0820 0.34116   5
   2   3   5 -0.0296 0.46614   1
   2   3   5 -0.2149 0.38513   2
   2   3   5 -0.1989 0.21335   3
  -3  -3  -5 22.0454 2.31209   2
  -3  -3  -5 20.4712 2.07127   2
  -3  -3  -5 24.1260 2.64423   1
   3   3   5 20.6459 1.36421   2
   3   3   5 24.5669 2.09704   5
   3   3   5 18.5654 1.82613   1
  -4  -3  -5 14.2152 2.06969   1
  -4  -3  -5 11.5962 1.76838   2
  -4  -3  -5 11.2722 1.58041   2
   4   3   5 14.8895 1.47752   1
   4   3   5 13.8292 1.73115   5
  -5  -3  -5 5.94912 1.23905   2
  -5  -3  -5 7.72036 1.52137   2
   5   3   5 4.33408 1.12798   5
  -6  -3  -5 1.51300 0.87193   2
   6   3   5 -1.0741 0.39563   5
  -7  -3  -5 0.75105 0.75881   1
  -7  -3  -5 -0.2646 0.82441   2
  -7  -3  -5 -0.7403 0.63325   2
   7   3   5 0.27042 0.75859   5
  -8  -3  -5 1.41508 0.90496   1
  -8  -3  -5 -0.1135 0.90427   2
   8   3   5 0.86971 0.88899   5
 -12   4   5 0.58830 0.92613   1
 -12   4   5 1.49241 0.95375   2
 -11   4   5 8.74432 1.73167   1
 -11   4   5 9.59870 1.66678   2
 -10   4   5 2.41582 1.02021   1
 -10   4   5 3.09844 1.10045   2
  -9   4   5 118.591 5.16026   2
  -9   4   5 121.385 5.46998   1
   8  -4  -5 6.95949 1.13101   1
  -8   4   5 5.25965 1.22632   2
  -8   4   5 5.35552 1.26941   2
  -8   4   5 6.07579 1.46512   1
   7  -4  -5 0.54792 0.56884   1
  -7   4   5 0.64707 0.60976   2
  -7   4   5 0.40187 0.67448   1
  -7   4   5 0.15445 0.35459   4
  -7   4   5 0.37789 0.62449   2
   6  -4  -5 110.456 4.49304   2
   6  -4  -5 102.526 4.41277   1
  -6   4   5 105.198 4.57758   2
  -6   4   5 104.333 3.54889   4
  -6   4   5 105.727 4.89060   1
  -6   4   5 98.3719 4.57974   2
  -5   4   5 6.11525 0.65654   4
  -5   4   5 7.58673 1.49173   1
  -5   4   5 7.61813 1.39934   2
  -5   4   5 6.55897 1.30929   2
   4  -4  -5 87.0249 4.12560   2
  -4   4   5 86.0678 4.22021   1
  -4   4   5 87.2836 3.96469   2
  -4   4   5 84.3877 4.07430   2
   3  -4  -5 7.85242 1.45455   2
   3  -4  -5 6.59133 1.34672   2
  -3   4   5 7.63685 1.46531   1
  -3   4   5 8.13158 1.44798   2
  -3   4   5 7.77510 1.29821   2
   2  -4  -5 27.1932 2.68059   2
   2  -4  -5 27.3076 2.63152   2
  -2   4   5 27.2583 2.39761   2
  -2   4   5 32.9435 2.85204   1
   1  -4  -5 299.349 9.92263   2
   1  -4  -5 284.191 9.54375   2
  -1   4   5 305.456 9.35844   2
  -1   4   5 313.220 9.86389   1
   0  -4  -5 96.6594 4.56048   2
   0  -4  -5 97.3009 4.31143   2
   0  -4  -5 92.6715 4.60003   1
   0   4   5 104.010 4.49515   1
   0   4   5 90.8320 3.94325   2
  -1  -4  -5 1.57410 0.82579   1
  -1  -4  -5 2.76081 1.03510   2
  -1  -4  -5 3.42166 0.95774   2
   1   4   5 2.48707 0.68566   5
   1   4   5 1.54134 0.77592   1
  -2  -4  -5 100.863 4.76930   2
  -2  -4  -5 92.6930 4.70939   1
  -2  -4  -5 99.5473 4.45825   2
   2   4   5 96.9714 4.22319   1
   2   4   5 92.4928 3.81939   2
   2   4   5 106.075 4.00272   5
  -3  -4  -5 1.72161 0.77517   2
  -3  -4  -5 1.09592 0.76258   1
  -3  -4  -5 0.30351 0.67672   2
   3   4   5 0.89203 0.62194   5
   3   4   5 1.22017 0.54081   2
   3   4   5 0.76462 0.60487   1
  -4  -4  -5 -0.4980 0.54424   2
  -4  -4  -5 0.08282 1.00047   2
   4   4   5 0.97797 0.69141   5
  -5  -4  -5 17.6725 2.43141   2
  -5  -4  -5 14.5582 2.06225   1
  -5  -4  -5 16.7612 2.37525   2
   5   4   5 16.4157 2.13058   5
  -6  -4  -5 -0.2369 0.72259   2
  -6  -4  -5 1.98928 1.13615   2
  -6  -4  -5 -0.8394 0.65436   1
   6   4   5 0.77393 0.86852   5
  -7  -4  -5 0.56370 0.83251   1
  -7  -4  -5 0.23179 0.86878   2
   7   4   5 1.48547 0.93640   5
  -8  -4  -5 2.10534 1.17850   2
   8   4   5 2.25714 1.17129   5
 -12   5   5 0.25567 0.83772   1
 -12   5   5 -0.0869 0.72340   2
 -11   5   5 -0.2196 0.77157   1
 -11   5   5 1.16203 0.84475   2
 -10   5   5 49.1750 3.43258   1
 -10   5   5 49.2399 3.21673   2
  -9   5   5 1.19279 0.92104   1
  -9   5   5 1.49295 0.91801   2
   8  -5  -5 26.8184 2.36866   1
  -8   5   5 23.8977 2.65765   1
  -8   5   5 21.0604 2.35940   2
  -8   5   5 25.0210 2.68116   2
   7  -5  -5 6.75762 1.33544   1
   7  -5  -5 6.76224 1.28743   2
  -7   5   5 6.07161 0.88946   4
  -7   5   5 5.50738 1.34740   2
  -7   5   5 6.08171 1.31045   2
  -7   5   5 6.26297 1.47740   1
   6  -5  -5 3.11014 1.01740   2
   6  -5  -5 3.98617 1.13668   1
  -6   5   5 3.67435 0.99553   2
  -6   5   5 4.36895 0.61914   4
  -6   5   5 4.25303 1.22256   2
  -6   5   5 3.15443 1.04981   1
   5  -5  -5 38.0217 2.68715   1
   5  -5  -5 41.3305 2.83457   2
  -5   5   5 38.3945 3.31176   2
  -5   5   5 42.0506 2.91676   1
  -5   5   5 40.6044 2.67273   2
   4  -5  -5 64.2493 3.71349   2
   4  -5  -5 71.2316 3.71677   1
  -4   5   5 66.7056 3.78458   1
  -4   5   5 68.7664 3.55853   2
  -4   5   5 67.6218 3.75762   2
   3  -5  -5 -0.6130 0.43970   2
   3  -5  -5 -0.0169 0.09968   4
  -3   5   5 0.20994 0.62469   1
  -3   5   5 -0.1226 0.43354   2
   2  -5  -5 34.4661 3.11775   2
   2  -5  -5 33.1773 3.05147   2
  -2   5   5 39.2256 2.75238   1
  -2   5   5 36.8795 2.44705   2
   1  -5  -5 22.3842 2.56523   2
   1  -5  -5 19.8864 2.41766   2
  -1   5   5 24.4531 2.64967   1
  -1   5   5 19.8659 2.11635   2
   0  -5  -5 32.2911 3.15140   2
   0  -5  -5 31.7140 2.93127   2
   0  -5  -5 36.7682 3.34932   2
   0   5   5 32.9484 3.00888   1
   0   5   5 32.1507 2.17370   2
  -1  -5  -5 6.60999 1.52038   2
  -1  -5  -5 6.44627 1.54019   1
  -1  -5  -5 6.44639 1.48159   2
  -1  -5  -5 6.47510 1.39207   2
   1   5   5 5.21010 1.22857   1
   1   5   5 8.24434 1.19237   5
  -2  -5  -5 -0.6344 0.56598   1
  -2  -5  -5 0.00010 0.66019   2
  -2  -5  -5 -0.2213 0.65933   2
  -2  -5  -5 -0.2108 0.60654   2
   2   5   5 -0.0543 0.55921   1
   2   5   5 -0.0243 0.39112   5
   2   5   5 0.02461 0.45955   2
  -3  -5  -5 1.56231 1.04715   1
  -3  -5  -5 2.78598 1.39205   1
  -3  -5  -5 1.83661 1.07246   2
  -3  -5  -5 2.70855 1.14471   2
   3   5   5 0.56373 0.67210   1
   3   5   5 3.07009 0.98497   5
  -4  -5  -5 3.14202 1.17015   1
  -4  -5  -5 1.80183 1.07925   2
   4   5   5 1.87828 0.93407   5
  -5  -5  -5 0.28865 0.79443   2
  -5  -5  -5 -0.0473 0.65953   1
   5   5   5 -0.2321 0.66346   5
  -6  -5  -5 1.23774 1.04559   1
  -6  -5  -5 2.58371 1.32859   2
   6   5   5 2.81942 1.19336   5
  -7  -5  -5 -0.2010 0.93539   2
  -7  -5  -5 0.85997 1.01063   1
   7   5   5 0.75642 0.98176   5
 -12   6   5 1.34338 0.93730   2
 -12   6   5 1.77627 1.06664   1
 -11   6   5 16.8957 2.24059   2
 -11   6   5 14.7024 2.26377   1
 -10   6   5 -0.1186 0.78454   1
 -10   6   5 0.07119 0.64774   2
  -9   6   5 3.03018 1.09810   2
  -9   6   5 5.46284 1.43967   1
   8  -6  -5 28.3473 2.69112   1
  -8   6   5 30.1848 3.04482   1
  -8   6   5 29.1614 2.87414   2
   7  -6  -5 10.3631 1.68639   1
   7  -6  -5 11.4587 1.80507   2
  -7   6   5 9.40879 1.37216   4
  -7   6   5 10.1750 1.66577   2
  -7   6   5 12.4983 2.00721   2
  -7   6   5 8.70651 1.73093   1
   6  -6  -5 7.48042 1.53007   1
  -6   6   5 6.79193 1.55920   1
  -6   6   5 10.1310 1.64226   2
  -6   6   5 9.47466 1.86351   2
   5  -6  -5 19.4612 2.39261   1
   5  -6  -5 19.2773 2.44354   2
  -5   6   5 20.7145 2.62378   2
  -5   6   5 19.5722 2.23359   2
  -5   6   5 19.8016 2.56494   1
   4  -6  -5 6.67625 1.45640   1
   4  -6  -5 5.46431 1.44639   2
   4  -6  -5 6.63850 0.57180   4
  -4   6   5 7.83130 1.66848   1
  -4   6   5 9.12257 1.62418   2
   3  -6  -5 75.5638 4.32152   2
   3  -6  -5 79.7955 2.42046   4
   3  -6  -5 78.9365 4.27387   1
  -3   6   5 70.7556 4.09745   1
  -3   6   5 71.8172 3.82965   2
   2  -6  -5 157.503 6.60425   1
   2  -6  -5 147.170 6.62476   2
  -2   6   5 155.352 6.05871   2
  -2   6   5 162.256 6.59700   1
   1  -6  -5 2.26246 1.07398   2
   1  -6  -5 2.23808 1.06129   1
  -1   6   5 2.05559 0.98449   1
  -1   6   5 3.36290 0.98656   2
   0  -6  -5 44.1820 3.91897   1
   0  -6  -5 41.7160 3.78430   2
   0  -6  -5 41.7707 3.61050   2
   0   6   5 42.3983 2.67702   2
   0   6   5 42.1148 2.97165   1
  -1  -6  -5 39.0343 3.71671   2
  -1  -6  -5 44.3854 3.94534   1
  -1  -6  -5 41.9652 3.62409   2
   1   6   5 34.3950 3.10553   1
   1   6   5 37.3237 2.35324   5
  -2  -6  -5 164.648 7.06650   1
  -2  -6  -5 160.021 7.16857   2
   2   6   5 154.814 6.27281   1
   2   6   5 152.656 5.91208   5
  -3  -6  -5 13.9655 2.26648   1
  -3  -6  -5 15.1514 2.49023   2
   3   6   5 17.2814 2.14323   5
  -4  -6  -5 0.77865 1.01475   1
  -4  -6  -5 0.47560 0.88943   2
   4   6   5 0.14898 0.77137   5
  -5  -6  -5 0.34240 0.82933   1
  -5  -6  -5 1.34655 1.23549   2
   5   6   5 0.14222 0.65920   5
  -6  -6  -5 1.36239 1.05192   1
  -6  -6  -5 1.20805 1.25580   2
   6   6   5 2.14514 1.18066   5
 -12   7   5 0.60860 0.90656   2
 -12   7   5 0.15829 0.87272   1
 -11   7   5 0.08585 0.81493   2
 -11   7   5 -0.5286 0.76070   1
 -10   7   5 2.90666 1.23766   1
 -10   7   5 4.60886 1.33804   2
  -9   7   5 0.84034 0.99854   1
  -9   7   5 1.16971 0.93541   2
   8  -7  -5 17.9217 2.36221   1
  -8   7   5 20.7739 2.79172   1
  -8   7   5 19.0249 2.43359   2
   7  -7  -5 18.0487 2.49767   1
  -7   7   5 20.3235 2.45746   2
  -7   7   5 24.8265 3.01795   1
   6  -7  -5 45.0065 3.99997   2
   6  -7  -5 50.9038 3.46305   1
  -6   7   5 46.9665 3.16148   2
  -6   7   5 49.4202 3.50424   1
  -6   7   5 43.8282 4.06880   2
   5  -7  -5 40.3897 1.69117   4
   5  -7  -5 44.8511 3.86850   1
   5  -7  -5 45.9991 4.02153   2
  -5   7   5 41.8879 3.52266   2
  -5   7   5 45.1136 3.94746   1
   4  -7  -5 6.92399 0.69788   4
   4  -7  -5 6.27256 1.64465   1
   4  -7  -5 6.71531 1.74131   2
  -4   7   5 5.84553 1.35573   2
  -4   7   5 5.96906 1.52748   1
   3  -7  -5 33.6063 3.62605   2
   3  -7  -5 28.6442 3.11423   1
  -3   7   5 22.8254 2.71240   1
  -3   7   5 21.4688 2.38841   2
   2  -7  -5 3.61415 1.47227   2
   2  -7  -5 2.73482 1.18280   1
  -2   7   5 3.07633 1.05136   2
  -2   7   5 3.76399 1.29945   1
   1  -7  -5 39.7933 3.86943   2
   1  -7  -5 39.1978 3.77486   1
  -1   7   5 38.3668 2.71000   2
  -1   7   5 45.2170 3.21377   1
   0  -7  -5 7.25866 1.73304   1
   0  -7  -5 4.84317 1.56476   2
   0   7   5 5.59513 1.26786   2
   0   7   5 6.31411 1.49002   1
  -1  -7  -5 0.95655 0.88630   2
  -1  -7  -5 0.66454 0.98323   1
   1   7   5 0.02356 0.74580   1
   1   7   5 0.91456 0.70668   5
  -2  -7  -5 44.1888 4.20370   1
  -2  -7  -5 46.4926 4.62598   2
   2   7   5 49.4150 3.12360   5
   2   7   5 50.1377 4.45427   1
  -3  -7  -5 6.06391 1.92958   2
  -3  -7  -5 6.81979 1.86960   1
   3   7   5 7.99161 1.72213   5
  -4  -7  -5 19.4977 2.99836   1
  -4  -7  -5 18.6735 3.12131   2
   4   7   5 29.3215 3.15534   5
  -5  -7  -5 1.13066 1.17990   1
  -5  -7  -5 1.16611 1.30516   2
   5   7   5 0.32428 0.97048   5
 -12   8   5 -0.3956 0.86504   2
 -12   8   5 1.90620 1.14719   1
 -11   8   5 0.55384 0.85785   2
 -11   8   5 -0.9592 0.74264   1
 -10   8   5 -0.9278 0.82172   1
 -10   8   5 -0.3358 0.72173   2
  -9   8   5 0.00667 0.87495   1
  -9   8   5 0.01586 0.68823   2
   8  -8  -5 25.7124 3.11139   1
  -8   8   5 21.3270 2.64011   2
  -8   8   5 20.9586 2.84253   1
   7  -8  -5 3.59382 1.36717   1
  -7   8   5 2.37361 1.08399   2
  -7   8   5 2.87126 1.31611   1
   6  -8  -5 0.36809 0.36059   4
   6  -8  -5 1.75878 1.19540   1
   6  -8  -5 2.27129 1.23590   2
  -6   8   5 -0.0616 0.95288   1
  -6   8   5 0.82258 0.88859   2
   5  -8  -5 0.27380 0.29822   4
   5  -8  -5 1.03690 0.93181   1
   5  -8  -5 0.13252 0.82540   2
  -5   8   5 -0.5337 0.82952   1
  -5   8   5 0.50645 0.66109   2
   4  -8  -5 7.77177 0.89267   4
   4  -8  -5 7.34925 1.93004   2
   4  -8  -5 6.57582 1.70575   1
  -4   8   5 11.6103 1.96257   2
  -4   8   5 5.56379 1.62315   1
   3  -8  -5 11.3899 2.37978   2
   3  -8  -5 9.09805 2.05513   1
  -3   8   5 8.95960 1.71785   2
  -3   8   5 10.4258 1.93237   1
   2  -8  -5 114.782 6.03622   1
   2  -8  -5 116.452 6.28937   2
  -2   8   5 110.662 5.62914   1
  -2   8   5 111.629 5.23712   2
   1  -8  -5 31.6345 3.60230   1
   1  -8  -5 25.6924 3.52369   2
  -1   8   5 27.5761 3.05776   1
  -1   8   5 30.9687 3.04671   2
   0  -8  -5 36.8664 4.23993   2
   0  -8  -5 36.8246 4.03425   1
   0   8   5 40.7555 3.84843   1
  -1  -8  -5 0.06664 0.87700   2
  -1  -8  -5 -0.6409 0.77130   1
   1   8   5 1.43810 0.90019   1
   1   8   5 -1.2199 0.42168   5
  -2  -8  -5 0.08241 1.07679   1
  -2  -8  -5 0.07097 1.05519   2
   2   8   5 0.18900 0.83765   5
  -3  -8  -5 19.7226 3.24817   1
  -3  -8  -5 17.1470 3.05020   2
   3   8   5 21.5100 2.67003   5
  -4  -8  -5 -1.0823 0.95120   1
  -4  -8  -5 0.42956 1.19784   2
   4   8   5 0.47101 0.84124   5
   5   8   5 4.95150 1.66031   5
 -12   9   5 5.96966 1.62833   2
 -12   9   5 5.45817 1.81878   1
 -11   9   5 7.97224 2.03391   1
 -11   9   5 12.9228 2.22857   2
 -10   9   5 11.6751 2.30604   1
 -10   9   5 13.9979 2.28454   2
  -9   9   5 23.1094 2.85210   2
  -9   9   5 29.2177 3.47465   1
  -8   9   5 0.57668 0.74624   2
  -8   9   5 1.54033 1.15997   1
   7  -9  -5 5.58368 1.62809   1
  -7   9   5 8.03101 1.91518   1
  -7   9   5 7.60023 1.63982   2
   6  -9  -5 30.8237 1.68223   4
   6  -9  -5 33.0881 3.67274   1
  -6   9   5 27.1822 3.31321   1
  -6   9   5 34.5181 3.41849   2
   5  -9  -5 72.9820 4.97814   2
   5  -9  -5 72.0063 2.81134   4
   5  -9  -5 73.8325 4.86589   1
  -5   9   5 77.3326 4.43706   2
  -5   9   5 78.2848 4.80043   1
   4  -9  -5 13.7455 2.70347   2
   4  -9  -5 12.8795 2.43396   1
   4  -9  -5 9.19580 1.37260   4
  -4   9   5 16.6756 2.37938   2
  -4   9   5 17.8779 2.64561   1
   3  -9  -5 -0.2565 0.85128   1
  -3   9   5 1.25089 0.86140   2
  -3   9   5 -0.1078 0.83934   1
   2  -9  -5 25.9222 3.69406   2
   2  -9  -5 22.1415 3.20616   1
  -2   9   5 19.6527 2.82777   1
  -2   9   5 18.7053 2.44581   2
   1  -9  -5 24.9756 3.45151   1
   1  -9  -5 24.3471 3.54278   2
  -1   9   5 22.0139 2.90598   1
   0  -9  -5 9.45858 2.45714   2
   0  -9  -5 13.2257 2.63860   1
   0   9   5 19.4327 2.34468   5
   0   9   5 15.9550 2.51244   1
  -1  -9  -5 -0.2382 1.16465   1
  -1  -9  -5 -0.9546 1.05547   2
   1   9   5 -0.8419 0.44167   5
  -2  -9  -5 4.82704 1.80285   2
  -2  -9  -5 3.15520 1.72099   1
   2   9   5 3.05661 1.17967   5
  -3  -9  -5 11.5767 2.86823   2
  -3  -9  -5 8.74835 2.49392   1
   3   9   5 11.8306 2.24261   5
 -11  10   5 -0.5925 0.94594   1
 -11  10   5 2.03449 1.15730   2
 -10  10   5 4.20711 1.71206   1
 -10  10   5 3.76056 1.47473   2
  -9  10   5 -0.4740 0.95993   1
  -9  10   5 0.80447 0.93108   2
  -8  10   5 -0.8818 0.78804   1
  -8  10   5 -0.5736 0.72681   2
   7 -10  -5 9.62418 2.27799   1
  -7  10   5 8.46072 1.89837   2
  -7  10   5 10.2022 2.27983   1
   6 -10  -5 38.1410 4.19746   1
   6 -10  -5 45.5528 2.23394   4
  -6  10   5 47.2790 4.14105   2
  -6  10   5 47.2468 4.47998   1
   5 -10  -5 15.6825 1.41071   4
   5 -10  -5 13.0857 2.57274   1
   5 -10  -5 11.8163 2.54089   2
  -5  10   5 13.8541 2.54502   1
  -5  10   5 11.9303 2.20602   2
   4 -10  -5 73.7493 5.20050   1
   4 -10  -5 81.9464 6.80981   2
  -4  10   5 58.5758 4.08849   2
  -4  10   5 73.4818 4.80352   1
   3 -10  -5 4.88325 1.87664   2
   3 -10  -5 5.13607 1.84838   1
  -3  10   5 2.10398 1.10970   2
  -3  10   5 6.18400 1.68948   1
   2 -10  -5 7.20176 2.14625   2
   2 -10  -5 10.4173 2.51307   1
  -2  10   5 8.91811 2.03512   1
   1 -10  -5 -0.6706 0.85252   1
   1 -10  -5 -1.2477 0.85564   2
  -1  10   5 -0.5729 0.85366   1
   0 -10  -5 1.16330 1.27491   1
   0 -10  -5 3.39469 1.83012   2
   0  10   5 4.55997 1.25077   5
  -1 -10  -5 1.65411 1.41306   1
  -1 -10  -5 -0.0838 1.09134   2
   1  10   5 -0.6993 0.58971   5
  -2 -10  -5 2.58350 1.70512   2
  -2 -10  -5 -0.2733 1.55225   1
   2  10   5 2.35222 1.31546   5
 -11  11   5 1.45282 1.28509   2
 -11  11   5 0.55635 1.39116   1
 -10  11   5 -1.0589 1.12610   1
 -10  11   5 0.85936 1.04436   2
  -9  11   5 -0.4407 0.96088   2
  -9  11   5 0.66730 1.16533   1
  -8  11   5 8.32756 2.10412   2
  -8  11   5 13.2663 2.63771   1
   7 -11  -5 2.23176 1.50818   1
  -7  11   5 2.70696 1.49213   1
  -7  11   5 2.08235 1.20108   2
   6 -11  -5 15.2078 2.91775   1
  -6  11   5 9.79802 2.05889   2
  -6  11   5 16.8873 2.89991   1
   5 -11  -5 44.1309 4.98945   1
  -5  11   5 40.9059 4.14578   2
  -5  11   5 45.1610 4.73242   1
   4 -11  -5 0.33011 1.06456   2
   4 -11  -5 -0.4284 1.03049   1
  -4  11   5 -0.5777 0.87207   1
  -4  11   5 -0.3885 0.73151   2
   3 -11  -5 12.4565 2.70707   1
   3 -11  -5 16.8662 3.28498   2
  -3  11   5 14.4315 2.74477   1
   2 -11  -5 8.26642 2.30231   1
   2 -11  -5 17.0612 3.39377   2
  -2  11   5 9.19182 2.20481   1
   1 -11  -5 -0.1372 1.16171   1
   1 -11  -5 0.92696 1.50606   2
   0 -11  -5 -0.3369 1.15772   1
   0 -11  -5 0.65340 1.49630   2
   0  11   5 1.95331 1.10716   5
  -1 -11  -5 3.04729 2.11969   2
  -1 -11  -5 5.06679 2.19562   1
   1  11   5 2.42286 1.29866   5
 -10  12   5 16.5442 2.96459   1
 -10  12   5 19.6878 3.02844   2
  -9  12   5 2.90023 1.51020   1
  -9  12   5 3.93849 1.62459   2
  -8  12   5 7.56507 2.12508   1
  -8  12   5 2.55459 1.38560   2
   7 -12  -5 2.04352 1.62312   1
  -7  12   5 3.52858 1.50959   2
  -7  12   5 1.75256 1.43793   1
   6 -12  -5 -0.1081 1.19919   1
  -6  12   5 0.39041 1.18300   2
  -6  12   5 0.38255 1.07851   1
   5 -12  -5 0.63382 1.49603   1
  -5  12   5 1.33601 1.29790   1
   4 -12  -5 14.8137 3.09182   1
  -4  12   5 13.9905 2.93610   1
   3 -12  -5 7.82706 2.49319   1
   3 -12  -5 7.86600 2.57625   2
  -3  12   5 8.94277 2.29695   1
   2 -12  -5 7.97178 2.69078   1
   2 -12  -5 3.46356 1.98792   2
  -2  12   5 3.14708 1.65624   1
   1 -12  -5 1.64126 1.65918   1
   1 -12  -5 0.09810 1.56473   2
  -1  12   5 -0.2921 0.74762   5
  -8  13   5 0.18488 1.23456   1
  -8  13   5 0.04387 1.17686   2
  -7  13   5 5.16154 1.76104   2
  -7  13   5 5.58406 2.08323   1
   6 -13  -5 1.59025 1.43224   1
  -6  13   5 0.36216 1.41946   1
   5 -13  -5 -0.1610 1.47186   1
  -5  13   5 0.63531 1.27812   1
   4 -13  -5 -0.5172 1.13539   1
  -4  13   5 -1.1502 1.04985   1
   3 -13  -5 2.36453 1.82309   1
  -2  13  -6 0.00812 0.79456   5
   2 -13   6 -0.0871 1.55155   1
  -3  13  -6 7.26938 2.20680   1
   3 -13   6 5.17045 2.40760   1
  -4  13  -6 4.71835 1.91336   1
   4 -13   6 3.79476 2.04474   1
  -5  13  -6 0.41065 1.14613   1
  -5  13  -6 -1.0294 1.10628   2
   5 -13   6 -1.6521 1.21930   1
   5 -13   6 2.56506 3.03527   4
  -6  13  -6 7.73765 2.37544   1
  -6  13  -6 8.17840 2.21307   2
   6 -13   6 3.71468 1.75482   4
  -7  13  -6 -1.5754 1.08948   2
   7 -13   6 0.20338 0.93318   4
   0  12  -6 -0.5730 0.60023   5
   0 -12   6 0.60472 1.50123   2
   0 -12   6 0.32096 1.51257   1
  -1  12  -6 2.30549 1.05449   5
  -1  12  -6 2.01502 1.50124   1
   1 -12   6 2.37782 2.02715   2
   1 -12   6 1.18514 1.64693   1
  -2  12  -6 1.23775 1.40909   1
   2 -12   6 0.51204 1.51177   1
  -3  12  -6 5.02416 1.84882   1
   3 -12   6 2.33368 1.79493   1
  -4  12  -6 11.3447 2.65738   1
  -4  12  -6 17.0655 3.01327   2
   4 -12   6 10.2706 2.78416   1
  -5  12  -6 1.00105 1.34135   1
  -5  12  -6 1.62486 1.29619   2
   5 -12   6 -4.8627 2.42049   4
   5 -12   6 -0.1029 1.39535   1
  -6  12  -6 1.68253 1.34974   1
  -6  12  -6 1.33184 1.26777   2
   6 -12   6 1.27570 1.11824   4
  -7  12  -6 27.7023 3.72855   2
   7 -12   6 25.4827 3.08210   4
  -8  12  -6 1.01840 1.11052   1
  -8  12  -6 1.11271 1.37051   2
   8 -12   6 2.02987 1.30809   4
   2  11  -6 0.12202 0.77542   5
  -2 -11   6 -0.4015 1.66544   2
  -2 -11   6 -0.1720 1.55243   1
   1  11  -6 11.2107 1.94556   5
  -1 -11   6 4.74474 2.18924   2
  -1 -11   6 5.32930 2.23911   1
   0  11  -6 -0.0364 0.82991   5
   0  11  -6 0.10866 1.01347   1
   0 -11   6 0.27448 1.35164   2
   0 -11   6 1.78111 1.71653   1
  -1  11  -6 -0.3343 1.01660   1
  -1  11  -6 1.15224 0.78600   5
   1 -11   6 -0.3172 1.02101   2
   1 -11   6 3.13336 1.94014   1
  -2  11  -6 1.18155 1.27834   1
   2 -11   6 3.78835 1.93783   1
   2 -11   6 2.73689 1.88263   2
  -3  11  -6 24.5660 3.42679   1
  -3  11  -6 25.4794 3.35543   2
   3 -11   6 27.2473 3.92457   1
  -4  11  -6 2.59343 1.35982   2
  -4  11  -6 2.83961 1.43604   1
   4 -11   6 1.94351 1.44206   1
  -5  11  -6 0.13153 0.94151   1
  -5  11  -6 1.25470 1.12255   2
   5 -11   6 -3.1009 1.66539   4
   5 -11   6 2.82451 1.51162   1
  -6  11  -6 1.82586 1.22707   2
  -6  11  -6 5.74830 1.87076   1
   6 -11   6 3.98025 1.30379   4
  -7  11  -6 1.08402 1.14337   2
  -7  11  -6 0.64081 1.03585   1
   7 -11   6 -0.2661 0.73664   4
  -8  11  -6 2.21629 1.42334   1
  -8  11  -6 0.90263 1.04062   2
   8 -11   6 4.26286 1.44002   4
  -9  11  -6 2.13985 1.42029   1
  -9  11  -6 7.33411 1.96450   2
   9 -11   6 2.48058 1.26203   4
   3  10  -6 3.30400 1.30259   5
  -3 -10   6 2.15064 1.66698   1
  -3 -10   6 4.94740 2.36889   2
   2  10  -6 2.38560 1.14405   5
  -2 -10   6 5.00237 2.06807   1
  -2 -10   6 4.11120 2.19729   2
   1  10  -6 3.20239 1.48961   1
   1  10  -6 2.91229 1.16111   5
  -1 -10   6 2.02416 1.77831   1
  -1 -10   6 4.01640 1.99725   2
   0  10  -6 0.90345 1.16335   1
   0  10  -6 1.61507 0.84260   5
   0 -10   6 2.83946 1.89680   2
   0 -10   6 1.66960 1.54365   1
  -1  10  -6 7.83642 1.42625   5
  -1  10  -6 7.43149 1.93953   1
   1 -10   6 8.88698 2.50304   1
   1 -10   6 7.75060 2.44409   2
  -2  10  -6 17.9251 2.86682   1
  -2  10  -6 10.9521 2.10824   2
   2 -10   6 21.2421 3.45073   1
   2 -10   6 18.6429 3.37561   2
  -3  10  -6 14.7597 2.43138   2
  -3  10  -6 18.4635 2.82949   1
   3 -10   6 12.4287 2.69759   2
   3 -10   6 13.6806 2.73047   1
  -4  10  -6 48.6896 4.57459   1
  -4  10  -6 57.0827 4.82931   2
   4 -10   6 49.2558 5.19137   1
  -5  10  -6 2.55024 1.31371   1
  -5  10  -6 5.69504 1.63618   2
   5 -10   6 6.65428 2.00965   1
   5 -10   6 3.09330 1.72427   4
  -6  10  -6 12.4638 2.39222   2
  -6  10  -6 14.3867 2.55692   1
   6 -10   6 8.18682 2.21668   1
   6 -10   6 10.3885 1.80992   4
  -7  10  -6 -0.5156 0.87003   2
  -7  10  -6 0.61881 1.01771   1
   7 -10   6 1.24673 0.96708   4
  -8  10  -6 12.6527 2.34401   1
  -8  10  -6 16.2368 2.74405   2
   8 -10   6 13.6377 2.25492   4
  -9  10  -6 10.6634 2.29589   1
  -9  10  -6 10.5698 2.24282   2
   9 -10   6 11.8519 2.19846   4
 -10  10  -6 15.2224 2.62100   1
 -10  10  -6 14.8322 2.56197   2
  10 -10   6 14.4220 2.43520   4
   5   9  -6 1.58971 1.18555   5
  -5  -9   6 -0.4651 1.43000   2
  -5  -9   6 1.95618 1.77804   1
   4   9  -6 2.05374 1.13775   5
  -4  -9   6 3.86066 1.93548   1
  -4  -9   6 1.08095 1.36408   2
   3   9  -6 3.14916 1.18191   5
  -3  -9   6 -0.7148 1.28359   1
  -3  -9   6 2.11942 1.62128   2
   2   9  -6 25.4068 3.68460   1
   2   9  -6 28.1198 2.81374   5
  -2  -9   6 20.6160 3.55025   2
  -2  -9   6 20.0823 3.49588   1
   1   9  -6 24.6070 2.49918   5
   1   9  -6 28.8970 3.40526   1
  -1  -9   6 28.0702 4.07557   1
  -1  -9   6 24.0463 3.65467   2
   0   9  -6 13.7523 2.36523   1
   0   9  -6 17.2576 1.90536   5
   0  -9   6 16.5541 3.02452   1
   0  -9   6 17.6355 3.06822   2
  -1   9  -6 2.85265 1.31754   2
  -1   9  -6 2.71619 1.31606   1
   1  -9   6 2.77978 1.62090   2
   1  -9   6 3.82440 1.70334   1
  -2   9  -6 3.06706 1.26135   2
  -2   9  -6 3.48647 1.34936   1
   2  -9   6 3.35821 1.60845   1
   2  -9   6 4.94942 1.97477   2
  -3   9  -6 17.2700 2.53388   2
  -3   9  -6 14.4001 2.43601   1
   3  -9   6 14.8673 2.71732   2
   3  -9   6 14.8380 2.78607   1
  -4   9  -6 43.5634 4.02744   2
  -4   9  -6 53.4969 4.70867   1
   4  -9   6 38.1888 6.00087   2
   4  -9   6 49.0605 4.85426   1
  -5   9  -6 23.9711 2.93464   2
  -5   9  -6 24.3962 3.08431   1
   5  -9   6 25.3374 2.77784   4
   5  -9   6 23.0778 3.31356   1
  -6   9  -6 61.3141 4.13001   1
  -6   9  -6 59.2881 3.98814   2
   6  -9   6 47.2491 4.57752   1
   6  -9   6 54.1992 3.47603   4
  -7   9  -6 0.14467 0.89372   1
  -7   9  -6 -0.7286 0.78136   2
   7  -9   6 0.79974 0.77752   4
  -8   9  -6 3.92130 1.49578   1
  -8   9  -6 4.42849 1.38109   2
   8  -9   6 6.26616 1.59434   4
  -9   9  -6 6.03994 1.66174   2
  -9   9  -6 6.33448 1.77531   1
   9  -9   6 4.87564 1.46911   4
 -10   9  -6 0.02172 0.81354   2
 -10   9  -6 1.20518 1.01507   1
  10  -9   6 0.77590 0.90926   4
   6   8  -6 10.1626 2.10070   5
  -6  -8   6 3.05454 1.85745   1
  -6  -8   6 6.01925 2.26474   2
   5   8  -6 0.37639 0.76357   5
  -5  -8   6 -1.1564 1.36330   1
  -5  -8   6 -1.8122 0.90418   2
   4   8  -6 5.89143 1.48885   5
  -4  -8   6 4.93750 1.93904   2
  -4  -8   6 2.40402 1.50384   1
   3   8  -6 8.88101 1.65433   5
  -3  -8   6 8.98665 2.35938   2
  -3  -8   6 8.13456 2.28410   1
   2   8  -6 -0.6852 0.70082   1
   2   8  -6 0.15226 0.58243   5
  -2  -8   6 2.93048 1.53013   2
  -2  -8   6 -0.1869 1.06783   1
   1   8  -6 7.61329 1.29960   5
   1   8  -6 8.00037 1.76761   1
  -1  -8   6 6.34850 2.11691   1
  -1  -8   6 6.34072 1.96242   2
   0   8  -6 5.79992 1.49394   2
   0   8  -6 6.10497 1.07910   5
   0   8  -6 5.07820 1.55734   1
   0  -8   6 6.52077 1.95298   1
   0  -8   6 6.23931 1.85566   2
  -1   8  -6 36.3066 3.64202   2
  -1   8  -6 29.3161 3.14687   1
   1  -8   6 37.9417 4.32355   2
   1  -8   6 30.3980 3.70914   1
  -2   8  -6 79.5502 4.58060   1
  -2   8  -6 77.0864 4.44504   2
   2  -8   6 81.8777 5.24322   2
   2  -8   6 77.0110 5.09053   1
  -3   8  -6 43.6620 3.82724   2
  -3   8  -6 41.1343 3.82314   1
   3  -8   6 33.5961 3.89920   1
   3  -8   6 41.9038 4.21925   2
  -4   8  -6 -0.6703 0.61637   2
  -4   8  -6 0.58469 0.76227   1
   4  -8   6 0.75214 1.54687   4
   4  -8   6 -0.3495 0.81050   2
   4  -8   6 -0.3462 0.79724   1
  -5   8  -6 48.8196 3.50808   1
  -5   8  -6 47.1745 4.00429   2
   5  -8   6 53.5787 4.71583   1
   5  -8   6 42.0193 2.85930   4
  -6   8  -6 26.5084 2.99322   1
  -6   8  -6 25.9828 2.85414   2
   6  -8   6 28.1669 2.79630   4
   6  -8   6 24.1983 3.19757   1
  -7   8  -6 19.6874 2.60886   1
  -7   8  -6 21.0214 2.58415   2
   7  -8   6 20.2458 2.48214   4
  -8   8  -6 5.02321 1.39010   2
  -8   8  -6 9.39732 1.93793   1
   8  -8   6 9.06911 1.84743   4
  -9   8  -6 2.47338 1.13933   1
  -9   8  -6 2.64066 1.08385   2
   9  -8   6 0.36118 0.79930   4
 -10   8  -6 0.11700 0.82428   2
 -10   8  -6 -0.0278 0.83164   1
 -11   8  -6 0.65174 0.97058   1
 -11   8  -6 -0.2172 0.84313   2
   7   7  -6 0.39327 1.11588   5
  -7  -7   6 -1.6534 1.14508   1
  -7  -7   6 -1.0692 1.00784   2
   6   7  -6 1.31381 0.93389   5
  -6  -7   6 2.05567 1.54192   2
  -6  -7   6 1.31070 1.55377   1
   5   7  -6 0.84764 0.92538   5
  -5  -7   6 1.70986 1.40687   2
  -5  -7   6 -0.9414 1.10433   1
   4   7  -6 15.5309 2.06785   5
  -4  -7   6 22.8756 3.51825   1
  -4  -7   6 9.86954 2.47484   2
   3   7  -6 20.1633 2.61201   1
   3   7  -6 18.4515 2.13574   5
  -3  -7   6 15.8793 2.94274   2
  -3  -7   6 23.4295 3.41816   1
   2   7  -6 66.7055 3.34657   5
   2   7  -6 71.0520 4.19553   1
  -2  -7   6 68.6029 4.84966   1
  -2  -7   6 69.5340 5.82448   2
   1   7  -6 5.66554 1.53235   1
   1   7  -6 2.97359 0.77263   5
   1   7  -6 4.07377 1.27488   2
  -1  -7   6 3.83812 1.51653   1
  -1  -7   6 4.71343 1.67473   2
   0   7  -6 10.2602 1.85289   1
   0   7  -6 8.48428 1.16014   5
   0   7  -6 7.38823 1.63167   2
   0  -7   6 5.08686 1.70353   1
   0  -7   6 11.7330 2.33536   2
  -1   7  -6 99.4390 4.92655   2
  -1   7  -6 101.150 5.01976   1
   1  -7   6 92.8373 5.54175   1
   1  -7   6 95.9285 5.53897   2
  -2   7  -6 0.06879 0.63649   2
  -2   7  -6 -0.3558 0.56921   1
   2  -7   6 -0.4887 0.73743   1
   2  -7   6 0.70507 0.99341   2
  -3   7  -6 27.1917 2.82532   2
  -3   7  -6 30.8487 3.08579   1
   3  -7   6 35.2425 3.75989   2
   3  -7   6 33.0779 3.66785   1
  -4   7  -6 110.592 5.31789   1
  -4   7  -6 107.865 5.17168   2
   4  -7   6 116.583 4.98865   4
   4  -7   6 121.636 6.04971   1
   4  -7   6 110.495 5.63916   2
  -5   7  -6 11.5168 2.02203   1
  -5   7  -6 11.2737 1.83268   2
   5  -7   6 11.7832 2.18896   1
   5  -7   6 13.1667 2.38384   2
   5  -7   6 12.1524 1.69308   4
  -6   7  -6 -0.3726 0.62175   2
  -6   7  -6 -0.9309 0.45085   1
   6  -7   6 0.20530 0.90860   1
   6  -7   6 0.77931 0.71756   4
  -7   7  -6 14.3814 2.06128   2
  -7   7  -6 15.8622 2.23786   1
   7  -7   6 15.5639 2.14054   4
  -8   7  -6 7.45859 1.64283   1
  -8   7  -6 7.81547 1.62238   2
   8  -7   6 11.0111 1.90181   4
  -9   7  -6 2.24416 1.07628   1
  -9   7  -6 2.50035 1.06231   2
   9  -7   6 2.88965 1.18132   4
 -10   7  -6 10.4358 1.90288   2
 -11   7  -6 1.38804 1.02936   2
 -11   7  -6 -0.7363 0.73912   1
   7   6  -6 1.53860 1.13155   5
  -7  -6   6 1.45521 1.31859   2
  -7  -6   6 0.81207 1.02651   3
  -7  -6   6 -0.0499 1.13845   1
   6   6  -6 1.85108 1.09142   5
  -6  -6   6 3.43084 1.28688   3
  -6  -6   6 -0.2054 1.06798   1
  -6  -6   6 3.80525 1.66776   2
   5   6  -6 0.31947 0.68260   5
  -5  -6   6 -0.6533 0.70628   3
  -5  -6   6 -2.5835 0.63314   1
  -5  -6   6 0.70340 1.16249   2
   4   6  -6 -0.2404 0.67252   1
   4   6  -6 2.03633 0.90490   5
  -4  -6   6 0.36075 1.10737   1
  -4  -6   6 1.27435 1.12499   2
   3   6  -6 51.7717 3.40080   1
   3   6  -6 52.4359 2.84220   5
  -3  -6   6 49.7863 4.71418   1
  -3  -6   6 34.9502 3.96241   2
   2   6  -6 4.72887 0.94357   5
   2   6  -6 4.36241 1.22527   2
   2   6  -6 3.20613 1.15111   1
  -2  -6   6 3.18389 1.53683   1
  -2  -6   6 2.36211 1.28135   2
   1   6  -6 0.77842 0.76302   1
   1   6  -6 -0.4447 0.34356   5
   1   6  -6 -0.1568 0.57238   2
  -1  -6   6 -0.3713 0.68833   1
  -1  -6   6 -0.2488 0.89502   2
   0   6  -6 22.8569 2.57350   1
   0   6  -6 22.9881 2.48644   2
   0   6  -6 24.4023 1.50232   5
   0  -6   6 23.0607 3.01118   2
   0  -6   6 25.1013 3.11927   1
  -1   6  -6 5.32498 1.37657   1
  -1   6  -6 2.29817 0.89556   2
   1  -6   6 2.37360 1.18039   2
   1  -6   6 3.40060 1.34391   1
  -2   6  -6 34.2105 3.10493   1
  -2   6  -6 31.5360 2.94859   2
   2  -6   6 34.0965 3.59210   1
   2  -6   6 37.0613 3.61136   2
  -3   6  -6 2.75728 0.98458   2
  -3   6  -6 4.25471 1.26683   1
   3  -6   6 3.67410 1.40435   1
   3  -6   6 6.50518 1.57216   2
   3  -6   6 1.27265 1.11340   4
  -4   6  -6 27.2175 3.34412   2
  -4   6  -6 31.7739 2.94564   2
  -4   6  -6 30.1418 2.91494   1
   4  -6   6 32.4014 3.38330   1
   4  -6   6 32.1301 3.19784   2
   4  -6   6 29.1698 2.12417   4
  -5   6  -6 29.8048 3.26191   1
  -5   6  -6 33.7573 3.02575   1
  -5   6  -6 34.0719 2.99532   2
  -5   6  -6 32.3312 3.41698   2
   5  -6   6 26.4151 2.69990   2
   5  -6   6 33.4263 2.33978   4
   5  -6   6 30.4869 3.09787   1
  -6   6  -6 0.48616 0.62348   2
  -6   6  -6 0.83210 0.81701   1
  -6   6  -6 0.99814 0.89840   1
   6  -6   6 1.76038 0.81661   4
   6  -6   6 0.60896 0.77809   1
  -7   6  -6 3.15459 1.02455   2
  -7   6  -6 3.56998 1.22454   1
   7  -6   6 5.38030 1.30830   4
  -8   6  -6 13.1094 1.94092   2
  -8   6  -6 10.8021 1.80506   1
   8  -6   6 11.4754 1.94667   4
  -9   6  -6 0.37962 0.79448   1
  -9   6  -6 -0.1426 0.58737   2
 -10   6  -6 -0.7759 0.60353   2
 -10   6  -6 -0.3856 0.64962   1
 -11   6  -6 16.3388 2.25148   1
 -11   6  -6 12.2410 2.00737   2
   8   5  -6 0.06680 0.71535   5
  -8  -5   6 0.01216 0.76861   3
  -8  -5   6 -0.9522 0.87538   2
  -8  -5   6 0.47722 1.16583   1
   7   5  -6 14.9926 2.28612   5
  -7  -5   6 12.2542 2.53681   2
  -7  -5   6 17.7262 2.84418   1
  -7  -5   6 16.1807 2.16421   3
   6   5  -6 4.52222 1.31966   5
  -6  -5   6 2.84166 0.98883   3
  -6  -5   6 1.54332 1.30845   1
  -6  -5   6 3.23000 1.55151   2
   5   5  -6 37.6752 3.10171   5
  -5  -5   6 28.3716 2.59051   3
  -5  -5   6 32.2017 3.70520   1
  -5  -5   6 36.8847 3.95638   2
   4   5  -6 15.2997 2.04744   1
   4   5  -6 15.2623 1.82403   5
  -4  -5   6 15.0989 2.53316   2
  -4  -5   6 13.2550 1.63815   3
  -4  -5   6 13.2881 2.39760   1
   3   5  -6 117.336 5.22015   1
   3   5  -6 116.470 4.46859   5
  -3  -5   6 119.142 6.00379   2
  -3  -5   6 104.202 5.03792   2
  -3  -5   6 113.842 4.40891   3
  -3  -5   6 124.551 6.12392   1
   2   5  -6 25.8424 2.62339   2
   2   5  -6 27.0503 1.69489   5
   2   5  -6 32.7757 2.94352   1
  -2  -5   6 26.7098 3.30446   1
  -2  -5   6 22.6894 2.91076   2
  -2  -5   6 23.5436 2.54343   2
   1   5  -6 20.2468 1.30670   5
   1   5  -6 15.8735 2.02128   1
   1   5  -6 20.7799 2.34150   2
  -1  -5   6 18.8358 2.64917   2
  -1  -5   6 18.6191 2.65675   1
   0   5  -6 213.653 7.93734   1
   0   5  -6 224.011 7.95884   2
   0   5  -6 230.505 6.45253   5
   0  -5   6 218.061 8.58935   2
   0  -5   6 226.637 8.69132   1
  -1   5  -6 7.74990 1.43853   1
  -1   5  -6 6.56732 1.30627   2
   1  -5   6 6.38823 1.52627   2
   1  -5   6 8.54553 1.78743   1
  -2   5  -6 0.67468 0.65966   1
  -2   5  -6 1.67270 0.82858   2
   2  -5   6 0.48376 0.73963   2
   2  -5   6 1.10235 0.83961   1
  -3   5  -6 0.09049 0.47983   1
  -3   5  -6 -0.5015 0.36927   2
  -3   5  -6 0.30160 0.69872   2
   3  -5   6 0.36416 0.60899   2
   3  -5   6 0.46782 0.81663   1
   3  -5   6 -0.3280 0.69497   4
  -4   5  -6 15.5821 2.28473   2
  -4   5  -6 26.8268 2.95081   1
  -4   5  -6 17.1271 1.99789   2
  -4   5  -6 17.8960 2.05794   1
   4  -5   6 21.3016 2.32257   2
   4  -5   6 25.5459 2.21133   4
   4  -5   6 25.6607 2.77911   1
  -5   5  -6 2.46150 0.87615   2
  -5   5  -6 4.14909 1.10812   1
  -5   5  -6 2.52878 1.06189   2
  -5   5  -6 1.97943 1.04229   1
   5  -5   6 3.31177 0.91361   4
   5  -5   6 2.08213 0.96226   1
   5  -5   6 2.99085 1.00433   2
  -6   5  -6 6.28310 1.28294   2
  -6   5  -6 6.24716 1.29549   1
  -6   5  -6 4.51387 1.33698   2
  -6   5  -6 7.98355 1.68752   1
   6  -5   6 8.05139 1.44440   1
   6  -5   6 4.32339 1.07763   4
  -7   5  -6 14.1723 2.05331   1
  -7   5  -6 21.5441 2.31930   2
   7  -5   6 19.4676 2.26779   4
  -8   5  -6 31.5181 2.80815   2
  -8   5  -6 35.5275 2.58610   1
  -9   5  -6 2.55275 1.04948   1
  -9   5  -6 4.32530 1.15542   2
 -10   5  -6 -0.8897 0.57564   1
 -10   5  -6 -0.0100 0.72101   2
 -11   5  -6 -0.0471 0.80702   2
 -11   5  -6 -1.9385 0.58222   1
   9   4  -6 37.2993 3.80205   5
  -9  -4   6 34.2607 4.01015   1
  -9  -4   6 28.9594 3.83961   2
  -9  -4   6 28.0763 3.12811   3
   8   4  -6 9.01926 1.86751   5
  -8  -4   6 7.08126 2.04796   1
  -8  -4   6 4.54454 1.81316   2
  -8  -4   6 8.32973 1.65833   3
   7   4  -6 6.46118 1.42708   5
  -7  -4   6 5.93798 1.74958   2
  -7  -4   6 10.9288 1.81739   3
  -7  -4   6 7.64289 2.03573   1
   6   4  -6 14.7706 1.97608   5
  -6  -4   6 12.2598 2.26816   2
  -6  -4   6 14.7521 1.90712   3
  -6  -4   6 15.9392 2.59301   1
   5   4  -6 57.8674 3.24904   1
   5   4  -6 47.5071 2.87231   5
  -5  -4   6 58.3582 3.04706   3
  -5  -4   6 59.0585 4.04732   2
  -5  -4   6 55.2130 3.96967   1
   4   4  -6 93.7896 4.41860   1
   4   4  -6 88.3727 4.18345   2
   4   4  -6 97.2127 3.99330   5
  -4  -4   6 93.0369 4.58920   1
  -4  -4   6 97.9081 3.96802   3
  -4  -4   6 98.2564 5.24486   1
  -4  -4   6 95.2958 4.52984   2
  -4  -4   6 98.0589 5.23373   2
   3   4  -6 3.34310 1.11049   1
   3   4  -6 1.53915 0.59516   5
   3   4  -6 0.06841 0.30275   2
  -3  -4   6 0.86545 0.88104   2
  -3  -4   6 1.13316 0.77959   1
  -3  -4   6 0.80210 0.91556   1
  -3  -4   6 0.53432 0.50552   3
  -3  -4   6 1.15821 0.78249   2
   2   4  -6 3.36465 0.97541   1
   2   4  -6 4.76579 1.12399   2
   2   4  -6 3.10719 0.66599   5
  -2  -4   6 3.82843 1.26034   2
  -2  -4   6 4.47116 1.42546   1
  -2  -4   6 3.11444 0.71761   3
  -2  -4   6 2.89599 0.97303   2
   1   4  -6 18.5952 2.14559   1
   1   4  -6 15.1746 1.01929   5
   1   4  -6 16.8924 2.03326   2
  -1  -4   6 14.9767 2.23306   1
  -1  -4   6 15.4421 2.18363   2
   0   4  -6 31.5271 1.36221   5
   0   4  -6 33.9233 2.83672   2
   0   4  -6 33.5844 2.89985   1
   0  -4   6 28.9702 3.03086   2
   0  -4   6 32.8308 3.23062   1
  -1   4  -6 320.167 10.2154   2
  -1   4  -6 332.729 10.3091   1
  -1   4  -6 326.463 8.76373   3
   1  -4   6 322.603 10.7598   2
   1  -4   6 311.320 10.8614   1
  -2   4  -6 5.38456 1.09930   2
  -2   4  -6 2.50874 1.08017   2
  -2   4  -6 4.73174 0.63457   3
  -2   4  -6 6.44967 1.58719   1
  -2   4  -6 3.92180 1.02520   1
   2  -4   6 3.80804 1.20624   4
   2  -4   6 4.18736 1.19660   2
   2  -4   6 5.46246 1.35595   1
  -3   4  -6 12.3029 1.87473   2
  -3   4  -6 10.4873 1.51111   2
  -3   4  -6 16.1798 1.95728   1
  -3   4  -6 12.7795 1.99163   1
  -3   4  -6 13.9465 1.10610   5
   3  -4   6 12.8934 1.48471   4
   3  -4   6 13.4307 1.99994   1
   3  -4   6 12.1860 1.79676   2
  -4   4  -6 5.08600 1.14754   2
  -4   4  -6 6.82668 1.33629   1
  -4   4  -6 7.56136 1.54071   2
  -4   4  -6 5.20858 1.35291   1
   4  -4   6 7.48959 1.51321   1
   4  -4   6 4.78201 0.96858   4
   4  -4   6 7.67437 1.35611   2
  -5   4  -6 5.54613 1.35960   1
  -5   4  -6 7.82575 1.60312   2
  -5   4  -6 7.81494 1.35082   1
  -5   4  -6 6.12925 1.19173   2
   5  -4   6 6.00297 1.06554   2
   5  -4   6 7.61417 1.27187   4
   5  -4   6 9.10409 1.57041   1
  -6   4  -6 0.03483 0.53224   1
  -6   4  -6 -0.1996 0.65604   2
  -6   4  -6 0.42708 0.54570   2
  -6   4  -6 -0.0442 0.64603   1
   6  -4   6 0.02726 0.49069   1
   6  -4   6 0.81997 0.62497   4
  -7   4  -6 33.3876 3.13032   2
  -7   4  -6 30.5627 2.60547   2
  -7   4  -6 27.8928 2.55145   1
  -8   4  -6 11.1572 1.61292   2
  -8   4  -6 13.6724 1.85611   1
  -9   4  -6 15.7511 1.98366   1
  -9   4  -6 18.7621 2.08166   2
 -10   4  -6 0.93599 0.83643   2
 -10   4  -6 1.07696 0.77450   1
 -11   4  -6 1.87747 0.99983   2
 -11   4  -6 1.78932 0.86235   1
   9   3  -6 1.31270 0.96500   5
  -9  -3   6 -0.5394 1.00432   1
  -9  -3   6 1.01530 1.10300   2
  -9  -3   6 1.47878 1.03930   3
   8   3  -6 13.5975 2.20930   5
  -8  -3   6 14.4120 2.51146   2
  -8  -3   6 11.6332 1.86301   3
  -8  -3   6 9.93373 2.09765   1
   7   3  -6 20.7495 2.46475   5
  -7  -3   6 15.1064 1.98725   3
  -7  -3   6 17.7570 2.61987   2
  -7  -3   6 18.8208 2.72534   1
  -6  -3   6 5.47788 1.46110   2
  -6  -3   6 4.79582 1.06762   3
  -6  -3   6 4.61253 1.45191   1
   5   3  -6 16.7990 1.77777   2
   5   3  -6 16.1186 1.76655   5
   5   3  -6 13.8251 1.75267   1
  -5  -3   6 14.2575 2.21978   2
  -5  -3   6 13.7452 1.63900   3
  -5  -3   6 15.8020 1.98389   2
  -5  -3   6 17.8225 2.29219   1
  -5  -3   6 17.2976 2.43178   1
   4   3  -6 10.5652 1.51715   2
   4   3  -6 9.59622 1.26418   5
   4   3  -6 9.34808 1.49088   1
  -4  -3   6 8.18361 1.19081   3
  -4  -3   6 7.42016 1.35920   2
  -4  -3   6 7.53690 1.44176   1
  -4  -3   6 10.6038 1.87949   2
  -4  -3   6 7.58271 1.63354   1
   3   3  -6 109.265 4.72116   2
   3   3  -6 116.917 4.92557   1
   3   3  -6 121.832 4.17259   5
  -3  -3   6 122.414 4.26214   3
  -3  -3   6 131.128 5.78908   1
  -3  -3   6 116.618 5.49662   2
  -3  -3   6 110.888 4.82833   2
  -3  -3   6 120.413 5.02441   1
   2   3  -6 36.9656 2.49356   1
   2   3  -6 39.1464 2.50731   2
   2   3  -6 39.1051 1.76254   5
  -2  -3   6 35.2816 2.42061   2
  -2  -3   6 43.7902 3.04475   2
  -2  -3   6 35.5488 2.47422   1
  -2  -3   6 41.0373 2.97747   1
  -2  -3   6 37.5059 1.87355   3
   1   3  -6 -0.1950 0.44441   1
   1   3  -6 0.03798 0.19443   5
   1   3  -6 0.31513 0.48874   2
  -1  -3   6 -0.2879 0.52168   2
  -1  -3   6 0.47932 0.58653   2
  -1  -3   6 0.49319 0.68180   1
  -1  -3   6 -0.3548 0.24771   3
   0   3  -6 35.7001 1.26416   5
   0   3  -6 34.1811 1.55609   3
   0   3  -6 36.1564 2.42370   1
   0   3  -6 37.7261 2.40998   2
   0  -3   6 38.8070 2.79886   1
   0  -3   6 38.8080 3.25205   2
  -1   3  -6 0.16943 0.60994   1
  -1   3  -6 -0.5577 0.44683   1
  -1   3  -6 0.82924 0.55430   2
  -1   3  -6 1.50113 0.78058   2
  -1   3  -6 0.28344 0.23023   3
   1  -3   6 0.37662 0.69717   1
   1  -3   6 -0.1899 0.49413   2
  -2   3  -6 177.485 4.78938   3
  -2   3  -6 169.374 4.79237   5
  -2   3  -6 170.443 6.75573   2
  -2   3  -6 188.758 6.44918   1
  -2   3  -6 181.564 6.38725   2
   2  -3   6 181.538 6.82667   1
   2  -3   6 176.555 5.72313   4
   2  -3   6 171.061 6.49814   2
  -3   3  -6 352.277 9.46377   5
  -3   3  -6 364.907 10.9109   1
  -3   3  -6 343.863 11.3330   2
  -3   3  -6 354.130 11.4114   1
  -3   3  -6 366.492 10.9063   2
   3  -3   6 366.817 10.3951   4
   3  -3   6 368.806 11.3684   1
   3  -3   6 334.146 10.7418   2
  -4   3  -6 12.2928 1.25281   5
  -4   3  -6 10.7835 1.77766   1
  -4   3  -6 14.4182 1.76214   1
  -4   3  -6 12.6219 1.58916   2
  -4   3  -6 11.7591 1.77208   2
   4  -3   6 11.3781 1.67569   1
   4  -3   6 13.0697 1.51822   2
   4  -3   6 13.8160 1.61563   4
  -5   3  -6 3.50667 0.93314   2
  -5   3  -6 3.47972 1.12465   2
  -5   3  -6 2.82580 0.97778   1
  -5   3  -6 3.76341 0.96513   1
   5  -3   6 3.48062 0.96809   1
   5  -3   6 3.13849 0.86883   4
  -6   3  -6 20.7407 2.15917   1
  -6   3  -6 20.5735 2.07487   2
  -6   3  -6 20.4707 2.35852   2
  -6   3  -6 21.5464 2.41446   1
   6  -3   6 19.7641 1.72892   1
  -7   3  -6 27.8269 2.80276   2
  -7   3  -6 27.9718 2.46419   2
  -7   3  -6 26.1369 2.47229   1
  -8   3  -6 7.32561 1.31365   2
  -8   3  -6 7.81827 1.39303   1
  -9   3  -6 2.31132 0.88006   2
  -9   3  -6 2.85952 0.79798   3
  -9   3  -6 2.47229 0.92457   1
 -10   3  -6 22.7838 2.24053   1
 -10   3  -6 19.8148 2.23545   2
  10   2  -6 2.46970 1.24657   5
 -10  -2   6 1.89341 1.28860   2
 -10  -2   6 1.77271 1.05130   3
 -10  -2   6 2.34086 1.34074   1
   9   2  -6 8.71741 1.86579   5
  -9  -2   6 12.3187 2.32485   1
  -9  -2   6 8.95644 1.75475   3
  -9  -2   6 7.65020 1.83999   2
   8   2  -6 3.61856 1.24527   5
  -8  -2   6 6.47279 1.44474   3
  -8  -2   6 6.09015 1.69353   2
  -8  -2   6 3.67477 1.36725   1
   7   2  -6 90.0023 4.34148   5
  -7  -2   6 93.1377 5.04144   2
  -7  -2   6 91.9016 4.30635   3
  -7  -2   6 97.7717 5.16808   1
   6   2  -6 69.3058 3.42046   5
  -6  -2   6 76.2241 4.32084   1
  -6  -2   6 66.8495 3.36575   3
  -6  -2   6 60.9215 3.51380   2
  -6  -2   6 68.6580 3.67376   1
  -6  -2   6 67.7757 4.10551   2
   5   2  -6 78.6868 3.50834   2
   5   2  -6 82.2790 3.73474   1
   5   2  -6 81.7824 3.53333   5
  -5  -2   6 80.0283 3.52879   3
  -5  -2   6 83.8326 4.51054   1
  -5  -2   6 82.9878 4.00686   1
  -5  -2   6 79.8744 4.36851   2
  -5  -2   6 72.0697 3.75663   2
   4   2  -6 1.06457 0.47674   5
   4   2  -6 1.37518 0.77484   1
   4   2  -6 1.41668 0.60682   2
  -4  -2   6 0.66177 0.49203   3
  -4  -2   6 0.87941 0.66067   1
  -4  -2   6 0.12085 0.66781   1
  -4  -2   6 1.75572 0.76514   2
  -4  -2   6 1.25232 0.80403   2
   3   2  -6 15.1966 1.82602   1
   3   2  -6 13.3380 1.21102   5
   3   2  -6 12.3882 1.62187   2
  -3  -2   6 13.4914 1.67365   2
  -3  -2   6 11.8579 1.69425   1
  -3  -2   6 12.6085 1.87704   1
  -3  -2   6 11.4499 1.82277   2
  -3  -2   6 13.6080 1.29984   3
   2   2  -6 2.30468 0.80034   1
   2   2  -6 2.39300 0.79605   2
   2   2  -6 3.15293 0.50984   5
  -2  -2   6 2.56380 0.88672   1
  -2  -2   6 1.64792 0.69115   2
  -2  -2   6 3.02809 1.02734   1
  -2  -2   6 2.29388 0.52600   3
  -2  -2   6 3.57220 1.02164   2
  -2  -2   6 2.50669 0.44365   5
   1   2  -6 278.923 8.64864   1
   1   2  -6 264.725 6.90721   5
   1   2  -6 271.855 8.62378   2
  -1  -2   6 263.423 8.53791   1
  -1  -2   6 252.614 8.91647   2
  -1  -2   6 268.911 7.27609   3
  -1  -2   6 257.217 9.07015   1
  -1  -2   6 262.851 8.50625   2
   0   2  -6 9.37470 1.66094   1
   0   2  -6 9.07232 1.41751   1
   0   2  -6 6.74873 1.22329   2
   0  -2   6 10.6843 1.70503   2
   0  -2   6 9.46396 1.70650   1
  -1   2  -6 277.597 8.84822   2
  -1   2  -6 272.107 9.23768   2
  -1   2  -6 276.166 9.36558   1
  -1   2  -6 279.053 8.85454   1
   1  -2   6 279.427 9.33954   1
   1  -2   6 269.937 8.98567   2
   1  -2   6 287.136 8.09835   4
  -2   2  -6 29.2986 1.13400   5
  -2   2  -6 28.3407 2.03214   2
  -2   2  -6 34.8183 2.51085   1
  -2   2  -6 30.1529 0.94224   3
  -2   2  -6 29.5897 2.75938   2
  -2   2  -6 32.8454 2.19023   1
   2  -2   6 29.7167 1.72962   4
   2  -2   6 33.8010 2.45089   1
   2  -2   6 30.1607 2.12885   2
  -3   2  -6 299.056 9.85590   1
  -3   2  -6 283.704 8.00471   5
  -3   2  -6 299.653 9.31304   1
  -3   2  -6 317.858 9.37806   2
  -3   2  -6 296.550 9.70704   2
   3  -2   6 304.945 9.58839   1
   3  -2   6 296.296 8.82345   4
   3  -2   6 282.376 8.99053   2
  -4   2  -6 12.5642 1.83543   1
  -4   2  -6 12.7325 1.53952   2
  -4   2  -6 8.92994 1.52614   2
  -4   2  -6 12.5576 1.57515   1
   4  -2   6 15.9240 1.81708   1
   4  -2   6 10.1579 1.34184   4
   4  -2   6 12.2445 1.31387   2
  -5   2  -6 92.5809 4.01692   2
  -5   2  -6 90.0734 4.25269   2
  -5   2  -6 88.3748 4.35331   1
  -5   2  -6 91.4644 4.03824   1
   5  -2   6 94.3427 3.75336   1
  -6   2  -6 -0.2118 0.46227   2
  -6   2  -6 0.09074 0.53917   1
  -6   2  -6 -0.1230 0.61236   2
  -6   2  -6 -0.3548 0.59994   1
   6  -2   6 -0.1569 0.32770   1
  -7   2  -6 2.90069 0.90306   1
  -7   2  -6 3.54286 0.91732   2
  -7   2  -6 2.55163 0.65980   3
  -7   2  -6 2.09068 0.92629   2
  -8   2  -6 7.27561 1.36444   2
  -8   2  -6 9.63813 1.24637   3
  -8   2  -6 4.83380 1.14802   1
  -9   2  -6 1.93298 0.74737   3
  -9   2  -6 1.58614 0.86426   2
 -10   2  -6 0.45421 0.79444   2
  10   1  -6 1.14226 0.88266   5
 -10  -1   6 0.63387 0.96180   2
 -10  -1   6 1.01940 0.97904   3
 -10  -1   6 1.81085 1.22263   1
   9   1  -6 7.96943 1.73322   5
  -9  -1   6 4.45285 1.47362   2
  -9  -1   6 7.04594 1.52648   3
  -9  -1   6 8.98150 1.87967   1
   8   1  -6 -0.1557 0.64994   5
  -8  -1   6 0.03169 0.67118   3
  -8  -1   6 -0.9250 0.73825   1
  -8  -1   6 -0.0983 0.72492   2
   7   1  -6 54.4652 3.09887   5
  -7  -1   6 53.9683 3.06998   3
  -7  -1   6 57.6736 3.66961   2
  -7  -1   6 57.1286 3.72685   1
  -7  -1   6 49.0675 3.46713   2
   6   1  -6 3.61843 0.96747   5
  -6  -1   6 3.18766 0.97009   1
  -6  -1   6 5.54128 1.41848   1
  -6  -1   6 5.34852 1.16331   2
  -6  -1   6 4.38700 0.99899   3
  -6  -1   6 2.78961 1.06181   2
   5   1  -6 55.1060 2.68446   5
   5   1  -6 55.7042 2.81538   2
  -5  -1   6 63.1071 3.71580   1
  -5  -1   6 52.2847 3.02136   1
  -5  -1   6 52.2270 3.33311   2
  -5  -1   6 64.5400 2.89394   3
  -5  -1   6 52.8934 3.03733   2
   4   1  -6 21.1123 2.02459   1
   4   1  -6 19.6285 1.61389   5
   4   1  -6 21.5081 2.03512   2
  -4  -1   6 15.9291 1.84474   1
  -4  -1   6 19.3842 2.03897   2
  -4  -1   6 17.7337 1.61960   3
  -4  -1   6 24.0061 2.61712   1
  -4  -1   6 20.0758 2.26786   2
   3   1  -6 81.1804 3.59320   2
   3   1  -6 75.3243 2.72640   5
   3   1  -6 79.8159 3.64211   1
  -3  -1   6 71.5412 2.68419   5
  -3  -1   6 76.5668 2.92090   3
  -3  -1   6 73.3429 3.56426   2
  -3  -1   6 78.8678 4.04942   1
  -3  -1   6 76.8379 3.60312   1
   2   1  -6 147.403 5.47502   2
   2   1  -6 155.751 5.59204   1
  -2  -1   6 146.692 4.49415   3
  -2  -1   6 134.817 5.35148   1
  -2  -1   6 144.941 4.18500   5
  -2  -1   6 152.597 6.02663   1
  -2  -1   6 146.458 5.80138   2
  -2  -1   6 155.993 5.57554   2
   1   1  -6 0.04470 0.50418   1
   1   1  -6 0.91250 0.61923   2
  -1  -1   6 -0.0745 0.54564   2
  -1  -1   6 -0.5920 0.37343   1
  -1  -1   6 0.02323 0.64808   1
  -1  -1   6 -0.0080 0.20575   3
  -1  -1   6 0.05469 0.11010   5
  -1  -1   6 0.05263 0.44008   2
   0   1  -6 130.724 5.46297   1
   0   1  -6 135.393 5.45578   2
   0   1  -6 141.279 5.16241   2
   0   1  -6 138.301 5.14738   1
   0  -1   6 133.731 5.47984   1
   0  -1   6 130.886 3.61195   3
   0  -1   6 125.379 5.16234   2
  -1   1  -6 21.9831 2.08158   2
  -1   1  -6 21.1725 2.30027   1
  -1   1  -6 20.3035 2.04862   1
  -1   1  -6 24.9810 2.39534   2
   1  -1   6 24.3774 2.23971   2
   1  -1   6 29.9455 2.74162   1
   1  -1   6 23.9118 1.35579   4
  -2   1  -6 14.3567 1.67786   2
  -2   1  -6 8.25580 1.48538   1
  -2   1  -6 10.8585 0.66481   5
  -2   1  -6 12.2357 1.55787   1
  -2   1  -6 13.4483 1.82028   2
   2  -1   6 14.5704 1.86947   1
   2  -1   6 13.5618 1.27864   4
   2  -1   6 11.5733 0.71843   5
  -3   1  -6 0.41037 0.55143   1
  -3   1  -6 0.26666 0.43056   1
  -3   1  -6 0.19275 0.28164   5
  -3   1  -6 1.20007 0.67731   2
  -3   1  -6 0.17723 0.46909   2
   3  -1   6 0.51494 0.46133   2
   3  -1   6 0.30051 0.32484   5
   3  -1   6 -0.5246 0.30408   4
   3  -1   6 0.73723 0.63899   1
  -4   1  -6 38.8724 1.36289   3
  -4   1  -6 35.3717 2.45200   2
  -4   1  -6 37.5159 2.38459   1
  -4   1  -6 39.3789 2.41317   2
  -4   1  -6 40.7413 2.72118   1
   4  -1   6 39.3149 2.32071   1
   4  -1   6 40.2625 1.97640   5
   4  -1   6 34.5075 1.76706   2
  -5   1  -6 24.8752 1.23146   3
  -5   1  -6 24.9680 2.26849   1
  -5   1  -6 26.0713 2.47773   2
  -5   1  -6 27.4627 2.69347   1
  -5   1  -6 27.1403 2.35622   2
   5  -1   6 26.9440 2.14724   5
   5  -1   6 25.1724 1.61388   1
  -6   1  -6 105.686 4.44071   1
  -6   1  -6 109.039 4.44897   2
  -6   1  -6 102.198 4.54885   2
  -6   1  -6 100.916 3.45628   3
  -6   1  -6 94.8032 4.63891   1
   6  -1   6 106.262 4.27616   5
  -7   1  -6 13.2193 1.70633   2
  -7   1  -6 16.4029 1.41468   3
  -7   1  -6 11.6684 1.71071   2
  -7   1  -6 14.6817 1.78878   1
   7  -1   6 14.4639 1.85405   5
  -8   1  -6 -0.1446 0.40639   3
  -8   1  -6 -0.6870 0.52581   2
   8  -1   6 0.92374 0.67149   5
  -9   1  -6 6.47754 1.39081   2
   9  -1   6 7.21066 1.58045   5
 -10   1  -6 2.70008 1.02962   2
 -11   0   6 0.48936 0.86073   3
 -11   0   6 0.44759 0.90055   2
 -11   0   6 0.34942 0.98521   1
 -10   0   6 1.06443 0.91227   3
 -10   0   6 0.79835 0.90365   2
 -10   0   6 0.90638 1.05553   1
  -9   0   6 19.2197 2.31523   3
  -9   0   6 18.7546 2.54443   1
  -9   0   6 19.2271 2.46947   2
  -8   0   6 17.0022 2.31666   2
  -8   0   6 16.4601 2.03539   3
  -8   0   6 15.9481 2.33678   1
  -7   0   6 0.41995 0.75556   2
  -7   0   6 -0.2165 0.67425   1
  -7   0   6 0.37607 0.52176   2
  -7   0   6 1.00533 0.68518   1
  -6   0   6 83.0952 3.96777   1
  -6   0   6 93.5926 4.41528   2
  -6   0   6 79.6507 4.34372   1
  -6   0   6 80.5583 3.94145   2
   5   0  -6 13.7720 1.58012   2
  -5   0   6 10.4299 1.64277   2
  -5   0   6 9.91807 1.52303   1
  -5   0   6 11.6332 1.58581   2
  -5   0   6 10.6826 1.78598   1
   4   0  -6 22.6740 2.09340   2
  -4   0   6 21.7077 2.38270   2
  -4   0   6 22.1344 2.15599   2
  -4   0   6 18.0434 2.21734   1
  -4   0   6 21.1747 2.14001   1
   3   0  -6 8.56574 1.27576   2
   3   0  -6 7.84774 1.22988   1
  -3   0   6 8.07798 1.31060   1
  -3   0   6 7.90108 0.83965   5
  -3   0   6 7.14882 1.36267   2
  -3   0   6 7.51133 1.22971   2
  -3   0   6 6.99759 1.41338   1
   2   0  -6 5.59108 1.09294   1
   2   0  -6 5.72820 1.15532   2
  -2   0   6 6.20850 1.38372   1
  -2   0   6 7.10412 1.22166   1
  -2   0   6 8.24196 1.38461   2
  -2   0   6 5.57354 1.19437   2
  -2   0   6 7.74535 0.67896   5
   1   0  -6 254.730 8.36711   2
   1   0  -6 253.626 8.82989   1
   1   0  -6 267.377 8.45268   1
  -1   0   6 266.566 8.55875   2
  -1   0   6 253.678 8.32047   1
  -1   0   6 273.130 6.72859   5
   0   0  -6 214.400 7.28812   1
   0   0  -6 221.490 7.74214   1
   0   0  -6 220.309 7.30434   2
   0   0  -6 216.545 7.56482   2
   0   0   6 227.355 7.73026   1
   0   0   6 211.018 7.31111   2
   0   0   6 215.857 5.58001   3
   0   0   6 217.088 5.55535   5
   0   0   6 220.093 6.12780   4
  -1   0  -6 26.5890 2.60583   1
  -1   0  -6 22.5510 2.12467   1
  -1   0  -6 23.5059 2.29623   2
  -1   0  -6 31.4051 2.50477   2
   1   0   6 25.4857 1.38339   4
   1   0   6 25.1671 1.05208   5
   1   0   6 25.4228 2.18940   2
   1   0   6 29.0626 2.58035   1
  -2   0  -6 113.900 4.65033   1
  -2   0  -6 120.613 3.99374   4
  -2   0  -6 116.363 5.00498   1
  -2   0  -6 123.158 4.69025   2
  -2   0  -6 116.933 4.81412   2
   2   0   6 112.610 3.60948   5
   2   0   6 116.732 4.03930   4
   2   0   6 117.574 4.38212   2
   2   0   6 107.132 4.68465   1
  -3   0  -6 73.0112 3.54866   2
  -3   0  -6 78.7237 3.53120   2
  -3   0  -6 74.0191 3.49417   1
  -3   0  -6 73.1580 3.77729   1
   3   0   6 73.6474 2.79834   5
   3   0   6 68.4828 2.94159   2
   3   0   6 73.8314 3.46071   1
  -4   0  -6 76.3844 3.60569   1
  -4   0  -6 77.1884 3.55429   2
  -4   0  -6 65.7765 3.66214   1
  -4   0  -6 69.7574 3.51654   2
  -4   0  -6 73.0258 2.31002   3
   4   0   6 69.2432 3.14368   1
   4   0   6 77.1659 3.10586   5
  -5   0  -6 91.7599 2.98955   3
  -5   0  -6 86.6143 4.30632   1
  -5   0  -6 86.0113 3.99346   2
  -5   0  -6 90.1397 4.11872   2
   5   0   6 89.1951 3.27471   1
   5   0   6 97.8116 3.90180   5
  -6   0  -6 20.5673 1.28883   3
  -6   0  -6 19.9533 2.10875   2
  -6   0  -6 18.0128 2.08739   2
   6   0   6 24.1286 2.29929   5
  -7   0  -6 25.2749 1.59928   3
  -7   0  -6 28.9062 2.59106   2
   7   0   6 23.8880 2.50008   5
  -8   0  -6 7.91378 1.47008   2
  -8   0  -6 7.01301 1.07099   3
   8   0   6 5.76710 1.45429   5
  -9   0  -6 13.2562 1.87882   2
   9   0   6 12.3502 2.12849   5
 -11   1   6 -0.3367 0.89211   1
 -11   1   6 1.73947 0.97204   2
 -11   1   6 1.70945 0.99762   3
 -10   1   6 5.42450 1.47415   1
 -10   1   6 8.23475 1.74228   2
  -9   1   6 23.0711 2.77034   1
  -9   1   6 25.2610 2.75914   2
  -8   1   6 16.8902 2.25435   2
  -8   1   6 20.2204 2.47233   1
  -7   1   6 4.91243 1.27076   2
  -7   1   6 6.53552 1.30318   2
  -7   1   6 8.16105 1.62054   1
  -7   1   6 7.44233 1.41779   1
   6  -1  -6 131.461 4.84992   2
   6  -1  -6 131.753 4.85366   2
  -6   1   6 142.322 5.96341   1
  -6   1   6 144.095 5.76905   2
  -6   1   6 146.035 5.52225   2
  -6   1   6 134.807 5.42530   1
   5  -1  -6 32.7127 2.17506   2
  -5   1   6 36.9443 2.68928   1
  -5   1   6 37.2965 2.55086   2
  -5   1   6 29.7619 2.58149   2
  -5   1   6 33.7242 2.31851   1
  -4   1   6 15.6427 1.82908   1
  -4   1   6 12.8099 1.66024   2
  -4   1   6 13.3709 1.97314   1
  -4   1   6 16.2741 1.96675   2
   3  -1  -6 86.9475 3.94743   2
  -3   1   6 89.6516 4.12149   2
  -3   1   6 90.2330 4.01446   1
  -3   1   6 88.3780 4.31563   1
  -3   1   6 90.1741 3.06384   5
  -3   1   6 95.3745 4.05344   2
   2  -1  -6 443.324 12.8918   2
  -2   1   6 443.332 12.9718   2
  -2   1   6 422.267 13.1491   1
  -2   1   6 434.715 12.8000   2
  -2   1   6 431.367 12.7389   1
   1  -1  -6 61.9480 3.47409   1
   1  -1  -6 65.5518 3.25239   2
  -1   1   6 66.9067 3.56657   1
  -1   1   6 57.2506 3.14899   2
  -1   1   6 64.7558 3.51711   1
  -1   1   6 65.1878 2.07992   4
   0  -1  -6 876.943 23.2977   2
   0  -1  -6 823.967 23.6779   1
   0  -1  -6 842.414 23.4318   2
   0   1   6 896.007 23.2249   2
   0   1   6 863.691 21.7464   4
   0   1   6 881.628 23.6687   1
  -1  -1  -6 107.765 4.59166   2
  -1  -1  -6 108.760 3.54914   4
  -1  -1  -6 110.650 4.53047   2
  -1  -1  -6 109.124 4.86193   1
   1   1   6 108.562 3.39548   5
   1   1   6 113.184 4.77203   1
   1   1   6 113.680 4.36214   2
   1   1   6 107.028 2.87712   3
  -2  -1  -6 11.2646 1.16195   4
  -2  -1  -6 11.0369 1.56762   2
  -2  -1  -6 10.3152 1.50597   2
  -2  -1  -6 10.4479 1.74152   1
   2   1   6 9.51159 1.44407   1
   2   1   6 9.46603 1.21693   2
   2   1   6 12.3827 1.15256   5
  -3  -1  -6 4.89189 1.18104   1
  -3  -1  -6 5.65767 1.16378   2
  -3  -1  -6 6.22636 1.22674   2
   3   1   6 7.94269 1.04595   2
   3   1   6 6.11793 0.91563   5
   3   1   6 8.01434 1.24107   1
  -4  -1  -6 45.9388 3.02333   1
  -4  -1  -6 46.8276 2.81446   2
  -4  -1  -6 45.6154 2.81742   2
   4   1   6 53.5001 2.61113   5
  -5  -1  -6 67.7265 3.48866   2
  -5  -1  -6 57.7510 3.51596   1
  -5  -1  -6 65.9240 3.47826   2
   5   1   6 61.3732 2.50288   1
   5   1   6 68.2054 3.27064   5
  -6  -1  -6 89.2198 4.30768   2
  -6  -1  -6 90.6859 3.34587   3
  -6  -1  -6 93.0505 4.41337   2
   6   1   6 97.0718 4.35454   5
  -7  -1  -6 67.3190 3.66195   2
  -7  -1  -6 59.1509 2.70975   3
   7   1   6 63.4361 3.67845   5
  -8  -1  -6 14.0490 1.53594   3
  -8  -1  -6 9.21692 1.67803   2
   8   1   6 13.1965 2.09637   5
  -9  -1  -6 0.69908 0.80719   2
   9   1   6 -0.6623 0.65640   5
 -12   2   6 1.39840 1.06447   2
 -12   2   6 1.51204 1.04784   1
 -12   2   6 0.77906 1.03140   3
 -11   2   6 35.7419 3.46009   1
 -11   2   6 33.9476 3.32652   2
 -10   2   6 29.6447 3.15109   1
 -10   2   6 36.2825 3.33291   2
  -9   2   6 0.35770 0.80409   1
  -9   2   6 1.90360 1.03458   2
  -8   2   6 10.4609 1.90575   1
  -8   2   6 8.22450 1.50933   2
  -8   2   6 9.57134 1.68257   2
  -7   2   6 74.1422 4.06303   1
  -7   2   6 68.4189 3.60229   2
  -7   2   6 65.1362 3.66056   2
  -7   2   6 66.3003 3.55455   1
   6  -2  -6 142.861 5.20842   2
  -6   2   6 137.761 5.55957   2
  -6   2   6 147.241 5.80024   2
  -6   2   6 139.392 5.96518   1
  -6   2   6 138.877 5.58578   1
   5  -2  -6 22.2485 2.19737   2
  -5   2   6 22.0138 2.49767   1
  -5   2   6 25.3391 2.43004   1
  -5   2   6 22.9931 2.37168   2
  -5   2   6 30.6611 2.79067   2
   4  -2  -6 51.6585 2.90612   2
  -4   2   6 43.4666 2.71311   2
  -4   2   6 42.8173 2.69037   1
  -4   2   6 51.1684 3.15539   1
  -4   2   6 55.1164 3.06362   2
   3  -2  -6 7.07361 1.33821   2
  -3   2   6 2.91823 0.92265   2
  -3   2   6 6.05204 1.31990   1
  -3   2   6 6.58868 1.21416   1
  -3   2   6 5.34099 1.14605   2
   2  -2  -6 1041.07 27.3037   2
  -2   2   6 1014.85 27.1455   1
  -2   2   6 989.410 27.5134   1
  -2   2   6 1022.81 27.2086   2
  -2   2   6 1020.52 25.1617   4
   1  -2  -6 408.535 12.1896   2
   1  -2  -6 411.506 12.8757   2
   1  -2  -6 405.779 12.5272   1
  -1   2   6 396.092 12.3597   1
  -1   2   6 382.643 11.8634   2
   0  -2  -6 7.47509 1.34405   2
   0  -2  -6 8.75064 0.73791   4
   0  -2  -6 8.86618 1.46021   2
   0  -2  -6 5.78783 1.33078   1
   0   2   6 8.14800 1.26487   2
   0   2   6 8.69263 1.57054   1
  -1  -2  -6 326.470 10.5056   1
  -1  -2  -6 315.530 10.1336   2
  -1  -2  -6 310.009 10.0569   2
  -1  -2  -6 312.306 8.72713   4
   1   2   6 320.474 8.22849   3
   1   2   6 320.206 10.1463   1
   1   2   6 318.101 9.63018   2
   1   2   6 321.481 8.77127   5
  -2  -2  -6 5.93674 1.36087   1
  -2  -2  -6 5.86279 1.26643   2
  -2  -2  -6 4.36173 1.04864   2
  -2  -2  -6 7.37311 0.99875   4
   2   2   6 5.21786 0.57438   3
   2   2   6 6.37281 1.22243   1
   2   2   6 5.46745 0.85096   5
   2   2   6 5.43291 0.96160   2
  -3  -2  -6 9.85604 1.56983   2
  -3  -2  -6 10.3757 1.63614   2
  -3  -2  -6 7.23826 1.47908   1
   3   2   6 10.6920 1.31297   5
   3   2   6 8.09383 1.30172   1
   3   2   6 9.86450 1.15642   2
  -4  -2  -6 71.5538 3.99098   1
  -4  -2  -6 68.6612 3.72715   2
  -4  -2  -6 71.9849 3.68093   2
   4   2   6 74.8669 3.38895   5
  -5  -2  -6 10.7324 1.76109   2
  -5  -2  -6 14.0985 1.87523   2
   5   2   6 16.4609 2.00738   5
  -6  -2  -6 -0.4374 0.54301   2
   6   2   6 0.37248 0.75814   5
  -7  -2  -6 10.6923 1.83318   2
   7   2   6 9.51995 1.82875   5
  -8  -2  -6 13.1176 2.08630   2
   8   2   6 7.16162 1.71615   5
  -9  -2  -6 3.82740 1.43207   2
  -9  -2  -6 2.54385 1.14234   1
   9   2   6 3.15612 1.32933   5
 -12   3   6 1.61757 1.02644   2
 -12   3   6 1.50185 1.11732   1
 -11   3   6 4.16524 1.27111   2
 -11   3   6 -0.0027 0.95780   1
 -10   3   6 50.5511 3.40089   2
 -10   3   6 52.4117 3.64544   1
  -9   3   6 -0.3450 0.73401   1
  -9   3   6 0.37687 0.85954   2
  -8   3   6 2.10961 1.07509   1
  -8   3   6 0.25283 0.71536   2
  -8   3   6 0.34048 0.62734   2
  -7   3   6 9.83637 1.59585   2
  -7   3   6 6.73204 1.51804   1
  -7   3   6 7.32739 1.39883   1
  -7   3   6 7.33113 1.46259   2
   6  -3  -6 14.9503 1.77741   2
  -6   3   6 19.1466 2.46088   1
  -6   3   6 14.2067 1.89619   2
  -6   3   6 20.2069 2.29247   1
  -6   3   6 16.7771 2.07925   2
  -5   3   6 32.4496 2.85353   2
  -5   3   6 33.5951 3.08222   1
  -5   3   6 33.8110 2.93701   2
   4  -3  -6 83.8378 4.09963   2
  -4   3   6 75.7587 4.17982   1
  -4   3   6 87.6737 2.52804   4
  -4   3   6 89.6990 4.16299   2
  -4   3   6 89.7026 4.14352   2
   3  -3  -6 46.4169 2.92278   2
  -3   3   6 48.6098 2.86254   2
  -3   3   6 47.9039 3.11559   1
  -3   3   6 43.8715 2.78764   2
   2  -3  -6 2.04826 0.84239   2
  -2   3   6 2.63514 0.99725   1
  -2   3   6 2.36260 0.84575   2
   1  -3  -6 1.55044 0.38583   4
   1  -3  -6 3.20858 1.06326   2
  -1   3   6 2.94627 0.88258   2
  -1   3   6 3.47724 1.11017   1
   0  -3  -6 160.343 6.31170   2
   0  -3  -6 164.158 6.57758   1
   0  -3  -6 157.687 6.22230   2
   0  -3  -6 168.582 4.71120   4
   0   3   6 167.306 5.93343   2
   0   3   6 150.519 6.20102   1
  -1  -3  -6 58.4275 3.27440   2
  -1  -3  -6 49.9450 3.33726   1
  -1  -3  -6 60.9974 2.38889   4
  -1  -3  -6 65.1357 3.52755   2
   1   3   6 54.8847 2.85578   2
   1   3   6 58.3674 3.27008   1
   1   3   6 58.8047 2.50755   5
   1   3   6 58.5845 2.08815   3
  -2  -3  -6 39.2145 2.07179   4
  -2  -3  -6 42.8510 2.85309   2
  -2  -3  -6 40.3983 2.93932   1
  -2  -3  -6 38.1795 2.62409   2
   2   3   6 40.1693 1.71088   3
   2   3   6 39.3138 2.25871   2
   2   3   6 42.5074 2.65829   1
   2   3   6 36.5417 2.06695   5
  -3  -3  -6 28.9430 2.83981   2
  -3  -3  -6 30.3856 3.09574   1
  -3  -3  -6 34.6983 3.01862   2
   3   3   6 37.0653 2.19202   5
   3   3   6 35.8547 1.97669   2
   3   3   6 36.7937 2.37308   1
  -4  -3  -6 54.3237 3.30357   2
  -4  -3  -6 58.4560 3.59800   2
  -4  -3  -6 56.0940 4.04299   1
   4   3   6 56.1618 3.04629   5
  -5  -3  -6 20.2437 2.48205   2
   5   3   6 29.2755 2.72410   5
  -6  -3  -6 10.7501 1.94933   2
   6   3   6 15.9038 2.16060   5
  -7  -3  -6 -0.3214 0.83377   2
   7   3   6 -0.1937 0.78539   5
  -8  -3  -6 4.73839 1.54470   2
  -8  -3  -6 4.68756 1.44847   2
  -8  -3  -6 3.55658 1.37123   1
   8   3   6 6.91357 1.78012   5
 -12   4   6 3.55446 1.31132   1
 -12   4   6 1.29541 1.03042   2
 -11   4   6 -0.3174 0.77554   2
 -11   4   6 2.08492 1.15973   1
 -10   4   6 57.1040 3.89567   1
 -10   4   6 62.0441 3.74239   2
  -9   4   6 102.427 5.22670   1
  -9   4   6 99.4198 4.87504   2
   8  -4  -6 2.23033 1.16382   1
  -8   4   6 2.55416 1.11018   1
  -8   4   6 0.73134 0.77834   2
   7  -4  -6 44.8199 2.73067   2
   7  -4  -6 48.5332 2.90830   1
  -7   4   6 45.5567 3.30948   1
  -7   4   6 49.9791 3.14194   2
  -7   4   6 49.9264 3.19209   2
  -7   4   6 44.0464 2.15726   4
   6  -4  -6 16.1304 2.02888   2
  -6   4   6 14.0766 1.93581   2
  -6   4   6 15.3135 2.16125   1
  -6   4   6 11.3413 1.80552   2
  -6   4   6 16.5566 1.05436   4
   5  -4  -6 4.56467 1.16283   2
  -5   4   6 3.56101 0.46112   4
  -5   4   6 2.38991 0.96890   1
  -5   4   6 2.81050 0.91536   2
  -5   4   6 2.37657 0.92468   2
   4  -4  -6 -0.2042 0.50842   2
   4  -4  -6 0.07322 0.62305   2
  -4   4   6 -0.5462 0.60067   1
  -4   4   6 -0.0865 0.45714   2
  -4   4   6 -0.7712 0.48529   2
   3  -4  -6 76.6774 4.09071   2
  -3   4   6 73.7240 3.77648   2
  -3   4   6 80.7101 4.22078   1
   2  -4  -6 49.2040 3.20918   2
  -2   4   6 60.1787 3.52579   1
  -2   4   6 48.0326 2.97754   2
   1  -4  -6 93.0666 2.80282   4
   1  -4  -6 98.2409 4.76382   2
  -1   4   6 102.524 4.77148   1
  -1   4   6 96.5250 4.27600   2
   0  -4  -6 35.6413 3.17953   2
   0  -4  -6 38.6882 1.68568   4
   0  -4  -6 41.8701 3.43995   2
   0   4   6 41.9661 2.53384   2
   0   4   6 37.2932 3.22178   1
  -1  -4  -6 40.9969 2.82012   2
  -1  -4  -6 35.3171 3.23340   2
  -1  -4  -6 35.7246 3.49003   1
   1   4   6 36.9759 2.31805   2
   1   4   6 42.8425 2.18289   5
   1   4   6 37.8224 2.69217   1
  -2  -4  -6 140.514 6.04991   2
  -2  -4  -6 143.534 6.54263   1
  -2  -4  -6 157.439 6.53475   2
   2   4   6 147.938 5.41554   2
   2   4   6 160.116 5.45068   5
   2   4   6 160.479 6.05256   1
  -3  -4  -6 16.9121 2.40359   1
  -3  -4  -6 24.4529 2.81415   2
  -3  -4  -6 19.2686 2.53156   2
   3   4   6 17.3315 1.95937   5
   3   4   6 21.9075 2.21537   1
  -4  -4  -6 4.08424 1.29899   2
   4   4   6 6.64978 1.35123   5
  -5  -4  -6 9.58658 1.93282   2
   5   4   6 14.7116 2.04075   5
  -6  -4  -6 17.5213 2.43859   1
  -6  -4  -6 16.2425 2.53030   2
  -6  -4  -6 20.2079 2.73002   2
   6   4   6 20.1301 2.57574   5
  -7  -4  -6 1.13060 1.23277   2
  -7  -4  -6 3.50945 1.34931   1
  -7  -4  -6 3.30012 1.37628   2
   7   4   6 4.35012 1.41284   5
 -12   5   6 2.87852 1.19175   2
 -12   5   6 3.92886 1.53849   1
 -11   5   6 31.1415 3.26317   2
 -11   5   6 24.0072 2.91847   1
 -10   5   6 16.9693 2.48607   1
 -10   5   6 23.8543 2.70883   2
  -9   5   6 0.54495 0.92756   1
  -9   5   6 1.72639 0.95550   2
   8  -5  -6 15.4079 1.93388   1
  -8   5   6 11.2547 1.81150   2
  -8   5   6 13.7438 2.26779   1
   7  -5  -6 58.8985 3.44744   2
   7  -5  -6 65.5714 3.62533   1
  -7   5   6 56.7205 3.76545   1
  -7   5   6 57.4709 2.41855   4
  -7   5   6 59.0082 3.71620   2
  -7   5   6 61.1425 3.63321   2
   6  -5  -6 50.6002 3.23039   1
   6  -5  -6 53.4432 3.32202   2
  -6   5   6 50.8672 1.98562   4
  -6   5   6 47.6193 3.41925   1
  -6   5   6 50.4939 3.37687   2
  -6   5   6 54.3292 3.30194   2
   5  -5  -6 0.27427 0.65732   2
  -5   5   6 0.14882 0.48661   2
  -5   5   6 -0.2891 0.49176   2
  -5   5   6 -0.1978 0.60693   1
   4  -5  -6 31.8186 3.10028   2
  -4   5   6 35.0539 3.08835   2
  -4   5   6 35.4053 3.37061   1
   3  -5  -6 35.8195 3.31913   2
   3  -5  -6 34.7440 3.21696   2
  -3   5   6 43.8337 3.73727   1
  -3   5   6 37.2476 2.61653   2
   2  -5  -6 16.1174 2.31487   2
   2  -5  -6 13.6898 0.53903   4
   2  -5  -6 14.2521 2.18425   2
  -2   5   6 13.5997 1.87615   2
  -2   5   6 13.1109 2.04298   1
   1  -5  -6 3.56748 1.15221   2
   1  -5  -6 2.22603 0.97953   2
  -1   5   6 2.91261 1.01900   2
  -1   5   6 3.48616 1.15983   1
   0  -5  -6 125.498 5.91250   2
   0  -5  -6 134.598 6.05514   2
   0  -5  -6 119.301 5.50818   2
   0   5   6 122.756 5.58264   1
   0   5   6 130.705 5.21484   2
  -1  -5  -6 11.9791 1.89123   2
  -1  -5  -6 12.6019 2.05832   2
   1   5   6 13.5725 1.99800   1
   1   5   6 12.7496 1.55807   5
  -2  -5  -6 110.748 5.69955   2
  -2  -5  -6 121.460 5.86673   2
   2   5   6 111.819 4.61648   5
   2   5   6 123.394 5.25858   1
  -3  -5  -6 151.751 6.81297   2
  -3  -5  -6 139.786 6.61282   2
   3   5   6 135.166 5.54935   5
  -4  -5  -6 3.87942 1.41066   1
  -4  -5  -6 2.42676 1.22385   2
  -4  -5  -6 4.07553 1.43489   2
   4   5   6 3.15066 1.06436   5
  -5  -5  -6 -0.8355 0.75556   2
  -5  -5  -6 -1.3856 0.71716   2
  -5  -5  -6 1.35637 0.94145   1
   5   5   6 0.31876 0.75562   5
  -6  -5  -6 0.74252 1.03100   2
  -6  -5  -6 -0.2478 0.75432   1
   6   5   6 -0.5430 0.59869   5
  -7  -5  -6 0.79922 1.14040   1
  -7  -5  -6 1.37377 1.32231   2
   7   5   6 1.02580 1.14170   5
 -12   6   6 1.24468 1.06302   2
 -12   6   6 -0.2868 0.92458   1
 -11   6   6 1.80421 1.11141   2
 -11   6   6 2.45663 1.18438   1
 -10   6   6 2.19445 1.10793   2
 -10   6   6 3.47614 1.39599   1
  -9   6   6 80.2714 4.49184   2
  -9   6   6 86.9024 4.93845   1
   8  -6  -6 13.8340 1.99444   1
  -8   6   6 16.8867 2.50897   1
  -8   6   6 19.5848 2.45850   2
   7  -6  -6 19.5632 2.38615   1
  -7   6   6 22.2319 2.57588   2
  -7   6   6 29.3364 3.36163   1
   6  -6  -6 22.8233 2.63318   1
   6  -6  -6 26.6364 2.96941   2
  -6   6   6 24.3925 2.68168   2
  -6   6   6 25.4323 2.97863   1
  -6   6   6 26.6411 3.09091   2
   5  -6  -6 97.8584 5.01254   1
   5  -6  -6 101.255 5.22157   2
  -5   6   6 106.569 4.93826   2
  -5   6   6 100.344 5.22265   1
   4  -6  -6 288.608 10.3977   1
   4  -6  -6 306.129 10.7401   2
  -4   6   6 307.372 10.1578   2
  -4   6   6 293.876 10.5624   1
   3  -6  -6 173.094 7.31160   2
  -3   6   6 167.432 6.63775   2
  -3   6   6 167.948 7.10581   1
   2  -6  -6 100.347 5.38773   2
  -2   6   6 109.314 4.92683   2
  -2   6   6 109.889 5.35647   1
   1  -6  -6 34.4263 3.55620   2
   1  -6  -6 34.9071 3.51759   2
  -1   6   6 41.8591 2.81657   2
  -1   6   6 44.6166 3.18325   1
   0  -6  -6 0.10346 0.83208   2
   0  -6  -6 0.04288 0.92241   2
   0   6   6 0.35437 0.71311   1
   0   6   6 1.57729 0.74073   2
  -1  -6  -6 104.383 5.58566   2
  -1  -6  -6 100.971 5.52070   2
   1   6   6 98.1216 4.88879   1
   1   6   6 93.9884 4.16037   5
  -2  -6  -6 228.251 9.15608   1
  -2  -6  -6 232.031 9.39344   2
   2   6   6 237.305 7.94442   5
   2   6   6 219.886 8.29001   1
  -3  -6  -6 223.232 9.28828   2
  -3  -6  -6 213.909 8.94345   1
   3   6   6 215.613 7.88516   5
  -4  -6  -6 2.56954 1.29638   2
  -4  -6  -6 -0.0794 0.89191   1
   4   6   6 -1.0093 0.60486   5
  -5  -6  -6 0.54368 1.12748   2
  -5  -6  -6 0.52858 1.17829   1
   5   6   6 0.68292 0.91630   5
  -6  -6  -6 1.60281 1.24120   1
  -6  -6  -6 -0.0090 1.17000   2
   6   6   6 1.20104 1.09709   5
 -12   7   6 0.68383 0.99277   1
 -12   7   6 0.70895 0.98996   2
 -11   7   6 4.28620 1.38487   2
 -11   7   6 4.90338 1.57520   1
 -10   7   6 0.44622 0.84528   2
 -10   7   6 0.37420 0.90593   1
  -9   7   6 13.3659 2.17418   2
  -9   7   6 19.4269 2.74949   1
   8  -7  -6 47.6182 3.43933   1
  -8   7   6 39.3097 3.88528   1
  -8   7   6 37.7745 3.51952   2
   7  -7  -6 278.775 10.0942   1
  -7   7   6 272.399 9.86810   2
  -7   7   6 281.612 10.4522   1
   6  -7  -6 360.414 12.4553   2
   6  -7  -6 352.626 12.2924   1
  -6   7   6 361.837 11.9799   2
  -6   7   6 363.483 12.5409   1
   5  -7  -6 84.1474 5.05196   2
   5  -7  -6 93.9291 5.07016   1
  -5   7   6 86.8638 4.57820   2
  -5   7   6 85.4118 4.91279   1
   4  -7  -6 18.5342 0.76934   4
   4  -7  -6 19.8765 2.92882   2
   4  -7  -6 16.8232 2.46438   1
  -4   7   6 16.9206 2.30564   2
  -4   7   6 23.0819 2.91932   1
   3  -7  -6 32.9989 3.66686   2
   3  -7  -6 28.5214 3.26578   1
  -3   7   6 28.7139 2.90387   2
  -3   7   6 30.1630 3.42957   1
   2  -7  -6 443.977 14.8128   2
   2  -7  -6 427.052 14.4225   1
  -2   7   6 433.548 13.6299   2
  -2   7   6 435.402 14.1946   1
   1  -7  -6 94.4099 5.41196   1
   1  -7  -6 114.989 6.01442   2
  -1   7   6 105.926 4.93966   2
  -1   7   6 97.2099 5.18435   1
   0  -7  -6 11.5853 2.20386   1
   0  -7  -6 16.2047 2.69017   2
   0   7   6 10.7813 1.94876   1
  -1  -7  -6 52.9272 4.81807   1
  -1  -7  -6 48.6818 4.58081   2
   1   7   6 40.9478 2.73454   5
   1   7   6 46.8502 3.37078   1
  -2  -7  -6 0.43808 1.06380   2
  -2  -7  -6 -0.3673 0.83767   1
   2   7   6 0.55902 0.75308   5
  -3  -7  -6 9.69855 2.36990   2
  -3  -7  -6 6.08648 1.99621   1
   3   7   6 13.0404 2.03454   5
  -4  -7  -6 1.82785 1.38710   2
  -4  -7  -6 2.07924 1.33212   1
   4   7   6 3.26314 1.26784   5
  -5  -7  -6 0.19046 1.13518   1
  -5  -7  -6 0.08060 1.11251   2
   5   7   6 2.03466 1.14720   5
 -12   8   6 3.63479 1.43340   2
 -12   8   6 0.74823 1.36670   1
 -11   8   6 4.44114 1.71561   1
 -11   8   6 4.38124 1.44753   2
 -10   8   6 4.02789 1.55798   1
 -10   8   6 7.54931 1.81915   2
  -9   8   6 4.67866 1.63090   1
  -9   8   6 5.92826 1.59169   2
   8  -8  -6 54.0619 5.31549   1
  -8   8   6 66.6505 4.50757   1
  -8   8   6 63.6164 4.06366   2
   7  -8  -6 128.438 6.43855   1
  -7   8   6 137.247 6.27020   2
  -7   8   6 136.109 6.69198   1
   6  -8  -6 1.29188 1.17728   1
   6  -8  -6 0.46167 1.06487   2
  -6   8   6 0.76779 1.10447   1
  -6   8   6 0.06918 0.88516   2
   5  -8  -6 167.506 4.78679   4
   5  -8  -6 172.331 7.89022   2
   5  -8  -6 166.351 7.65001   1
  -5   8   6 180.073 7.29431   2
  -5   8   6 174.398 7.72737   1
   4  -8  -6 92.3178 5.59624   2
   4  -8  -6 91.8856 2.89815   4
   4  -8  -6 96.7991 5.52318   1
  -4   8   6 89.1426 4.79105   2
  -4   8   6 98.8907 5.37997   1
   3  -8  -6 28.1272 3.41898   1
   3  -8  -6 35.4094 4.02920   2
  -3   8   6 31.1576 3.51007   1
  -3   8   6 39.2964 3.64103   2
   2  -8  -6 38.9680 4.28700   2
   2  -8  -6 41.0752 4.16980   1
  -2   8   6 34.2024 3.34912   2
  -2   8   6 41.0415 4.10644   1
   1  -8  -6 238.629 10.0053   2
   1  -8  -6 224.303 9.52808   1
  -1   8   6 210.884 11.3766   2
  -1   8   6 233.414 9.15040   1
   0  -8  -6 0.36410 1.17295   2
   0  -8  -6 1.91258 1.24402   1
   0   8   6 1.09998 0.92091   1
   0   8   6 0.93057 0.73578   5
  -1  -8  -6 16.3798 3.00796   2
  -1  -8  -6 24.0266 3.51817   1
   1   8   6 23.1873 2.58314   5
  -2  -8  -6 23.6213 3.38552   1
  -2  -8  -6 24.5620 3.71245   2
   2   8   6 25.3831 2.79340   5
  -3  -8  -6 18.6094 3.09715   1
  -3  -8  -6 17.1628 3.18702   2
   3   8   6 22.1277 2.76568   5
  -4  -8  -6 6.68737 2.14082   1
  -4  -8  -6 4.41704 1.93274   2
   4   8   6 5.02910 1.56161   5
 -12   9   6 1.04607 1.01490   2
 -12   9   6 4.70606 1.73184   1
 -11   9   6 11.2844 2.43576   1
 -11   9   6 11.8967 2.25357   2
 -10   9   6 16.1965 2.55216   2
 -10   9   6 17.8184 2.91117   1
  -9   9   6 11.3719 2.34734   1
  -9   9   6 19.3662 2.66658   2
  -8   9   6 0.04205 0.78589   2
  -8   9   6 0.44174 1.00786   1
   7  -9  -6 9.22063 2.09286   1
  -7   9   6 15.6355 2.46170   2
  -7   9   6 13.2139 2.55711   1
   6  -9  -6 10.7050 2.26850   1
  -6   9   6 8.92990 1.94627   2
  -6   9   6 8.05811 2.01656   1
   5  -9  -6 18.0580 2.95533   1
   5  -9  -6 20.0150 3.08195   2
  -5   9   6 17.1998 2.80438   1
  -5   9   6 17.4834 2.43816   2
   4  -9  -6 13.2468 2.58462   1
   4  -9  -6 18.8769 3.04601   2
   4  -9  -6 16.0766 1.12687   4
  -4   9   6 13.4248 2.41845   1
  -4   9   6 18.4781 2.56544   2
   3  -9  -6 135.386 7.11012   1
   3  -9  -6 148.577 7.62052   2
  -3   9   6 139.322 6.40973   2
  -3   9   6 132.022 6.73406   1
   2  -9  -6 81.5713 5.71264   2
   2  -9  -6 96.4335 5.88555   1
  -2   9   6 94.5463 5.48345   1
   1  -9  -6 4.56381 1.91004   2
   1  -9  -6 1.34491 1.26167   1
  -1   9   6 4.76908 1.53774   1
   0  -9  -6 9.42213 2.41657   1
   0  -9  -6 3.77962 1.85155   2
   0   9   6 9.99675 1.67527   5
   0   9   6 7.03708 1.84507   1
  -1  -9  -6 -0.1235 1.05899   2
  -1  -9  -6 0.84025 1.30250   1
   1   9   6 -0.6131 0.55080   5
  -2  -9  -6 8.94756 2.33494   1
  -2  -9  -6 12.4919 2.87827   2
   2   9   6 8.53564 1.76999   5
  -3  -9  -6 -0.3303 1.17941   1
  -3  -9  -6 2.71975 1.72906   2
   3   9   6 0.95537 1.06759   5
 -11  10   6 0.37178 1.17067   1
 -11  10   6 1.41357 1.10204   2
 -10  10   6 2.41053 1.34095   2
 -10  10   6 1.77914 1.26269   1
  -9  10   6 8.35613 2.19021   1
  -9  10   6 4.46662 1.51301   2
  -8  10   6 10.8426 2.34224   1
  -8  10   6 8.50091 1.94053   2
   7 -10  -6 2.79309 1.38867   1
  -7  10   6 5.59132 1.62411   2
  -7  10   6 4.15925 1.68547   1
   6 -10  -6 0.33154 1.10615   1
  -6  10   6 0.80338 1.08601   1
  -6  10   6 -0.3789 0.76937   2
   5 -10  -6 14.7090 2.77539   1
  -5  10   6 13.7630 2.71071   1
  -5  10   6 9.92332 2.04663   2
   4 -10  -6 17.2792 3.14892   1
   4 -10  -6 11.9293 2.75690   2
  -4  10   6 15.5535 2.70217   1
  -4  10   6 17.1430 2.63692   2
   3 -10  -6 6.81263 2.26993   2
   3 -10  -6 6.74805 2.05389   1
  -3  10   6 9.50489 2.26212   1
   2 -10  -6 0.23699 1.04398   1
   2 -10  -6 -1.0877 0.97987   2
  -2  10   6 0.85680 1.05042   1
   1 -10  -6 4.74261 1.91483   2
   1 -10  -6 7.89292 2.24524   1
  -1  10   6 5.90769 1.79174   1
   0 -10  -6 0.20361 1.28179   2
   0 -10  -6 1.52538 1.36386   1
   0  10   6 -0.3058 0.64087   5
  -1 -10  -6 1.03712 1.36525   1
  -1 -10  -6 0.20605 1.38489   2
   1  10   6 -0.7172 0.60685   5
  -2 -10  -6 4.80025 2.31268   2
  -2 -10  -6 6.53523 2.32317   1
   2  10   6 4.65489 1.57276   5
 -10  11   6 0.68357 1.17543   2
 -10  11   6 -0.8495 1.18279   1
  -9  11   6 -0.2638 0.72926   2
  -9  11   6 0.90662 1.22281   1
  -8  11   6 11.8046 2.55319   1
  -8  11   6 10.3056 2.29296   2
   7 -11  -6 34.1761 4.30181   1
  -7  11   6 25.4295 3.38151   2
  -7  11   6 31.8432 4.16848   1
   6 -11  -6 32.7537 4.31559   1
  -6  11   6 41.6959 4.20741   2
   5 -11  -6 3.72423 1.82385   1
  -5  11   6 5.18292 1.75360   1
  -5  11   6 6.08337 1.83602   2
   4 -11  -6 2.72658 1.59747   1
   4 -11  -6 4.74294 2.07286   2
  -4  11   6 2.72024 1.49787   1
   3 -11  -6 -0.5186 1.05776   2
   3 -11  -6 0.73897 1.26749   1
  -3  11   6 -0.5886 0.94755   1
   2 -11  -6 -1.4028 0.97162   2
   2 -11  -6 1.06579 1.43223   1
  -2  11   6 0.55543 1.24521   1
   1 -11  -6 1.70224 1.59571   2
   1 -11  -6 0.89589 1.49767   1
   0 -11  -6 2.85578 1.89237   2
   0 -11  -6 0.79600 1.33022   1
   0  11   6 1.05984 1.09862   5
  -9  12   6 20.0971 3.17459   2
  -9  12   6 21.7893 3.65500   1
  -8  12   6 2.39670 1.33372   2
  -8  12   6 2.47364 1.52157   1
   7 -12  -6 19.3208 3.46563   1
  -7  12   6 12.2742 2.65916   1
  -7  12   6 18.7790 3.06021   2
   6 -12  -6 13.6891 3.01498   1
  -6  12   6 11.4062 2.61280   1
  -6  12   6 17.3404 2.95493   2
   5 -12  -6 15.6792 3.26705   1
  -5  12   6 12.8403 2.86822   1
   4 -12  -6 8.73574 2.60709   1
  -4  12   6 8.19886 2.29052   1
   3 -12  -6 0.82610 1.49685   1
   3 -12  -6 0.66722 1.84001   2
  -3  12   6 -0.9291 0.97730   1
   2 -12  -6 -0.8013 1.43001   2
   2 -12  -6 -0.4840 1.08396   1
  -7  13   6 15.0052 3.77029   2
  -7  13   6 14.3267 3.06336   1
   6 -13  -6 0.04914 1.21818   1
  -6  13   6 2.40377 1.64709   1
   5 -13  -6 -0.4684 1.31326   1
  -5  13   6 1.22271 1.34729   1
   4 -13   7 -1.8587 1.28694   1
   0  12  -7 1.37625 1.02221   5
   0 -12   7 4.90506 2.48051   2
   0 -12   7 3.90182 2.19492   1
  -1  12  -7 -0.2232 1.15468   1
  -1  12  -7 1.19989 0.83180   5
   1 -12   7 0.84358 1.45803   1
  -2  12  -7 0.56081 0.77563   5
  -2  12  -7 0.11313 1.28851   1
   2 -12   7 -0.4937 1.40458   1
  -3  12  -7 6.62344 2.07982   1
   3 -12   7 7.77999 2.58629   1
  -4  12  -7 1.50701 1.36348   1
  -4  12  -7 -0.1457 1.11441   2
   4 -12   7 0.43456 1.37168   1
  -5  12  -7 -0.6015 1.06634   1
  -5  12  -7 -0.2893 1.05502   2
   5 -12   7 0.90177 1.47854   1
   5 -12   7 -1.3279 2.29322   4
  -6  12  -7 10.4233 2.40932   2
  -6  12  -7 11.0680 2.66362   1
   6 -12   7 10.3979 1.99821   4
  -7  12  -7 9.67570 2.48393   2
  -7  12  -7 10.9612 2.59379   1
   7 -12   7 14.6982 2.59187   4
  -8  12  -7 -0.1598 1.13390   2
   8 -12   7 0.17568 0.92979   4
   2  11  -7 1.91475 1.25227   5
  -2 -11   7 0.37615 1.44755   1
  -2 -11   7 4.25171 2.28373   2
   1  11  -7 0.27457 0.87999   5
  -1 -11   7 -1.1595 1.01043   1
  -1 -11   7 -1.9061 1.18665   2
   0  11  -7 0.39819 0.76820   5
   0  11  -7 1.12221 0.97679   1
   0 -11   7 0.39684 1.35966   1
   0 -11   7 -0.6094 1.42637   2
  -1  11  -7 1.35702 0.88159   5
  -1  11  -7 0.82056 1.25554   1
   1 -11   7 1.09538 1.71843   2
   1 -11   7 3.65448 1.84872   1
  -2  11  -7 12.8328 2.63884   1
   2 -11   7 15.3866 3.30470   1
  -3  11  -7 0.55826 1.00720   2
  -3  11  -7 2.94291 1.61712   1
   3 -11   7 -0.0281 1.37083   1
  -4  11  -7 0.77583 1.16145   1
  -4  11  -7 2.53284 1.33940   2
   4 -11   7 1.95173 1.59833   1
  -5  11  -7 2.79541 1.42870   1
  -5  11  -7 1.03226 1.19506   2
   5 -11   7 -2.3904 1.60480   4
   5 -11   7 1.22077 1.47005   1
  -6  11  -7 -1.3514 0.77161   2
  -6  11  -7 -1.0389 0.84983   1
   6 -11   7 0.01466 0.67084   4
  -7  11  -7 4.11818 1.57543   2
  -7  11  -7 3.07001 1.48461   1
   7 -11   7 3.68009 1.36901   4
  -8  11  -7 7.98023 2.18946   1
  -8  11  -7 5.82210 1.75398   2
   8 -11   7 7.11118 1.83527   4
  -9  11  -7 -0.1282 0.98940   1
  -9  11  -7 0.91766 1.06486   2
   9 -11   7 0.34893 1.02880   4
   3  10  -7 2.53445 1.16464   5
  -3 -10   7 3.22247 2.05897   2
  -3 -10   7 1.70017 1.72234   1
   2  10  -7 2.19447 1.08194   5
  -2 -10   7 0.89754 1.59251   1
  -2 -10   7 -0.9778 1.52549   2
   1  10  -7 1.50017 0.84696   5
   1  10  -7 0.82622 1.08011   1
  -1 -10   7 1.40716 1.42826   1
  -1 -10   7 1.42478 1.62502   2
   0  10  -7 40.2690 4.24637   1
   0  10  -7 39.3902 3.16595   5
   0 -10   7 42.6546 5.21583   2
   0 -10   7 37.1734 4.72480   1
  -1  10  -7 6.77983 1.32579   5
  -1  10  -7 3.94343 1.70406   1
   1 -10   7 8.70972 2.63155   2
   1 -10   7 10.4408 2.78165   1
  -2  10  -7 20.2040 2.93344   2
  -2  10  -7 28.3160 3.73556   1
   2 -10   7 23.7739 3.78343   1
   2 -10   7 22.2476 3.62239   2
  -3  10  -7 3.50312 1.28051   2
  -3  10  -7 1.43102 1.22043   1
   3 -10   7 3.02448 1.83010   1
  -4  10  -7 3.85124 1.39900   2
  -4  10  -7 4.17453 1.60125   1
   4 -10   7 3.05671 1.68944   1
  -5  10  -7 2.94575 1.44779   1
  -5  10  -7 0.58383 0.90668   2
   5 -10   7 -0.4973 1.38947   4
   5 -10   7 2.17330 1.60962   1
  -6  10  -7 0.07145 0.83937   2
  -6  10  -7 0.69276 1.11656   1
   6 -10   7 1.04776 0.89528   4
  -7  10  -7 -0.5004 0.77959   1
  -7  10  -7 0.92033 0.92528   2
   7 -10   7 1.24601 0.99872   4
  -8  10  -7 0.61801 1.04638   2
  -8  10  -7 1.10626 1.09318   1
   8 -10   7 0.98531 0.91796   4
  -9  10  -7 0.09638 0.98394   1
  -9  10  -7 0.44846 0.97000   2
   9 -10   7 0.19655 0.80480   4
   4   9  -7 3.08872 1.33643   5
  -4  -9   7 1.89480 1.89247   2
  -4  -9   7 2.49176 1.91638   1
   3   9  -7 3.63818 1.27826   5
  -3  -9   7 3.88483 1.90371   1
  -3  -9   7 7.32412 2.46686   2
   2   9  -7 0.43841 0.82106   5
  -2  -9   7 0.59844 1.46010   1
  -2  -9   7 2.50000 1.66233   2
   1   9  -7 1.74622 1.23697   1
   1   9  -7 1.83646 0.89180   5
  -1  -9   7 2.55003 1.96164   2
  -1  -9   7 1.92870 1.64330   1
   0   9  -7 13.4738 2.39824   1
   0   9  -7 16.4937 1.87892   5
   0  -9   7 16.5265 3.13224   2
   0  -9   7 13.7210 2.82378   1
  -1   9  -7 5.62276 1.15212   5
  -1   9  -7 5.51386 1.72733   1
  -1   9  -7 4.58177 1.63745   2
   1  -9   7 10.7633 2.53926   2
   1  -9   7 5.25885 1.96605   1
  -2   9  -7 7.14629 1.79849   2
  -2   9  -7 4.23593 1.54444   1
   2  -9   7 1.99057 1.44521   1
   2  -9   7 2.18251 1.53837   2
  -3   9  -7 19.9420 2.97288   2
  -3   9  -7 13.2357 2.44170   1
   3  -9   7 14.9805 2.87224   1
   3  -9   7 12.0941 2.53625   2
  -4   9  -7 2.89147 1.35331   2
  -4   9  -7 6.80524 1.75140   1
   4  -9   7 5.93663 2.13913   4
   4  -9   7 5.50921 1.88600   1
  -5   9  -7 1.07961 1.03558   1
  -5   9  -7 1.35376 1.02846   2
   5  -9   7 2.54738 1.56738   1
   5  -9   7 0.51808 0.88437   4
  -6   9  -7 8.53127 1.92565   2
  -6   9  -7 7.44750 1.95668   1
   6  -9   7 5.36372 1.41620   4
  -7   9  -7 67.0789 4.56444   1
  -7   9  -7 69.4634 4.47321   2
   7  -9   7 64.7482 4.05314   4
  -8   9  -7 42.1246 4.21789   1
  -8   9  -7 37.9288 3.90455   2
   8  -9   7 39.8045 3.83105   4
  -9   9  -7 2.43297 1.27206   2
  -9   9  -7 4.26785 1.56269   1
   9  -9   7 2.15255 1.10174   4
 -10   9  -7 -1.7897 0.75193   1
 -10   9  -7 -0.0495 0.85630   2
  10  -9   7 0.01005 0.95507   4
   5   8  -7 0.29777 0.86814   5
  -5  -8   7 -0.6694 1.23061   2
  -5  -8   7 0.89473 1.39420   1
   4   8  -7 11.0470 1.85254   5
  -4  -8   7 8.24249 2.44198   2
  -4  -8   7 8.97174 2.48112   1
   3   8  -7 2.81626 1.06545   5
  -3  -8   7 3.85112 1.85764   2
  -3  -8   7 2.95328 1.67411   1
   2   8  -7 31.1654 3.44315   1
   2   8  -7 37.8841 2.51446   5
  -2  -8   7 34.2861 4.23501   1
  -2  -8   7 35.2832 4.63224   2
   1   8  -7 152.967 5.68934   5
   1   8  -7 157.434 7.23409   1
  -1  -8   7 157.900 8.16772   1
  -1  -8   7 152.137 8.07237   2
   0   8  -7 65.3490 4.32447   1
   0   8  -7 59.5352 2.98445   5
   0   8  -7 62.5179 4.13737   2
   0  -8   7 69.9475 6.02425   2
   0  -8   7 64.7635 5.77099   1
  -1   8  -7 4.95493 1.42718   2
  -1   8  -7 8.05099 1.80598   1
  -1   8  -7 5.28313 1.02031   5
   1  -8   7 3.32652 1.63190   2
   1  -8   7 7.47444 2.11049   1
  -2   8  -7 0.04512 0.71343   2
  -2   8  -7 -0.0762 0.76638   1
   2  -8   7 -1.0888 0.89187   1
   2  -8   7 1.26451 1.20012   2
  -3   8  -7 1.31116 1.17191   1
  -3   8  -7 0.66827 0.83775   2
   3  -8   7 3.53186 1.41136   2
   3  -8   7 0.00827 1.06167   1
  -4   8  -7 0.93862 0.89145   1
  -4   8  -7 1.50999 1.04287   2
   4  -8   7 5.06413 1.88513   1
   4  -8   7 3.49939 1.65801   4
  -5   8  -7 12.6330 2.20810   2
  -5   8  -7 11.8761 2.22304   1
   5  -8   7 15.6953 2.07536   4
   5  -8   7 10.9700 2.25898   1
  -6   8  -7 153.552 6.97985   1
  -6   8  -7 156.458 6.91790   2
   6  -8   7 146.717 6.32041   4
  -7   8  -7 132.379 6.33955   1
  -7   8  -7 125.022 6.10130   2
   7  -8   7 119.368 5.72303   4
  -8   8  -7 4.16903 1.40658   2
  -8   8  -7 4.40737 1.52638   1
   8  -8   7 3.04495 1.20018   4
  -9   8  -7 1.86745 1.23870   1
  -9   8  -7 3.49136 1.29019   2
   9  -8   7 1.43104 1.07420   4
 -10   8  -7 -0.3458 1.01829   1
 -10   8  -7 -0.4992 0.70727   2
   6   7  -7 0.23443 0.76223   5
  -6  -7   7 0.06018 1.18583   2
  -6  -7   7 1.34313 1.46758   1
   5   7  -7 16.0795 2.34224   5
  -5  -7   7 14.4173 3.13716   1
  -5  -7   7 15.2920 3.15710   2
   4   7  -7 15.5694 2.06061   5
  -4  -7   7 11.7491 2.67812   1
  -4  -7   7 13.0779 2.79597   2
   3   7  -7 5.02706 1.51224   1
   3   7  -7 5.05205 1.17992   5
  -3  -7   7 4.04226 1.77833   1
  -3  -7   7 4.05407 1.80512   2
   2   7  -7 72.2964 3.39922   5
   2   7  -7 66.0121 4.24430   1
  -2  -7   7 72.2323 5.12183   1
  -2  -7   7 67.5694 5.78910   2
   1   7  -7 150.706 6.82250   1
   1   7  -7 157.698 5.50151   5
   1   7  -7 151.017 6.78910   2
  -1  -7   7 159.928 7.88900   1
  -1  -7   7 170.939 8.01578   2
   0   7  -7 6.17809 1.52422   1
   0   7  -7 5.28614 1.48697   2
   0   7  -7 7.58896 1.10040   5
   0  -7   7 8.68814 2.14376   1
   0  -7   7 6.23218 1.88747   2
  -1   7  -7 80.0328 4.53827   2
  -1   7  -7 79.0565 4.58462   1
   1  -7   7 76.9519 5.06100   1
   1  -7   7 79.4340 5.12387   2
  -2   7  -7 13.6190 2.15986   1
  -2   7  -7 10.2882 1.87047   2
   2  -7   7 15.7209 2.66037   1
   2  -7   7 15.3809 2.67508   2
  -3   7  -7 34.1141 3.32043   2
  -3   7  -7 26.8308 3.12288   1
   3  -7   7 25.5335 3.35464   2
   3  -7   7 35.1420 3.98247   1
  -4   7  -7 20.8421 2.61787   2
  -4   7  -7 20.0586 2.65461   1
   4  -7   7 28.5376 3.49962   1
   4  -7   7 18.0052 2.64060   2
   4  -7   7 24.5350 2.53304   4
  -5   7  -7 -0.3169 0.65771   1
  -5   7  -7 -0.6244 0.47505   2
   5  -7   7 -1.4587 0.70886   1
   5  -7   7 -0.1330 0.51258   4
  -6   7  -7 33.9888 3.51729   1
  -6   7  -7 33.2463 3.31272   2
   6  -7   7 30.8701 2.95009   4
   6  -7   7 29.6864 3.42953   1
  -7   7  -7 9.26044 1.77432   2
  -7   7  -7 10.5691 2.01178   1
   7  -7   7 9.63137 1.79727   4
  -8   7  -7 4.89735 1.46108   1
  -8   7  -7 2.50717 1.08870   2
   8  -7   7 1.47180 0.98977   4
  -9   7  -7 11.2207 2.02079   1
  -9   7  -7 12.4338 2.10144   2
   9  -7   7 10.0323 1.95172   4
 -10   7  -7 -0.2375 0.81625   2
 -10   7  -7 1.70966 1.12999   1
   7   6  -7 1.72363 1.09152   5
  -7  -6   7 1.21259 1.35688   2
  -7  -6   7 1.45797 1.67857   1
  -7  -6   7 1.82487 1.16895   3
   6   6  -7 1.55475 1.07572   5
  -6  -6   7 5.52294 1.92730   1
  -6  -6   7 1.18050 1.14707   3
  -6  -6   7 0.25405 1.19352   2
   5   6  -7 -0.2756 0.61224   5
  -5  -6   7 0.57433 1.16039   2
  -5  -6   7 -0.2587 0.77388   3
  -5  -6   7 0.88165 1.22350   1
   4   6  -7 31.5301 2.73889   5
  -4  -6   7 32.1956 3.99370   2
  -4  -6   7 29.6791 3.79569   1
   3   6  -7 38.3449 2.39345   5
   3   6  -7 37.1933 3.60388   1
  -3  -6   7 37.9901 4.15733   1
  -3  -6   7 38.7393 4.26443   2
   2   6  -7 158.655 5.55901   5
   2   6  -7 167.576 6.91127   1
   2   6  -7 155.337 6.71577   2
  -2  -6   7 158.381 7.66907   1
  -2  -6   7 165.913 7.87291   2
   1   6  -7 0.81501 0.49682   5
   1   6  -7 0.34761 0.68448   2
   1   6  -7 -0.0706 0.66634   1
  -1  -6   7 -0.6269 0.83273   1
  -1  -6   7 0.92787 1.02417   2
   0   6  -7 -0.6258 0.57391   2
   0   6  -7 1.50176 0.97283   1
   0   6  -7 0.21016 0.34510   5
   0  -6   7 -0.6654 0.88332   1
   0  -6   7 -0.6327 0.73375   2
  -1   6  -7 2.23046 1.03470   2
  -1   6  -7 1.05319 0.86296   1
   1  -6   7 0.87368 1.07309   1
   1  -6   7 0.72495 0.98183   2
  -2   6  -7 2.72714 1.07531   2
  -2   6  -7 2.81831 1.09483   1
   2  -6   7 3.72426 1.43915   1
   2  -6   7 2.21737 1.22012   2
  -3   6  -7 22.6474 2.72858   1
  -3   6  -7 24.2082 2.67774   2
   3  -6   7 27.9654 3.41380   1
   3  -6   7 29.2213 3.23162   2
   3  -6   7 22.9507 2.52085   4
  -4   6  -7 68.1123 4.46296   2
  -4   6  -7 59.7007 3.64254   2
  -4   6  -7 57.5952 3.66620   1
   4  -6   7 61.0417 4.10287   1
   4  -6   7 60.3501 3.85670   2
   4  -6   7 66.4541 3.38970   4
  -5   6  -7 2.18173 0.97227   2
  -5   6  -7 2.30677 1.07487   1
   5  -6   7 3.44502 1.01337   4
   5  -6   7 0.44516 0.87062   1
  -6   6  -7 7.31270 1.53462   2
  -6   6  -7 8.11327 1.70315   1
   6  -6   7 7.04154 1.46135   4
   6  -6   7 5.40135 1.53344   1
  -7   6  -7 31.1099 3.22531   1
  -7   6  -7 33.4914 3.12959   2
   7  -6   7 26.7705 2.78965   4
  -8   6  -7 0.12381 0.78984   1
  -8   6  -7 -1.2847 0.55980   2
   8  -6   7 -0.5834 0.57396   4
  -9   6  -7 -0.1318 0.75353   1
  -9   6  -7 0.94936 0.83990   2
 -10   6  -7 4.81573 1.35436   2
 -10   6  -7 4.66360 1.38004   1
   8   5  -7 3.20979 1.31836   5
  -8  -5   7 -0.2385 1.07046   2
  -8  -5   7 0.66424 1.43282   1
  -8  -5   7 0.60198 0.90098   3
   7   5  -7 1.73085 1.12434   5
  -7  -5   7 0.54683 1.14462   2
  -7  -5   7 1.61766 1.48552   1
  -7  -5   7 0.06066 0.73633   3
   6   5  -7 3.26710 1.15567   5
  -6  -5   7 0.29528 1.00737   1
  -6  -5   7 3.91992 1.11547   3
  -6  -5   7 3.84993 1.62372   2
   5   5  -7 10.5331 1.68724   5
  -5  -5   7 8.71196 2.18044   2
  -5  -5   7 8.61681 2.21712   1
  -5  -5   7 11.1761 1.70357   3
   4   5  -7 23.8189 2.63194   1
   4   5  -7 19.1023 2.07789   5
  -4  -5   7 22.3242 3.14200   1
  -4  -5   7 19.6154 2.04338   3
  -4  -5   7 32.6924 3.79151   2
   3   5  -7 150.345 5.21036   5
   3   5  -7 145.237 6.14241   2
   3   5  -7 131.406 6.05744   1
  -3  -5   7 146.666 5.23767   3
  -3  -5   7 138.581 7.01769   1
  -3  -5   7 148.301 7.11657   2
   2   5  -7 6.08446 0.96362   5
   2   5  -7 7.51802 1.58440   2
   2   5  -7 9.97989 1.80677   1
  -2  -5   7 3.59756 1.50082   2
  -2  -5   7 7.18765 1.91938   1
   1   5  -7 15.7196 2.19044   2
   1   5  -7 12.7544 1.98281   1
   1   5  -7 14.7891 1.30914   5
  -1  -5   7 10.5824 2.06639   2
  -1  -5   7 19.2800 2.86225   1
   0   5  -7 0.64194 0.80622   1
   0   5  -7 1.67121 0.45455   5
   0   5  -7 0.86559 0.77491   2
   0  -5   7 -0.3041 0.93555   1
   0  -5   7 -0.6015 0.61575   2
  -1   5  -7 57.9093 3.48354   2
  -1   5  -7 58.1244 3.54229   1
   1  -5   7 53.2824 3.79948   2
   1  -5   7 65.5737 4.20811   1
  -2   5  -7 176.295 7.08155   2
  -2   5  -7 198.182 7.33665   1
   2  -5   7 179.873 7.73855   1
   2  -5   7 192.194 7.73093   2
  -3   5  -7 7.80398 1.52643   1
  -3   5  -7 5.72671 1.29043   2
  -3   5  -7 6.38571 1.69727   2
   3  -5   7 7.34934 1.69909   1
   3  -5   7 7.10253 1.26059   4
   3  -5   7 7.68669 1.61334   2
  -4   5  -7 20.2506 2.75639   2
  -4   5  -7 22.9906 2.50470   2
  -4   5  -7 29.2150 2.86430   1
   4  -5   7 28.5835 2.06909   4
   4  -5   7 21.5415 2.67558   1
   4  -5   7 21.0297 2.43916   2
  -5   5  -7 66.1961 4.24832   2
  -5   5  -7 62.5551 3.65887   1
  -5   5  -7 67.1531 3.73148   2
   5  -5   7 68.6505 6.09216   2
   5  -5   7 65.2221 3.95025   1
   5  -5   7 64.1401 3.43056   4
  -6   5  -7 28.2804 2.82554   2
  -6   5  -7 27.6790 2.73670   1
   6  -5   7 27.1810 2.64641   4
   6  -5   7 28.5760 2.86759   1
  -7   5  -7 12.5011 1.95456   2
  -7   5  -7 11.5935 1.86639   1
   7  -5   7 10.8201 1.81042   4
  -8   5  -7 8.07825 1.58301   2
  -8   5  -7 10.8390 1.84117   1
  -9   5  -7 -0.6437 0.74001   1
  -9   5  -7 0.54282 0.70099   2
 -10   5  -7 15.1792 2.14999   2
 -10   5  -7 10.1189 1.88284   1
   9   4  -7 1.40307 1.14411   5
  -9  -4   7 -0.0578 0.89274   3
  -9  -4   7 1.38064 1.44948   1
  -9  -4   7 1.63025 1.48200   2
   8   4  -7 8.99030 1.84860   5
  -8  -4   7 6.40499 1.49279   3
  -8  -4   7 8.29217 2.28402   2
  -8  -4   7 10.1277 2.39973   1
   7   4  -7 0.40551 0.81197   5
  -7  -4   7 -0.5600 1.03955   1
  -7  -4   7 -0.7688 0.79045   2
  -7  -4   7 1.50983 0.86880   3
   6   4  -7 4.96754 1.25100   5
  -6  -4   7 7.06667 1.36166   3
  -6  -4   7 2.48520 1.32891   1
  -6  -4   7 4.28849 1.58785   2
   5   4  -7 -0.0560 0.60697   1
   5   4  -7 -0.3267 0.37780   5
  -5  -4   7 0.72622 1.12624   1
  -5  -4   7 -0.5409 0.47836   3
  -5  -4   7 -0.3711 0.80170   2
   4   4  -7 32.3227 2.06604   5
   4   4  -7 32.0257 3.02084   1
  -4  -4   7 22.6253 3.01117   1
  -4  -4   7 30.4217 3.54635   2
  -4  -4   7 30.6111 2.44388   3
   3   4  -7 11.7696 1.33616   5
   3   4  -7 14.6818 1.98160   2
   3   4  -7 13.5348 1.94329   1
  -3  -4   7 15.4014 1.55556   3
  -3  -4   7 15.1533 2.41689   2
  -3  -4   7 15.1311 2.12461   2
  -3  -4   7 16.4504 2.57201   1
   2   4  -7 0.28680 0.60477   1
   2   4  -7 -0.1542 0.53653   2
   2   4  -7 0.35256 0.35252   5
  -2  -4   7 -0.2368 0.80678   1
  -2  -4   7 0.48043 0.44534   3
  -2  -4   7 -0.0002 0.81011   2
   1   4  -7 65.5687 3.65988   2
   1   4  -7 63.5598 2.35275   5
   1   4  -7 62.3160 3.58295   1
  -1  -4   7 64.1586 4.15599   1
  -1  -4   7 64.0182 4.05324   2
   0   4  -7 12.9370 1.83958   1
   0   4  -7 12.8997 1.82493   2
   0   4  -7 14.5227 0.81270   5
   0  -4   7 15.8802 2.34860   2
   0  -4   7 11.5550 2.07975   1
  -1   4  -7 13.1653 0.67714   5
  -1   4  -7 12.6509 1.07028   3
  -1   4  -7 14.1692 1.93091   2
  -1   4  -7 15.3866 2.08311   1
   1  -4   7 13.4042 2.09107   2
   1  -4   7 11.3879 2.01820   1
  -2   4  -7 53.0421 3.70785   2
  -2   4  -7 56.2064 3.39716   1
  -2   4  -7 68.4835 3.62934   2
  -2   4  -7 64.8547 2.21220   3
  -2   4  -7 61.3238 2.04766   5
   2  -4   7 67.9403 4.06221   1
   2  -4   7 63.0351 3.26791   4
   2  -4   7 65.6773 3.76911   2
  -3   4  -7 6.70128 0.73264   5
  -3   4  -7 5.58876 1.27267   2
  -3   4  -7 6.95038 1.37013   1
  -3   4  -7 5.51525 1.48628   2
   3  -4   7 6.26901 1.32707   2
   3  -4   7 6.07075 1.08333   4
   3  -4   7 4.30907 1.29741   1
  -4   4  -7 4.58079 0.70018   5
  -4   4  -7 3.51662 0.99569   1
  -4   4  -7 4.12519 1.12806   2
  -4   4  -7 5.35750 1.48130   1
  -4   4  -7 2.20848 1.09332   2
   4  -4   7 6.61368 1.46190   1
   4  -4   7 5.60931 1.09787   4
   4  -4   7 4.37491 1.14723   2
  -5   4  -7 20.1269 2.24196   2
  -5   4  -7 22.5174 2.84146   1
  -5   4  -7 17.8291 2.13036   1
  -5   4  -7 12.6832 2.06912   2
   5  -4   7 19.1509 2.05928   4
   5  -4   7 21.8361 2.41986   1
   5  -4   7 21.0552 2.04832   2
  -6   4  -7 11.5277 1.70863   2
  -6   4  -7 13.0330 1.87695   1
   6  -4   7 13.8838 1.89990   4
  -7   4  -7 47.9227 3.15830   1
  -7   4  -7 49.9987 3.16644   2
  -8   4  -7 29.6306 2.90937   1
  -8   4  -7 22.0096 2.45564   2
  -9   4  -7 8.32120 1.63087   1
  -9   4  -7 9.94515 1.71352   2
 -10   4  -7 20.0847 2.47872   2
 -10   4  -7 17.2070 2.24900   1
   9   3  -7 9.00994 1.92453   5
  -9  -3   7 12.9342 2.58968   2
  -9  -3   7 6.24823 1.53850   3
  -9  -3   7 8.60287 2.24440   1
   8   3  -7 2.09740 1.02523   5
  -8  -3   7 4.54206 1.34273   3
  -8  -3   7 2.72764 1.40866   1
  -8  -3   7 2.22214 1.36389   2
   7   3  -7 18.9640 2.30357   5
  -7  -3   7 16.3424 2.65501   2
  -7  -3   7 17.9954 2.88181   1
  -7  -3   7 16.2679 2.04990   3
   6   3  -7 8.44834 1.51743   5
  -6  -3   7 7.50741 1.35335   3
  -6  -3   7 4.83375 1.59710   1
  -6  -3   7 5.96577 1.62798   2
   5   3  -7 30.8199 2.82574   1
   5   3  -7 34.8536 2.27156   5
  -5  -3   7 32.8526 3.59586   1
  -5  -3   7 34.8447 3.71082   2
  -5  -3   7 46.0178 3.80968   1
  -5  -3   7 36.6069 2.33334   3
   4   3  -7 0.22203 0.59174   2
   4   3  -7 -0.1634 0.39563   5
   4   3  -7 0.29961 0.59134   1
  -4  -3   7 -0.2635 0.38954   3
  -4  -3   7 -0.2765 0.79241   2
  -4  -3   7 -0.2800 0.84907   1
  -4  -3   7 0.73592 0.67850   2
   3   3  -7 71.0290 3.81738   1
   3   3  -7 71.4222 3.76224   2
   3   3  -7 72.3968 2.88201   5
  -3  -3   7 72.6782 4.34580   2
  -3  -3   7 72.1015 3.03259   3
  -3  -3   7 70.5112 3.80156   2
  -3  -3   7 78.2680 4.53494   1
   2   3  -7 -0.0170 0.25629   5
   2   3  -7 -0.3857 0.44573   2
   2   3  -7 -0.0747 0.52841   1
  -2  -3   7 -0.1950 0.49428   2
  -2  -3   7 -0.3554 0.61579   1
  -2  -3   7 0.16574 0.38457   3
  -2  -3   7 0.53545 0.75270   2
   1   3  -7 10.3483 1.58490   2
   1   3  -7 11.3970 0.70959   5
   1   3  -7 12.8646 1.81699   1
  -1  -3   7 11.1195 1.97841   2
  -1  -3   7 10.9759 1.05113   3
  -1  -3   7 11.5873 1.93805   1
   0   3  -7 1.26536 0.76548   1
   0   3  -7 1.11720 0.19348   5
   0   3  -7 1.38555 0.80299   2
   0  -3   7 -0.0688 0.61517   1
   0  -3   7 0.84423 0.83699   2
  -1   3  -7 20.2374 2.28492   2
  -1   3  -7 21.5605 1.04578   3
  -1   3  -7 23.0737 2.39281   1
   1  -3   7 23.2515 2.54581   2
   1  -3   7 17.5556 2.34888   1
  -2   3  -7 94.6117 4.87471   2
  -2   3  -7 95.9012 2.78016   5
  -2   3  -7 101.658 5.46626   1
  -2   3  -7 105.881 4.60640   2
  -2   3  -7 96.6651 4.51099   1
  -2   3  -7 96.2475 2.85968   3
   2  -3   7 109.733 5.12781   1
   2  -3   7 104.395 4.70919   2
   2  -3   7 102.034 3.87835   4
  -3   3  -7 47.4813 2.96058   1
  -3   3  -7 46.6691 1.78463   5
  -3   3  -7 45.8462 3.22068   2
  -3   3  -7 46.4484 1.50493   3
  -3   3  -7 50.6866 3.34614   1
  -3   3  -7 43.6886 2.83366   2
   3  -3   7 47.0660 3.19140   1
   3  -3   7 56.4945 2.68521   4
  -4   3  -7 30.2208 1.55592   5
  -4   3  -7 28.9661 3.00339   2
  -4   3  -7 35.2820 3.02616   1
  -4   3  -7 33.3801 3.23263   1
  -4   3  -7 26.5360 2.52309   2
   4  -3   7 34.9828 3.16557   1
   4  -3   7 31.9126 2.17539   2
   4  -3   7 28.5078 2.03618   4
  -5   3  -7 11.6116 2.02175   1
  -5   3  -7 10.2121 1.68261   1
  -5   3  -7 9.19445 1.72502   2
  -5   3  -7 9.76502 1.55677   2
   5  -3   7 9.24720 1.44546   4
   5  -3   7 7.52710 1.42908   1
  -6   3  -7 8.29165 1.54427   1
  -6   3  -7 7.79894 1.67554   2
  -6   3  -7 8.22420 1.49025   2
  -7   3  -7 1.56520 0.81883   1
  -7   3  -7 0.17926 0.56920   2
  -8   3  -7 21.5818 2.40648   2
  -8   3  -7 20.7566 2.39169   1
  -9   3  -7 -0.5171 0.60066   1
  -9   3  -7 0.30558 0.68164   2
 -10   3  -7 1.71133 0.97423   2
 -10   3  -7 2.27678 1.00617   1
  10   2  -7 0.64532 1.03397   5
 -10  -2   7 -1.9669 0.85882   1
 -10  -2   7 2.09958 1.24065   3
 -10  -2   7 0.89337 1.18343   2
   9   2  -7 -0.5105 0.71055   5
  -9  -2   7 0.34746 1.03926   2
  -9  -2   7 -1.4055 0.78883   1
  -9  -2   7 -0.3409 0.54774   3
   8   2  -7 2.73662 1.12218   5
  -8  -2   7 3.52997 1.44931   2
  -8  -2   7 2.23821 1.23477   1
  -8  -2   7 2.64576 1.02907   3
   7   2  -7 66.7739 3.66987   5
  -7  -2   7 70.9653 4.52553   2
  -7  -2   7 79.3298 3.88337   3
  -7  -2   7 72.6230 4.70638   1
   6   2  -7 52.1360 2.87846   5
  -6  -2   7 48.8880 2.84023   3
  -6  -2   7 45.4988 4.06990   2
  -6  -2   7 47.6186 4.29852   1
   5   2  -7 114.493 4.90275   1
   5   2  -7 115.187 4.73687   2
   5   2  -7 105.345 4.26087   5
  -5  -2   7 113.494 5.07704   2
  -5  -2   7 117.539 5.68356   2
  -5  -2   7 106.579 5.60487   1
  -5  -2   7 111.592 5.09729   1
  -5  -2   7 113.121 4.48480   3
   4   2  -7 0.66333 0.57561   2
   4   2  -7 0.69732 0.65039   1
   4   2  -7 0.47537 0.41851   5
  -4  -2   7 0.01227 0.77840   1
  -4  -2   7 1.10893 0.73438   2
  -4  -2   7 1.93791 1.02060   2
  -4  -2   7 1.66209 0.94968   1
  -4  -2   7 0.86439 0.53509   3
   3   2  -7 18.5928 2.14605   1
   3   2  -7 14.1781 1.78786   2
   3   2  -7 16.3922 1.33075   5
  -3  -2   7 17.3259 2.41450   2
  -3  -2   7 18.1592 2.12470   2
  -3  -2   7 16.2567 1.07844   5
  -3  -2   7 17.9182 2.49550   1
  -3  -2   7 18.5403 1.54646   3
   2   2  -7 115.031 4.86761   1
   2   2  -7 107.487 3.35733   5
   2   2  -7 103.335 4.69386   2
  -2  -2   7 111.359 3.71470   3
  -2  -2   7 109.948 5.37459   1
  -2  -2   7 110.872 3.29509   5
  -2  -2   7 110.378 5.19982   2
  -2  -2   7 105.827 4.72242   2
   1   2  -7 12.9078 1.79865   1
   1   2  -7 16.1016 1.90029   2
  -1  -2   7 12.1961 1.86841   2
  -1  -2   7 13.8877 0.91490   3
  -1  -2   7 12.0448 1.96645   1
   0   2  -7 7.58001 1.36440   2
   0   2  -7 7.69540 1.43820   1
   0  -2   7 6.88541 1.62172   1
   0  -2   7 10.4610 1.82667   2
  -1   2  -7 273.427 9.07702   1
  -1   2  -7 260.283 9.46798   2
  -1   2  -7 278.743 9.12020   2
   1  -2   7 271.980 8.05757   4
   1  -2   7 283.895 9.64526   1
   1  -2   7 277.566 9.28008   2
  -2   2  -7 0.20510 0.15780   5
  -2   2  -7 0.73018 0.77348   1
  -2   2  -7 -0.3248 0.57933   2
  -2   2  -7 0.55021 0.55559   1
  -2   2  -7 0.25079 0.52042   2
   2  -2   7 -0.0361 0.28492   4
   2  -2   7 -0.5452 0.46075   2
   2  -2   7 -0.6402 0.57303   1
  -3   2  -7 32.1296 2.87737   1
  -3   2  -7 28.7643 3.07271   1
  -3   2  -7 34.3947 2.42484   2
  -3   2  -7 30.1599 1.38590   5
  -3   2  -7 37.1970 3.24372   2
   3  -2   7 34.9516 2.30958   2
   3  -2   7 41.3045 3.39072   1
   3  -2   7 34.8976 2.06120   4
  -4   2  -7 103.851 5.00906   2
  -4   2  -7 104.065 2.86717   3
  -4   2  -7 110.844 4.75797   2
  -4   2  -7 106.640 4.71958   1
  -4   2  -7 107.457 5.15955   1
   4  -2   7 113.254 4.80517   1
   4  -2   7 114.136 4.47542   4
   4  -2   7 100.605 4.09661   2
  -5   2  -7 1.32491 0.89895   1
  -5   2  -7 0.91080 0.31915   3
  -5   2  -7 1.32382 0.78795   1
  -5   2  -7 0.12553 0.70917   2
  -5   2  -7 1.73344 0.82306   2
   5  -2   7 1.78269 0.76529   1
  -6   2  -7 0.22803 0.32245   3
  -6   2  -7 -0.3116 0.50480   1
  -6   2  -7 0.09353 0.58813   2
  -6   2  -7 0.57941 0.77970   2
  -7   2  -7 32.0007 1.62543   3
  -7   2  -7 29.6549 2.79710   1
  -7   2  -7 28.6933 2.64850   2
  -8   2  -7 23.6338 2.53716   1
  -8   2  -7 25.7728 2.64453   2
  -9   2  -7 0.16176 0.67257   2
 -10   2  -7 1.47329 0.99765   2
 -10  -1   7 0.49431 0.98145   2
 -10  -1   7 0.48325 1.06025   1
 -10  -1   7 0.09355 0.82059   3
  -9  -1   7 8.54496 2.04584   1
  -9  -1   7 10.9295 1.87363   3
  -9  -1   7 8.06029 1.90773   2
   8   1  -7 -0.0680 0.65850   5
  -8  -1   7 0.85478 0.89302   1
  -8  -1   7 -0.5251 0.71336   2
  -8  -1   7 0.48197 0.71668   3
   7   1  -7 1.88398 0.75855   5
  -7  -1   7 2.05644 0.89049   3
  -7  -1   7 1.36380 1.01516   2
  -7  -1   7 0.33823 0.98996   1
   6   1  -7 9.49386 1.40101   5
  -6  -1   7 9.47857 1.88626   1
  -6  -1   7 11.3003 1.82291   2
  -6  -1   7 8.39852 1.53674   1
  -6  -1   7 10.9286 1.50449   3
   5   1  -7 42.8420 2.26284   5
   5   1  -7 45.3873 2.69845   2
  -5  -1   7 45.1765 2.92090   2
  -5  -1   7 36.7920 3.42215   2
  -5  -1   7 46.6647 3.38115   1
  -5  -1   7 35.3645 2.67360   1
  -5  -1   7 46.8896 2.46321   3
   4   1  -7 -0.1954 0.48024   1
   4   1  -7 -0.0536 0.24117   2
  -4  -1   7 -0.5271 0.53540   2
  -4  -1   7 -0.0747 0.74026   1
  -4  -1   7 -0.2289 0.44047   2
  -4  -1   7 0.41078 0.42196   3
  -4  -1   7 0.41390 0.54915   1
   3   1  -7 0.78174 0.60305   2
   3   1  -7 -0.4277 0.43505   1
  -3  -1   7 -0.3594 0.44298   1
  -3  -1   7 0.23961 0.49620   2
  -3  -1   7 0.13068 0.67722   1
  -3  -1   7 0.14220 0.36225   3
  -3  -1   7 0.78944 0.82896   2
  -3  -1   7 0.05599 0.25370   5
   2   1  -7 0.15954 0.57439   1
   2   1  -7 0.28991 0.57490   2
  -2  -1   7 0.88002 0.26490   5
  -2  -1   7 0.63882 0.35680   3
  -2  -1   7 0.75296 0.73629   2
  -2  -1   7 0.94560 0.84082   1
  -2  -1   7 0.86792 0.60299   2
   1   1  -7 60.7718 3.33558   1
   1   1  -7 68.2249 3.44986   2
  -1  -1   7 60.4970 3.52490   2
  -1  -1   7 59.8213 3.68424   1
  -1  -1   7 63.2723 2.17662   3
   0   1  -7 545.343 15.9675   1
   0   1  -7 548.014 15.9750   2
   0  -1   7 547.450 13.8354   3
   0  -1   7 547.193 16.5121   1
   0  -1   7 578.135 14.7560   4
   0  -1   7 553.545 16.1729   2
  -1   1  -7 1.38836 0.79024   2
  -1   1  -7 1.15170 0.74827   1
  -1   1  -7 0.88774 0.81589   1
  -1   1  -7 2.22594 0.87417   2
   1  -1   7 1.06719 0.66280   2
   1  -1   7 0.93782 0.44383   4
   1  -1   7 1.86679 0.93722   1
  -2   1  -7 6.04862 1.35908   2
  -2   1  -7 6.32373 1.21419   2
  -2   1  -7 5.92045 1.18556   1
  -2   1  -7 7.03467 1.53776   1
   2  -1   7 9.59807 1.52006   2
   2  -1   7 7.57705 0.65925   5
   2  -1   7 6.69716 0.99051   4
   2  -1   7 6.93961 1.46124   1
  -3   1  -7 19.8019 1.13055   5
  -3   1  -7 20.0113 2.54690   1
  -3   1  -7 19.3406 2.13317   1
  -3   1  -7 24.1499 2.63180   2
  -3   1  -7 23.6936 2.29607   2
   3  -1   7 26.5182 2.59783   1
   3  -1   7 21.9264 1.23394   5
   3  -1   7 25.6607 2.18044   2
   3  -1   7 22.1476 1.92640   4
  -4   1  -7 0.70041 0.72972   1
  -4   1  -7 1.55172 0.89093   1
  -4   1  -7 1.13350 0.70724   2
  -4   1  -7 1.08405 0.73693   2
   4  -1   7 0.62455 0.44317   5
   4  -1   7 0.81657 0.50078   2
   4  -1   7 2.03918 0.82514   1
  -5   1  -7 184.417 6.70423   2
  -5   1  -7 178.626 6.70672   1
  -5   1  -7 173.982 7.08609   1
  -5   1  -7 172.730 6.84336   2
  -5   1  -7 182.031 4.85702   3
   5  -1   7 174.083 5.83309   5
   5  -1   7 162.162 5.91282   1
  -6   1  -7 3.51454 1.09523   2
  -6   1  -7 3.84130 0.61301   3
  -6   1  -7 2.48312 0.92908   1
   6  -1   7 2.37612 0.78447   5
  -7   1  -7 44.3706 1.99771   3
  -7   1  -7 40.9587 2.82260   2
   7  -1   7 42.1713 2.71432   5
  -8   1  -7 19.0806 2.30324   2
   8  -1   7 13.9295 2.05354   5
  -9   1  -7 2.91953 1.11290   2
   9  -1   7 6.66764 1.56940   5
 -11   0   7 0.72117 1.12662   3
 -11   0   7 5.38165 1.69364   1
 -11   0   7 0.15427 1.05609   2
 -10   0   7 0.73923 1.09749   1
 -10   0   7 0.53994 0.95980   2
 -10   0   7 0.30320 0.76820   3
  -9   0   7 0.91389 0.82115   3
  -9   0   7 0.42534 1.04774   2
  -9   0   7 -0.1275 0.87422   1
  -8   0   7 6.70135 1.45683   3
  -8   0   7 8.49917 1.88839   2
  -8   0   7 6.48853 1.77454   1
  -7   0   7 84.3687 4.64394   2
  -7   0   7 82.9248 4.76830   1
   6   0  -7 18.7683 1.95919   2
  -6   0   7 19.1189 2.56460   1
  -6   0   7 19.2597 2.48285   2
  -6   0   7 16.2089 2.17152   1
  -6   0   7 22.8118 2.49560   2
   5   0  -7 7.61182 1.35897   2
  -5   0   7 7.28943 1.48042   1
  -5   0   7 6.61958 1.43297   2
  -5   0   7 8.07216 1.66578   1
  -5   0   7 5.36366 1.34898   2
   4   0  -7 140.523 5.66832   2
  -4   0   7 147.882 6.15899   2
  -4   0   7 149.216 5.86801   2
  -4   0   7 144.426 5.79553   1
  -4   0   7 147.998 6.35915   1
   3   0  -7 3.03348 0.88356   2
   3   0  -7 1.17480 0.66621   1
  -3   0   7 2.96870 0.92687   2
  -3   0   7 3.22016 1.12459   2
  -3   0   7 4.31090 1.29524   1
  -3   0   7 3.20773 0.56113   5
  -3   0   7 2.14349 0.82998   1
   2   0  -7 37.9373 2.51825   2
   2   0  -7 34.6552 2.44837   1
  -2   0   7 25.1041 2.78695   1
  -2   0   7 32.4468 2.90249   2
  -2   0   7 33.1181 1.31142   5
   1   0  -7 35.0932 2.42291   1
   1   0  -7 28.9879 2.58396   2
  -1   0   7 37.8269 3.37714   1
  -1   0   7 30.5627 1.05170   5
  -1   0   7 28.7322 2.71266   2
   0   0  -7 24.6188 2.46129   2
   0   0  -7 28.9955 2.60896   1
   0   0  -7 25.4486 2.62168   2
   0   0   7 28.4611 1.41533   4
   0   0   7 27.7150 2.78488   1
   0   0   7 26.5616 0.92655   3
   0   0   7 31.5720 2.70762   2
   0   0   7 25.8233 0.89443   5
  -1   0  -7 100.387 4.41156   1
  -1   0  -7 89.4669 4.62569   1
  -1   0  -7 89.6501 4.47944   2
  -1   0  -7 96.6590 4.35276   2
   1   0   7 98.6489 3.42183   4
   1   0   7 95.2511 2.83842   5
   1   0   7 98.5093 4.64602   1
   1   0   7 93.7121 4.23705   2
  -2   0  -7 18.1758 2.36916   1
  -2   0  -7 14.2474 1.92308   2
  -2   0  -7 14.3834 1.86126   1
  -2   0  -7 16.9458 1.61627   4
  -2   0  -7 18.9467 2.06769   2
   2   0   7 17.8258 1.03254   5
   2   0   7 15.5291 1.44827   4
   2   0   7 21.8864 2.47803   1
  -3   0  -7 3.23246 1.10116   1
  -3   0  -7 5.23432 1.19476   2
  -3   0  -7 4.40031 1.17952   2
  -3   0  -7 6.44918 1.31854   1
   3   0   7 4.92857 1.11576   1
   3   0   7 4.50207 0.74287   5
   3   0   7 5.39206 0.98918   2
  -4   0  -7 -0.0131 0.61466   2
  -4   0  -7 -0.6688 0.45650   1
  -4   0  -7 0.05664 0.64877   1
  -4   0  -7 0.09864 0.56378   2
   4   0   7 -0.1412 0.36637   5
   4   0   7 0.20954 0.56676   1
  -5   0  -7 31.9931 2.85028   2
  -5   0  -7 24.3178 2.99906   1
  -5   0  -7 29.0257 2.86844   2
   5   0   7 28.0211 1.97560   1
   5   0   7 26.0813 2.23756   5
  -6   0  -7 12.4499 1.81211   2
  -6   0  -7 10.9625 1.03714   3
   6   0   7 8.01033 1.38018   5
  -7   0  -7 0.48007 0.64944   2
   7   0   7 0.42402 0.75562   5
  -8   0  -7 5.03465 1.34089   2
   8   0   7 6.26167 1.47149   5
  -9   0  -7 3.43188 1.22657   2
   9   0   7 1.59656 1.11768   5
 -11   1   7 -0.5075 0.78983   2
 -11   1   7 0.63839 1.03614   1
 -11   1   7 1.44478 1.04550   3
 -10   1   7 12.5447 2.21025   2
 -10   1   7 13.6273 2.33350   1
  -9   1   7 0.39608 0.89655   2
  -9   1   7 0.31758 0.95730   1
  -8   1   7 150.217 6.48356   2
  -8   1   7 141.527 6.61005   1
  -7   1   7 15.2424 2.26903   2
  -7   1   7 22.0048 2.78074   1
  -7   1   7 21.2149 2.58338   2
  -7   1   7 20.2103 2.60423   1
   6  -1  -7 1.99613 0.88578   2
  -6   1   7 1.89448 0.95576   2
  -6   1   7 3.17521 1.00084   2
  -6   1   7 1.95683 1.13878   1
  -6   1   7 1.50791 0.88768   1
   5  -1  -7 54.5327 3.04405   2
  -5   1   7 49.3354 3.05567   1
  -5   1   7 45.2026 3.32796   1
  -5   1   7 47.1742 3.02928   2
  -5   1   7 55.4964 3.39976   2
   4  -1  -7 22.9062 2.35652   2
  -4   1   7 23.8534 2.56565   2
  -4   1   7 19.9087 2.59151   1
  -4   1   7 23.3549 2.44384   1
  -4   1   7 21.4105 2.33528   2
   3  -1  -7 113.565 4.91555   2
  -3   1   7 118.145 5.37201   1
  -3   1   7 111.229 5.01723   2
  -3   1   7 113.364 3.67995   5
  -3   1   7 116.409 4.97821   2
   2  -1  -7 190.980 7.14959   2
  -2   1   7 200.303 7.60641   1
  -2   1   7 201.612 7.31920   2
   1  -1  -7 54.5810 3.17991   2
  -1   1   7 56.8895 3.24110   2
  -1   1   7 51.0634 3.35723   1
  -1   1   7 57.9350 1.99972   4
   0  -1  -7 165.664 6.38616   2
   0  -1  -7 159.236 6.52380   2
   0   1   7 177.944 4.79425   5
   0   1   7 175.589 6.79907   1
   0   1   7 169.961 5.03512   4
   0   1   7 179.294 6.43772   2
  -1  -1  -7 1.56179 0.81217   1
  -1  -1  -7 1.97861 0.88192   2
  -1  -1  -7 0.80242 0.65507   2
  -1  -1  -7 0.11548 0.59197   4
   1   1   7 0.79305 0.60246   2
   1   1   7 1.20846 0.36072   5
   1   1   7 1.78096 0.91414   1
  -2  -1  -7 1.82553 0.87366   2
  -2  -1  -7 2.20047 0.59384   4
  -2  -1  -7 1.69060 0.94050   1
  -2  -1  -7 2.13876 0.88261   2
   2   1   7 1.94851 0.51469   5
   2   1   7 1.59810 0.84131   1
   2   1   7 2.75028 0.83863   2
  -3  -1  -7 1.07022 0.76008   2
  -3  -1  -7 0.73343 0.76774   1
  -3  -1  -7 0.60232 0.63622   2
   3   1   7 2.30434 0.71077   2
   3   1   7 1.70409 0.58452   5
   3   1   7 1.11073 0.71168   1
  -4  -1  -7 16.4515 2.28462   1
  -4  -1  -7 16.4581 2.12347   2
  -4  -1  -7 20.1729 2.25958   2
   4   1   7 15.3309 1.77936   1
   4   1   7 18.5976 1.78475   5
  -5  -1  -7 15.6917 2.05458   2
   5   1   7 17.0026 1.90521   5
  -6  -1  -7 5.32622 1.34129   2
   6   1   7 7.73604 1.37930   5
  -7  -1  -7 1.18037 0.82129   2
   7   1   7 -0.7366 0.45605   5
  -8  -1  -7 0.44557 0.78328   2
   8   1   7 -0.7948 0.70059   5
  -9  -1  -7 -0.8874 0.79230   2
   9   1   7 0.58202 0.96465   5
 -11   2   7 14.0610 2.42310   1
 -11   2   7 15.3209 2.51778   2
 -10   2   7 2.14662 1.11758   2
 -10   2   7 -0.7574 0.87665   1
  -9   2   7 33.3469 3.56399   1
  -9   2   7 43.2651 3.76403   2
  -8   2   7 9.93349 1.95870   1
  -8   2   7 9.57075 1.84111   2
  -7   2   7 3.60766 1.16149   2
  -7   2   7 5.34293 1.55713   1
  -7   2   7 6.83705 1.51534   2
  -7   2   7 1.93324 0.92904   1
   6  -2  -7 134.417 5.31830   2
   6  -2  -7 133.011 5.32233   2
  -6   2   7 135.802 5.82267   2
  -6   2   7 125.037 5.50651   1
  -6   2   7 121.313 5.47327   2
  -6   2   7 132.301 6.04939   1
   5  -2  -7 0.32254 0.41513   2
  -5   2   7 0.07533 0.61538   2
  -5   2   7 1.66216 0.96829   1
  -5   2   7 2.50119 1.08092   2
  -5   2   7 2.25757 0.90450   1
   4  -2  -7 6.90020 1.39193   2
  -4   2   7 8.28429 1.54282   2
  -4   2   7 9.54951 1.81732   1
  -4   2   7 7.01392 1.41181   2
  -4   2   7 11.6461 1.94387   1
   3  -2  -7 15.9248 2.05702   2
  -3   2   7 13.0964 2.00456   1
  -3   2   7 12.8286 2.92659   2
  -3   2   7 11.9868 1.79686   2
   2  -2  -7 3.80728 1.09790   2
  -2   2   7 4.40145 1.22408   1
  -2   2   7 4.35474 0.38929   4
  -2   2   7 2.66159 0.98071   2
   1  -2  -7 61.4991 3.53965   2
  -1   2   7 68.6874 3.90039   1
  -1   2   7 65.1787 3.49784   2
   0  -2  -7 24.1808 2.54384   2
   0  -2  -7 25.5236 2.73796   2
   0   2   7 23.1774 1.22786   5
   0   2   7 26.9891 2.48987   2
   0   2   7 24.7962 2.60906   1
  -1  -2  -7 13.0400 1.16219   4
  -1  -2  -7 13.4465 2.12497   1
  -1  -2  -7 9.26838 1.63987   2
  -1  -2  -7 12.1319 1.80857   2
   1   2   7 11.6236 1.58030   2
   1   2   7 12.5238 1.12311   5
   1   2   7 13.0880 1.92077   1
   1   2   7 11.3612 0.63777   3
  -2  -2  -7 20.9295 2.47516   2
  -2  -2  -7 22.5509 1.50850   4
  -2  -2  -7 22.1651 2.72754   1
  -2  -2  -7 22.4472 2.51105   2
   2   2   7 26.8252 2.66649   1
   2   2   7 20.3710 1.96971   2
   2   2   7 22.6314 1.46295   5
  -3  -2  -7 -0.3467 0.63437   1
  -3  -2  -7 0.30427 0.69328   2
  -3  -2  -7 -0.1400 0.59929   2
   3   2   7 0.40298 0.46392   2
   3   2   7 -0.0839 0.57886   1
   3   2   7 -0.1040 0.40241   5
  -4  -2  -7 54.4987 3.51996   2
  -4  -2  -7 61.1214 4.37863   1
  -4  -2  -7 53.6732 3.83937   2
   4   2   7 64.2303 3.14306   1
   4   2   7 59.9996 3.03284   5
  -5  -2  -7 3.06864 1.15403   2
   5   2   7 5.13854 1.21477   5
  -6  -2  -7 6.40198 1.56827   2
   6   2   7 7.82288 1.49096   5
  -7  -2  -7 1.35884 0.96605   2
   7   2   7 1.37182 0.91135   5
  -8  -2  -7 2.71875 1.15517   2
   8   2   7 0.30029 0.98026   5
 -12   3   7 14.1287 2.47044   1
 -12   3   7 7.70779 1.93991   2
 -11   3   7 4.97928 1.63645   1
 -11   3   7 2.93176 1.32742   2
 -10   3   7 22.6981 3.04324   1
 -10   3   7 17.5240 2.53746   2
  -9   3   7 1.89323 1.15659   1
  -9   3   7 1.58130 1.03195   2
  -8   3   7 35.4093 3.66024   1
  -8   3   7 35.9298 3.41366   2
  -7   3   7 12.0205 2.09611   1
  -7   3   7 10.1192 1.86084   1
  -7   3   7 16.1782 2.23094   2
  -7   3   7 13.9654 2.08541   2
   6  -3  -7 18.5984 2.18780   2
   6  -3  -7 21.1221 2.33300   2
  -6   3   7 16.8121 2.19331   1
  -6   3   7 17.1192 2.38886   1
  -6   3   7 18.5640 2.32528   2
  -6   3   7 20.8383 2.45080   2
   5  -3  -7 2.97819 0.97273   2
  -5   3   7 2.63930 1.02423   2
  -5   3   7 5.64693 1.50944   1
  -5   3   7 1.90016 0.87577   2
  -5   3   7 3.32924 1.17626   1
   4  -3  -7 1.04760 0.75430   2
  -4   3   7 0.58681 0.63746   2
  -4   3   7 0.35468 0.65812   2
  -4   3   7 1.29150 0.22187   4
  -4   3   7 1.24784 0.97789   1
   3  -3  -7 29.5057 2.88342   2
  -3   3   7 19.8463 2.48590   1
  -3   3   7 25.7608 2.56951   2
   2  -3  -7 2.18148 0.94704   2
  -2   3   7 1.92536 0.98901   1
  -2   3   7 2.62222 0.91224   2
   1  -3  -7 136.399 5.85590   2
  -1   3   7 130.532 5.86998   1
  -1   3   7 140.000 5.56144   2
   0  -3  -7 17.5978 1.02025   4
   0  -3  -7 17.9852 2.30819   2
   0  -3  -7 21.1986 2.54746   2
   0   3   7 19.9351 2.53146   1
   0   3   7 18.1575 2.04388   2
  -1  -3  -7 0.63190 0.72187   2
  -1  -3  -7 0.93331 0.40040   4
  -1  -3  -7 0.42628 0.66719   2
   1   3   7 0.76126 0.30579   3
   1   3   7 -0.0268 0.65210   1
   1   3   7 0.15722 0.38832   5
   1   3   7 1.36831 0.64307   2
  -2  -3  -7 27.1278 2.83560   2
  -2  -3  -7 31.1588 3.04236   2
  -2  -3  -7 28.9819 3.33775   1
   2   3   7 30.7173 1.87436   5
   2   3   7 27.3378 1.35527   3
   2   3   7 27.6940 2.76051   1
   2   3   7 29.2689 2.03605   2
  -3  -3  -7 9.04799 1.74509   2
  -3  -3  -7 10.4688 1.97834   1
  -3  -3  -7 12.0856 1.90442   2
   3   3   7 12.9563 1.63382   5
   3   3   7 11.3199 1.68611   1
  -4  -3  -7 56.5106 3.73430   2
   4   3   7 49.8467 2.87798   5
  -5  -3  -7 1.64250 1.05055   2
   5   3   7 1.46835 0.82643   5
  -6  -3  -7 6.17989 1.64963   2
   6   3   7 5.29882 1.45436   5
  -7  -3  -7 2.81252 1.18926   2
   7   3   7 0.09130 0.81758   5
  -8  -3  -7 0.96470 1.15299   2
  -8  -3  -7 0.59465 1.07075   1
   8   3   7 -0.2868 0.77153   5
 -12   4   7 -0.3796 0.85409   2
 -12   4   7 -0.3272 0.92746   1
 -11   4   7 12.4713 2.17318   2
 -11   4   7 12.4085 2.35307   1
 -10   4   7 2.52566 1.33992   1
 -10   4   7 3.44515 1.21818   2
  -9   4   7 17.1024 2.37026   2
  -9   4   7 17.8429 2.66265   1
  -8   4   7 2.33694 1.08417   2
  -8   4   7 4.53329 1.50885   1
  -7   4   7 21.5056 1.35962   4
  -7   4   7 14.8098 2.19059   1
  -7   4   7 20.9509 2.69509   1
  -7   4   7 17.2745 2.27080   2
   6  -4  -7 64.2450 3.66686   2
  -6   4   7 56.1809 3.59785   2
  -6   4   7 56.5441 3.89223   1
  -6   4   7 63.3343 3.71420   2
  -6   4   7 57.6986 2.18121   4
   5  -4  -7 13.7683 1.99833   2
   5  -4  -7 14.1445 2.05380   2
  -5   4   7 16.4221 2.17437   2
  -5   4   7 13.9217 0.65977   4
  -5   4   7 14.1085 2.16872   2
  -5   4   7 10.1590 1.87588   1
  -4   4   7 49.4844 3.19335   2
  -4   4   7 46.3590 3.39165   1
   3  -4  -7 42.4950 3.69864   2
  -3   4   7 53.3044 3.61021   1
  -3   4   7 55.7785 3.27577   2
   2  -4  -7 52.9737 3.52906   2
  -2   4   7 48.8713 3.43036   1
  -2   4   7 59.8100 3.38404   2
   1  -4  -7 0.56159 0.72306   2
   1  -4  -7 1.51608 0.29738   4
  -1   4   7 0.61026 0.77842   1
  -1   4   7 1.63277 0.85676   2
   0  -4  -7 27.8464 3.01028   2
   0  -4  -7 23.3354 1.24811   4
   0  -4  -7 22.3996 2.88479   2
   0   4   7 23.8214 2.67624   1
   0   4   7 19.3834 2.11313   2
  -1  -4  -7 13.5336 2.09719   2
  -1  -4  -7 13.3287 1.29353   4
  -1  -4  -7 15.0736 2.23849   2
   1   4   7 14.9138 1.82202   2
   1   4   7 15.6547 2.24475   1
   1   4   7 13.6956 1.47476   5
  -2  -4  -7 2.11692 1.06901   2
  -2  -4  -7 2.17520 1.11887   2
   2   4   7 2.88791 0.81090   5
   2   4   7 1.85785 0.98362   1
  -3  -4  -7 25.2211 3.01475   2
   3   4   7 20.3041 2.10965   5
   3   4   7 26.9521 2.61023   1
  -4  -4  -7 0.36082 0.86125   2
   4   4   7 1.45318 0.82543   5
  -5  -4  -7 3.89683 1.44779   2
   5   4   7 7.85752 1.59745   5
  -6  -4  -7 0.12565 0.97249   2
   6   4   7 0.38160 0.73368   5
  -7  -4  -7 4.30291 1.55741   1
  -7  -4  -7 3.98644 1.53674   2
  -7  -4  -7 2.21046 1.39581   2
   7   4   7 1.45049 1.14893   5
 -12   5   7 0.59219 0.99903   2
 -12   5   7 0.36515 1.02120   1
 -11   5   7 5.86607 1.60562   2
 -11   5   7 5.61469 1.69837   1
 -10   5   7 1.30226 1.07303   1
 -10   5   7 -0.6263 0.74320   2
  -9   5   7 5.27547 1.50600   2
  -9   5   7 3.83708 1.41747   1
  -8   5   7 10.3858 1.90131   2
  -8   5   7 13.4167 2.31017   1
   7  -5  -7 0.74077 0.77800   1
  -7   5   7 -0.9353 0.69977   1
  -7   5   7 1.26159 0.40736   4
  -7   5   7 0.29054 0.76859   2
   6  -5  -7 0.08682 0.80712   2
  -6   5   7 -0.7423 0.55233   2
  -6   5   7 1.23425 0.92621   2
  -6   5   7 -1.0593 0.54879   1
   5  -5  -7 12.6701 2.05968   2
  -5   5   7 14.3731 2.06106   2
  -5   5   7 10.5146 1.93564   1
   4  -5  -7 41.7550 3.80888   2
   4  -5  -7 35.4229 3.55668   2
  -4   5   7 33.3554 3.17036   2
  -4   5   7 40.3940 3.81280   1
   3  -5  -7 6.48840 1.54264   2
   3  -5  -7 3.79244 1.28298   2
  -3   5   7 7.54701 1.69600   1
  -3   5   7 8.52416 1.57710   2
   2  -5  -7 1.53493 0.97239   2
  -2   5   7 3.61759 1.39524   1
  -2   5   7 2.12018 0.93821   2
   1  -5  -7 66.5575 2.24978   4
   1  -5  -7 70.1179 4.32774   2
  -1   5   7 69.3075 3.74658   2
  -1   5   7 68.4595 4.13773   1
   0  -5  -7 17.3825 2.51202   2
   0  -5  -7 19.4491 1.22070   4
   0   5   7 19.5447 2.18953   2
   0   5   7 18.3970 2.40439   1
  -1  -5  -7 7.81360 1.07687   4
  -1  -5  -7 9.56241 2.06240   2
   1   5   7 2.46714 0.86520   2
   1   5   7 7.39423 1.57181   1
   1   5   7 8.83181 1.35771   5
  -2  -5  -7 3.86793 1.37862   2
   2   5   7 3.88913 1.24061   1
   2   5   7 2.89858 0.93025   5
  -3  -5  -7 2.19874 1.33776   2
   3   5   7 2.60751 0.99032   5
  -4  -5  -7 0.98399 1.01739   2
  -4  -5  -7 1.29974 1.22711   2
   4   5   7 0.62082 0.80221   5
  -5  -5  -7 -1.3175 0.66878   2
  -5  -5  -7 -0.2919 0.80346   2
  -5  -5  -7 0.16815 0.87651   1
   5   5   7 0.84522 0.94115   5
  -6  -5  -7 1.45713 1.10378   1
  -6  -5  -7 0.26711 1.14444   2
   6   5   7 -0.0803 0.93012   5
 -12   6   7 2.78297 1.33746   1
 -12   6   7 -0.2346 0.97335   2
 -11   6   7 0.38620 1.02144   1
 -11   6   7 -0.9042 0.64989   2
 -10   6   7 3.84424 1.45479   1
 -10   6   7 3.41776 1.24875   2
  -9   6   7 24.7762 2.96105   2
  -9   6   7 24.6323 3.20105   1
  -8   6   7 0.33408 0.95719   2
  -8   6   7 1.46832 1.01660   1
   7  -6  -7 -0.2045 0.72084   1
  -7   6   7 -0.3272 0.91266   1
  -7   6   7 -0.0124 0.75583   2
   6  -6  -7 22.6452 2.89334   2
   6  -6  -7 22.4615 2.82374   1
  -6   6   7 20.4540 2.96376   1
  -6   6   7 24.9899 2.99855   2
   5  -6  -7 6.72882 1.72593   2
  -5   6   7 9.71086 2.07317   1
  -5   6   7 7.39110 1.62038   2
   4  -6  -7 -0.0141 0.82648   2
  -4   6   7 -0.2469 0.70483   2
  -4   6   7 -0.9017 0.60460   1
   3  -6  -7 292.655 10.5060   2
  -3   6   7 256.416 10.0075   1
  -3   6   7 268.668 9.50015   2
   2  -6  -7 83.7960 2.41059   4
   2  -6  -7 97.0359 5.28506   2
   2  -6  -7 79.7376 4.93827   2
  -2   6   7 85.5317 4.85911   1
  -2   6   7 83.7953 4.44264   2
   1  -6  -7 46.4323 4.21600   2
   1  -6  -7 44.7797 4.14927   2
  -1   6   7 44.6503 3.09722   2
  -1   6   7 52.4908 3.66636   1
   0  -6  -7 -0.0737 0.74408   2
   0  -6  -7 0.71216 0.94132   2
   0   6   7 0.31036 0.67131   2
   0   6   7 0.73121 0.83364   1
  -1  -6  -7 17.6044 2.81146   2
  -1  -6  -7 19.8086 2.99586   2
   1   6   7 18.4933 2.03095   5
   1   6   7 19.4714 2.64922   1
  -2  -6  -7 -0.1939 0.78417   2
  -2  -6  -7 -0.2236 0.85334   2
   2   6   7 -0.4941 0.46410   5
  -3  -6  -7 1.25205 1.22650   1
  -3  -6  -7 2.33340 1.44426   2
  -3  -6  -7 0.81444 1.21942   2
   3   6   7 1.69846 0.98977   5
  -4  -6  -7 -0.4516 0.96622   2
  -4  -6  -7 0.33599 0.96771   1
   4   6   7 1.35259 0.92186   5
  -5  -6  -7 14.2227 2.72145   1
  -5  -6  -7 18.3040 3.09208   2
   5   6   7 14.1823 2.25466   5
 -12   7   7 -0.5945 1.03195   1
 -12   7   7 0.50576 0.99686   2
 -11   7   7 3.65691 1.47053   2
 -11   7   7 5.67356 1.84423   1
 -10   7   7 6.36410 1.62598   2
 -10   7   7 1.71313 1.33854   1
  -9   7   7 8.17702 1.82732   2
  -9   7   7 9.50253 2.12904   1
  -8   7   7 5.63906 1.53040   2
  -8   7   7 2.35502 1.48003   1
   7  -7  -7 6.77869 1.75316   1
  -7   7   7 10.3039 1.96895   2
  -7   7   7 7.89707 1.99102   1
   6  -7  -7 20.6684 2.75160   1
   6  -7  -7 24.5073 3.45953   2
  -6   7   7 19.5965 2.57898   2
  -6   7   7 23.0042 3.15544   1
   5  -7  -7 4.45274 1.45775   1
   5  -7  -7 2.38105 1.36634   2
  -5   7   7 2.39843 1.21036   1
  -5   7   7 2.10448 1.11214   2
   4  -7  -7 22.4369 2.98549   1
   4  -7  -7 24.4234 3.20052   2
  -4   7   7 31.8457 3.67241   1
  -4   7   7 23.5095 2.71820   2
   3  -7  -7 56.6150 4.84308   1
   3  -7  -7 54.1234 4.98564   2
  -3   7   7 55.3299 4.01556   1
  -3   7   7 50.1328 3.45333   2
   2  -7  -7 151.659 7.20914   1
   2  -7  -7 155.646 7.49940   2
  -2   7   7 160.316 6.66438   2
  -2   7   7 146.489 6.98279   1
   1  -7  -7 3.85704 1.54244   2
   1  -7  -7 5.63436 1.71021   1
  -1   7   7 6.45222 1.73943   1
  -1   7   7 5.12017 1.40874   2
   0  -7  -7 13.6048 2.56620   2
   0  -7  -7 15.1249 2.57203   1
   0   7   7 13.2381 2.15173   1
   0   7   7 15.3614 1.86138   5
  -1  -7  -7 21.4618 3.16137   2
  -1  -7  -7 19.6767 2.99466   1
   1   7   7 23.4228 2.87548   1
   1   7   7 19.0755 2.21350   5
  -2  -7  -7 17.7746 3.02659   2
  -2  -7  -7 20.7657 3.30908   1
   2   7   7 20.4682 2.38827   5
  -3  -7  -7 3.51508 1.70815   2
  -3  -7  -7 3.64677 1.74461   1
   3   7   7 3.40336 1.25838   5
  -4  -7  -7 0.34601 1.14681   2
  -4  -7  -7 0.03893 1.12844   1
   4   7   7 1.13294 0.97354   5
 -12   8   7 1.02242 1.18529   1
 -12   8   7 -0.8704 0.80767   2
 -11   8   7 1.63707 1.42400   1
 -11   8   7 1.59076 1.14297   2
 -10   8   7 2.29754 1.46048   1
 -10   8   7 1.70472 1.22032   2
  -9   8   7 1.98071 1.30469   1
  -9   8   7 6.67242 1.74785   2
  -8   8   7 7.55263 1.85510   2
  -8   8   7 12.0525 2.33102   1
   7  -8  -7 54.0156 4.69152   1
  -7   8   7 48.0000 4.20788   2
  -7   8   7 57.1202 4.96598   1
   6  -8  -7 8.29568 1.97799   1
  -6   8   7 13.2446 2.45401   1
  -6   8   7 9.96033 1.94394   2
   5  -8  -7 3.07256 1.52627   2
   5  -8  -7 5.74199 1.80416   1
  -5   8   7 5.80192 1.72415   1
  -5   8   7 6.91503 1.73441   2
   4  -8  -7 -0.7398 0.77190   2
   4  -8  -7 -0.8243 0.81163   1
  -4   8   7 0.07111 0.65988   2
  -4   8   7 0.17006 0.98459   1
   3  -8  -7 89.5329 5.73029   2
   3  -8  -7 109.554 6.05545   1
  -3   8   7 98.3074 5.59178   1
  -3   8   7 90.1221 4.98467   2
   2  -8  -7 37.3500 4.34566   2
   2  -8  -7 31.4191 3.76553   1
  -2   8   7 30.6479 3.55801   1
  -2   8   7 29.9936 3.16870   2
   1  -8  -7 4.81345 1.79770   2
   1  -8  -7 12.8064 2.70763   1
  -1   8   7 6.18687 1.70251   1
   0  -8  -7 1.33291 1.26536   2
   0  -8  -7 2.82412 1.40748   1
   0   8   7 1.53471 1.13423   1
   0   8   7 2.77779 0.94043   5
  -1  -8  -7 -0.2109 0.95791   1
  -1  -8  -7 -0.3762 0.94549   2
   1   8   7 0.86844 0.76442   5
  -2  -8  -7 -0.1683 1.12034   1
  -2  -8  -7 2.15295 1.41181   2
   2   8   7 0.71928 0.96604   5
  -3  -8  -7 -0.5161 1.13701   2
  -3  -8  -7 -0.6497 1.26310   1
   3   8   7 -0.1014 0.85075   5
 -11   9   7 -0.0373 0.97925   2
 -11   9   7 -0.1143 1.27734   1
 -10   9   7 6.09925 1.87674   1
 -10   9   7 2.03583 1.33339   2
  -9   9   7 4.36216 1.55416   2
  -9   9   7 6.25303 2.07099   1
  -8   9   7 3.54161 1.60919   1
  -8   9   7 4.68821 1.67669   2
   7  -9  -7 12.8940 2.53166   1
  -7   9   7 11.3810 2.37416   1
  -7   9   7 13.9283 2.38655   2
   6  -9  -7 62.1761 5.45321   1
  -6   9   7 54.9606 5.15033   1
  -6   9   7 55.6354 3.95807   2
   5  -9  -7 13.8752 2.86668   2
   5  -9  -7 14.9523 2.70875   1
  -5   9   7 13.4483 2.60784   1
  -5   9   7 11.7718 2.19854   2
   4  -9  -7 6.70613 2.21179   2
   4  -9  -7 8.04558 2.18360   1
  -4   9   7 3.26239 1.23517   2
  -4   9   7 7.62849 1.92203   1
   3  -9  -7 11.1355 2.59497   2
   3  -9  -7 5.82759 1.90323   1
  -3   9   7 6.42550 1.83336   1
  -3   9   7 7.00777 1.68099   2
   2  -9  -7 0.45460 1.10875   1
   2  -9  -7 3.74789 1.74139   2
  -2   9   7 0.86261 0.94716   1
   1  -9  -7 7.27520 2.11885   1
   1  -9  -7 10.0209 2.53591   2
  -1   9   7 12.4270 2.38396   1
   0  -9  -7 6.56051 2.19187   2
   0  -9  -7 3.44963 1.69685   1
   0   9   7 1.22547 0.91136   5
  -1  -9  -7 -0.7608 0.78826   1
  -1  -9  -7 -0.6375 1.25599   2
   1   9   7 -0.2313 0.66747   5
  -2  -9  -7 5.24730 2.11680   1
  -2  -9  -7 2.71577 1.96135   2
   2   9   7 2.83304 1.28921   5
 -11  10   7 4.08338 1.65692   2
 -11  10   7 2.23125 1.67504   1
 -10  10   7 3.13116 1.87089   1
 -10  10   7 3.99013 1.56984   2
  -9  10   7 2.74582 1.43037   1
  -9  10   7 2.20866 1.30849   2
  -8  10   7 29.0075 3.63386   2
  -8  10   7 26.6631 3.73581   1
   7 -10  -7 -0.9297 1.00519   1
  -7  10   7 1.60311 1.32139   1
  -7  10   7 -0.7142 0.70749   2
   6 -10  -7 -0.1487 1.12867   1
  -6  10   7 0.95451 1.22408   1
  -6  10   7 1.75655 1.17750   2
   5 -10  -7 10.5685 2.53731   1
  -5  10   7 4.75636 1.81675   1
  -5  10   7 7.21719 1.89068   2
   4 -10  -7 -0.0524 0.92925   2
   4 -10  -7 0.43958 1.20708   1
  -4  10   7 0.56213 1.11160   1
  -4  10   7 0.35008 0.82141   2
   3 -10  -7 4.95999 1.93460   2
   3 -10  -7 4.91169 1.79960   1
  -3  10   7 4.94467 1.78020   1
   2 -10  -7 18.9233 3.35517   1
   2 -10  -7 15.9784 3.23186   2
  -2  10   7 11.8384 2.52402   1
   1 -10  -7 0.95528 1.40303   1
   1 -10  -7 -0.1560 1.23419   2
  -1  10   7 -0.4014 0.99957   1
   0 -10  -7 0.53405 1.50962   2
   0 -10  -7 -0.2552 1.09621   1
   0  10   7 1.33545 0.99710   5
  -1 -10  -7 2.91984 1.84632   2
  -1 -10  -7 3.00495 1.90020   1
   1  10   7 2.62848 1.29169   5
 -10  11   7 0.73623 1.25625   2
 -10  11   7 1.51445 1.26385   1
  -9  11   7 1.89668 1.36105   2
  -9  11   7 0.34933 1.04795   1
  -8  11   7 7.91852 2.24121   1
  -8  11   7 4.09287 1.63685   2
   7 -11  -7 -0.6949 1.17529   1
  -7  11   7 0.55362 1.15579   1
  -7  11   7 -0.1822 0.88019   2
   6 -11  -7 12.8357 2.90106   1
  -6  11   7 9.25502 2.40715   1
  -6  11   7 7.21853 2.09424   2
   5 -11  -7 6.10114 2.16084   1
  -5  11   7 6.97270 2.12307   1
  -5  11   7 6.49344 2.00839   2
   4 -11  -7 2.27392 1.76218   1
  -4  11   7 1.83403 1.36912   1
   3 -11  -7 -0.1886 1.25507   1
   3 -11  -7 0.36441 1.52766   2
  -3  11   7 -0.4025 0.97133   1
   2 -11  -7 1.55803 1.47074   1
   2 -11  -7 1.00856 1.39868   2
  -2  11   7 1.14001 1.34381   1
   1 -11  -7 1.66117 1.67133   2
   1 -11  -7 -0.1270 1.38421   1
  -1  11   7 -0.4472 0.66610   5
  -9  12   7 -0.6448 0.82453   2
  -9  12   7 0.99248 1.44652   1
  -8  12   7 19.8217 3.60137   1
  -8  12   7 17.7267 3.15473   2
   7 -12  -7 -0.5543 1.96646   1
  -7  12   7 0.57887 1.22979   1
  -7  12   7 -0.3789 0.88975   2
   6 -12  -7 1.15894 1.48444   1
  -6  12   7 1.79011 1.60907   1
   5 -12  -7 8.55234 2.54925   1
  -5  12   7 11.5657 2.70503   1
   4 -12  -7 8.51319 2.54291   1
  -4  12   7 8.29386 2.39247   1
   3 -12  -7 3.67139 2.12389   1
  -3  12   7 5.14315 2.01484   1
   1 -12   8 5.77766 2.51265   1
  -2  12  -8 -0.9262 1.04397   1
   2 -12   8 -0.0823 1.44912   1
  -3  12  -8 -0.4378 1.08575   1
   3 -12   8 0.78953 1.60128   1
  -4  12  -8 2.95432 1.72943   1
   4 -12   8 5.51232 2.31951   1
  -5  12  -8 0.25564 1.16509   2
  -5  12  -8 -0.3589 1.17215   1
   5 -12   8 -4.3981 1.77418   4
  -6  12  -8 6.08075 1.99727   2
  -6  12  -8 3.68150 1.82522   1
   6 -12   8 5.01951 1.50686   4
   1  11  -8 1.10725 1.01876   5
  -1 -11   8 0.42788 1.64043   1
  -1 -11   8 0.48879 1.59670   2
   0  11  -8 1.72188 1.48537   1
   0  11  -8 5.16933 1.26882   5
   0 -11   8 6.23187 2.50746   1
   0 -11   8 1.27890 1.77450   2
  -1  11  -8 1.39519 1.23108   1
  -1  11  -8 1.29250 0.84407   5
   1 -11   8 -0.0848 1.44334   1
  -2  11  -8 0.09593 0.63099   5
  -2  11  -8 1.50038 1.25474   1
   2 -11   8 -0.9084 1.11342   1
  -3  11  -8 0.64785 1.18697   2
  -3  11  -8 0.70013 1.22477   1
   3 -11   8 1.52028 1.59211   1
  -4  11  -8 -0.4727 0.95948   2
  -4  11  -8 -0.0403 0.95087   1
   4 -11   8 0.29305 1.23584   1
   4 -11   8 4.55491 2.40584   4
  -5  11  -8 1.96275 1.37785   2
  -5  11  -8 0.99990 1.23571   1
   5 -11   8 0.18585 1.45036   4
  -6  11  -8 13.3762 2.80520   1
  -6  11  -8 17.3643 2.97277   2
   6 -11   8 10.4305 2.02007   4
  -7  11  -8 14.3115 2.79572   1
  -7  11  -8 19.5034 3.19832   2
   7 -11   8 16.6234 2.52961   4
  -8  11  -8 15.3925 2.90737   1
  -8  11  -8 13.7081 2.78732   2
   8 -11   8 13.8305 2.46396   4
   3  10  -8 0.18845 0.77413   5
  -3 -10   8 1.32277 1.84075   1
  -3 -10   8 2.20115 1.76269   2
   2  10  -8 6.76460 1.55391   5
  -2 -10   8 6.08228 2.50856   1
  -2 -10   8 7.23544 2.61955   2
   1  10  -8 7.11089 2.28075   1
   1  10  -8 7.34277 1.49335   5
  -1 -10   8 9.78291 2.73844   2
  -1 -10   8 9.93421 2.76667   1
   0  10  -8 -0.4033 1.02076   1
   0  10  -8 0.72547 0.71698   5
   0 -10   8 0.53453 1.36713   1
   0 -10   8 -0.6689 1.26064   2
  -1  10  -8 6.84893 1.29651   5
  -1  10  -8 5.00402 1.68869   1
   1 -10   8 7.90233 2.39056   2
   1 -10   8 3.17042 1.81718   1
  -2  10  -8 36.5483 4.09695   1
  -2  10  -8 39.0758 2.40741   5
  -2  10  -8 36.4729 4.08558   2
   2 -10   8 38.7832 5.10337   1
  -3  10  -8 8.14058 2.01128   2
  -3  10  -8 6.50222 2.01412   1
   3 -10   8 14.7979 3.02492   1
  -4  10  -8 1.51922 1.13598   2
  -4  10  -8 -0.5467 0.87320   1
   4 -10   8 1.72052 2.26109   4
   4 -10   8 1.68513 1.63630   1
  -5  10  -8 -1.0187 0.80795   1
  -5  10  -8 -0.8930 0.79593   2
   5 -10   8 0.72794 1.17554   4
   5 -10   8 -0.0917 1.10821   1
  -6  10  -8 1.83609 1.32703   2
  -6  10  -8 1.55152 1.31835   1
   6 -10   8 0.25969 0.76241   4
  -7  10  -8 0.31868 1.06111   2
  -7  10  -8 -0.5666 0.81165   1
   7 -10   8 0.51663 0.81010   4
  -8  10  -8 1.54323 1.41823   1
  -8  10  -8 1.86075 1.28969   2
   8 -10   8 4.24202 1.41699   4
  -9  10  -8 3.57354 1.77911   1
  -9  10  -8 1.42719 1.34327   2
   9 -10   8 2.58148 1.37418   4
   4   9  -8 2.08779 1.13535   5
  -4  -9   8 4.71540 2.15895   1
  -4  -9   8 5.05065 2.29859   2
   3   9  -8 3.99767 1.32631   5
  -3  -9   8 2.43348 1.87387   1
  -3  -9   8 1.76940 1.73183   2
   2   9  -8 0.71226 0.73726   5
  -2  -9   8 0.26477 1.34576   2
  -2  -9   8 1.44225 1.55481   1
   1   9  -8 2.03578 1.31628   1
   1   9  -8 1.30106 0.84384   5
  -1  -9   8 2.25134 1.59567   1
  -1  -9   8 0.69725 1.38593   2
   0   9  -8 1.44676 1.17527   1
   0   9  -8 1.36306 0.66332   5
   0  -9   8 0.90361 1.49048   1
   0  -9   8 -0.1169 1.40336   2
  -1   9  -8 4.88022 1.64143   2
  -1   9  -8 10.0432 2.25830   1
  -1   9  -8 4.67074 1.01137   5
   1  -9   8 7.98013 2.32716   2
   1  -9   8 6.90657 2.28722   1
  -2   9  -8 12.2623 2.34806   2
  -2   9  -8 9.47107 2.09320   1
   2  -9   8 14.2317 3.01127   1
   2  -9   8 12.8300 2.73173   2
  -3   9  -8 32.3160 3.70035   1
  -3   9  -8 29.0654 3.56169   2
   3  -9   8 28.8517 4.03117   1
  -4   9  -8 24.4651 3.34707   1
  -4   9  -8 31.5637 3.66365   2
   4  -9   8 24.0784 3.22401   4
   4  -9   8 31.0917 4.23765   1
  -5   9  -8 23.5066 3.18665   1
  -5   9  -8 26.8091 3.29141   2
   5  -9   8 26.1687 2.84791   4
   5  -9   8 23.5731 3.52810   1
  -6   9  -8 0.23221 0.86579   2
  -6   9  -8 1.18876 0.99818   1
   6  -9   8 -0.7714 0.61111   4
  -7   9  -8 9.86369 2.21315   1
  -7   9  -8 8.01455 1.96280   2
   7  -9   8 7.76080 1.78079   4
  -8   9  -8 -0.8728 0.77009   2
  -8   9  -8 -0.0089 0.92450   1
   8  -9   8 0.17331 0.87588   4
  -9   9  -8 2.61472 1.40444   1
  -9   9  -8 0.69971 1.00278   2
   9  -9   8 0.03921 0.80792   4
   5   8  -8 0.57181 0.95227   5
  -5  -8   8 -0.9158 1.35290   2
  -5  -8   8 1.94103 1.63364   1
   4   8  -8 0.44771 0.83511   5
  -4  -8   8 0.31354 1.31250   2
  -4  -8   8 0.28463 1.24788   1
   3   8  -8 5.75419 1.27845   5
  -3  -8   8 2.88455 1.76547   2
  -3  -8   8 2.90643 1.69923   1
   2   8  -8 -0.3401 0.55809   5
   2   8  -8 0.06375 0.90055   1
  -2  -8   8 -0.4459 0.99707   2
  -2  -8   8 0.69467 1.29325   1
   1   8  -8 3.22738 1.32663   1
   1   8  -8 3.78845 0.98734   5
  -1  -8   8 4.84151 1.87527   2
  -1  -8   8 1.44476 1.51505   1
   0   8  -8 12.6944 1.49882   5
   0   8  -8 16.6224 2.61539   1
   0   8  -8 15.9017 2.59701   2
   0  -8   8 14.6912 2.87552   2
   0  -8   8 11.4906 2.52799   1
  -1   8  -8 6.68853 1.77783   1
  -1   8  -8 8.61973 1.18259   5
  -1   8  -8 7.51622 1.76761   2
   1  -8   8 5.46095 1.84182   2
   1  -8   8 6.88727 2.17090   1
  -2   8  -8 21.7066 2.98617   2
  -2   8  -8 16.0318 2.63817   1
   2  -8   8 24.5225 3.67685   1
   2  -8   8 22.4224 3.37985   2
  -3   8  -8 7.27941 1.78410   2
  -3   8  -8 14.2402 2.49364   1
   3  -8   8 7.76418 2.14877   2
   3  -8   8 7.05023 2.08237   1
  -4   8  -8 19.3429 2.83234   1
  -4   8  -8 19.9354 2.82008   2
   4  -8   8 19.2046 3.08204   1
   4  -8   8 16.8595 2.39539   4
  -5   8  -8 5.89921 1.65088   2
  -5   8  -8 6.57430 1.75576   1
   5  -8   8 9.17977 1.68494   4
   5  -8   8 5.14122 1.76507   1
  -6   8  -8 31.2301 3.50823   2
  -6   8  -8 33.5379 3.79047   1
   6  -8   8 32.7534 3.24763   4
  -7   8  -8 4.55577 1.46091   2
  -7   8  -8 4.67186 1.64095   1
   7  -8   8 2.93096 1.18993   4
  -8   8  -8 3.65846 1.49373   2
  -8   8  -8 3.07811 1.47077   1
   8  -8   8 5.41719 1.62534   4
  -9   8  -8 0.09546 1.06882   1
  -9   8  -8 1.29008 1.07225   2
   9  -8   8 0.69527 1.03485   4
   6   7  -8 0.63477 0.92567   5
  -6  -7   8 1.14337 1.54425   2
  -6  -7   8 0.82976 1.45607   1
   5   7  -8 18.2223 2.37699   5
  -5  -7   8 17.6278 3.38857   2
  -5  -7   8 21.4916 3.79126   1
   4   7  -8 0.96666 0.80419   5
  -4  -7   8 -0.6395 1.02719   2
  -4  -7   8 0.77307 1.41066   1
   3   7  -8 0.71251 1.01613   1
   3   7  -8 0.27048 0.58107   5
  -3  -7   8 0.56765 1.27458   1
  -3  -7   8 -0.3071 1.24342   2
   2   7  -8 30.4862 3.33645   1
   2   7  -8 30.1152 2.42556   5
  -2  -7   8 27.2475 3.74709   2
  -2  -7   8 19.1373 3.19885   1
   1   7  -8 2.78437 1.24326   2
   1   7  -8 4.23970 0.89655   5
   1   7  -8 3.24644 1.25826   1
  -1  -7   8 3.24767 1.64572   1
  -1  -7   8 4.13937 1.66788   2
   0   7  -8 14.8094 1.44294   5
   0   7  -8 12.6859 2.17330   2
   0   7  -8 12.0388 2.17165   1
   0  -7   8 14.4521 2.73096   2
   0  -7   8 18.4104 3.19485   1
  -1   7  -8 10.7289 1.14299   5
  -1   7  -8 10.1061 2.00079   1
  -1   7  -8 10.0530 1.90106   2
   1  -7   8 10.3558 2.37233   1
   1  -7   8 15.1339 2.87401   2
  -2   7  -8 18.1966 2.60903   1
  -2   7  -8 16.1197 2.43372   2
   2  -7   8 16.7403 2.88179   2
   2  -7   8 20.1374 3.28820   1
  -3   7  -8 58.7014 3.94692   1
  -3   7  -8 56.6540 3.83025   2
   3  -7   8 41.1250 3.73955   4
   3  -7   8 55.9833 5.03109   1
   3  -7   8 63.8680 5.34508   2
  -4   7  -8 23.6229 2.88380   2
  -4   7  -8 30.9082 3.38356   1
   4  -7   8 27.7556 3.51892   1
   4  -7   8 33.2880 2.92378   4
  -5   7  -8 -0.0205 0.68979   1
  -5   7  -8 0.68132 0.99023   2
   5  -7   8 1.23661 1.10202   1
   5  -7   8 0.67338 0.69277   4
  -6   7  -8 -0.2319 0.69354   1
  -6   7  -8 1.06868 0.91485   2
   6  -7   8 1.08810 0.82272   4
  -7   7  -8 29.0098 3.27257   1
  -7   7  -8 26.6316 3.13652   2
   7  -7   8 29.3292 3.07783   4
  -8   7  -8 2.61630 1.21063   1
  -8   7  -8 1.46242 1.05087   2
   8  -7   8 2.94210 1.17085   4
  -9   7  -8 3.77786 1.47814   1
  -9   7  -8 1.26006 1.06564   2
   9  -7   8 5.08682 1.59739   4
 -10   7  -8 0.93609 1.11314   2
 -10   7  -8 3.10233 1.33174   1
   7   6  -8 0.92198 0.96950   5
  -7  -6   8 0.93873 1.31470   2
  -7  -6   8 -0.4774 0.83091   3
  -7  -6   8 0.70288 1.45496   1
   6   6  -8 1.18234 0.96273   5
  -6  -6   8 3.90330 1.88628   1
  -6  -6   8 0.95078 1.33899   2
  -6  -6   8 2.03948 1.11716   3
   5   6  -8 20.7796 2.39241   5
  -5  -6   8 16.6419 3.12606   1
  -5  -6   8 16.1078 3.03930   2
  -5  -6   8 16.6448 2.17136   3
   4   6  -8 10.6740 1.65769   5
  -4  -6   8 13.5032 2.77590   1
  -4  -6   8 11.6773 2.70221   2
   3   6  -8 19.8983 2.65622   1
   3   6  -8 21.4730 2.07053   5
  -3  -6   8 23.6813 3.54264   1
  -3  -6   8 30.3852 3.92174   2
   2   6  -8 1.34193 1.10020   2
   2   6  -8 1.32785 1.09237   1
   2   6  -8 3.53865 0.85179   5
  -2  -6   8 0.94182 1.17339   1
  -2  -6   8 2.09482 1.33629   2
   1   6  -8 27.0727 1.65013   5
   1   6  -8 28.7689 3.16337   1
   1   6  -8 23.6855 2.82309   2
  -1  -6   8 37.7037 4.29811   2
  -1  -6   8 30.6220 3.99408   1
   0   6  -8 47.6271 4.12904   2
   0   6  -8 39.7696 1.90130   5
   0   6  -8 34.5824 3.45042   1
   0  -6   8 50.4260 5.01897   1
   0  -6   8 46.7406 4.66361   2
  -1   6  -8 34.8827 3.48749   2
  -1   6  -8 28.5969 1.44538   5
  -1   6  -8 25.9456 2.95210   1
   1  -6   8 25.2716 3.45514   1
   1  -6   8 30.0680 3.51748   2
  -2   6  -8 22.8090 2.89627   1
  -2   6  -8 20.2080 2.61226   2
   2  -6   8 14.8475 2.55179   2
   2  -6   8 14.5396 2.62630   1
  -3   6  -8 7.46199 1.64884   2
  -3   6  -8 9.15830 1.80578   1
   3  -6   8 8.48769 1.94300   1
   3  -6   8 5.43703 1.49613   4
   3  -6   8 6.97408 1.76807   2
  -4   6  -8 18.6157 2.46745   1
  -4   6  -8 24.0826 2.86250   2
   4  -6   8 25.0550 3.37113   1
   4  -6   8 24.3840 2.48081   4
  -5   6  -8 9.22217 1.86804   2
  -5   6  -8 7.07395 1.64516   1
   5  -6   8 6.02126 1.70678   1
   5  -6   8 7.14522 1.45078   4
  -6   6  -8 1.15292 0.95384   2
  -6   6  -8 1.42299 0.92632   1
   6  -6   8 1.69772 0.98611   4
  -7   6  -8 0.81779 0.84693   1
  -7   6  -8 0.14050 0.82525   2
   7  -6   8 -0.1145 0.58559   4
  -8   6  -8 -1.0748 0.65586   1
  -8   6  -8 0.46576 0.80478   2
   8  -6   8 -0.0139 0.72235   4
  -9   6  -8 25.4372 3.03006   2
  -9   6  -8 19.2267 2.73776   1
 -10   6  -8 3.92196 1.31388   1
 -10   6  -8 1.97507 1.19499   2
   8   5  -8 2.30420 1.34100   5
  -8  -5   8 2.47566 1.67235   2
  -8  -5   8 3.80535 1.35934   3
  -8  -5   8 3.90028 1.82419   1
   7   5  -8 0.16595 0.85627   5
  -7  -5   8 -0.6125 1.09099   1
  -7  -5   8 0.06951 1.08801   2
  -7  -5   8 -0.0153 0.73119   3
   6   5  -8 1.99721 1.01977   5
  -6  -5   8 1.55290 1.38482   2
  -6  -5   8 3.64787 1.77146   1
  -6  -5   8 1.42126 0.98260   3
   5   5  -8 2.51485 0.86121   5
  -5  -5   8 3.78153 1.07560   3
  -5  -5   8 3.43174 1.72399   2
  -5  -5   8 1.68210 1.50615   1
   4   5  -8 3.32348 1.23302   1
   4   5  -8 4.57828 1.02696   5
  -4  -5   8 4.73065 1.10933   3
  -4  -5   8 3.34724 1.53213   2
  -4  -5   8 4.23133 1.70290   1
   3   5  -8 15.5258 2.24041   1
   3   5  -8 17.0441 1.71453   5
  -3  -5   8 20.1844 1.96571   3
  -3  -5   8 15.9799 2.66100   1
  -3  -5   8 17.4916 2.81298   2
   2   5  -8 0.32156 0.87842   1
   2   5  -8 0.64841 0.77621   2
   2   5  -8 0.53476 0.45151   5
  -2  -5   8 0.08886 0.89603   2
  -2  -5   8 0.91750 0.98276   1
   1   5  -8 84.3969 4.64813   1
   1   5  -8 82.7289 3.02525   5
   1   5  -8 81.9438 4.54168   2
  -1  -5   8 83.4368 5.27803   1
  -1  -5   8 87.0689 5.19947   2
   0   5  -8 14.8348 2.18676   2
   0   5  -8 13.0214 2.09479   1
   0   5  -8 16.5938 0.98669   5
   0  -5   8 16.0348 2.53553   2
   0  -5   8 12.5400 2.43583   1
  -1   5  -8 0.30320 0.73756   2
  -1   5  -8 0.08994 0.21493   5
  -1   5  -8 0.65475 0.78591   1
   1  -5   8 -0.0667 0.98922   1
   1  -5   8 0.58935 0.93307   2
  -2   5  -8 0.75373 0.82346   2
  -2   5  -8 1.35829 0.89326   1
   2  -5   8 0.91458 1.01160   2
   2  -5   8 -0.2998 0.74992   1
   2  -5   8 1.40637 1.21371   4
  -3   5  -8 12.8949 1.07141   3
  -3   5  -8 13.1384 0.88766   5
  -3   5  -8 16.2388 2.21057   2
  -3   5  -8 12.5198 1.97276   1
   3  -5   8 12.3613 2.12945   2
   3  -5   8 13.5851 1.68357   4
   3  -5   8 16.8033 2.61588   1
  -4   5  -8 12.3199 2.00010   2
  -4   5  -8 11.9401 1.22852   5
  -4   5  -8 12.6866 2.06337   1
   4  -5   8 13.3050 1.76912   4
   4  -5   8 9.10053 2.07040   1
  -5   5  -8 66.5424 3.94926   2
  -5   5  -8 68.3035 4.00323   1
   5  -5   8 58.7335 3.41810   4
   5  -5   8 63.3811 4.08760   1
  -6   5  -8 18.5636 2.44959   2
  -6   5  -8 16.8920 2.45040   1
   6  -5   8 17.0065 2.16488   4
  -7   5  -8 28.1507 3.10282   1
  -7   5  -8 33.9355 3.29630   2
   7  -5   8 32.3401 3.18934   4
  -8   5  -8 -0.0386 0.75850   1
  -8   5  -8 -0.6476 0.56732   2
  -9   5  -8 5.00569 1.49700   1
  -9   5  -8 2.72086 1.20354   2
 -10   5  -8 -0.7258 0.86650   2
 -10   5  -8 -0.2708 0.84031   1
   8   4  -8 0.65528 0.98686   5
  -8  -4   8 0.50905 1.34106   1
  -8  -4   8 0.29595 0.91903   3
  -8  -4   8 0.59562 1.28661   2
   7   4  -8 11.9899 1.94315   5
  -7  -4   8 12.6837 2.66492   1
  -7  -4   8 12.1354 1.87321   3
  -7  -4   8 9.18956 2.30694   2
   6   4  -8 3.79716 1.15505   5
  -6  -4   8 5.15322 1.27077   3
  -6  -4   8 2.48877 1.47827   1
  -6  -4   8 4.61102 1.72996   2
   5   4  -8 14.8099 1.79464   5
  -5  -4   8 9.96978 2.27319   2
  -5  -4   8 9.80046 2.26563   1
  -5  -4   8 14.5405 1.81626   3
   4   4  -8 25.7648 2.16270   5
   4   4  -8 23.5687 2.71349   1
  -4  -4   8 21.9945 2.06564   3
  -4  -4   8 26.5693 3.47950   1
  -4  -4   8 23.4146 3.29786   2
   3   4  -8 56.1325 3.52714   2
   3   4  -8 56.4760 3.60755   1
   3   4  -8 53.4021 2.50472   5
  -3  -4   8 55.7621 4.82368   2
  -3  -4   8 60.6339 4.34555   1
  -3  -4   8 52.2199 2.68260   3
   2   4  -8 0.35940 0.73322   1
   2   4  -8 -0.5701 0.52895   2
   2   4  -8 0.65996 0.35284   5
  -2  -4   8 0.25583 0.41838   3
  -2  -4   8 1.24509 1.12470   1
  -2  -4   8 0.19075 0.83113   2
   1   4  -8 0.71185 0.32987   5
   1   4  -8 -0.0680 0.53079   2
   1   4  -8 -0.0739 0.76409   1
  -1  -4   8 0.49628 0.94817   1
  -1  -4   8 -0.0337 0.97268   2
   0   4  -8 6.87545 1.48042   2
   0   4  -8 8.10483 0.54013   5
   0   4  -8 6.06422 1.47302   1
   0  -4   8 9.22673 1.96013   2
   0  -4   8 10.6867 2.13168   1
  -1   4  -8 305.870 8.74394   3
  -1   4  -8 317.657 8.05937   5
  -1   4  -8 317.423 10.8876   1
  -1   4  -8 341.873 11.0360   2
   1  -4   8 334.592 11.3721   2
   1  -4   8 338.835 11.7538   1
  -2   4  -8 26.9103 0.98981   5
  -2   4  -8 29.6371 2.99182   1
  -2   4  -8 27.3611 1.26818   3
  -2   4  -8 28.5775 2.92075   2
   2  -4   8 30.2537 2.15818   4
   2  -4   8 28.0307 3.19382   1
   2  -4   8 23.8734 2.79008   2
  -3   4  -8 54.8629 3.41140   2
  -3   4  -8 51.3703 4.52038   2
  -3   4  -8 62.5604 3.68713   1
  -3   4  -8 49.7917 1.81016   3
  -3   4  -8 51.8589 1.88778   5
   3  -4   8 55.7375 3.54170   2
   3  -4   8 58.8005 3.95556   1
   3  -4   8 54.2124 2.88891   4
  -4   4  -8 48.5546 2.07844   5
  -4   4  -8 52.0975 3.43063   1
  -4   4  -8 56.8494 3.50234   2
  -4   4  -8 51.4524 4.49028   2
   4  -4   8 54.2875 3.02075   4
   4  -4   8 52.1685 3.64117   1
   4  -4   8 55.5745 3.31895   2
  -5   4  -8 5.39610 1.34731   1
  -5   4  -8 6.41589 1.45569   2
  -5   4  -8 6.64620 1.94220   1
   5  -4   8 5.04164 1.20971   4
   5  -4   8 6.46442 1.48746   1
  -6   4  -8 0.93476 0.81953   1
  -6   4  -8 0.16055 0.69805   2
   6  -4   8 0.82719 0.73677   4
  -7   4  -8 0.59974 0.76043   2
  -7   4  -8 -0.4893 0.64813   1
  -8   4  -8 10.7245 1.92070   1
  -8   4  -8 5.76047 1.44142   2
  -9   4  -8 7.04482 1.64715   2
  -9   4  -8 4.11788 1.26373   1
 -10   4  -8 3.55002 1.30131   1
 -10   4  -8 0.52924 0.98378   2
   9   3  -8 1.94260 1.10406   5
  -9  -3   8 6.76163 1.60170   3
  -9  -3   8 5.08094 1.94630   1
  -9  -3   8 5.48753 2.08282   2
   8   3  -8 4.60614 1.41340   5
  -8  -3   8 4.71444 1.80160   1
  -8  -3   8 3.71024 1.60287   2
  -8  -3   8 4.03949 1.29680   3
   7   3  -8 11.7576 1.84272   5
  -7  -3   8 7.93499 2.13649   1
  -7  -3   8 9.36613 2.29270   2
  -7  -3   8 11.4568 1.79517   3
   6   3  -8 10.1638 1.54892   5
  -6  -3   8 6.83825 1.36591   3
  -6  -3   8 5.03301 1.72999   1
  -6  -3   8 10.0627 2.23754   2
   5   3  -8 5.84691 1.10640   5
   5   3  -8 5.00075 1.35664   1
  -5  -3   8 4.69509 1.62548   1
  -5  -3   8 5.21177 1.11434   3
  -5  -3   8 3.72031 1.43875   2
   4   3  -8 0.93878 0.80076   1
   4   3  -8 2.28592 0.66506   5
   4   3  -8 0.09030 0.40649   2
  -4  -3   8 2.06470 1.21323   2
  -4  -3   8 2.02450 0.73204   3
  -4  -3   8 -0.0442 0.92843   1
   3   3  -8 122.848 5.42730   2
   3   3  -8 126.596 5.58107   1
   3   3  -8 118.277 4.10387   5
  -3  -3   8 125.782 6.17337   2
  -3  -3   8 117.516 6.14812   1
  -3  -3   8 121.921 4.39937   3
   2   3  -8 0.40700 0.31442   5
   2   3  -8 0.44439 0.66124   1
   2   3  -8 0.88709 0.79059   2
  -2  -3   8 0.45391 0.44835   3
  -2  -3   8 -0.2527 0.69532   2
  -2  -3   8 0.35391 0.77702   1
   1   3  -8 53.8335 3.30085   2
   1   3  -8 47.7799 1.57894   5
   1   3  -8 44.5264 3.12864   1
  -1  -3   8 52.2563 4.31389   2
  -1  -3   8 45.3270 1.99020   3
  -1  -3   8 40.0956 3.87935   1
   0   3  -8 155.999 6.37576   1
   0   3  -8 154.541 6.36692   2
   0  -3   8 161.064 6.80231   2
   0  -3   8 146.834 6.79066   1
  -1   3  -8 3.42171 1.12988   2
  -1   3  -8 2.00679 0.95357   1
   1  -3   8 1.24641 1.06991   1
   1  -3   8 3.37845 1.15281   4
   1  -3   8 4.19172 1.33780   2
  -2   3  -8 0.08983 0.66006   1
  -2   3  -8 0.35955 0.89242   2
  -2   3  -8 0.67697 0.68134   2
   2  -3   8 -0.9743 0.59556   1
   2  -3   8 0.33124 0.72149   2
   2  -3   8 -0.1422 0.43162   4
  -3   3  -8 51.0098 3.21815   2
  -3   3  -8 37.2619 3.63181   2
  -3   3  -8 41.8008 1.57854   5
  -3   3  -8 39.6343 2.88805   1
   3  -3   8 51.1082 3.51302   1
   3  -3   8 43.4201 2.47831   4
  -4   3  -8 22.6031 2.87623   2
  -4   3  -8 17.6483 2.28780   2
  -4   3  -8 16.0978 2.53569   1
  -4   3  -8 17.9281 1.13642   5
  -4   3  -8 16.3844 2.17382   1
   4  -3   8 17.5068 1.92032   4
   4  -3   8 16.6341 2.03242   2
   4  -3   8 18.3387 2.47725   1
  -5   3  -8 36.4087 4.28452   1
  -5   3  -8 31.3662 2.99943   2
  -5   3  -8 40.0439 3.48798   1
   5  -3   8 37.4155 2.57275   4
   5  -3   8 38.6676 3.27130   1
  -6   3  -8 0.29192 0.70399   1
  -6   3  -8 -0.4078 0.55639   2
  -7   3  -8 13.2147 2.08422   1
  -7   3  -8 13.4317 2.05543   2
  -8   3  -8 5.79675 1.41581   2
  -8   3  -8 3.71447 1.28873   1
  -9   3  -8 -0.0554 0.83829   1
  -9   3  -8 0.44515 0.80832   2
   9   2  -8 -0.2656 0.75121   5
  -9  -2   8 -0.3877 0.86716   2
  -9  -2   8 -0.1316 0.75807   3
  -9  -2   8 0.93738 1.32625   1
   8   2  -8 0.68320 0.69418   5
  -8  -2   8 1.32986 0.89972   3
  -8  -2   8 0.52737 1.23291   1
  -8  -2   8 2.39234 1.31763   2
   7   2  -8 18.7764 2.16909   5
  -7  -2   8 17.7472 2.14970   3
  -7  -2   8 13.9128 2.47929   2
  -7  -2   8 14.5970 2.52886   1
   6   2  -8 1.24672 0.69765   5
  -6  -2   8 1.65364 0.78538   3
  -6  -2   8 0.49605 1.04038   1
  -6  -2   8 0.66881 0.98019   2
   5   2  -8 78.2368 3.33542   5
   5   2  -8 71.6154 3.95787   1
  -5  -2   8 72.7125 4.60906   2
  -5  -2   8 73.9228 3.45507   3
  -5  -2   8 72.5126 4.72442   1
   4   2  -8 15.1832 1.46261   5
   4   2  -8 14.1273 1.97078   2
   4   2  -8 21.5242 2.56324   1
  -4  -2   8 15.6525 1.61842   3
  -4  -2   8 17.0622 2.23607   2
  -4  -2   8 13.9049 2.30242   1
  -4  -2   8 14.2804 2.27569   2
   3   2  -8 20.0899 2.34458   2
   3   2  -8 21.4046 2.53760   1
  -3  -2   8 19.0984 2.60599   1
  -3  -2   8 18.1265 1.13051   5
  -3  -2   8 20.9703 1.70459   3
  -3  -2   8 18.5584 2.55557   2
  -3  -2   8 18.1988 2.48450   2
   2   2  -8 117.393 5.15774   2
   2   2  -8 107.619 5.07967   1
  -2  -2   8 117.704 5.82311   1
  -2  -2   8 109.645 5.48321   2
  -2  -2   8 116.055 3.85212   3
   1   2  -8 128.021 5.51482   2
   1   2  -8 124.960 5.46337   1
  -1  -2   8 114.191 5.64801   2
  -1  -2   8 130.354 6.13054   1
  -1  -2   8 123.733 3.85231   3
   0   2  -8 70.9248 3.89354   2
   0   2  -8 72.5709 3.94872   1
   0  -2   8 79.8591 4.55219   1
   0  -2   8 79.1814 4.29478   2
  -1   2  -8 0.25100 0.66046   1
  -1   2  -8 -0.0704 0.58619   2
   1  -2   8 -0.0949 0.39988   4
   1  -2   8 0.17342 0.75171   2
   1  -2   8 0.54755 0.78155   1
  -2   2  -8 4.10627 1.10173   2
  -2   2  -8 3.38669 1.06778   1
  -2   2  -8 2.01467 0.99178   2
   2  -2   8 1.75783 0.98751   1
   2  -2   8 3.70038 1.08524   2
   2  -2   8 3.40989 0.81881   4
  -3   2  -8 6.91275 1.61655   2
  -3   2  -8 5.99446 0.64468   5
  -3   2  -8 6.02393 1.56612   1
  -3   2  -8 6.93028 1.49578   1
  -3   2  -8 3.80173 1.18239   2
   3  -2   8 4.62736 1.10885   2
   3  -2   8 7.76593 1.21074   4
   3  -2   8 3.00546 1.18840   1
  -4   2  -8 106.312 4.98834   1
  -4   2  -8 108.316 5.52381   1
  -4   2  -8 106.235 5.37743   2
  -4   2  -8 108.864 5.05431   2
   4  -2   8 116.053 5.14906   1
   4  -2   8 100.674 4.34739   2
   4  -2   8 107.960 4.54021   4
  -5   2  -8 11.3477 1.84304   2
  -5   2  -8 9.63596 1.70031   1
   5  -2   8 8.64142 1.51672   1
  -6   2  -8 14.9346 2.11840   1
  -6   2  -8 12.4075 1.90351   2
  -7   2  -8 3.72002 1.19879   1
  -7   2  -8 3.04644 1.15249   2
  -8   2  -8 1.09754 0.96571   2
  -8   2  -8 0.50258 0.86480   1
  -9   2  -8 2.76410 1.11090   2
 -10  -1   8 0.15643 1.15529   1
 -10  -1   8 -0.2083 0.94126   2
 -10  -1   8 -1.3918 0.56167   3
  -9  -1   8 2.50121 1.35365   2
  -9  -1   8 1.94361 1.35053   1
  -9  -1   8 1.69351 0.96078   3
  -8  -1   8 1.52797 0.90977   3
  -8  -1   8 2.14188 1.23421   2
  -8  -1   8 0.87760 1.14888   1
  -7  -1   8 1.44900 0.84088   3
  -7  -1   8 1.67160 1.17591   1
  -7  -1   8 1.66519 1.15965   2
  -6  -1   8 61.0916 4.05955   2
  -6  -1   8 58.0243 3.04545   3
  -6  -1   8 44.6341 4.29046   1
   5   1  -8 -0.5379 0.59280   2
  -5  -1   8 0.16025 0.60780   3
  -5  -1   8 -0.4802 0.71971   2
  -5  -1   8 0.35524 0.67733   2
  -5  -1   8 -0.1231 0.75116   1
   4   1  -8 60.0207 3.57784   1
   4   1  -8 53.1961 3.31105   2
  -4  -1   8 64.9085 4.03075   2
  -4  -1   8 66.5268 4.23809   1
  -4  -1   8 59.2854 3.56871   2
  -4  -1   8 67.0915 2.87453   3
   3   1  -8 0.54213 0.66105   2
   3   1  -8 0.97342 0.77229   1
  -3  -1   8 1.43889 0.91199   2
  -3  -1   8 0.90147 0.37775   5
  -3  -1   8 1.93454 1.02908   1
  -3  -1   8 0.33134 0.42239   3
   2   1  -8 54.2621 3.27892   2
   2   1  -8 52.5100 3.30344   1
  -2  -1   8 51.1903 1.73083   5
  -2  -1   8 48.1123 3.35694   2
  -2  -1   8 54.8139 3.74013   1
  -2  -1   8 59.0947 2.25735   3
   1   1  -8 113.972 5.19182   2
   1   1  -8 121.383 5.36694   1
  -1  -1   8 120.308 3.64794   3
  -1  -1   8 124.693 5.58784   2
  -1  -1   8 124.862 5.89381   1
   0   1  -8 301.073 9.95483   1
   0   1  -8 306.682 9.94881   2
   0  -1   8 299.637 10.4674   1
   0  -1   8 281.864 9.89441   2
   0  -1   8 286.174 8.40172   4
  -1   1  -8 20.3416 2.62464   2
  -1   1  -8 29.0447 2.75381   1
  -1   1  -8 18.8775 2.20266   2
   1  -1   8 24.0405 2.51811   2
   1  -1   8 19.9093 2.52108   1
   1  -1   8 19.3130 1.36067   4
  -2   1  -8 41.5570 2.87083   2
  -2   1  -8 43.6951 3.82842   2
  -2   1  -8 43.6390 2.92006   1
   2  -1   8 37.5605 3.42110   1
   2  -1   8 44.2250 2.27173   4
   2  -1   8 36.7721 2.63423   2
  -3   1  -8 1.32854 0.81084   1
  -3   1  -8 -0.1719 0.55628   2
  -3   1  -8 1.11155 0.80083   2
  -3   1  -8 1.53458 1.00894   1
   3  -1   8 0.21932 0.52393   2
   3  -1   8 0.29155 0.31736   5
   3  -1   8 0.29476 0.73185   1
   3  -1   8 -0.1485 0.38769   4
  -4   1  -8 13.1347 2.26606   1
  -4   1  -8 16.2216 2.14699   1
  -4   1  -8 17.7760 2.43480   2
  -4   1  -8 17.8116 2.28670   2
   4  -1   8 13.2077 1.90899   1
   4  -1   8 12.9473 1.28945   5
   4  -1   8 19.3034 2.02036   2
  -5   1  -8 35.8826 3.27112   2
  -5   1  -8 41.5492 2.94083   1
   5  -1   8 35.0890 2.09690   5
  -6   1  -8 12.5251 2.02297   1
  -6   1  -8 13.9013 2.06176   2
   6  -1   8 14.6075 1.71457   5
  -7   1  -8 25.5855 2.80996   2
   7  -1   8 27.3434 2.56040   5
  -8   1  -8 21.9401 2.64715   2
   8  -1   8 21.1491 2.45781   5
  -9   1  -8 -0.1793 0.72480   2
 -10   0   8 10.3010 2.25705   2
 -10   0   8 10.9712 2.30290   1
 -10   0   8 9.45055 1.89219   3
  -9   0   8 0.87584 1.07364   2
  -9   0   8 2.50709 1.33405   1
  -9   0   8 2.28536 1.09130   3
  -8   0   8 -0.6456 0.82781   1
  -8   0   8 0.61220 0.70029   3
  -8   0   8 0.45380 0.92212   2
  -7   0   8 23.6792 3.11413   1
  -7   0   8 20.0174 2.75887   2
  -6   0   8 15.5287 2.21936   1
  -6   0   8 19.2621 2.67207   2
  -6   0   8 19.2049 2.74565   1
   5   0  -8 39.2984 2.76979   2
  -5   0   8 45.4495 4.19029   1
  -5   0   8 37.5175 3.39309   2
  -5   0   8 42.6541 3.76605   2
   4   0  -8 40.4297 2.93498   2
  -4   0   8 55.2738 3.77521   1
  -4   0   8 46.5478 3.13979   2
  -4   0   8 50.7748 3.40563   2
   3   0  -8 60.4846 3.46601   2
  -3   0   8 57.1695 3.63016   2
  -3   0   8 55.7490 2.15477   5
  -3   0   8 60.3590 3.91149   1
   2   0  -8 367.619 11.8731   2
   2   0  -8 385.683 12.0482   1
  -2   0   8 373.358 9.69317   5
  -2   0   8 374.728 12.5926   1
  -2   0   8 379.033 12.1676   2
   1   0  -8 27.9272 2.69421   2
   1   0  -8 31.2330 2.97514   1
  -1   0   8 26.3043 1.17921   3
  -1   0   8 24.6933 2.88698   1
  -1   0   8 27.7789 1.55940   4
  -1   0   8 25.2257 0.85643   5
  -1   0   8 23.7777 2.60327   2
   0   0  -8 45.6643 3.02189   2
   0   0  -8 51.7859 3.20874   1
   0   0   8 47.7450 1.38419   5
   0   0   8 48.4217 1.43524   3
   0   0   8 50.3967 2.11522   4
   0   0   8 50.8351 3.43394   1
   0   0   8 43.2096 3.01081   2
  -1   0  -8 4.65867 1.36128   2
  -1   0  -8 5.40634 1.27656   1
  -1   0  -8 6.66078 1.36928   2
   1   0   8 7.92220 1.69668   1
   1   0   8 5.45692 0.84453   4
   1   0   8 8.43703 1.52703   2
   1   0   8 6.07360 0.56524   5
  -2   0  -8 16.0376 2.08510   1
  -2   0  -8 20.3272 2.55556   2
  -2   0  -8 15.8276 2.32089   1
  -2   0  -8 20.5950 2.33972   2
   2   0   8 17.9355 1.65060   4
   2   0   8 17.7392 1.05133   5
   2   0   8 21.4501 2.56346   1
  -3   0  -8 75.8660 4.50755   1
  -3   0  -8 84.1923 4.27483   2
  -3   0  -8 71.6478 4.18792   2
  -3   0  -8 80.7753 4.24927   1
   3   0   8 81.7955 4.23911   1
   3   0   8 75.2069 3.57594   2
   3   0   8 83.0828 3.03838   5
  -4   0  -8 129.504 6.29400   1
  -4   0  -8 134.983 6.13564   2
  -4   0  -8 144.899 6.06217   1
  -4   0  -8 148.525 6.08724   2
   4   0   8 141.156 4.87769   5
   4   0   8 138.867 5.67211   1
  -5   0  -8 18.3847 2.35147   2
   5   0   8 23.4419 2.11780   5
  -6   0  -8 1.03350 0.84990   2
   6   0   8 0.64397 0.69160   5
  -7   0  -8 -0.4584 0.67932   2
   7   0   8 0.36008 0.70033   5
  -8   0  -8 3.12971 1.37326   2
   8   0   8 2.68675 1.14847   5
  -9   0  -8 0.56062 0.99575   2
   9   0   8 1.67613 1.09966   5
 -11   1   8 0.49744 1.12878   2
 -11   1   8 0.61468 0.87870   3
 -11   1   8 0.97667 1.30820   1
 -10   1   8 7.26594 1.88774   2
 -10   1   8 10.2021 2.25243   1
 -10   1   8 5.49693 1.47563   3
  -9   1   8 2.28944 1.33191   1
  -9   1   8 3.88607 1.38022   2
  -8   1   8 14.7499 2.55081   1
  -8   1   8 12.2135 2.19754   2
  -7   1   8 10.2839 2.08892   1
  -7   1   8 11.6402 2.09818   2
  -6   1   8 26.4011 3.06265   2
  -6   1   8 27.6807 2.91808   1
  -6   1   8 30.1494 3.46033   1
  -6   1   8 24.6330 2.87630   2
   5  -1  -8 0.38887 0.38540   2
  -5   1   8 0.46177 0.81172   2
  -5   1   8 0.44863 0.62202   2
  -5   1   8 0.98269 1.03125   1
   4  -1  -8 120.198 5.46698   2
  -4   1   8 127.359 5.59427   2
  -4   1   8 127.386 5.77723   2
  -4   1   8 135.419 6.20726   1
   3  -1  -8 7.67759 1.56703   2
  -3   1   8 6.77809 0.82711   5
  -3   1   8 6.42739 1.49042   2
  -3   1   8 6.75375 1.65827   1
   2  -1  -8 3.66527 1.14921   2
  -2   1   8 1.74233 1.02227   1
  -2   1   8 3.70043 0.71594   4
  -2   1   8 2.58857 1.04616   2
   1  -1  -8 1.04114 0.77592   2
  -1   1   8 2.65707 0.47179   4
  -1   1   8 2.72160 1.01479   2
  -1   1   8 2.13717 1.09057   1
   0  -1  -8 105.702 4.90573   2
   0   1   8 108.453 5.23737   1
   0   1   8 105.157 3.14551   5
   0   1   8 102.063 3.46739   4
   0   1   8 101.267 4.73795   2
  -1  -1  -8 71.7595 4.18720   2
  -1  -1  -8 80.6370 4.19886   2
   1   1   8 85.6068 4.49710   1
   1   1   8 80.6287 2.74075   5
   1   1   8 77.5196 3.89498   2
  -2  -1  -8 9.40294 1.62717   2
  -2  -1  -8 7.86231 1.69394   2
  -2  -1  -8 7.08682 1.65109   1
   2   1   8 12.1675 1.94885   1
   2   1   8 12.3573 1.15679   5
   2   1   8 12.8900 1.68480   2
  -3  -1  -8 -0.5477 0.64867   1
  -3  -1  -8 0.27161 0.71550   2
  -3  -1  -8 0.10451 0.67772   2
   3   1   8 -0.2834 0.51385   2
   3   1   8 0.50382 0.72684   1
   3   1   8 1.22249 0.50530   5
  -4  -1  -8 27.3843 2.85472   2
   4   1   8 25.8882 2.44584   1
   4   1   8 29.2174 1.91748   5
  -5  -1  -8 40.3251 3.55854   2
   5   1   8 41.9253 2.56997   5
  -6  -1  -8 68.0743 4.22074   2
   6   1   8 66.9260 3.60389   5
  -7  -1  -8 0.68269 0.93147   2
   7   1   8 0.14534 0.60266   5
  -8  -1  -8 4.94529 1.52797   2
   8   1   8 3.33032 1.32326   5
 -11   2   8 3.22068 1.54860   1
 -11   2   8 2.10026 1.21354   2
 -10   2   8 25.7975 3.24591   2
 -10   2   8 22.6138 3.25228   1
  -9   2   8 0.64175 1.07377   1
  -9   2   8 1.98857 1.07936   2
  -8   2   8 6.84538 1.88780   1
  -8   2   8 8.22798 1.80651   2
  -7   2   8 85.0319 5.06363   1
  -7   2   8 83.5666 4.72263   2
   6  -2  -8 22.1698 2.51235   2
  -6   2   8 22.4439 2.77237   2
  -6   2   8 15.2027 2.16443   2
  -6   2   8 21.8325 2.90833   1
   5  -2  -8 -0.7182 0.52533   2
  -5   2   8 -0.0132 0.53279   2
  -5   2   8 -0.7887 0.59686   1
  -5   2   8 -0.5459 0.57225   2
   4  -2  -8 0.48426 0.66797   2
  -4   2   8 0.95867 0.84869   2
  -4   2   8 -0.5536 0.63674   1
   3  -2  -8 0.75946 0.84480   2
  -3   2   8 0.99294 0.96920   1
  -3   2   8 1.53027 0.93896   2
   2  -2  -8 6.39516 1.42628   2
  -2   2   8 5.74264 1.38152   2
  -2   2   8 4.96466 0.47652   4
  -2   2   8 3.82269 1.27101   1
   1  -2  -8 8.98179 1.73645   2
  -1   2   8 7.50494 1.50404   2
  -1   2   8 10.9706 2.00507   1
   0  -2  -8 9.09825 1.73045   2
   0   2   8 8.04704 1.69329   1
   0   2   8 10.8800 1.72974   2
   0   2   8 11.0488 1.01190   5
  -1  -2  -8 13.6319 2.11784   2
  -1  -2  -8 16.1394 2.33292   2
  -1  -2  -8 15.9189 1.39451   4
   1   2   8 14.6860 1.28038   5
   1   2   8 19.7785 2.52240   1
   1   2   8 14.4604 0.68795   3
   1   2   8 17.8721 2.12333   2
  -2  -2  -8 234.068 8.65856   2
  -2  -2  -8 224.776 8.56202   2
   2   2   8 231.975 6.96062   5
   2   2   8 220.368 8.32674   1
   2   2   8 221.881 7.64986   2
  -3  -2  -8 226.890 8.37109   2
  -3  -2  -8 193.232 8.35784   1
   3   2   8 210.916 7.71554   1
   3   2   8 207.614 6.74254   5
  -4  -2  -8 28.9989 3.02258   2
   4   2   8 22.8718 2.20579   5
  -5  -2  -8 45.4647 3.99000   2
   5   2   8 43.5093 2.75674   5
  -6  -2  -8 20.6552 2.78133   2
   6   2   8 20.3164 2.39480   5
  -7  -2  -8 17.1340 2.72530   2
   7   2   8 13.1862 2.11064   5
  -8  -2  -8 1.99354 1.26299   2
   8   2   8 3.31416 1.38337   5
 -11   3   8 22.9048 3.29906   1
 -11   3   8 27.1305 3.33936   2
 -10   3   8 3.41551 1.43072   2
 -10   3   8 3.38747 1.61247   1
  -9   3   8 10.9581 2.14272   2
  -9   3   8 8.16101 1.95416   1
  -8   3   8 8.18762 1.93902   1
  -8   3   8 8.81911 1.85050   2
  -7   3   8 151.635 7.05353   1
  -7   3   8 151.144 6.73837   2
   6  -3  -8 3.33489 1.12470   2
   6  -3  -8 3.19459 1.14191   2
  -6   3   8 4.64886 1.50727   1
  -6   3   8 6.90459 1.51264   2
  -6   3   8 2.40394 1.16081   2
   5  -3  -8 16.9866 2.36211   2
  -5   3   8 14.4529 2.24405   2
  -5   3   8 10.2971 2.06344   1
  -5   3   8 14.0425 2.15964   2
   4  -3  -8 1.17461 0.83185   2
  -4   3   8 1.56268 0.92612   2
  -4   3   8 2.07244 1.07329   1
   3  -3  -8 1.10230 0.90117   2
  -3   3   8 1.53005 0.98162   1
  -3   3   8 0.06113 0.63689   2
   2  -3  -8 142.711 6.28458   2
  -2   3   8 139.299 5.96762   2
  -2   3   8 141.057 6.48636   1
   1  -3  -8 2.93333 1.08632   2
  -1   3   8 5.97646 1.31974   2
  -1   3   8 4.50608 1.33689   1
   0  -3  -8 26.0665 1.55911   4
   0  -3  -8 38.1946 3.49843   2
   0   3   8 30.8044 2.86387   2
   0   3   8 32.9592 1.67735   5
   0   3   8 38.1819 3.58035   1
  -1  -3  -8 82.7386 4.59828   2
  -1  -3  -8 78.2564 3.06937   4
  -1  -3  -8 84.2553 4.62217   2
   1   3   8 81.6677 2.65471   3
   1   3   8 83.6849 4.55234   1
   1   3   8 83.7262 4.05873   2
   1   3   8 87.3040 3.30250   5
  -2  -3  -8 106.104 5.27462   2
   2   3   8 87.4883 4.67119   1
   2   3   8 93.5931 3.77186   5
   2   3   8 92.7569 3.35269   3
  -3  -3  -8 18.2185 2.59446   2
   3   3   8 12.8790 1.60215   5
   3   3   8 12.8559 1.89717   1
  -4  -3  -8 20.6376 2.78048   2
   4   3   8 25.1373 2.41879   5
  -5  -3  -8 7.42184 1.74669   2
   5   3   8 2.09579 0.96142   5
  -6  -3  -8 9.95399 2.07993   2
   6   3   8 12.7034 2.03462   5
  -7  -3  -8 9.74570 2.24352   2
   7   3   8 7.71168 1.72718   5
 -11   4   8 4.12298 1.71756   1
 -11   4   8 3.43491 1.43962   2
 -10   4   8 11.4257 2.32870   1
 -10   4   8 13.5131 2.32769   2
  -9   4   8 33.0160 3.51754   2
  -9   4   8 36.0917 3.93221   1
  -8   4   8 8.34427 2.08499   1
  -8   4   8 9.34522 1.88152   2
  -7   4   8 42.1331 3.80852   2
  -7   4   8 44.6274 4.28970   1
   6  -4  -8 56.4836 3.62412   2
   6  -4  -8 48.6933 3.41541   2
  -6   4   8 59.1263 4.15316   1
  -6   4   8 55.8709 1.98775   4
  -6   4   8 53.2585 3.64536   2
   5  -4  -8 5.77511 1.44824   2
   5  -4  -8 8.88424 1.75367   2
  -5   4   8 4.51063 1.47694   1
  -5   4   8 6.10688 1.45727   2
   4  -4  -8 2.26895 1.16112   2
  -4   4   8 1.33009 1.07464   1
  -4   4   8 2.66177 1.11253   2
   3  -4  -8 31.2877 3.28842   2
  -3   4   8 36.0134 3.71355   1
  -3   4   8 31.9031 3.08059   2
   2  -4  -8 61.9059 4.02418   2
  -2   4   8 66.0492 4.18172   1
  -2   4   8 63.5252 3.79434   2
   1  -4  -8 235.626 8.84813   2
  -1   4   8 214.953 8.66691   1
  -1   4   8 214.122 8.08944   2
   0  -4  -8 20.5882 1.20318   4
   0  -4  -8 25.3280 2.98986   2
   0   4   8 23.4099 2.49866   2
   0   4   8 23.8584 1.89283   5
   0   4   8 25.8690 3.06321   1
  -1  -4  -8 221.989 9.10658   2
  -1  -4  -8 232.029 7.08290   4
   1   4   8 233.936 8.22690   2
   1   4   8 254.483 7.55096   5
   1   4   8 245.774 9.02223   1
  -2  -4  -8 108.315 5.80241   2
   2   4   8 114.604 4.54455   5
   2   4   8 119.752 5.52104   1
  -3  -4  -8 22.5679 3.08416   2
   3   4   8 25.4996 2.38717   5
  -4  -4  -8 0.75575 1.01796   2
   4   4   8 1.27070 0.81556   5
  -5  -4  -8 51.2893 4.71570   2
   5   4   8 46.3842 3.82396   5
  -6  -4  -8 0.98890 1.18123   2
   6   4   8 0.74015 0.92407   5
 -11   5   8 1.01510 1.14201   1
 -11   5   8 -0.1793 0.83931   2
 -10   5   8 25.9206 3.47615   1
 -10   5   8 27.1539 3.23230   2
  -9   5   8 0.59440 0.87759   2
  -9   5   8 -0.9222 0.80290   1
  -8   5   8 29.9641 3.62491   1
  -8   5   8 23.3180 2.95112   2
  -7   5   8 182.604 7.69826   2
  -7   5   8 188.665 8.27528   1
   6  -5  -8 408.347 13.5401   2
  -6   5   8 383.852 13.7658   1
  -6   5   8 413.635 13.4200   2
   5  -5  -8 51.9376 4.40620   2
   5  -5  -8 38.8837 3.84098   2
  -5   5   8 43.4560 4.12671   1
  -5   5   8 47.8159 3.35256   2
   4  -5  -8 34.7887 3.62951   2
   4  -5  -8 33.1211 3.55958   2
  -4   5   8 32.6406 3.32078   2
  -4   5   8 33.1030 3.69134   1
   3  -5  -8 25.9211 3.09094   2
  -3   5   8 22.8612 3.00192   1
  -3   5   8 26.8939 2.95936   2
   2  -5  -8 31.1402 3.50680   2
  -2   5   8 42.3780 3.67200   2
  -2   5   8 47.1526 4.31610   1
   1  -5  -8 9.53213 0.64522   4
   1  -5  -8 7.36331 1.75090   2
  -1   5   8 10.4694 2.02530   1
  -1   5   8 9.72760 1.72874   2
   0  -5  -8 4.25638 0.69491   4
   0  -5  -8 2.97764 1.32468   2
   0   5   8 3.88532 0.93641   5
   0   5   8 4.83943 1.21128   2
   0   5   8 1.89992 1.24759   1
  -1  -5  -8 328.556 11.8191   2
   1   5   8 311.042 9.63817   5
   1   5   8 304.666 11.0109   1
  -2  -5  -8 2.13832 1.27844   2
   2   5   8 1.70962 0.80639   5
   2   5   8 -0.4127 0.69283   1
  -3  -5  -8 7.57930 2.01264   2
   3   5   8 8.18607 1.48411   5
  -4  -5  -8 4.13060 1.69970   2
   4   5   8 4.85161 1.24086   5
  -5  -5  -8 0.63752 1.23508   2
  -5  -5  -8 1.05417 1.27449   2
   5   5   8 1.96279 1.05843   5
  -6  -5  -8 2.22711 1.51796   1
  -6  -5  -8 0.45913 1.16325   2
  -6  -5  -8 0.93262 1.17858   2
   6   5   8 2.42392 1.26925   5
 -11   6   8 4.56930 1.65837   2
 -11   6   8 6.72961 1.96424   1
 -10   6   8 -0.3260 0.71188   2
 -10   6   8 0.94682 1.19053   1
  -9   6   8 22.9645 3.18987   1
  -9   6   8 21.3252 2.91488   2
  -8   6   8 247.263 10.0877   1
  -8   6   8 236.859 9.38303   2
   7  -6  -8 60.9191 4.08983   1
  -7   6   8 63.1625 4.52980   1
  -7   6   8 56.7758 3.94105   2
  -6   6   8 6.40386 1.65689   2
  -6   6   8 6.48512 1.80019   1
   5  -6  -8 41.4940 4.03174   2
  -5   6   8 48.1412 4.44060   1
  -5   6   8 46.4829 4.00990   2
   4  -6  -8 83.4839 5.08467   2
   4  -6  -8 81.2196 5.03440   2
  -4   6   8 83.7176 4.66042   2
  -4   6   8 80.9711 5.06176   1
   3  -6  -8 276.736 10.5232   2
   3  -6  -8 269.194 10.4721   2
  -3   6   8 264.540 9.70931   2
  -3   6   8 255.866 10.1683   1
   2  -6  -8 94.6753 5.65419   2
   2  -6  -8 95.6056 5.63604   2
  -2   6   8 98.0466 5.00535   2
  -2   6   8 110.961 5.75937   1
   1  -6  -8 -0.4038 0.99244   2
   1  -6  -8 -0.3952 0.93123   2
  -1   6   8 -1.0583 0.64777   1
  -1   6   8 1.18145 0.82612   2
   0  -6  -8 7.56817 2.05666   2
   0  -6  -8 3.90610 1.62209   2
   0   6   8 10.1120 2.04911   1
   0   6   8 3.50707 0.98011   5
  -1  -6  -8 16.4610 2.77238   2
  -1  -6  -8 14.5315 2.56881   2
   1   6   8 15.8358 1.97768   5
   1   6   8 16.0505 2.47969   1
  -2  -6  -8 20.0820 3.08760   2
  -2  -6  -8 12.0451 2.53306   2
   2   6   8 17.0433 2.09876   5
  -3  -6  -8 8.62747 2.28236   2
  -3  -6  -8 13.8483 2.72237   2
   3   6   8 12.9481 1.95892   5
  -4  -6  -8 -0.4895 1.07489   2
  -4  -6  -8 -0.0174 1.01761   1
  -4  -6  -8 0.87228 1.25010   2
   4   6   8 -0.2913 0.79029   5
  -5  -6  -8 0.01810 1.16963   2
  -5  -6  -8 1.17435 1.36786   1
   5   6   8 0.21095 0.78389   5
 -11   7   8 9.09808 2.28324   1
 -11   7   8 11.8794 2.24567   2
 -10   7   8 3.54671 1.43275   1
 -10   7   8 -0.0332 0.87027   2
  -9   7   8 -0.3295 0.81299   2
  -9   7   8 3.36350 1.52970   1
  -8   7   8 -0.0786 0.96644   1
  -8   7   8 1.15183 0.98722   2
   7  -7  -8 72.6044 4.70952   1
  -7   7   8 73.9776 4.61833   2
  -7   7   8 66.9887 4.78816   1
   6  -7  -8 12.3554 2.31366   1
  -6   7   8 15.1903 2.72037   1
  -6   7   8 12.8425 2.25224   2
   5  -7  -8 15.9456 2.62833   1
   5  -7  -8 18.2203 2.92663   2
  -5   7   8 18.4485 2.58096   2
  -5   7   8 11.8422 2.33681   1
   4  -7  -8 62.4136 5.35885   2
  -4   7   8 61.8348 4.50775   1
  -4   7   8 66.1088 4.15959   2
   3  -7  -8 241.577 10.0502   2
  -3   7   8 246.378 9.81244   1
  -3   7   8 228.326 9.06212   2
   2  -7  -8 87.5917 5.59276   2
  -2   7   8 87.8527 5.26497   1
  -2   7   8 80.8472 4.66077   2
   1  -7  -8 0.23166 1.04398   2
  -1   7   8 0.44856 1.05087   1
   0  -7  -8 11.4103 2.54774   2
   0   7   8 6.47921 1.32443   5
   0   7   8 5.80308 1.63924   1
  -1  -7  -8 3.94155 1.60483   1
  -1  -7  -8 3.15787 1.66206   2
   1   7   8 5.80459 1.28325   5
  -2  -7  -8 21.6306 3.42090   2
  -2  -7  -8 23.9077 3.53618   1
   2   7   8 15.5991 2.14181   5
  -3  -7  -8 2.78629 1.62734   2
  -3  -7  -8 -1.5835 0.90066   1
   3   7   8 1.40012 0.96795   5
  -4  -7  -8 13.2664 2.93946   2
  -4  -7  -8 16.3162 3.10409   1
   4   7   8 15.1904 2.38583   5
 -11   8   8 19.6858 2.99197   2
 -11   8   8 20.2736 3.37302   1
 -10   8   8 2.96347 1.48747   2
 -10   8   8 2.57570 1.57715   1
  -9   8   8 9.86444 2.29228   1
  -9   8   8 9.19036 2.05278   2
  -8   8   8 -0.1073 0.93062   1
  -8   8   8 0.79038 1.04342   2
   7  -8  -8 24.7831 3.35149   1
  -7   8   8 18.1774 3.02433   1
  -7   8   8 20.8730 2.87974   2
   6  -8  -8 1.05261 1.12687   1
  -6   8   8 -0.1070 0.92715   2
  -6   8   8 0.39689 1.04182   1
   5  -8  -8 1.80486 1.34451   2
   5  -8  -8 1.49468 1.24864   1
  -5   8   8 3.94101 1.39724   2
  -5   8   8 2.34756 1.32812   1
   4  -8  -8 10.1863 2.35992   2
   4  -8  -8 9.74654 2.23304   1
  -4   8   8 10.3532 2.27827   1
  -4   8   8 7.40995 1.80277   2
   3  -8  -8 17.3836 3.07386   2
   3  -8  -8 12.6232 2.58912   1
  -3   8   8 12.4198 2.12203   2
  -3   8   8 12.4470 2.47657   1
   2  -8  -8 -0.9161 1.04405   2
   2  -8  -8 -0.0741 0.94337   1
  -2   8   8 -0.3496 0.97560   1
   1  -8  -8 1.81460 1.45840   2
   1  -8  -8 0.60388 1.16582   1
  -1   8   8 4.64006 1.66825   1
   0  -8  -8 21.3326 3.35983   1
   0  -8  -8 20.7756 3.43483   2
   0   8   8 26.7563 2.63542   5
   0   8   8 21.6012 2.98455   1
  -1  -8  -8 9.91276 2.73734   2
  -1  -8  -8 2.66320 1.53861   1
   1   8   8 5.61741 1.37220   5
  -2  -8  -8 7.42322 2.34131   2
  -2  -8  -8 1.23312 1.42043   1
   2   8   8 2.46064 1.08819   5
  -3  -8  -8 9.82341 2.62891   2
  -3  -8  -8 9.95946 2.68133   1
   3   8   8 11.4350 2.19022   5
 -11   9   8 1.44487 1.34184   2
 -11   9   8 2.39076 1.51893   1
 -10   9   8 -0.2484 1.02254   2
 -10   9   8 1.25097 1.44620   1
  -9   9   8 5.38619 1.91199   1
  -9   9   8 4.63312 1.63998   2
  -8   9   8 -0.7735 0.82724   1
  -8   9   8 -0.3566 0.85195   2
   7  -9  -8 -0.8057 1.00955   1
  -7   9   8 -0.1763 0.85456   2
  -7   9   8 -0.5051 0.81864   1
   6  -9  -8 71.4043 5.13848   1
  -6   9   8 71.7177 6.29606   1
  -6   9   8 56.7229 5.02010   2
   5  -9  -8 1.12150 1.30961   1
  -5   9   8 2.51539 1.19888   2
  -5   9   8 2.43103 1.44396   1
   4  -9  -8 15.8869 3.15929   2
   4  -9  -8 11.7145 2.55634   1
  -4   9   8 11.0269 2.45077   1
  -4   9   8 17.6733 2.64204   2
   3  -9  -8 1.57355 1.37111   2
   3  -9  -8 0.40459 1.13220   1
  -3   9   8 1.64276 1.27573   1
   2  -9  -8 12.0171 2.65152   1
   2  -9  -8 13.3283 2.85017   2
  -2   9   8 7.91893 2.03497   1
   1  -9  -8 1.98751 1.56472   2
   1  -9  -8 0.49200 1.25574   1
  -1   9   8 1.20376 1.26432   1
   0  -9  -8 4.86238 1.96048   1
   0  -9  -8 7.11230 2.31637   2
   0   9   8 3.77801 1.29170   5
  -1  -9  -8 3.29874 1.78355   1
  -1  -9  -8 -0.5185 1.04605   2
   1   9   8 -0.1574 0.75819   5
  -2  -9  -8 2.30328 1.83870   1
  -2  -9  -8 2.21353 1.82183   2
   2   9   8 3.91977 1.38122   5
 -10  10   8 35.0797 4.02225   2
 -10  10   8 39.5896 4.81950   1
  -9  10   8 15.7267 3.03998   1
  -9  10   8 17.5106 2.91712   2
  -8  10   8 0.58251 1.23262   1
  -8  10   8 1.90634 1.21092   2
   7 -10  -8 -1.3547 0.96648   1
  -7  10   8 0.10492 0.99233   2
  -7  10   8 0.38700 1.12823   1
   6 -10  -8 6.46598 2.08892   1
  -6  10   8 6.28966 1.98514   1
  -6  10   8 5.66986 1.79714   2
   5 -10  -8 16.4866 3.16392   1
  -5  10   8 20.8473 3.02556   2
  -5  10   8 22.8853 3.54245   1
   4 -10  -8 20.6054 3.57370   1
   4 -10  -8 13.6092 3.64425   2
  -4  10   8 13.2689 2.68919   1
   3 -10  -8 8.85299 2.60976   2
   3 -10  -8 5.18426 1.97576   1
  -3  10   8 5.97047 1.97426   1
   2 -10  -8 1.13356 1.41154   2
   2 -10  -8 1.38986 1.34529   1
  -2  10   8 0.54065 0.98367   1
   1 -10  -8 8.88652 2.49807   1
   1 -10  -8 12.2655 2.95980   2
  -1  10   8 12.0210 2.10682   5
   0 -10  -8 4.34139 2.17515   2
   0 -10  -8 5.37109 2.03121   1
   0  10   8 3.85133 1.29708   5
  -9  11   8 -0.6248 1.04484   2
  -9  11   8 -0.5211 1.16335   1
  -8  11   8 20.5404 3.44850   1
  -8  11   8 16.7916 2.87662   2
   7 -11  -8 41.0463 5.00462   1
  -7  11   8 34.2828 4.10981   2
  -7  11   8 34.1896 4.49124   1
   6 -11  -8 6.13965 2.27130   1
  -6  11   8 8.60523 2.41809   1
  -6  11   8 7.92688 1.99788   2
   5 -11  -8 4.86302 1.92382   1
  -5  11   8 4.02416 1.78403   1
   4 -11  -8 0.44025 1.43934   1
  -4  11   8 1.38663 1.37765   1
   3 -11  -8 -0.1906 1.07548   1
   3 -11  -8 0.14218 1.37898   2
  -3  11   8 -1.2601 0.89173   1
   2 -11  -8 5.95412 2.50734   2
   2 -11  -8 12.6935 3.04949   1
  -7  12   8 0.76379 1.33334   1
  -7  12   8 -0.0078 1.46857   2
   6 -12  -8 3.02649 1.92483   1
  -6  12   8 6.79748 2.35355   1
   5 -12  -8 14.1488 3.21943   1
  -5  12   8 12.9357 2.84232   1
   4 -12  -8 1.78121 1.53220   1
  -4  12   8 0.58985 1.21891   1
   4 -12   9 1.59721 1.92079   1
   0  11  -9 0.56531 1.27679   1
   0 -11   9 0.00794 1.41082   1
  -1  11  -9 -0.1499 1.18558   1
   1 -11   9 2.78485 2.09420   1
  -2  11  -9 -0.1505 1.01597   1
   2 -11   9 0.26319 1.47052   1
  -3  11  -9 0.47463 1.32648   1
   3 -11   9 -0.4620 1.40829   1
  -4  11  -9 0.82793 1.34668   1
  -4  11  -9 0.63748 1.11115   2
   4 -11   9 -5.5468 2.66291   4
   4 -11   9 -1.5694 1.28549   1
  -5  11  -9 0.16893 1.16557   2
  -5  11  -9 -0.4674 1.08070   1
   5 -11   9 -0.8174 0.98308   4
  -6  11  -9 7.50416 2.23886   2
  -6  11  -9 5.18480 2.05832   1
   6 -11   9 5.82939 1.76178   4
  -7  11  -9 10.6290 2.57193   2
  -7  11  -9 13.9279 2.88081   1
   7 -11   9 13.4242 2.45774   4
  -2 -10   9 10.2345 3.05826   1
  -2 -10   9 6.21969 2.56688   2
  -1 -10   9 42.6353 5.60242   1
  -1 -10   9 29.5904 4.73416   2
   0  10  -9 2.85224 1.55397   1
   0 -10   9 2.51457 1.86418   1
   0 -10   9 1.11922 1.69507   2
  -1  10  -9 1.06434 1.19977   1
   1 -10   9 -0.4470 1.32313   1
  -2  10  -9 0.73882 1.26240   1
   2 -10   9 2.18419 1.89138   1
  -3  10  -9 0.55228 1.13961   2
  -3  10  -9 -1.2675 0.79124   1
   3 -10   9 0.36944 1.48349   1
  -4  10  -9 0.06389 0.90828   2
  -4  10  -9 0.11204 1.07189   1
   4 -10   9 -4.6205 1.82098   4
   4 -10   9 -0.3146 1.18398   1
  -5  10  -9 10.1845 2.34620   1
  -5  10  -9 9.48099 2.25931   2
   5 -10   9 10.6685 2.03808   4
  -6  10  -9 45.5797 4.77022   2
  -6  10  -9 45.5404 4.71853   1
   6 -10   9 58.1461 4.02036   4
  -7  10  -9 9.41485 2.33913   1
  -7  10  -9 9.91845 2.29826   2
   7 -10   9 12.4426 2.24693   4
  -8  10  -9 4.30480 1.72609   2
  -8  10  -9 5.01769 1.84883   1
   8 -10   9 4.92505 1.60866   4
   3   9  -9 30.5070 2.99811   5
  -3  -9   9 36.6581 5.10662   2
  -3  -9   9 25.3128 4.38148   1
   2   9  -9 33.4983 2.92310   5
  -2  -9   9 26.5004 4.38499   1
  -2  -9   9 39.4559 5.12724   2
   1   9  -9 14.4154 1.78037   5
   1   9  -9 10.6652 2.31787   1
  -1  -9   9 8.63508 2.57124   1
  -1  -9   9 10.2879 2.75881   2
   0   9  -9 5.11090 1.73622   1
   0   9  -9 7.47549 1.26402   5
   0  -9   9 6.49511 2.20517   2
   0  -9   9 5.48415 2.10212   1
  -1   9  -9 0.47138 0.55460   5
  -1   9  -9 -0.8653 0.80479   1
   1  -9   9 -1.5320 0.95449   1
   1  -9   9 0.06583 1.12697   2
  -2   9  -9 0.62881 0.90435   2
  -2   9  -9 0.72975 1.05296   1
   2  -9   9 1.58650 1.49792   1
  -3   9  -9 9.64610 2.19166   2
  -3   9  -9 12.5022 2.51524   1
   3  -9   9 14.4584 3.11036   1
  -4   9  -9 14.8085 2.63030   2
  -4   9  -9 13.8238 2.57421   1
   4  -9   9 13.1432 2.53583   4
   4  -9   9 14.7447 3.14555   1
  -5   9  -9 19.2538 2.98460   1
  -5   9  -9 17.4406 2.90550   2
   5  -9   9 19.7553 2.51259   4
  -6   9  -9 23.6546 3.24781   2
  -6   9  -9 18.2084 3.02003   1
   6  -9   9 20.6899 2.70337   4
  -7   9  -9 2.14090 1.38699   1
  -7   9  -9 0.17369 0.99905   2
   7  -9   9 0.52482 0.90336   4
  -8   9  -9 2.23987 1.44028   1
  -8   9  -9 1.89305 1.28915   2
   8  -9   9 2.24108 1.31616   4
   5   8  -9 -0.2156 0.77108   5
  -5  -8   9 2.64275 2.02318   1
  -5  -8   9 0.82033 1.57082   2
   4   8  -9 0.11906 0.75104   5
  -4  -8   9 0.48172 1.52489   1
  -4  -8   9 1.81019 1.79849   2
   3   8  -9 29.9897 2.78031   5
  -3  -8   9 44.0910 5.51894   1
  -3  -8   9 38.0707 4.98336   2
   2   8  -9 3.72832 1.59786   1
   2   8  -9 3.78782 1.02401   5
  -2  -8   9 1.97613 1.48444   2
  -2  -8   9 4.87989 1.96013   1
   1   8  -9 0.62698 0.61371   5
   1   8  -9 0.16703 0.97038   1
  -1  -8   9 -1.2574 1.07534   1
  -1  -8   9 0.11829 1.12027   2
   0   8  -9 0.41071 1.03405   1
   0   8  -9 0.04608 0.44509   5
   0  -8   9 -0.1239 1.33462   2
   0  -8   9 -0.0177 1.22660   1
  -1   8  -9 -0.5303 0.80708   1
  -1   8  -9 0.35839 0.95767   2
  -1   8  -9 0.07283 0.42811   5
   1  -8   9 2.00835 1.48751   2
   1  -8   9 0.24277 1.20834   1
  -2   8  -9 13.1286 1.28447   5
  -2   8  -9 10.9314 2.28624   1
  -2   8  -9 9.58599 2.18821   2
   2  -8   9 7.77967 2.42390   1
   2  -8   9 14.1822 2.93559   2
  -3   8  -9 1.58564 1.14823   2
  -3   8  -9 2.16331 1.27191   1
   3  -8   9 6.02401 2.34604   4
   3  -8   9 3.39026 1.74571   1
  -4   8  -9 7.87096 2.02366   2
  -4   8  -9 8.80433 1.99541   1
   4  -8   9 9.94317 1.84079   4
   4  -8   9 8.09582 2.15370   1
  -5   8  -9 1.49356 1.12225   1
  -5   8  -9 -0.3788 0.87377   2
   5  -8   9 0.20001 1.71717   1
   5  -8   9 -0.5936 0.52814   4
  -6   8  -9 1.89666 1.25448   2
  -6   8  -9 2.02258 1.20193   1
   6  -8   9 0.48856 0.86075   4
  -7   8  -9 3.27407 1.50744   1
  -7   8  -9 5.70402 1.80599   2
   7  -8   9 2.99374 1.31223   4
  -8   8  -9 9.77430 2.12055   1
  -8   8  -9 6.46950 1.95979   2
   8  -8   9 8.68803 1.88497   4
  -9   8  -9 4.57082 1.52079   2
  -9   8  -9 0.81636 1.26180   1
   9  -8   9 0.44518 1.04915   4
   6   7  -9 6.15883 1.60633   5
  -6  -7   9 4.87706 2.24844   2
  -6  -7   9 8.04647 2.72477   1
   5   7  -9 1.85792 0.96169   5
  -5  -7   9 2.14470 2.10213   1
  -5  -7   9 1.58148 1.56966   2
   4   7  -9 28.2810 2.72390   5
  -4  -7   9 31.3223 4.32424   2
  -4  -7   9 37.5573 4.91162   1
   3   7  -9 7.62026 2.87949   1
   3   7  -9 9.07439 1.46338   5
  -3  -7   9 7.99844 2.49411   1
  -3  -7   9 8.17702 2.43352   2
   2   7  -9 8.07826 1.86503   1
   2   7  -9 8.79022 1.29531   5
  -2  -7   9 11.6720 2.78441   1
  -2  -7   9 9.03103 2.41381   2
   1   7  -9 8.39316 2.00812   1
  -1  -7   9 10.5189 2.66730   2
  -1  -7   9 7.15536 2.17297   1
   0   7  -9 2.11750 0.60807   5
   0   7  -9 0.01108 0.82291   1
   0   7  -9 2.56551 1.28391   2
   0  -7   9 4.04205 1.84684   1
   0  -7   9 3.25296 1.73512   2
  -1   7  -9 60.0003 4.16845   2
  -1   7  -9 49.1279 4.50431   1
  -1   7  -9 53.7689 2.27740   5
   1  -7   9 54.1074 5.37390   1
   1  -7   9 60.1407 5.49602   2
  -2   7  -9 73.2953 4.65117   1
  -2   7  -9 67.7441 2.55015   5
  -2   7  -9 62.1436 4.28454   2
   2  -7   9 72.8130 5.20535   1
   2  -7   9 59.7274 5.33897   2
  -3   7  -9 39.4146 4.00225   2
  -3   7  -9 36.1166 3.87368   1
   3  -7   9 35.3567 4.16307   1
   3  -7   9 32.1437 3.37465   4
  -4   7  -9 10.9713 2.22094   1
  -4   7  -9 14.1116 2.35666   2
   4  -7   9 12.4900 2.49516   1
   4  -7   9 11.4964 1.82909   4
  -5   7  -9 46.7214 4.25999   2
  -5   7  -9 45.7939 4.21419   1
   5  -7   9 44.5154 3.14413   4
   5  -7   9 51.0282 4.94670   1
  -6   7  -9 0.38018 0.88778   2
  -6   7  -9 1.13500 1.02773   1
   6  -7   9 0.32687 0.71558   4
  -7   7  -9 7.08165 1.77900   2
  -7   7  -9 10.4980 2.18713   1
   7  -7   9 8.85691 1.81693   4
  -8   7  -9 1.05930 1.10716   1
  -8   7  -9 -0.0350 1.02087   2
   8  -7   9 0.53538 1.00351   4
  -9   7  -9 5.94153 1.80870   1
  -9   7  -9 4.61808 1.59371   2
   6   6  -9 1.54750 0.89157   5
  -6  -6   9 3.30893 1.97503   1
  -6  -6   9 1.74818 1.16776   3
  -6  -6   9 2.39057 1.59653   2
   5   6  -9 5.61720 1.30907   5
  -5  -6   9 3.22776 1.79145   1
  -5  -6   9 3.41794 1.30058   3
  -5  -6   9 2.10321 1.64490   2
   4   6  -9 3.67539 1.03485   5
  -4  -6   9 3.35596 1.80252   1
  -4  -6   9 3.88417 1.78989   2
   3   6  -9 3.67903 0.89792   5
   3   6  -9 4.79990 1.40560   1
  -3  -6   9 1.42723 1.25390   2
  -3  -6   9 4.30961 1.74857   1
   2   6  -9 7.55395 1.10404   5
   2   6  -9 7.26357 1.81849   1
  -2  -6   9 7.35687 2.18095   1
  -2  -6   9 8.12673 2.21440   2
   1   6  -9 2.38281 1.23820   2
   1   6  -9 3.90718 0.75326   5
   1   6  -9 3.51248 1.40859   1
  -1  -6   9 5.68246 2.01525   1
  -1  -6   9 1.97640 1.45057   2
   0   6  -9 6.04857 1.54546   2
   0   6  -9 8.30921 0.91554   5
   0   6  -9 7.10700 1.74009   1
   0  -6   9 6.30842 2.07600   1
   0  -6   9 5.32149 1.80961   2
  -1   6  -9 17.6539 1.03061   5
  -1   6  -9 18.4539 2.67463   1
  -1   6  -9 19.9903 2.85051   2
   1  -6   9 19.4079 3.15258   2
   1  -6   9 16.5477 2.90589   1
  -2   6  -9 34.8154 3.56504   2
  -2   6  -9 31.3589 1.34814   5
  -2   6  -9 30.0926 3.23504   1
   2  -6   9 30.5995 3.86900   1
   2  -6   9 30.9752 3.85761   2
  -3   6  -9 42.7357 3.92615   1
  -3   6  -9 37.4980 3.74501   2
   3  -6   9 43.0223 4.86293   2
   3  -6   9 46.9488 2.99654   4
   3  -6   9 40.1250 4.29449   1
  -4   6  -9 32.7469 3.48686   1
  -4   6  -9 29.8106 3.33449   2
   4  -6   9 36.7419 3.14204   4
   4  -6   9 32.8156 3.76054   1
  -5   6  -9 14.1818 2.41277   1
  -5   6  -9 14.3107 2.40991   2
   5  -6   9 18.3997 2.83507   1
   5  -6   9 15.9063 2.15829   4
  -6   6  -9 25.2321 3.05299   2
  -6   6  -9 31.6641 3.54635   1
   6  -6   9 24.1929 2.75088   4
  -7   6  -9 29.7594 3.45402   1
  -7   6  -9 30.2170 3.39149   2
   7  -6   9 24.9603 2.85472   4
  -8   6  -9 2.73788 1.30258   1
  -8   6  -9 8.81899 2.00440   2
   8  -6   9 8.49276 1.84115   4
  -9   6  -9 1.78154 1.24120   1
  -9   6  -9 -0.1373 0.83376   2
   7   5  -9 2.05077 1.10401   5
  -7  -5   9 1.07429 1.38998   2
  -7  -5   9 1.96837 0.99064   3
  -7  -5   9 0.43816 1.37103   1
   6   5  -9 6.47866 1.47004   5
  -6  -5   9 6.81364 2.18354   2
  -6  -5   9 5.83147 1.38707   3
  -6  -5   9 8.11291 2.24104   1
   5   5  -9 7.93560 1.37710   5
  -5  -5   9 13.5969 2.82777   2
  -5  -5   9 9.97238 1.55899   3
  -5  -5   9 14.2297 2.99707   1
   4   5  -9 0.81563 0.81374   1
   4   5  -9 0.58391 0.58542   5
  -4  -5   9 0.39114 0.72219   3
  -4  -5   9 2.85118 1.53090   1
  -4  -5   9 0.46381 1.29559   2
   3   5  -9 8.58690 1.93595   1
   3   5  -9 8.10026 1.15790   5
  -3  -5   9 10.7125 2.38868   2
  -3  -5   9 3.21806 1.69659   1
  -3  -5   9 8.22278 1.35685   3
   2   5  -9 25.0841 2.93306   1
   2   5  -9 27.8325 1.60251   5
   2   5  -9 24.5578 2.92869   2
  -2  -5   9 22.3636 3.25970   1
  -2  -5   9 21.2865 3.20417   2
   1   5  -9 74.8442 2.69999   5
   1   5  -9 74.0284 4.52110   1
   1   5  -9 75.5600 4.52193   2
  -1  -5   9 72.2288 4.97538   2
  -1  -5   9 72.1252 5.07030   1
   0   5  -9 45.0452 1.71322   5
   0   5  -9 54.2559 3.76052   1
   0   5  -9 47.7840 4.19396   2
   0  -5   9 56.1775 5.02391   2
   0  -5   9 45.9075 4.69012   1
  -1   5  -9 1.81349 0.30220   5
  -1   5  -9 1.44727 1.02810   1
  -1   5  -9 1.06384 0.93009   2
   1  -5   9 2.30036 1.49022   1
   1  -5   9 1.02550 1.06431   2
  -2   5  -9 84.1808 4.74293   1
  -2   5  -9 75.5597 2.20182   5
  -2   5  -9 70.8886 4.39088   2
   2  -5   9 79.5590 4.09266   4
   2  -5   9 76.7152 4.80116   2
   2  -5   9 80.7462 5.14814   1
  -3   5  -9 17.4798 2.45613   2
  -3   5  -9 17.3115 2.47372   1
   3  -5   9 21.3806 2.89351   2
   3  -5   9 19.4691 2.11139   4
   3  -5   9 23.4970 3.23445   1
  -4   5  -9 8.93602 1.86257   2
  -4   5  -9 7.94190 1.74735   1
   4  -5   9 9.58373 2.11814   1
   4  -5   9 8.83237 1.51269   4
  -5   5  -9 48.3146 4.11006   2
  -5   5  -9 31.5893 3.31799   1
   5  -5   9 36.5264 3.96759   1
   5  -5   9 37.7531 2.75093   4
  -6   5  -9 0.23035 0.71047   2
  -6   5  -9 1.15229 0.76756   1
   6  -5   9 0.30363 0.69677   4
  -7   5  -9 6.94719 1.71648   1
  -7   5  -9 5.67830 1.61333   2
   7  -5   9 4.32051 1.31402   4
  -8   5  -9 3.22560 1.32117   2
  -8   5  -9 1.04244 1.07551   1
  -9   5  -9 0.31980 0.96983   2
  -9   5  -9 1.28269 1.07640   1
   8   4  -9 4.36362 1.48646   5
  -8  -4   9 3.36537 2.03244   1
  -8  -4   9 3.93726 1.39758   3
  -8  -4   9 2.16460 1.56941   2
   7   4  -9 18.8921 2.34910   5
  -7  -4   9 25.6636 3.79947   2
  -7  -4   9 15.4579 2.14707   3
  -7  -4   9 18.4100 3.37045   1
   6   4  -9 6.34660 1.36477   5
  -6  -4   9 9.91303 2.32953   2
  -6  -4   9 5.37279 1.34959   3
  -6  -4   9 3.96119 1.87027   1
   5   4  -9 45.5430 2.72505   5
  -5  -4   9 47.3810 4.90012   2
  -5  -4   9 49.1122 4.93559   1
  -5  -4   9 61.0794 3.17526   3
   4   4  -9 1.43131 0.60242   5
   4   4  -9 0.22459 0.74768   1
  -4  -4   9 0.22021 1.05555   1
  -4  -4   9 0.30984 0.55911   3
  -4  -4   9 0.64079 0.97777   2
   3   4  -9 8.77679 1.11646   5
   3   4  -9 7.64995 1.71117   2
   3   4  -9 12.9690 2.21937   1
  -3  -4   9 6.47441 1.98803   2
  -3  -4   9 10.1911 2.22843   1
  -3  -4   9 11.5985 1.41850   3
   2   4  -9 -0.0593 0.74444   1
   2   4  -9 0.45509 0.36697   5
   2   4  -9 1.28833 0.85743   2
  -2  -4   9 1.04211 1.07922   2
  -2  -4   9 1.41570 0.66415   3
  -2  -4   9 1.21706 1.19973   1
   1   4  -9 0.21830 0.81395   1
   1   4  -9 0.52044 0.27432   5
   1   4  -9 2.02462 1.08162   2
  -1  -4   9 2.07062 1.20446   2
  -1  -4   9 1.29915 1.13655   1
   0   4  -9 56.7464 3.70800   2
   0   4  -9 51.8516 3.63292   1
   0  -4   9 50.5820 4.60523   1
   0  -4   9 57.0919 4.80133   2
  -1   4  -9 59.7372 3.88294   2
  -1   4  -9 62.7817 3.92977   1
   1  -4   9 55.6205 4.78294   2
   1  -4   9 65.0529 4.44886   1
  -2   4  -9 115.436 5.61062   1
  -2   4  -9 111.785 5.51093   2
   2  -4   9 111.607 4.59083   4
   2  -4   9 107.694 5.58311   2
   2  -4   9 117.674 6.13485   1
  -3   4  -9 31.7778 3.24183   2
  -3   4  -9 32.8545 3.31953   1
   3  -4   9 28.5097 3.40274   1
   3  -4   9 29.7529 3.19575   2
   3  -4   9 30.5227 2.22143   4
  -4   4  -9 76.7051 4.46846   2
  -4   4  -9 84.3782 4.65435   1
   4  -4   9 85.4735 4.07809   4
   4  -4   9 80.5598 4.82179   1
  -5   4  -9 6.59506 1.61811   1
  -5   4  -9 5.61944 1.56708   2
   5  -4   9 6.28143 1.28484   4
  -6   4  -9 49.0790 4.18893   2
  -6   4  -9 42.5641 3.88646   1
   6  -4   9 37.8113 3.41382   4
  -7   4  -9 31.1743 3.29334   2
  -7   4  -9 19.1998 2.66093   1
  -8   4  -9 -0.1878 0.67312   2
  -8   4  -9 1.06541 0.98079   1
  -9   4  -9 0.93591 1.00108   2
  -9   4  -9 2.35051 1.14400   1
   9   3  -9 4.11316 1.42677   5
  -9  -3   9 7.20160 1.65886   3
  -9  -3   9 7.92674 2.34970   2
  -9  -3   9 4.72295 1.90625   1
   8   3  -9 5.23056 1.44684   5
  -8  -3   9 6.09601 1.45132   3
  -8  -3   9 7.46469 2.20643   1
   7   3  -9 11.8618 1.83412   5
  -7  -3   9 9.25774 2.25515   2
  -7  -3   9 8.95908 2.27326   1
  -7  -3   9 8.33245 1.57548   3
   6   3  -9 10.6264 1.59976   5
  -6  -3   9 12.7397 2.53225   2
  -6  -3   9 17.3522 3.08185   1
  -6  -3   9 10.0413 1.58669   3
   5   3  -9 5.09659 1.35134   1
   5   3  -9 6.08091 1.10651   5
  -5  -3   9 5.15214 1.78095   2
  -5  -3   9 4.23310 1.67301   1
  -5  -3   9 6.13799 1.23084   3
   4   3  -9 -0.2476 0.37039   5
   4   3  -9 0.79937 0.86463   1
  -4  -3   9 0.41018 1.03116   1
  -4  -3   9 -0.2183 0.51709   3
  -4  -3   9 1.24590 1.13844   2
   3   3  -9 33.1531 3.28142   2
   3   3  -9 26.1534 2.91954   1
   3   3  -9 34.0305 1.69693   5
  -3  -3   9 31.7494 3.80190   1
  -3  -3   9 31.4354 3.62668   2
  -3  -3   9 32.5387 1.92762   3
   2   3  -9 39.0273 3.51894   1
   2   3  -9 33.4682 3.28140   2
  -2  -3   9 36.3746 1.91119   3
  -2  -3   9 45.6405 4.30898   2
  -2  -3   9 32.2651 3.61645   1
   1   3  -9 31.0907 3.20846   2
   1   3  -9 34.5755 3.47281   1
  -1  -3   9 34.7133 3.61207   2
  -1  -3   9 29.2404 3.48933   1
   0   3  -9 25.0476 2.85473   1
   0   3  -9 34.6263 3.31374   2
   0  -3   9 23.3066 2.99262   2
   0  -3   9 32.0607 3.62230   1
  -1   3  -9 6.07254 1.45874   2
  -1   3  -9 8.04707 1.66599   1
   1  -3   9 5.67044 1.63765   1
   1  -3   9 7.84053 1.40017   4
   1  -3   9 4.26059 1.38866   2
  -2   3  -9 120.579 5.61059   1
  -2   3  -9 105.494 5.30437   2
   2  -3   9 108.582 5.81119   1
   2  -3   9 113.603 5.45990   2
   2  -3   9 114.175 4.51330   4
  -3   3  -9 20.6625 2.71237   1
  -3   3  -9 14.4302 2.20627   2
  -3   3  -9 13.6026 2.66363   2
   3  -3   9 15.4816 2.49698   1
   3  -3   9 15.6389 2.19118   2
   3  -3   9 15.0609 1.72982   4
  -4   3  -9 12.7280 2.03810   2
  -4   3  -9 12.3379 2.03743   1
   4  -3   9 11.6700 1.63482   4
   4  -3   9 12.3989 2.11415   1
  -5   3  -9 7.75740 1.76202   1
  -5   3  -9 9.54975 1.80443   2
   5  -3   9 9.20930 1.57363   4
  -6   3  -9 60.7525 3.94631   1
  -6   3  -9 60.8869 3.93892   2
  -7   3  -9 3.40202 1.28438   1
  -7   3  -9 4.16858 1.40034   2
  -8   3  -9 0.51740 1.00788   1
  -8   3  -9 1.42596 0.91975   2
  -9   3  -9 -0.3496 0.69234   1
  -9   3  -9 1.20892 0.98165   2
  -9  -2   9 -0.1382 0.80312   3
  -9  -2   9 -1.0738 1.09461   1
  -9  -2   9 0.54587 0.96925   2
  -8  -2   9 1.39621 0.86883   3
  -8  -2   9 4.49165 1.64669   2
  -8  -2   9 2.41124 1.53091   1
  -7  -2   9 4.25561 1.66630   1
  -7  -2   9 5.30762 1.84108   2
  -7  -2   9 4.68533 1.22739   3
  -6  -2   9 0.24880 1.01100   1
  -6  -2   9 -0.1455 0.61508   3
  -6  -2   9 0.05873 0.87262   2
   5   2  -9 25.0238 2.93519   1
  -5  -2   9 24.6174 2.24009   3
  -5  -2   9 20.7346 3.19494   1
  -5  -2   9 22.8769 3.22104   2
   4   2  -9 20.2002 2.48216   1
   4   2  -9 18.0097 2.31450   2
  -4  -2   9 13.9562 2.42622   2
  -4  -2   9 20.9413 3.01536   1
  -4  -2   9 25.1935 2.09486   3
   3   2  -9 29.8440 3.11807   1
   3   2  -9 28.8938 2.94258   2
  -3  -2   9 29.6639 3.31020   2
  -3  -2   9 31.7353 1.83252   3
  -3  -2   9 29.7372 1.42279   5
  -3  -2   9 28.9636 3.49378   1
   2   2  -9 75.6182 4.26781   1
   2   2  -9 76.4571 4.23359   2
  -2  -2   9 77.6535 4.61065   2
  -2  -2   9 69.2246 2.75914   3
  -2  -2   9 64.3244 4.52926   1
   1   2  -9 32.0803 3.15353   2
   1   2  -9 32.3495 3.23692   1
  -1  -2   9 31.8047 1.49693   3
  -1  -2   9 32.9332 3.34517   2
  -1  -2   9 34.3384 3.71775   1
   0   2  -9 6.03890 1.55354   2
   0   2  -9 8.61720 1.78735   1
   0  -2   9 6.93364 1.74837   1
   0  -2   9 5.33206 1.23557   4
   0  -2   9 10.3712 1.94078   2
  -1   2  -9 51.3807 3.38238   2
  -1   2  -9 46.8739 3.31755   1
   1  -2   9 52.0645 3.46990   2
   1  -2   9 47.2174 2.45916   4
   1  -2   9 47.1644 4.20891   1
  -2   2  -9 7.43406 1.64997   2
  -2   2  -9 7.32464 1.62855   1
  -2   2  -9 5.89448 1.77035   2
   2  -2   9 7.51636 1.73285   1
   2  -2   9 9.47076 1.75549   2
   2  -2   9 6.61310 1.07649   4
  -3   2  -9 2.19546 1.05567   1
  -3   2  -9 2.56518 1.32309   2
  -3   2  -9 1.38638 0.97204   2
   3  -2   9 2.51823 0.79874   4
   3  -2   9 3.18633 1.29935   1
   3  -2   9 1.76819 0.84527   2
  -4   2  -9 1.26697 0.93430   2
  -4   2  -9 1.34506 0.93119   1
   4  -2   9 1.91070 1.03286   1
   4  -2   9 1.57993 0.76122   4
  -5   2  -9 36.7843 3.60840   1
  -5   2  -9 32.9647 3.28384   2
  -6   2  -9 1.09280 0.93244   2
  -6   2  -9 1.11950 0.95961   1
  -7   2  -9 -0.4063 0.79748   1
  -7   2  -9 0.76922 0.99291   2
  -8   2  -9 1.68600 1.11702   2
  -8   2  -9 0.19301 0.90637   1
  -9   2  -9 -0.9440 0.81976   2
 -10  -1   9 5.88781 1.93388   2
 -10  -1   9 4.67623 1.94478   1
 -10  -1   9 5.26640 1.57259   3
  -9  -1   9 2.26321 1.12781   3
  -9  -1   9 0.53960 1.13236   2
  -9  -1   9 -0.6431 1.06666   1
  -8  -1   9 24.9120 3.50027   1
  -8  -1   9 24.3258 2.65661   3
  -8  -1   9 30.8728 3.69737   2
  -7  -1   9 3.74259 1.49547   2
  -7  -1   9 2.87190 1.52794   1
  -7  -1   9 4.29298 1.14024   3
  -6  -1   9 2.66030 1.50483   1
  -6  -1   9 3.11808 1.46517   2
  -6  -1   9 3.00462 0.93259   3
  -5  -1   9 0.39265 0.95485   2
  -5  -1   9 -0.2720 1.01724   1
  -5  -1   9 0.26404 0.56541   3
   4   1  -9 23.9718 2.81626   1
   4   1  -9 25.7835 2.87468   2
  -4  -1   9 30.1163 3.37043   2
  -4  -1   9 31.0686 3.55029   1
  -4  -1   9 31.3581 1.90879   3
   3   1  -9 67.0286 3.92003   2
   3   1  -9 68.8686 3.98349   1
  -3  -1   9 66.9690 2.77201   3
  -3  -1   9 66.1642 2.33632   5
  -3  -1   9 61.1586 4.33279   1
  -3  -1   9 63.4741 4.14716   2
   2   1  -9 53.9895 3.53740   2
   2   1  -9 55.6374 3.56871   1
  -2  -1   9 52.5437 1.64764   5
  -2  -1   9 56.3089 2.27346   3
  -2  -1   9 64.1927 4.04435   2
  -2  -1   9 60.5243 4.19644   1
   1   1  -9 269.016 9.59433   1
   1   1  -9 258.414 9.43934   2
  -1  -1   9 263.988 9.63170   2
  -1  -1   9 261.518 10.1107   1
  -1  -1   9 267.800 7.19248   3
   0   1  -9 81.2328 4.49645   1
   0   1  -9 83.3080 4.47771   2
   0  -1   9 85.9353 3.29912   4
   0  -1   9 87.6828 4.99715   1
   0  -1   9 81.6291 4.54432   2
  -1   1  -9 11.0218 1.89686   2
  -1   1  -9 11.4851 1.97481   1
   1  -1   9 12.4090 1.99600   2
   1  -1   9 10.4854 2.00929   1
   1  -1   9 9.10285 1.16755   4
  -2   1  -9 5.08444 1.44373   1
  -2   1  -9 7.04286 1.71368   2
  -2   1  -9 3.81495 1.23529   2
   2  -1   9 5.13463 1.26512   2
   2  -1   9 5.83405 0.97675   4
   2  -1   9 5.43457 1.64424   1
  -3   1  -9 28.8765 2.96858   2
  -3   1  -9 30.1219 3.17051   1
   3  -1   9 29.3760 2.07537   4
   3  -1   9 27.7137 2.93269   2
   3  -1   9 33.4664 3.33026   1
  -4   1  -9 0.44904 0.75326   1
  -4   1  -9 0.32595 0.65265   2
   4  -1   9 1.70757 0.97967   1
   4  -1   9 0.37517 0.42921   5
  -5   1  -9 6.91632 1.60662   1
  -5   1  -9 5.87243 1.48578   2
   5  -1   9 6.02412 1.01173   5
  -6   1  -9 14.2783 2.20849   2
  -6   1  -9 11.8482 2.04431   1
   6  -1   9 10.7806 1.49041   5
  -7   1  -9 0.11757 0.84333   2
  -8   1  -9 2.35887 1.17004   2
 -10   0   9 2.88760 1.61575   1
 -10   0   9 3.50525 1.43615   3
 -10   0   9 5.02709 1.67567   2
  -9   0   9 0.01778 1.22922   1
  -9   0   9 3.08131 1.39858   2
  -9   0   9 -0.0134 0.71517   3
  -8   0   9 9.63716 2.33865   1
  -8   0   9 6.28968 1.84091   2
  -8   0   9 7.48055 1.48874   3
  -7   0   9 15.6481 2.71224   1
  -7   0   9 10.1143 2.14645   2
  -7   0   9 15.9550 1.98814   3
  -6   0   9 8.28290 1.92601   2
  -6   0   9 7.32383 2.00685   1
   5   0  -9 -0.2468 0.45864   2
  -5   0   9 1.04637 1.07123   2
  -5   0   9 2.34794 1.19876   1
   4   0  -9 80.2864 4.44734   2
  -4   0   9 84.3261 4.84606   2
  -4   0   9 80.9672 4.98829   1
   3   0  -9 134.325 5.84111   2
  -3   0   9 120.104 3.78306   5
  -3   0   9 117.490 6.15511   1
  -3   0   9 129.332 5.98962   2
   2   0  -9 5.85939 1.44832   1
  -2   0   9 5.25806 0.72973   3
  -2   0   9 4.39070 0.47052   5
  -2   0   9 5.10025 1.56551   1
  -2   0   9 7.21745 1.69899   2
   1   0  -9 3.37080 1.16298   2
   1   0  -9 1.48811 1.04900   1
  -1   0   9 2.60579 0.45499   3
  -1   0   9 3.19167 0.62878   4
  -1   0   9 1.89591 1.24594   1
  -1   0   9 3.60715 1.27086   2
   0   0  -9 83.7502 4.48312   2
   0   0  -9 82.2002 4.53154   1
   0   0   9 77.2633 4.39402   2
   0   0   9 86.9276 4.94153   1
   0   0   9 87.9553 3.20529   4
  -1   0  -9 8.59075 1.71388   2
  -1   0  -9 8.22482 1.69244   1
   1   0   9 6.01108 1.40191   2
   1   0   9 10.5124 2.05164   1
   1   0   9 7.07459 0.58482   5
   1   0   9 6.75753 0.98471   4
  -2   0  -9 0.98656 0.92607   2
  -2   0  -9 0.80789 0.85366   2
  -2   0  -9 0.84147 0.82052   1
   2   0   9 1.40988 1.00258   1
   2   0   9 1.28995 0.81096   2
   2   0   9 1.20890 0.41585   5
  -3   0  -9 23.9443 2.72692   2
  -3   0  -9 26.2805 2.93053   1
   3   0   9 26.9785 2.93148   1
   3   0   9 24.3319 1.46929   5
  -4   0  -9 5.07759 1.47011   2
   4   0   9 8.13675 1.09249   5
  -5   0  -9 16.7788 2.44688   2
   5   0   9 17.6018 1.81788   5
  -6   0  -9 2.53273 1.16361   2
   6   0   9 4.31684 1.12517   5
  -7   0  -9 1.22792 1.01092   2
   7   0   9 1.15291 0.85242   5
  -8   0  -9 13.6455 2.38391   2
   8   0   9 10.1149 1.87875   5
 -10   1   9 1.09831 1.13323   2
 -10   1   9 0.11180 0.88832   3
 -10   1   9 1.06168 1.28726   1
  -9   1   9 3.98702 1.54385   2
  -9   1   9 1.59197 1.25239   1
  -8   1   9 26.6769 3.26095   2
  -8   1   9 29.0736 3.59392   1
  -7   1   9 4.43637 1.54570   1
  -7   1   9 2.02835 1.23576   2
  -6   1   9 -0.7314 0.75347   2
  -6   1   9 -0.6448 0.81533   1
   5  -1  -9 1.19513 0.88119   2
  -5   1   9 2.33275 1.28273   1
  -5   1   9 -0.4722 0.71419   2
  -5   1   9 0.12042 0.89010   2
   4  -1  -9 1.31810 1.00061   2
  -4   1   9 1.06090 1.05980   2
  -4   1   9 0.92456 1.02418   1
   3  -1  -9 15.9515 2.24624   2
  -3   1   9 15.4173 2.50715   1
  -3   1   9 13.9526 1.16060   5
  -3   1   9 17.5238 2.47540   2
   2  -1  -9 39.6080 3.61921   2
  -2   1   9 38.9385 1.55893   5
  -2   1   9 37.6876 1.64149   4
  -2   1   9 39.9827 3.92360   1
  -2   1   9 44.2679 3.88003   2
   1  -1  -9 117.212 5.45723   2
  -1   1   9 101.422 3.52137   4
  -1   1   9 117.424 5.80305   1
  -1   1   9 119.655 5.48202   2
   0  -1  -9 23.0106 2.70829   2
   0   1   9 28.2725 3.28514   1
   0   1   9 26.7255 1.17444   5
   0   1   9 29.7397 3.01187   2
   0   1   9 24.7775 1.45320   4
  -1  -1  -9 56.1123 3.57440   2
   1   1   9 51.9326 3.70973   1
   1   1   9 49.6537 1.99828   5
   1   1   9 50.5150 3.21638   2
  -2  -1  -9 74.9827 4.29200   2
  -2  -1  -9 75.9958 4.83987   2
   2   1   9 72.1346 2.78144   5
   2   1   9 66.3710 4.18009   1
  -3  -1  -9 25.8497 2.89837   2
   3   1   9 27.1712 2.92352   1
   3   1   9 31.1348 1.83334   5
  -4  -1  -9 12.2383 2.10829   2
   4   1   9 11.9921 1.48269   5
  -5  -1  -9 8.39760 1.85435   2
   5   1   9 8.59608 1.40571   5
  -6  -1  -9 5.60785 1.62636   2
   6   1   9 8.61411 1.58071   5
  -7  -1  -9 2.46117 1.25466   2
   7   1   9 1.94862 0.99673   5
 -11   2   9 6.13051 1.96850   1
 -11   2   9 0.15148 0.99835   2
 -10   2   9 0.28787 1.09322   1
 -10   2   9 1.15207 1.22640   2
  -9   2   9 0.66792 1.02417   2
  -9   2   9 1.38775 1.26145   1
  -8   2   9 0.26868 0.80367   2
  -8   2   9 -0.0543 0.88520   1
  -7   2   9 85.2064 5.07795   2
  -7   2   9 93.6073 5.52984   1
  -6   2   9 188.599 8.26493   1
  -6   2   9 176.200 7.73524   2
   5  -2  -9 1.71799 1.02796   2
  -5   2   9 0.46991 0.79601   2
  -5   2   9 1.26296 1.00004   1
   4  -2  -9 51.1544 4.19383   2
  -4   2   9 44.0060 4.01835   2
  -4   2   9 41.4022 4.09299   1
   3  -2  -9 14.9137 2.25871   2
  -3   2   9 18.1552 2.47523   2
  -3   2   9 14.5247 0.78091   4
  -3   2   9 17.0799 2.72768   1
   2  -2  -9 15.6382 2.34422   2
  -2   2   9 13.6646 0.77010   4
  -2   2   9 15.1377 2.27727   2
  -2   2   9 15.7875 2.58245   1
   1  -2  -9 24.4121 2.96375   2
  -1   2   9 21.3977 2.88252   1
  -1   2   9 19.7666 2.52947   2
   0  -2  -9 91.0421 4.84549   2
   0   2   9 80.8978 4.38712   2
   0   2   9 82.7525 2.94755   5
   0   2   9 95.1233 5.15653   1
  -1  -2  -9 100.836 5.33911   2
   1   2   9 102.103 3.59938   5
   1   2   9 100.020 2.73884   3
   1   2   9 108.108 4.90906   2
   1   2   9 112.093 5.55202   1
  -2  -2  -9 55.0190 3.77769   2
   2   2   9 47.0116 2.32690   5
   2   2   9 42.8345 3.81053   1
  -3  -2  -9 11.2486 2.05951   2
   3   2   9 11.2477 1.90008   1
   3   2   9 7.33913 1.18350   5
  -4  -2  -9 2.34985 1.20175   2
   4   2   9 1.00248 0.68390   5
  -5  -2  -9 0.72121 0.85229   2
   5   2   9 -0.1752 0.59317   5
  -6  -2  -9 -0.3847 0.84763   2
   6   2   9 0.31536 0.76683   5
  -7  -2  -9 19.9444 3.04865   2
   7   2   9 12.6518 2.14259   5
 -11   3   9 14.1333 2.69706   1
 -11   3   9 20.6999 3.23381   2
 -10   3   9 -0.0502 0.85037   2
 -10   3   9 0.23253 1.16926   1
  -9   3   9 2.51126 1.41340   2
  -9   3   9 1.99025 1.26451   1
  -8   3   9 5.40997 1.86797   1
  -8   3   9 3.45611 1.38898   2
  -7   3   9 4.57302 1.45530   2
  -7   3   9 2.85008 1.41082   1
  -6   3   9 25.1822 3.11482   2
  -6   3   9 17.2718 2.82086   1
   5  -3  -9 3.31485 1.21392   2
  -5   3   9 3.88589 1.30825   2
  -5   3   9 1.80423 1.07467   1
   4  -3  -9 72.5582 4.32231   2
  -4   3   9 63.4806 4.05884   2
  -4   3   9 61.4422 4.37665   1
   3  -3  -9 0.57011 0.75066   2
  -3   3   9 0.02568 0.76848   2
  -3   3   9 -0.0272 0.83925   1
   2  -3  -9 21.0395 2.70919   2
  -2   3   9 23.4849 3.12614   1
  -2   3   9 20.5256 2.52933   2
   1  -3  -9 64.0681 4.14698   2
  -1   3   9 63.7846 4.31693   1
  -1   3   9 73.8518 4.10055   2
   0  -3  -9 13.3517 2.28156   2
   0   3   9 20.5143 1.58941   5
   0   3   9 15.7159 2.39666   1
   0   3   9 18.3795 2.38562   2
  -1  -3  -9 3.67307 1.39604   2
  -1  -3  -9 2.49556 0.68971   4
   1   3   9 2.49671 1.21792   1
   1   3   9 3.52352 1.14335   2
   1   3   9 3.01950 0.72797   5
  -2  -3  -9 30.8265 3.40928   2
   2   3   9 32.0819 1.99949   5
   2   3   9 36.5657 3.54300   1
  -3  -3  -9 5.70671 1.61579   2
   3   3   9 6.53122 1.24043   5
  -4  -3  -9 7.04378 1.82743   2
   4   3   9 9.20328 1.51837   5
  -5  -3  -9 1.45905 1.14717   2
   5   3   9 4.23025 1.20045   5
  -6  -3  -9 1.20984 1.28835   2
   6   3   9 1.67044 1.04229   5
 -11   4   9 0.25272 1.10151   2
 -11   4   9 -0.7217 1.02923   1
 -10   4   9 19.2994 3.17991   1
 -10   4   9 20.3132 3.06070   2
  -9   4   9 4.18468 1.47489   2
  -9   4   9 5.83171 1.88888   1
  -8   4   9 2.71518 1.28062   2
  -8   4   9 1.09045 1.25580   1
  -7   4   9 6.22240 2.02502   1
  -7   4   9 4.28281 1.49937   2
  -6   4   9 5.39842 1.55280   2
  -6   4   9 7.25555 1.98263   1
   5  -4  -9 76.8482 4.65636   2
  -5   4   9 76.1772 4.57540   2
  -5   4   9 76.0613 4.98930   1
   4  -4  -9 2.70999 1.22123   2
  -4   4   9 2.21240 1.32389   1
  -4   4   9 4.75692 1.46196   2
   3  -4  -9 183.079 7.91262   2
  -3   4   9 189.803 8.27589   1
  -3   4   9 184.729 7.61770   2
   2  -4  -9 2.28065 1.31855   2
  -2   4   9 6.16532 1.59359   2
  -2   4   9 6.91776 1.84758   1
   1  -4  -9 2.64991 1.18016   2
  -1   4   9 2.78326 1.16058   2
  -1   4   9 4.01152 1.47171   1
   0  -4  -9 5.81974 1.69424   2
   0   4   9 4.80933 1.61357   1
   0   4   9 1.62744 0.64889   5
   0   4   9 5.18779 1.36124   2
  -1  -4  -9 6.03661 1.78617   2
   1   4   9 5.72372 1.04736   5
   1   4   9 9.38447 2.01745   1
  -2  -4  -9 1.04464 1.11440   2
   2   4   9 1.65272 0.96748   1
   2   4   9 0.59991 0.61031   5
  -3  -4  -9 0.23378 0.89525   2
   3   4   9 0.03183 0.60006   5
  -4  -4  -9 0.60088 0.97795   2
   4   4   9 -0.5865 0.57950   5
  -5  -4  -9 27.6423 3.66397   2
   5   4   9 27.5990 2.91338   5
  -6  -4  -9 0.66321 1.16752   2
   6   4   9 -0.2375 0.72572   5
 -11   5   9 0.53556 1.09669   1
 -11   5   9 0.42418 1.12267   2
 -10   5   9 -0.0106 0.92291   2
 -10   5   9 3.82890 1.65354   1
  -9   5   9 32.9093 3.68728   2
  -9   5   9 31.1792 3.94285   1
  -8   5   9 39.2292 4.36732   1
  -8   5   9 42.2426 4.10314   2
  -7   5   9 26.8240 3.26018   2
  -7   5   9 25.2950 3.44903   1
  -6   5   9 63.7817 5.65698   1
  -6   5   9 57.0711 4.04181   2
   5  -5  -9 75.3343 4.82041   2
   5  -5  -9 76.5093 4.84303   2
  -5   5   9 69.9637 4.44728   2
  -5   5   9 85.5464 5.28326   1
   4  -5  -9 39.0166 4.02791   2
   4  -5  -9 35.5238 3.80451   2
  -4   5   9 38.3256 3.75668   2
  -4   5   9 41.8755 4.36949   1
   3  -5  -9 222.849 9.22779   2
  -3   5   9 222.897 9.28889   1
  -3   5   9 210.675 8.55549   2
   2  -5  -9 4.36320 1.61975   2
  -2   5   9 2.11327 1.17179   2
  -2   5   9 3.11091 1.50797   1
   1  -5  -9 1.15745 1.05989   2
  -1   5   9 0.09450 0.91519   1
  -1   5   9 -0.1779 0.60346   2
   0  -5  -9 19.8225 2.96883   2
   0   5   9 15.3223 1.66462   5
   0   5   9 17.2301 2.72405   1
  -1  -5  -9 13.8863 2.56070   2
   1   5   9 9.42567 1.45717   5
   1   5   9 9.86011 2.02601   1
  -2  -5  -9 17.6557 2.89054   2
   2   5   9 18.6346 2.10482   5
  -3  -5  -9 15.9770 2.85195   2
   3   5   9 18.8317 2.28934   5
  -4  -5  -9 2.49852 1.41336   2
   4   5   9 0.92689 0.80112   5
  -5  -5  -9 2.59473 1.61416   2
  -5  -5  -9 3.28037 1.53115   2
   5   5   9 2.23547 1.19198   5
 -11   6   9 0.71372 1.15877   2
 -11   6   9 1.05164 1.31856   1
 -10   6   9 0.86470 1.32401   1
 -10   6   9 2.67438 1.41762   2
  -9   6   9 29.8291 3.83583   1
  -9   6   9 26.4179 3.31814   2
  -8   6   9 2.73159 1.44005   1
  -8   6   9 1.83049 1.33543   2
  -7   6   9 2.87378 1.33169   2
  -7   6   9 1.82085 1.38304   1
  -6   6   9 0.73190 1.07601   2
  -6   6   9 3.77454 1.64502   1
   5  -6  -9 24.9988 3.33186   2
  -5   6   9 28.5773 3.37955   2
  -5   6   9 27.1653 3.68703   1
   4  -6  -9 2.41770 1.40417   2
   4  -6  -9 4.39750 1.66567   2
  -4   6   9 3.19880 1.42276   2
  -4   6   9 6.41184 1.92371   1
   3  -6  -9 32.8740 4.00243   2
   3  -6  -9 34.8071 3.99133   2
  -3   6   9 27.1922 3.12093   2
  -3   6   9 28.0514 3.58021   1
   2  -6  -9 105.261 6.08189   2
   2  -6  -9 92.8529 5.74806   2
  -2   6   9 97.0375 5.71637   1
  -2   6   9 93.9526 5.05739   2
   1  -6  -9 49.5340 4.84178   2
   1  -6  -9 52.6577 5.02242   2
  -1   6   9 52.0092 4.80297   1
   0  -6  -9 8.44382 2.18391   2
   0  -6  -9 9.83208 2.30015   2
   0   6   9 8.35359 1.35835   5
   0   6   9 10.5469 2.23338   1
  -1  -6  -9 1.95404 1.30204   2
  -1  -6  -9 3.76854 1.59837   2
   1   6   9 1.89126 0.82910   5
  -2  -6  -9 14.8711 2.89990   2
  -2  -6  -9 11.5359 2.50678   2
   2   6   9 12.8817 1.86853   5
  -3  -6  -9 4.45165 1.83651   2
  -3  -6  -9 3.59219 1.65915   2
   3   6   9 3.62019 1.17374   5
  -4  -6  -9 -1.0781 1.07494   2
  -4  -6  -9 0.21796 1.15077   2
   4   6   9 -0.4267 0.62654   5
 -11   7   9 7.64308 2.26394   1
 -11   7   9 6.29747 2.00881   2
 -10   7   9 15.3825 3.03693   1
 -10   7   9 12.4816 2.46519   2
  -9   7   9 2.05433 1.33788   2
  -9   7   9 3.27390 1.71726   1
  -8   7   9 3.80854 1.68021   1
  -8   7   9 3.54287 1.40959   2
   7  -7  -9 0.59446 0.93067   1
  -7   7   9 -0.9069 0.94151   1
  -7   7   9 2.74084 1.35366   2
   6  -7  -9 24.0092 3.27132   1
  -6   7   9 33.2527 3.70958   2
  -6   7   9 31.3989 4.02031   1
   5  -7  -9 55.0436 5.29137   2
  -5   7   9 58.6496 4.85086   2
  -5   7   9 56.0730 5.15407   1
   4  -7  -9 24.8520 3.47071   2
  -4   7   9 28.7415 3.79564   1
  -4   7   9 17.6338 2.62312   2
   3  -7  -9 9.42162 2.19517   2
  -3   7   9 5.11551 1.57401   2
  -3   7   9 6.28023 1.92032   1
   2  -7  -9 27.8361 3.92387   2
   2  -7  -9 29.4627 3.96912   2
  -2   7   9 32.2100 3.90049   1
   1  -7  -9 7.81327 2.15633   2
   1  -7  -9 8.64367 2.31817   2
  -1   7   9 7.90322 1.96815   1
   0  -7  -9 0.15449 1.07093   2
   0  -7  -9 -1.8014 0.66666   2
   0   7   9 -0.0467 0.61087   5
   0   7   9 -0.0296 0.95155   1
  -1  -7  -9 0.02265 1.11029   2
  -1  -7  -9 -0.8281 0.93038   2
   1   7   9 0.14352 0.64013   5
  -2  -7  -9 3.56631 1.68696   2
  -2  -7  -9 3.30713 1.61893   2
  -2  -7  -9 4.00900 1.73642   1
   2   7   9 5.56547 1.45847   5
  -3  -7  -9 6.49161 2.17906   1
  -3  -7  -9 7.78838 2.35914   2
   3   7   9 6.36677 1.67199   5
 -11   8   9 4.31081 1.77785   2
 -11   8   9 4.44351 1.79283   1
 -10   8   9 3.32032 1.65805   1
 -10   8   9 0.19885 1.04345   2
  -9   8   9 -0.2391 0.86494   1
  -9   8   9 -0.5934 0.92756   2
  -8   8   9 16.6441 3.12581   1
  -8   8   9 16.4595 2.79956   2
   7  -8  -9 2.43803 1.34696   1
  -7   8   9 3.06252 1.53304   2
  -7   8   9 2.66016 1.51030   1
   6  -8  -9 1.93239 1.38520   1
  -6   8   9 2.01008 1.43631   1
  -6   8   9 2.49889 1.34197   2
   5  -8  -9 0.40213 1.16443   1
  -5   8   9 -0.2257 1.01486   1
  -5   8   9 1.44958 1.02215   2
   4  -8  -9 -0.8534 0.95444   2
   4  -8  -9 -0.4006 1.01729   1
  -4   8   9 0.40433 1.00536   2
  -4   8   9 -0.1141 0.90444   1
   3  -8  -9 0.44291 1.28751   2
   3  -8  -9 0.44486 1.13538   1
  -3   8   9 -1.3655 0.72348   1
   2  -8  -9 11.0299 2.71364   2
   2  -8  -9 1.93483 1.27206   1
  -2   8   9 5.56714 1.90265   1
   1  -8  -9 -0.4724 1.14496   2
   1  -8  -9 0.75254 1.31383   1
  -1   8   9 2.60801 1.38729   1
   0  -8  -9 -0.1029 1.08919   1
   0  -8  -9 -0.4864 1.13924   2
   0   8   9 1.30348 0.89677   5
  -1  -8  -9 8.07417 2.34042   1
  -1  -8  -9 4.98946 2.00176   2
   1   8   9 2.69005 1.13852   5
  -2  -8  -9 3.88074 2.06131   2
  -2  -8  -9 3.49055 1.94834   1
   2   8   9 4.71672 1.33882   5
 -10   9   9 10.6512 2.77821   1
 -10   9   9 10.2351 2.46050   2
  -9   9   9 1.01425 1.32120   1
  -9   9   9 1.41563 1.24873   2
  -8   9   9 1.18806 1.15808   2
  -8   9   9 1.31774 1.37221   1
   7  -9  -9 0.02683 1.09976   1
  -7   9   9 -0.1552 0.87889   2
  -7   9   9 -1.2072 0.95797   1
   6  -9  -9 1.20297 1.37163   1
  -6   9   9 1.41832 1.28236   1
  -6   9   9 0.64715 1.00170   2
   5  -9  -9 -0.7264 1.05798   1
  -5   9   9 -0.2620 0.80822   2
  -5   9   9 1.01266 1.25732   1
   4  -9  -9 43.7339 4.97703   1
   4  -9  -9 47.5896 5.41637   2
  -4   9   9 38.9856 4.47806   1
   3  -9  -9 7.73817 2.29130   1
   3  -9  -9 10.4164 2.82880   2
  -3   9   9 9.78053 2.29431   1
   2  -9  -9 1.71839 1.52796   1
   2  -9  -9 0.70252 1.32864   2
  -2   9   9 0.60432 1.18093   1
   1  -9  -9 1.39333 1.48795   1
   1  -9  -9 1.48544 1.54443   2
  -1   9   9 2.27553 1.02998   5
   0  -9  -9 4.20972 1.91088   1
   0  -9  -9 6.11769 2.25468   2
   0   9   9 5.20648 1.45198   5
  -1  -9  -9 4.55189 2.11960   2
  -1  -9  -9 5.21696 2.21571   1
   1   9   9 5.60921 1.48753   5
  -9  10   9 10.9706 2.50247   2
  -9  10   9 7.74661 2.38844   1
  -8  10   9 14.6775 3.02761   1
  -8  10   9 17.7080 2.94400   2
   7 -10  -9 1.25598 1.41308   1
  -7  10   9 1.88344 1.39068   2
  -7  10   9 6.70471 2.34962   1
   6 -10  -9 0.70779 1.47088   1
  -6  10   9 1.37966 1.24377   1
  -6  10   9 -0.0127 1.01474   2
   5 -10  -9 13.8071 2.93305   1
  -5  10   9 9.44130 2.43241   1
   4 -10  -9 11.8155 2.84042   1
  -4  10   9 11.4766 2.80839   1
   3 -10  -9 16.9576 3.39678   1
   3 -10  -9 20.9208 3.79318   2
  -3  10   9 16.1256 2.95635   1
   2 -10  -9 0.63365 1.41029   1
   2 -10  -9 -1.0332 1.04273   2
  -2  10   9 -0.4714 0.96293   1
   1 -10  -9 0.54079 1.33005   1
   1 -10  -9 -0.6624 1.28911   2
  -1  10   9 0.29934 0.81905   5
  -8  11   9 -0.9921 0.96722   1
  -8  11   9 -0.5771 0.85716   2
  -7  11   9 3.56563 1.83445   1
  -7  11   9 2.39374 1.50699   2
   6 -11  -9 9.68905 2.81757   1
  -6  11   9 7.83375 2.40465   1
   5 -11  -9 -0.1688 1.33108   1
  -5  11   9 1.29906 1.31493   1
   4 -11  -9 9.89858 2.72584   1
  -4  11   9 7.55743 2.22590   1
   3 -11  -9 0.49508 1.27528   1
  -3  11   9 1.19497 1.44511   1
   1 -11  10 0.64242 1.46425   1
  -2  11 -10 -1.1421 0.95629   1
   2 -11  10 -0.2785 1.45254   1
  -3  11 -10 2.11034 1.40469   1
   3 -11  10 0.53575 1.47972   1
  -4  11 -10 -0.6641 1.09661   2
  -4  11 -10 0.15425 1.21983   1
   4 -11  10 -5.1201 2.04624   4
  -5  11 -10 -0.6542 1.02768   1
  -5  11 -10 -0.6911 0.93290   2
   5 -11  10 0.05095 0.83898   4
  -1 -10  10 9.52942 2.97790   2
  -1 -10  10 6.91768 2.56091   1
   0  10 -10 0.10979 1.06565   1
   0 -10  10 0.35656 1.51663   1
  -1  10 -10 4.16594 1.71848   1
   1 -10  10 3.28033 1.97461   1
  -2  10 -10 12.5483 2.71943   1
   2 -10  10 13.2955 3.31702   1
  -3  10 -10 0.49749 1.25777   2
  -3  10 -10 1.23425 1.29791   1
   3 -10  10 0.50963 1.62286   1
   3 -10  10 8.15140 2.65161   4
  -4  10 -10 -0.3603 0.77377   1
  -4  10 -10 -0.7514 1.19939   2
   4 -10  10 -3.6583 1.44087   4
   4 -10  10 -0.8373 1.32343   1
  -5  10 -10 5.99470 2.01689   1
  -5  10 -10 3.54616 1.72037   2
   5 -10  10 2.61345 1.27810   4
  -6  10 -10 14.1400 2.93659   2
  -6  10 -10 12.1892 2.65425   1
   6 -10  10 14.2903 2.45239   4
  -7  10 -10 -1.0957 0.90376   2
   7 -10  10 -0.6364 0.84374   4
  -3  -9  10 12.4590 3.34437   2
  -3  -9  10 7.91920 2.82335   1
  -2  -9  10 6.32856 2.59358   2
  -2  -9  10 10.0623 2.84367   1
   1   9 -10 -0.0153 1.19883   1
  -1  -9  10 -0.0740 1.27631   2
  -1  -9  10 0.80026 1.46731   1
   0   9 -10 0.76173 1.17639   1
   0  -9  10 1.08180 1.64423   2
   0  -9  10 0.72276 1.41125   1
  -1   9 -10 4.67282 1.82191   1
   1  -9  10 3.75025 2.00036   1
  -2   9 -10 -0.1264 0.99477   2
  -2   9 -10 0.77741 1.22159   1
   2  -9  10 1.83257 1.84066   1
  -3   9 -10 1.00574 1.19090   1
  -3   9 -10 1.18128 1.37477   2
   3  -9  10 3.15400 2.41185   4
   3  -9  10 0.98461 1.42061   1
  -4   9 -10 15.5512 2.78781   2
  -4   9 -10 17.5537 3.02338   1
   4  -9  10 15.5769 2.36768   4
   4  -9  10 9.45850 2.63542   1
  -5   9 -10 15.4867 2.79551   2
  -5   9 -10 20.5886 3.26269   1
   5  -9  10 18.8843 2.62051   4
  -6   9 -10 3.19644 1.55018   1
  -6   9 -10 7.13409 1.96388   2
   6  -9  10 6.51415 1.65673   4
  -7   9 -10 1.57986 1.34232   1
  -7   9 -10 0.65307 1.09875   2
   7  -9  10 0.68266 1.07144   4
  -4  -8  10 2.90480 1.92663   1
  -4  -8  10 4.43011 2.19637   2
  -3  -8  10 10.1851 2.81104   2
  -3  -8  10 8.81740 2.77647   1
   2   8 -10 4.35522 1.73940   1
  -2  -8  10 2.19449 1.79652   2
  -2  -8  10 2.43290 1.83199   1
   1   8 -10 0.96864 1.13391   1
  -1  -8  10 1.46267 1.61004   2
  -1  -8  10 3.38969 1.87391   1
   0   8 -10 6.55116 1.97796   1
   0  -8  10 9.32570 2.65177   1
   0  -8  10 10.8658 2.68140   2
  -1   8 -10 0.41416 1.06530   1
  -1   8 -10 1.64074 1.33850   2
   1  -8  10 1.58001 1.42993   2
   1  -8  10 0.40705 1.33402   1
  -2   8 -10 4.45904 1.58260   2
  -2   8 -10 6.22359 1.86501   1
   2  -8  10 4.25564 1.98310   1
  -3   8 -10 2.89521 1.58039   2
  -3   8 -10 5.10525 1.73843   1
   3  -8  10 6.02555 2.29434   1
   3  -8  10 3.35349 2.08170   4
  -4   8 -10 1.14179 1.22637   2
  -4   8 -10 -0.0059 0.94276   1
   4  -8  10 0.13758 0.69642   4
   4  -8  10 7.62737 2.45119   1
  -5   8 -10 0.43884 1.01914   2
  -5   8 -10 0.61387 1.01796   1
   5  -8  10 0.35001 0.78853   4
  -6   8 -10 4.71519 1.79492   2
  -6   8 -10 2.79961 1.41970   1
   6  -8  10 5.01460 1.39003   4
  -7   8 -10 4.32065 1.73833   2
  -7   8 -10 0.74521 1.14324   1
   7  -8  10 1.36640 1.14617   4
  -8   8 -10 -0.4400 0.99838   1
  -8   8 -10 6.15810 1.69951   2
   8  -8  10 1.49498 1.04618   4
  -5  -7  10 2.67364 1.80564   2
  -5  -7  10 -0.3492 1.26699   1
  -4  -7  10 2.82956 1.69541   1
  -4  -7  10 2.50505 1.75162   2
  -3  -7  10 4.94798 2.03773   2
  -3  -7  10 2.82032 1.88863   1
   2   7 -10 2.05866 1.30985   1
  -2  -7  10 0.73888 1.34929   2
  -2  -7  10 1.83660 1.66022   1
   1   7 -10 1.97837 1.37618   1
  -1  -7  10 2.09929 1.58165   1
  -1  -7  10 1.95552 1.48245   2
   0   7 -10 1.59718 1.24536   1
   0   7 -10 1.84424 1.19599   2
   0  -7  10 2.25484 1.56740   2
   0  -7  10 -0.3548 1.17809   1
  -1   7 -10 11.6077 2.23226   2
  -1   7 -10 8.79579 2.06377   1
   1  -7  10 14.2951 2.99059   1
   1  -7  10 15.3820 2.96301   2
  -2   7 -10 13.6843 2.40103   2
  -2   7 -10 15.1356 2.63569   1
   2  -7  10 11.0609 2.64635   1
  -3   7 -10 28.4701 3.49984   2
  -3   7 -10 33.6254 3.79481   1
   3  -7  10 29.2006 3.15521   4
   3  -7  10 31.7212 4.26401   1
  -4   7 -10 2.42739 1.31813   1
  -4   7 -10 1.76710 1.12413   2
   4  -7  10 2.65319 1.48890   1
   4  -7  10 2.94941 1.06769   4
  -5   7 -10 21.8559 3.08874   2
  -5   7 -10 18.8037 2.96584   1
   5  -7  10 25.2948 2.85005   4
  -6   7 -10 7.56020 2.03589   2
  -6   7 -10 8.50714 2.14634   1
   6  -7  10 10.2338 1.93084   4
  -7   7 -10 14.8685 2.66853   2
  -7   7 -10 12.3356 2.43207   1
   7  -7  10 8.17281 1.83737   4
  -8   7 -10 0.37241 1.10495   1
  -8   7 -10 0.30199 0.93220   2
   8  -7  10 0.24797 0.94746   4
  -6  -6  10 2.30896 1.73892   1
  -6  -6  10 -3.0110 0.96223   3
  -6  -6  10 1.52790 1.69644   2
   5   6 -10 4.57471 1.37101   5
  -5  -6  10 2.51048 1.88275   2
  -5  -6  10 3.96418 2.05006   1
   4   6 -10 3.94201 1.03406   5
  -4  -6  10 2.45035 1.62122   2
  -4  -6  10 5.50235 2.14784   1
   3   6 -10 5.58481 1.64719   1
   3   6 -10 6.59054 1.26794   5
  -3  -6  10 8.85368 2.46836   2
  -3  -6  10 4.08067 1.82337   1
   2   6 -10 6.18310 1.79805   1
  -2  -6  10 8.68277 2.41506   2
  -2  -6  10 4.61823 1.92973   1
   1   6 -10 10.5637 2.22910   2
   1   6 -10 10.9214 2.23003   1
  -1  -6  10 10.5718 2.52967   1
  -1  -6  10 8.88481 2.30387   2
   0   6 -10 0.94762 1.10299   1
   0   6 -10 0.01979 0.82375   2
   0  -6  10 0.93103 1.17787   1
   0  -6  10 0.12519 1.17978   2
  -1   6 -10 26.5898 3.42874   1
  -1   6 -10 20.7030 2.87702   2
   1  -6  10 26.1849 3.79336   1
   1  -6  10 19.2448 3.18592   2
  -2   6 -10 0.62295 0.94137   1
  -2   6 -10 -0.2563 0.74646   2
   2  -6  10 1.76893 1.42026   1
   2  -6  10 0.77026 1.72057   4
   2  -6  10 0.78319 1.20830   2
  -3   6 -10 14.0754 2.46642   2
  -3   6 -10 10.2200 2.15115   1
   3  -6  10 10.5449 1.69499   4
   3  -6  10 13.8843 2.66001   1
  -4   6 -10 6.93803 1.84111   2
  -4   6 -10 8.91655 2.04281   1
   4  -6  10 8.32851 2.18746   1
   4  -6  10 4.66984 1.28082   4
  -5   6 -10 27.7648 3.38795   1
  -5   6 -10 31.2557 3.67530   2
   5  -6  10 33.5313 3.21587   4
  -6   6 -10 2.45183 1.16088   1
  -6   6 -10 2.82683 1.31324   2
   6  -6  10 0.40492 0.72497   4
  -7   6 -10 0.59677 1.05709   1
  -7   6 -10 0.47717 1.02057   2
   7  -6  10 0.31886 0.73542   4
  -8   6 -10 4.06723 1.55374   2
  -8   6 -10 2.66862 1.43487   1
   8  -6  10 4.44929 1.50836   4
   7   5 -10 3.08415 1.17829   5
  -7  -5  10 1.00922 1.62779   1
  -7  -5  10 2.99767 1.87524   2
  -7  -5  10 2.15740 1.01076   3
   6   5 -10 0.55355 0.78041   5
  -6  -5  10 2.92339 1.10186   3
  -6  -5  10 -1.6126 1.32381   1
  -6  -5  10 0.26919 1.40186   2
   5   5 -10 1.62642 0.82661   5
  -5  -5  10 3.06550 1.65957   2
  -5  -5  10 2.77148 1.03607   3
  -5  -5  10 1.30016 1.46630   1
   4   5 -10 1.66550 0.68077   5
   4   5 -10 -0.1510 1.07807   1
  -4  -5  10 2.97597 1.73411   1
  -4  -5  10 1.75439 1.63573   2
  -4  -5  10 0.50679 0.73618   3
   3   5 -10 6.85655 1.78300   1
   3   5 -10 5.48826 0.95611   5
  -3  -5  10 8.21931 2.30532   1
  -3  -5  10 4.41753 1.85753   2
   2   5 -10 -0.2657 0.32064   5
   2   5 -10 -0.4869 0.68239   1
  -2  -5  10 -0.0363 1.03689   2
  -2  -5  10 -0.3980 1.00120   1
   1   5 -10 19.7328 2.78532   1
   1   5 -10 18.8079 2.75878   2
  -1  -5  10 24.5411 3.70618   1
  -1  -5  10 22.5099 3.33027   2
   0   5 -10 13.0798 2.32560   1
   0   5 -10 15.3056 2.47779   2
   0  -5  10 12.9374 2.70360   1
   0  -5  10 13.0344 2.57163   2
  -1   5 -10 53.5933 4.69813   2
  -1   5 -10 67.2344 4.40644   1
   1  -5  10 56.8137 5.06257   2
   1  -5  10 62.9358 5.63412   1
  -2   5 -10 0.99430 1.05343   2
  -2   5 -10 -0.5705 0.72347   1
   2  -5  10 1.26792 1.17827   2
   2  -5  10 -0.7096 0.78774   4
   2  -5  10 0.87708 1.15106   1
  -3   5 -10 21.4554 2.91665   1
  -3   5 -10 26.9530 3.18917   2
   3  -5  10 25.3740 2.53157   4
   3  -5  10 28.5903 3.65200   1
  -4   5 -10 0.23773 0.85543   2
  -4   5 -10 0.27526 0.85580   1
   4  -5  10 -0.4241 0.53225   4
   4  -5  10 -1.6723 0.60833   1
  -5   5 -10 -0.1978 0.81015   1
  -5   5 -10 1.26895 1.15762   2
   5  -5  10 0.83098 0.72960   4
  -6   5 -10 9.93507 2.04979   2
  -6   5 -10 9.76395 2.10012   1
   6  -5  10 7.39597 1.64616   4
  -7   5 -10 -0.6695 0.92820   1
  -7   5 -10 0.00975 0.87950   2
   7  -5  10 0.19621 0.73858   4
  -8   5 -10 1.70849 1.09888   1
  -8   5 -10 -0.0309 0.86368   2
   8   4 -10 0.90355 1.03124   5
   7   4 -10 7.99057 1.62441   5
  -7  -4  10 4.78167 1.24313   3
  -7  -4  10 8.46233 2.52822   1
  -7  -4  10 7.69121 2.30465   2
   6   4 -10 0.70779 0.73333   5
  -6  -4  10 2.25150 0.93135   3
  -6  -4  10 1.81722 1.43469   2
  -6  -4  10 0.99002 1.35820   1
   5   4 -10 3.59952 0.95420   5
  -5  -4  10 4.93974 1.96978   1
  -5  -4  10 6.38441 1.31380   3
  -5  -4  10 4.94789 1.82542   2
   4   4 -10 0.50987 0.57084   5
   4   4 -10 1.05601 0.95076   1
  -4  -4  10 2.40731 1.52323   1
  -4  -4  10 1.64110 0.83291   3
  -4  -4  10 1.36754 1.42890   2
   3   4 -10 26.6715 3.22069   1
   3   4 -10 22.8546 1.44227   5
  -3  -4  10 19.6544 1.86789   3
  -3  -4  10 25.6974 3.56403   2
  -3  -4  10 23.1487 3.54356   1
   2   4 -10 9.80635 2.04067   2
   2   4 -10 11.7218 2.18416   1
  -2  -4  10 10.8782 2.48880   1
  -2  -4  10 9.74552 2.28937   2
   1   4 -10 8.36418 1.79834   2
   1   4 -10 6.03594 1.63837   1
  -1  -4  10 6.27681 1.84715   1
  -1  -4  10 4.74359 1.60394   2
   0   4 -10 121.537 6.02748   2
   0   4 -10 116.089 5.93797   1
   0  -4  10 115.837 6.60153   1
   0  -4  10 118.659 6.35160   2
  -1   4 -10 38.0111 3.85639   1
  -1   4 -10 42.7038 4.06271   2
   1  -4  10 35.1769 3.84549   2
   1  -4  10 38.4089 3.17870   4
   1  -4  10 45.6063 4.82385   1
  -2   4 -10 3.58965 1.36216   2
  -2   4 -10 3.65696 1.34503   1
   2  -4  10 4.37057 1.65302   1
   2  -4  10 4.20882 1.12572   4
   2  -4  10 4.04252 1.47349   2
  -3   4 -10 18.7243 2.72046   2
  -3   4 -10 11.1560 2.14509   1
   3  -4  10 13.6737 1.86922   4
   3  -4  10 16.2845 2.73991   1
  -4   4 -10 -0.1589 0.79721   2
  -4   4 -10 1.57254 0.93409   1
   4  -4  10 0.22054 0.97665   1
   4  -4  10 0.07304 0.52492   4
  -5   4 -10 38.1418 3.80859   2
  -5   4 -10 34.5110 3.57767   1
   5  -4  10 32.8322 3.02361   4
  -6   4 -10 4.95382 1.50038   1
  -6   4 -10 6.58461 1.73060   2
   6  -4  10 7.39045 1.59204   4
  -7   4 -10 7.13776 1.81758   1
  -7   4 -10 9.17867 2.07449   2
  -8   4 -10 3.87368 1.49138   2
  -8   4 -10 4.36541 1.59531   1
  -8  -3  10 0.91506 1.36042   2
  -8  -3  10 2.28033 1.73671   1
  -8  -3  10 2.10389 1.12892   3
  -7  -3  10 2.78372 1.70707   1
  -7  -3  10 2.19853 1.01280   3
  -7  -3  10 3.99938 1.79605   2
  -6  -3  10 -0.1814 1.08590   2
  -6  -3  10 0.22205 0.60607   3
  -6  -3  10 0.32755 1.31150   1
   5   3 -10 2.12140 1.18960   1
  -5  -3  10 0.79352 1.18298   1
  -5  -3  10 0.82177 1.17399   2
  -5  -3  10 1.50985 0.72683   3
   4   3 -10 24.9237 3.04751   1
  -4  -3  10 29.8704 2.40553   3
  -4  -3  10 27.4471 3.64197   2
  -4  -3  10 22.0965 3.37208   1
   3   3 -10 18.5394 2.59886   2
   3   3 -10 17.2722 2.59633   1
  -3  -3  10 23.5538 3.51684   1
  -3  -3  10 22.0122 1.84490   3
  -3  -3  10 19.8111 3.01085   2
   2   3 -10 13.8997 2.26901   2
   2   3 -10 11.7892 2.14807   1
  -2  -3  10 11.5573 1.26200   3
  -2  -3  10 11.2609 2.39530   1
  -2  -3  10 11.0885 2.35820   2
   1   3 -10 30.8551 3.31123   1
   1   3 -10 27.2035 3.14653   2
  -1  -3  10 32.0711 3.73224   2
  -1  -3  10 32.1395 3.89802   1
   0   3 -10 0.04818 0.72125   2
   0   3 -10 -0.2918 0.70523   1
   0  -3  10 0.41244 1.06163   1
   0  -3  10 0.40916 0.94182   2
  -1   3 -10 1.25242 0.93703   2
  -1   3 -10 4.71022 1.47471   1
   1  -3  10 2.88180 1.37216   1
   1  -3  10 2.18846 1.25895   2
   1  -3  10 3.06726 0.89355   4
  -2   3 -10 73.5872 4.52076   2
  -2   3 -10 79.4665 4.67207   1
   2  -3  10 74.1454 4.50551   2
   2  -3  10 76.1351 4.98499   1
   2  -3  10 79.7252 3.69919   4
  -3   3 -10 12.4536 2.20041   2
  -3   3 -10 8.35081 1.77265   1
   3  -3  10 8.08852 1.90667   1
   3  -3  10 13.3333 1.74835   4
  -4   3 -10 33.3843 3.50966   2
  -4   3 -10 40.3892 4.02988   1
   4  -3  10 35.8977 2.53591   4
   4  -3  10 35.6091 3.79080   1
  -5   3 -10 -0.4558 0.65035   1
  -5   3 -10 0.50164 0.84959   2
   5  -3  10 0.26877 0.58317   4
  -6   3 -10 0.22325 0.90753   1
  -6   3 -10 0.94159 0.87041   2
  -7   3 -10 10.7364 2.16117   2
  -7   3 -10 17.6349 2.70424   1
  -8   3 -10 0.17223 0.96547   2
  -8   3 -10 -0.8019 0.92501   1
  -9  -2  10 2.57533 1.72257   1
  -9  -2  10 2.40304 1.21133   3
  -9  -2  10 4.39722 1.83900   2
  -8  -2  10 4.08939 1.84483   2
  -8  -2  10 8.15078 1.61035   3
  -8  -2  10 5.18766 2.15396   1
  -7  -2  10 -0.1687 1.11531   1
  -7  -2  10 1.22809 0.80729   3
  -7  -2  10 0.39259 1.25213   2
  -6  -2  10 0.50897 1.25720   1
  -6  -2  10 4.02355 1.76260   2
  -6  -2  10 2.64626 0.95142   3
   5   2 -10 3.49339 1.37057   1
  -5  -2  10 4.08102 1.01615   3
  -5  -2  10 4.18092 1.72318   2
  -5  -2  10 4.48317 1.89689   1
   4   2 -10 2.06981 1.14280   1
  -4  -2  10 1.82648 1.34425   2
  -4  -2  10 3.21088 1.63716   1
  -4  -2  10 3.20192 0.86748   3
   3   2 -10 11.5555 2.11238   2
   3   2 -10 9.91900 1.98416   1
  -3  -2  10 10.0785 2.29565   1
  -3  -2  10 11.4229 2.36767   2
  -3  -2  10 10.4244 1.25358   3
   2   2 -10 107.033 5.49248   2
   2   2 -10 111.190 5.63404   1
  -2  -2  10 106.737 3.75296   3
  -2  -2  10 106.259 6.15031   1
  -2  -2  10 116.492 6.04878   2
   1   2 -10 16.8171 2.43295   1
   1   2 -10 20.1847 2.67166   2
  -1  -2  10 27.1667 3.24168   2
  -1  -2  10 20.3569 3.16016   1
  -1  -2  10 18.3127 1.13898   3
   0   2 -10 18.2522 2.65812   1
   0   2 -10 16.7848 2.48336   2
   0  -2  10 13.3335 2.55209   1
   0  -2  10 12.2415 1.56611   4
   0  -2  10 18.5042 2.62376   2
  -1   2 -10 0.67394 0.94356   1
  -1   2 -10 0.88115 0.91107   2
   1  -2  10 1.49716 0.64481   4
   1  -2  10 3.32948 1.31544   2
   1  -2  10 2.18121 1.34893   1
  -2   2 -10 49.5890 3.63928   1
  -2   2 -10 49.7908 4.30943   2
   2  -2  10 57.1661 5.01944   1
   2  -2  10 51.3287 2.77438   4
   2  -2  10 44.1196 3.91900   2
  -3   2 -10 34.6695 3.49461   2
  -3   2 -10 37.0733 3.73078   1
   3  -2  10 34.7387 3.74715   1
   3  -2  10 34.6038 2.31775   4
  -4   2 -10 18.5100 2.58084   2
  -4   2 -10 23.6287 3.04524   1
   4  -2  10 13.8970 2.59569   1
   4  -2  10 16.6735 2.02550   4
  -5   2 -10 -0.6241 0.62766   2
  -5   2 -10 0.08212 0.75435   1
  -6   2 -10 5.90995 1.64030   1
  -6   2 -10 8.16359 1.83317   2
  -7   2 -10 25.4813 3.22701   1
  -7   2 -10 22.3256 2.98692   2
  -8   2 -10 2.26702 1.39670   2
  -9  -1  10 0.91514 1.31542   2
  -9  -1  10 1.64624 1.55394   1
  -9  -1  10 1.82923 1.13509   3
  -8  -1  10 2.80975 1.59506   2
  -8  -1  10 1.65478 0.93466   3
  -8  -1  10 1.22145 1.45336   1
  -7  -1  10 1.94634 0.93195   3
  -7  -1  10 0.03124 0.97198   2
  -7  -1  10 1.60234 1.48453   1
  -6  -1  10 11.0045 1.57226   3
  -6  -1  10 10.4098 2.47866   1
  -6  -1  10 15.6640 2.81675   2
  -5  -1  10 102.289 5.82819   2
  -5  -1  10 97.8030 4.11115   3
  -5  -1  10 91.5012 5.84427   1
   4   1 -10 35.6185 3.51496   1
   4   1 -10 41.6583 3.78660   2
  -4  -1  10 49.5706 4.58605   2
  -4  -1  10 34.6709 4.05526   1
  -4  -1  10 34.8615 2.10915   3
   3   1 -10 1.57292 1.06192   1
   3   1 -10 1.40214 0.94902   2
  -3  -1  10 1.81755 1.23201   1
  -3  -1  10 2.12096 1.18114   2
  -3  -1  10 2.23451 0.65599   3
   2   1 -10 4.80675 1.40273   1
   2   1 -10 2.23928 1.06509   2
  -2  -1  10 4.63898 0.70835   3
  -2  -1  10 2.98004 1.33442   2
  -2  -1  10 2.48607 1.37461   1
   1   1 -10 27.1934 3.16448   2
   1   1 -10 21.3848 2.71272   1
  -1  -1  10 23.1643 1.16831   3
  -1  -1  10 27.2075 3.39834   1
  -1  -1  10 27.1227 2.18966   4
  -1  -1  10 27.0819 3.15227   2
   0   1 -10 15.6434 2.40798   1
   0   1 -10 19.9839 2.68738   2
   0  -1  10 15.1708 2.46366   2
   0  -1  10 17.8765 1.64493   4
   0  -1  10 19.5800 2.87515   1
  -1   1 -10 61.5020 4.05682   1
  -1   1 -10 62.2318 4.03003   2
   1  -1  10 65.1258 4.46370   1
   1  -1  10 68.5708 4.18022   2
   1  -1  10 63.1874 2.94181   4
  -2   1 -10 93.1169 5.03698   1
  -2   1 -10 84.5193 4.83985   2
   2  -1  10 86.7684 3.72948   4
   2  -1  10 83.8156 5.04388   1
   2  -1  10 81.1118 4.57219   2
  -3   1 -10 7.31461 1.74342   2
  -3   1 -10 7.70234 1.67774   1
   3  -1  10 5.19585 1.62136   1
   3  -1  10 5.78109 1.13935   4
  -4   1 -10 33.2427 3.53448   1
  -4   1 -10 31.6591 3.38231   2
  -5   1 -10 17.6175 2.70322   1
  -5   1 -10 15.8063 2.43903   2
  -6   1 -10 6.84093 1.77946   2
  -7   1 -10 1.11062 1.00749   2
  -8   1 -10 6.75505 1.82477   2
 -10   0  10 2.85605 1.27715   3
 -10   0  10 4.41613 1.87988   2
 -10   0  10 3.13140 1.75659   1
  -9   0  10 1.66334 1.55476   1
  -9   0  10 0.11593 0.86257   2
  -9   0  10 1.81864 1.07982   3
  -8   0  10 0.38788 0.90906   2
  -8   0  10 -0.0597 0.64439   3
  -8   0  10 0.33660 1.23799   1
  -7   0  10 1.70264 1.18072   2
  -7   0  10 -0.0277 0.62937   3
  -7   0  10 0.86926 1.31811   1
  -6   0  10 9.44531 1.51283   3
  -6   0  10 5.40215 1.76917   2
  -6   0  10 6.17527 2.03283   1
  -5   0  10 -0.3884 0.46779   3
  -5   0  10 -0.5838 0.87103   1
  -5   0  10 0.53587 1.03230   2
   4   0 -10 20.8341 2.75273   2
  -4   0  10 18.9870 1.74067   3
  -4   0  10 28.8445 3.37692   2
  -4   0  10 22.6967 3.26674   1
   3   0 -10 17.5359 2.46678   2
  -3   0  10 22.1313 2.90256   2
  -3   0  10 19.5445 2.94341   1
  -3   0  10 21.3970 1.10398   5
  -3   0  10 24.4436 1.49223   3
   2   0 -10 1.60273 1.04964   2
  -2   0  10 1.62472 1.03869   2
  -2   0  10 2.68815 0.97824   4
  -2   0  10 1.83618 0.24717   5
  -2   0  10 2.24161 0.55231   3
  -2   0  10 1.44936 1.30390   1
   1   0 -10 18.2853 2.46509   1
   1   0 -10 23.5662 2.81919   2
  -1   0  10 25.1157 3.29132   1
  -1   0  10 18.5535 2.64665   2
  -1   0  10 21.8358 1.39417   4
  -1   0  10 19.5227 1.00191   3
   0   0 -10 1.04993 0.98528   1
   0   0 -10 3.62454 1.30050   2
   0   0  10 2.82277 0.66333   4
   0   0  10 2.11048 1.21429   1
   0   0  10 1.82074 1.07256   2
  -1   0 -10 32.9081 3.43220   1
  -1   0 -10 31.1895 3.38150   2
   1   0  10 31.4968 3.54937   1
   1   0  10 27.7517 1.79285   4
   1   0  10 28.7947 1.01208   5
   1   0  10 28.2408 3.02076   2
  -2   0 -10 257.124 9.57606   2
  -2   0 -10 258.188 9.54031   1
   2   0  10 237.419 6.71725   5
   2   0  10 233.282 9.51273   1
  -3   0 -10 27.1274 3.24374   2
   3   0  10 25.9823 1.52188   5
   3   0  10 28.0176 3.20238   1
  -4   0 -10 9.61458 1.97690   2
   4   0  10 9.15560 1.18685   5
  -5   0 -10 1.72651 1.02987   2
   5   0  10 2.56854 0.81669   5
  -6   0 -10 1.02726 1.02399   2
   6   0  10 0.39925 0.70252   5
  -7   0 -10 0.32591 1.11874   2
 -10   1  10 1.62369 1.35731   2
 -10   1  10 0.43236 1.29520   1
 -10   1  10 0.65026 0.84522   3
  -9   1  10 1.51013 1.31096   2
  -9   1  10 1.85792 1.07200   3
  -9   1  10 2.52342 1.67733   1
  -8   1  10 15.4124 2.93996   1
  -8   1  10 14.1013 2.54552   2
  -7   1  10 49.3830 4.99434   1
  -7   1  10 48.5238 4.60851   2
  -6   1  10 7.58607 1.96185   2
  -6   1  10 7.46056 2.04209   1
  -5   1  10 5.53920 1.67205   2
  -5   1  10 9.07371 2.19803   1
   4  -1 -10 0.00797 0.74425   2
  -4   1  10 -0.4732 0.66121   2
  -4   1  10 1.72339 1.20451   1
   3  -1 -10 24.6476 3.06028   2
  -3   1  10 28.5390 3.54621   1
  -3   1  10 25.7612 1.33504   5
  -3   1  10 26.2449 3.09069   2
   2  -1 -10 61.2563 3.99074   2
  -2   1  10 52.9774 1.88900   5
  -2   1  10 55.4328 3.84111   2
  -2   1  10 46.4737 4.52131   1
  -2   1  10 52.0813 2.11598   4
   1  -1 -10 1.49906 1.07894   2
  -1   1  10 2.60870 1.41886   1
  -1   1  10 2.12923 0.51949   4
  -1   1  10 2.64773 0.39537   5
  -1   1  10 3.85271 1.28268   2
   0  -1 -10 112.331 5.77726   2
   0   1  10 120.962 4.13005   4
   0   1  10 122.808 6.34848   1
   0   1  10 115.209 5.63690   2
   0   1  10 121.671 3.52984   5
  -1  -1 -10 116.425 5.93758   2
   1   1  10 127.937 5.70368   2
   1   1  10 119.981 3.75683   5
   1   1  10 115.398 6.12707   1
  -2  -1 -10 150.292 6.90224   2
   2   1  10 145.979 4.73017   5
   2   1  10 150.435 6.95773   1
  -3  -1 -10 21.3457 2.89989   2
   3   1  10 20.9117 1.75547   5
   3   1  10 21.5256 2.89591   1
  -4  -1 -10 31.7429 3.49468   2
   4   1  10 30.3587 2.01822   5
  -5  -1 -10 10.5817 2.19307   2
   5   1  10 8.01324 1.38652   5
  -6  -1 -10 20.8127 3.05505   2
   6   1  10 19.9766 2.28267   5
  -7  -1 -10 4.21655 1.69606   2
   7   1  10 3.56755 1.39892   5
 -10   2  10 3.62416 1.55077   2
 -10   2  10 1.81732 1.65230   1
  -9   2  10 5.73628 1.93031   1
  -9   2  10 5.12376 1.80103   2
  -8   2  10 -0.6739 0.84008   2
  -8   2  10 -0.6696 0.99129   1
  -7   2  10 12.5596 2.46451   2
  -7   2  10 14.7141 2.68406   1
  -6   2  10 1.76484 1.34306   1
  -6   2  10 1.47085 1.08942   2
   5  -2 -10 0.19645 1.26367   2
  -5   2  10 1.75770 1.26078   2
  -5   2  10 1.74204 1.26389   1
   4  -2 -10 20.4616 2.76083   2
  -4   2  10 23.1304 3.04566   2
  -4   2  10 14.5444 2.60616   1
   3  -2 -10 17.1239 2.56272   2
  -3   2  10 15.4394 2.74165   1
  -3   2  10 15.0703 0.83792   4
  -3   2  10 15.5335 2.48003   2
   2  -2 -10 44.7744 4.19066   2
  -2   2  10 40.7132 1.60337   4
  -2   2  10 40.7911 4.10136   1
  -2   2  10 45.6898 4.01957   2
   1  -2 -10 56.7220 3.93069   2
  -1   2  10 60.5549 3.84953   2
  -1   2  10 61.1564 4.33938   1
  -1   2  10 52.9094 2.06974   5
   0  -2 -10 13.3142 2.29623   2
   0   2  10 10.6216 1.97331   2
   0   2  10 12.7099 2.41676   1
   0   2  10 12.3578 1.11476   5
  -1  -2 -10 76.5552 4.78416   2
   1   2  10 91.0674 5.16435   1
   1   2  10 79.9400 3.07840   5
  -2  -2 -10 0.43531 0.94663   2
   2   2  10 0.16144 0.39851   5
   2   2  10 -0.3532 0.68626   1
  -3  -2 -10 -0.2293 0.75443   2
   3   2  10 2.39066 0.78926   5
  -4  -2 -10 -0.0560 0.92665   2
   4   2  10 0.12833 0.60946   5
  -5  -2 -10 28.2449 3.60198   2
   5   2  10 26.6446 2.57710   5
  -6  -2 -10 1.98535 1.43114   2
   6   2  10 3.35844 1.14608   5
 -10   3  10 21.1844 3.56556   1
 -10   3  10 16.9111 2.90260   2
  -9   3  10 3.92131 1.77667   1
  -9   3  10 2.67849 1.45112   2
  -8   3  10 0.27270 1.04753   2
  -8   3  10 -0.6400 1.13827   1
  -7   3  10 118.033 6.31732   2
  -7   3  10 118.435 6.70131   1
  -6   3  10 81.5987 5.05140   2
  -6   3  10 80.4012 5.34644   1
   5  -3 -10 41.4009 4.01531   2
  -5   3  10 40.5760 4.33701   1
  -5   3  10 36.2620 3.84135   2
   4  -3 -10 23.9664 3.15712   2
  -4   3  10 25.6655 3.12122   2
  -4   3  10 27.6192 3.61463   1
   3  -3 -10 10.6942 2.19688   2
  -3   3  10 7.80431 2.02410   1
  -3   3  10 6.58600 1.65813   2
   2  -3 -10 -0.4434 0.83298   2
  -2   3  10 -0.4583 0.88729   1
  -2   3  10 0.88784 0.92265   2
   1  -3 -10 2.77099 1.37541   2
  -1   3  10 5.01903 1.41312   2
  -1   3  10 5.11734 1.65211   1
   0  -3 -10 8.95827 2.02675   2
   0   3  10 9.95360 2.21861   1
   0   3  10 8.24913 1.06527   5
   0   3  10 10.3413 1.95204   2
  -1  -3 -10 140.969 6.86191   2
   1   3  10 128.443 4.63744   5
   1   3  10 134.203 6.61900   1
  -2  -3 -10 6.24866 1.70968   2
   2   3  10 6.94418 1.72044   1
   2   3  10 5.64163 1.05354   5
  -3  -3 -10 8.75426 2.14051   2
   3   3  10 8.23974 1.35109   5
  -4  -3 -10 4.07721 1.62657   2
   4   3  10 2.90475 0.96699   5
  -5  -3 -10 14.1794 2.67402   2
   5   3  10 10.5772 1.77442   5
  -6  -3 -10 2.95740 1.52968   2
   6   3  10 3.64426 1.22939   5
 -11   4  10 1.29931 1.30575   2
 -11   4  10 -0.8580 1.19275   1
 -10   4  10 3.09778 1.62590   1
 -10   4  10 2.53726 1.50776   2
  -9   4  10 87.4489 5.93881   1
  -9   4  10 84.1158 5.34776   2
  -8   4  10 152.679 8.02069   1
  -8   4  10 156.960 7.53790   2
  -7   4  10 23.4595 3.65713   1
  -7   4  10 19.2730 2.91783   2
  -6   4  10 25.9229 3.28974   2
  -6   4  10 28.9185 3.75804   1
   5  -4 -10 7.83569 2.07056   2
  -5   4  10 6.88085 2.04011   1
  -5   4  10 4.75531 1.50771   2
   4  -4 -10 126.440 6.52115   2
  -4   4  10 132.624 6.40002   2
  -4   4  10 127.891 6.84286   1
   3  -4 -10 41.7194 4.17988   2
  -3   4  10 44.7793 4.53138   1
  -3   4  10 43.9829 4.10552   2
   2  -4 -10 69.5391 4.67064   2
  -2   4  10 67.3083 4.29536   2
  -2   4  10 74.2968 4.91548   1
   1  -4 -10 99.8748 5.81690   2
  -1   4  10 97.0833 5.19966   2
  -1   4  10 106.682 5.94135   1
   0  -4 -10 9.27987 2.18260   2
   0   4  10 5.54613 0.99375   5
   0   4  10 2.86695 1.33569   1
  -1  -4 -10 1.27235 1.11102   2
   1   4  10 1.56556 0.65234   5
   1   4  10 0.64435 1.13063   1
  -2  -4 -10 0.23770 1.08803   2
   2   4  10 -0.6521 0.33928   5
  -3  -4 -10 15.5607 2.75971   2
   3   4  10 17.7164 2.09620   5
  -4  -4 -10 6.18554 2.04461   2
   4   4  10 5.68079 1.35902   5
  -5  -4 -10 3.40885 1.66289   2
   5   4  10 1.44040 0.99680   5
 -11   5  10 -0.3794 0.90950   2
 -11   5  10 0.24966 1.34489   1
 -10   5  10 22.6330 3.59949   1
 -10   5  10 14.9389 2.74021   2
  -9   5  10 4.09496 1.61341   2
  -9   5  10 2.58214 1.45106   1
  -8   5  10 1.84228 1.22687   2
  -8   5  10 3.42388 1.81496   1
  -7   5  10 92.0203 5.51319   2
  -7   5  10 109.276 6.40006   1
  -6   5  10 26.6378 3.38486   2
  -6   5  10 28.6156 3.82180   1
   5  -5 -10 11.6645 2.66311   2
   5  -5 -10 9.10651 2.51152   2
  -5   5  10 12.7491 2.64603   1
  -5   5  10 8.36903 1.88269   2
   4  -5 -10 119.658 6.54783   2
  -4   5  10 133.953 7.02152   1
  -4   5  10 121.206 6.21034   2
   3  -5 -10 67.9106 5.74993   2
  -3   5  10 67.4194 5.84926   1
  -3   5  10 54.0314 4.73955   2
   2  -5 -10 1.88596 1.33399   2
  -2   5  10 0.93860 1.25286   1
  -2   5  10 1.05347 1.07858   2
   1  -5 -10 4.82319 1.82968   2
  -1   5  10 3.95577 1.61741   1
   0  -5 -10 49.0629 4.89367   2
   0   5  10 46.6988 2.59566   5
   0   5  10 47.0253 4.47969   1
  -1  -5 -10 7.05464 1.98061   2
   1   5  10 6.17519 1.80548   1
   1   5  10 7.00992 1.26895   5
  -2  -5 -10 -1.4113 0.80576   2
   2   5  10 -0.7156 0.48343   5
  -3  -5 -10 1.66190 1.37026   2
   3   5  10 -0.6361 0.60853   5
  -4  -5 -10 2.77535 1.66867   2
   4   5  10 0.85218 0.97973   5
 -11   6  10 25.9477 3.60190   2
 -10   6  10 3.79899 2.00678   1
 -10   6  10 2.54025 1.45150   2
  -9   6  10 46.5889 5.07488   1
  -9   6  10 55.4992 5.12041   2
  -8   6  10 22.3877 3.44951   1
  -8   6  10 13.4840 2.51459   2
  -7   6  10 -0.3082 0.99613   1
  -7   6  10 1.03590 1.06295   2
  -6   6  10 28.1989 3.70401   1
  -6   6  10 21.3744 3.15189   2
  -5   6  10 14.5562 2.59493   2
  -5   6  10 17.7218 2.98102   1
   4  -6 -10 93.4299 5.97303   2
   4  -6 -10 113.159 6.42401   2
  -4   6  10 91.1525 5.43551   2
  -4   6  10 100.558 6.12215   1
   3  -6 -10 37.7555 4.38761   2
   3  -6 -10 37.7369 4.36433   2
  -3   6  10 39.4800 4.41082   1
  -3   6  10 37.1574 3.91547   2
   2  -6 -10 5.77735 1.91802   2
   2  -6 -10 6.80478 1.95627   2
  -2   6  10 5.31628 1.85650   1
  -2   6  10 8.74630 2.04588   2
   1  -6 -10 12.3959 2.65531   2
  -1   6  10 11.6450 2.48111   1
   0  -6 -10 26.4907 3.68747   2
   0   6  10 26.6740 3.40429   1
   0   6  10 29.3295 2.55548   5
  -1  -6 -10 1.19991 1.17634   2
   1   6  10 0.90251 0.81361   5
  -2  -6 -10 0.93888 1.35051   2
  -2  -6 -10 -1.1308 0.90295   2
   2   6  10 -0.0427 0.72050   5
  -3  -6 -10 -0.4431 1.21479   2
  -3  -6 -10 -1.0007 1.03911   2
   3   6  10 -0.3588 0.76105   5
 -10   7  10 0.09837 1.25624   1
 -10   7  10 -1.8407 0.81938   2
  -9   7  10 8.56785 2.21679   2
  -9   7  10 8.95650 2.36809   1
  -8   7  10 14.8669 2.99628   1
  -8   7  10 18.8200 3.06471   2
   7  -7 -10 -0.0720 0.96660   1
  -7   7  10 3.55619 1.80813   1
  -7   7  10 1.46476 1.20594   2
  -6   7  10 21.8553 3.13969   2
  -6   7  10 21.9599 3.49208   1
  -5   7  10 0.24129 1.02455   1
  -5   7  10 1.00724 1.14490   2
   4  -7 -10 6.35463 1.99622   2
  -4   7  10 6.81533 2.08238   1
  -4   7  10 6.36906 1.80542   2
   3  -7 -10 -0.6124 1.12501   2
   3  -7 -10 -1.6785 0.89103   2
  -3   7  10 -0.0620 0.96455   1
  -3   7  10 0.51332 0.87219   2
   2  -7 -10 71.3090 6.20660   2
   2  -7 -10 72.5346 6.44936   2
  -2   7  10 75.0091 5.14539   1
   1  -7 -10 0.99126 1.35423   2
   1  -7 -10 2.29395 1.47282   2
  -1   7  10 0.87713 0.70960   5
  -1   7  10 1.77651 1.23799   1
   0  -7 -10 13.5105 2.80964   2
   0  -7 -10 11.5560 2.71474   2
   0   7  10 12.1131 1.81545   5
  -1  -7 -10 -0.5782 1.23992   2
  -1  -7 -10 1.30250 1.37804   2
   1   7  10 -0.0560 0.69283   5
  -2  -7 -10 21.2815 3.75720   2
  -2  -7 -10 23.4507 3.82377   2
   2   7  10 22.5689 2.70789   5
 -10   8  10 19.5942 3.55017   1
 -10   8  10 21.8719 3.41732   2
  -9   8  10 0.55393 1.29698   1
  -9   8  10 -0.6569 0.90590   2
  -8   8  10 0.61623 1.12145   1
  -8   8  10 2.27482 1.29057   2
   7  -8 -10 -0.8141 0.94488   1
  -7   8  10 2.26503 1.33874   2
  -7   8  10 0.67877 1.30642   1
   6  -8 -10 -0.4470 1.02387   1
  -6   8  10 0.94294 1.23978   1
  -6   8  10 0.11167 0.90645   2
   5  -8 -10 4.78788 1.86993   1
  -5   8  10 8.51859 2.10140   2
  -5   8  10 9.35675 2.49491   1
   4  -8 -10 3.67619 1.57205   1
   4  -8 -10 1.57973 1.47368   2
  -4   8  10 4.02110 1.62611   2
  -4   8  10 1.91445 1.47111   1
   3  -8 -10 4.21948 1.86323   2
  -3   8  10 5.78035 1.91811   1
   2  -8 -10 7.49056 2.33328   2
  -2   8  10 14.5330 2.86871   1
   1  -8 -10 20.5037 3.72855   2
   1  -8 -10 26.9924 4.02552   1
  -1   8  10 26.9672 3.61648   1
  -1   8  10 25.9602 2.67423   5
   0  -8 -10 3.47538 1.89090   1
   0  -8 -10 2.36897 1.72538   2
   0   8  10 0.98489 0.88351   5
  -1  -8 -10 -0.7276 1.11162   1
  -1  -8 -10 2.45771 1.67243   2
   1   8  10 1.00384 0.84795   5
  -9   9  10 -0.2481 1.12646   1
  -9   9  10 1.14776 1.26204   2
  -8   9  10 2.95915 1.45491   2
  -8   9  10 0.01544 1.29190   1
   7  -9 -10 3.95812 1.87585   1
  -7   9  10 5.58176 1.94440   1
  -7   9  10 3.94744 1.74386   2
   6  -9 -10 24.0325 3.90895   1
  -6   9  10 19.7365 3.14810   2
  -6   9  10 26.0170 4.05259   1
   5  -9 -10 22.6992 3.71096   1
  -5   9  10 13.1309 2.56554   2
  -5   9  10 12.3247 2.73300   1
   4  -9 -10 3.65691 1.74694   1
  -4   9  10 6.46325 2.25250   1
   3  -9 -10 3.42697 1.75804   2
   3  -9 -10 4.40415 2.00013   1
  -3   9  10 1.97972 1.47855   1
   2  -9 -10 0.60723 1.32727   1
   2  -9 -10 0.07307 1.37005   2
  -2   9  10 0.95839 1.38445   1
   1  -9 -10 -0.8733 1.26137   2
   1  -9 -10 1.43251 1.47616   1
  -1   9  10 2.10891 1.06168   5
   0  -9 -10 31.1899 4.74509   2
   0  -9 -10 25.7689 4.21706   1
   0   9  10 28.9076 3.12403   5
  -8  10  10 11.8387 2.72408   2
  -8  10  10 9.73464 2.63365   1
  -7  10  10 8.75006 2.47899   1
  -7  10  10 7.74952 2.12028   2
   6 -10 -10 2.53426 1.68009   1
  -6  10  10 0.70434 1.60120   1
   5 -10 -10 0.18392 1.21773   1
  -5  10  10 -0.5783 1.21477   1
   4 -10 -10 8.09012 2.62012   1
  -4  10  10 9.29070 2.53354   1
   3 -10 -10 8.05069 2.59982   1
  -3  10  10 12.9521 2.86430   1
   2 -10 -10 12.1682 3.19490   1
   2 -10 -10 7.58748 2.58310   2
   0 -10  11 1.16593 1.87573   1
  -1  10 -11 -0.2729 1.14991   1
   1 -10  11 2.59365 2.09481   1
  -2  10 -11 -1.0357 1.02407   1
   2 -10  11 0.53309 1.69320   1
  -3  10 -11 -0.5486 0.93090   1
   3 -10  11 -0.7012 1.49137   1
   3 -10  11 -5.3729 2.65655   4
  -4  10 -11 0.00248 1.16911   1
  -4  10 -11 0.71293 1.34857   2
   4 -10  11 -0.5829 1.06087   4
  -5  10 -11 -1.3813 1.04957   2
  -5  10 -11 -0.0038 1.27434   1
   5 -10  11 1.01736 0.99377   4
  -2  -9  11 0.83414 1.83803   2
  -2  -9  11 1.11397 1.80865   1
   1   9 -11 -0.2787 1.14844   1
  -1  -9  11 0.44607 1.73049   2
  -1  -9  11 0.93605 1.50111   1
   0   9 -11 0.59344 1.13028   1
   0  -9  11 -0.5812 1.15429   1
  -1   9 -11 5.36397 1.94033   1
   1  -9  11 2.03399 1.86848   1
  -2   9 -11 26.0977 3.71697   1
   2  -9  11 26.6182 4.28583   1
  -3   9 -11 8.85443 2.23347   1
  -3   9 -11 5.21575 1.87755   2
   3  -9  11 11.1824 2.94136   1
   3  -9  11 2.48548 2.34605   4
  -4   9 -11 -0.1953 1.01557   1
  -4   9 -11 1.08103 1.24215   2
   4  -9  11 0.26307 0.81908   4
  -5   9 -11 -0.2696 1.10169   2
  -5   9 -11 -0.0148 1.08471   1
   5  -9  11 0.47476 0.90363   4
  -6   9 -11 -0.9669 1.22572   2
  -6   9 -11 0.75706 1.20335   1
   6  -9  11 1.00428 1.03479   4
  -3  -8  11 -0.6204 1.59602   2
  -3  -8  11 1.91809 1.83118   1
  -2  -8  11 4.30914 2.09705   2
  -2  -8  11 0.75534 1.75640   1
   1   8 -11 -0.1322 1.02912   1
  -1  -8  11 2.32860 1.83141   2
  -1  -8  11 1.62929 1.78583   1
   0   8 -11 7.32332 2.17799   1
   0  -8  11 6.60610 2.33939   2
   0  -8  11 8.02079 2.61611   1
  -1   8 -11 4.23663 1.80527   1
   1  -8  11 5.49561 2.28157   1
  -2   8 -11 10.7827 2.38924   2
  -2   8 -11 17.0676 3.05299   1
   2  -8  11 6.30249 2.27258   4
   2  -8  11 11.8529 2.82465   1
  -3   8 -11 12.7118 2.46692   2
  -3   8 -11 7.67615 2.10991   1
   3  -8  11 7.81662 2.06640   4
   3  -8  11 10.4556 2.80409   1
  -4   8 -11 5.51674 1.89765   2
  -4   8 -11 6.02420 1.97332   1
   4  -8  11 4.97104 1.43053   4
  -5   8 -11 0.85310 1.18455   1
  -5   8 -11 3.39324 1.60860   2
   5  -8  11 0.10865 0.79447   4
  -6   8 -11 1.51142 1.21987   2
  -6   8 -11 0.43944 1.04686   1
   6  -8  11 -0.0506 0.98413   4
  -7   8 -11 1.90088 1.20996   1
  -7   8 -11 0.71999 1.15021   2
   7  -8  11 0.82604 0.90173   4
  -4  -7  11 0.06985 1.62880   2
  -4  -7  11 1.44027 1.68114   1
  -3  -7  11 0.76554 1.44113   1
  -3  -7  11 -0.1231 1.54748   2
   2   7 -11 -1.4931 0.71670   1
  -2  -7  11 0.77281 1.49006   2
  -2  -7  11 0.48738 1.32745   1
   1   7 -11 12.8617 2.51488   1
  -1  -7  11 13.7557 3.09523   1
  -1  -7  11 10.0299 2.63747   2
   0   7 -11 -0.0969 0.86523   1
   0  -7  11 -0.6396 1.21261   2
   0  -7  11 -1.6445 1.01427   1
  -1   7 -11 1.59416 1.24113   1
  -1   7 -11 0.63754 1.12328   2
   1  -7  11 1.46659 1.45699   1
  -2   7 -11 2.03930 1.23697   2
  -2   7 -11 0.80607 1.10047   1
   2  -7  11 -1.6891 1.89732   4
   2  -7  11 0.17908 1.26545   1
  -3   7 -11 4.03905 1.55984   1
  -3   7 -11 2.88585 1.44323   2
   3  -7  11 1.65297 1.06749   4
   3  -7  11 1.01956 1.34874   1
  -4   7 -11 9.70206 2.29149   1
  -4   7 -11 9.99762 2.28929   2
   4  -7  11 11.0491 1.89545   4
  -5   7 -11 5.34992 1.91203   1
  -5   7 -11 6.36446 1.76463   2
   5  -7  11 7.60463 1.75657   4
  -6   7 -11 5.22607 1.73456   2
  -6   7 -11 7.52188 2.06941   1
   6  -7  11 3.33214 1.28176   4
  -7   7 -11 8.76295 2.12649   2
  -7   7 -11 2.64758 1.49918   1
   7  -7  11 6.31412 1.64617   4
  -5  -6  11 6.57882 2.35598   2
  -5  -6  11 13.4579 3.27942   1
  -4  -6  11 0.75577 1.32275   2
  -4  -6  11 -0.2131 1.36578   1
   3   6 -11 2.76776 1.36918   1
  -3  -6  11 1.19300 1.50451   1
  -3  -6  11 3.53968 1.87878   2
   2   6 -11 6.29322 1.92597   1
  -2  -6  11 5.81890 2.13285   1
  -2  -6  11 6.44764 2.19724   2
   1   6 -11 1.42902 1.21892   1
  -1  -6  11 0.48200 1.41637   1
  -1  -6  11 -0.6111 1.03007   2
   0   6 -11 1.86535 1.22529   1
   0   6 -11 3.07361 1.31808   2
   0  -6  11 -0.4449 0.89062   2
   0  -6  11 -0.9551 1.10563   1
  -1   6 -11 19.4226 3.10133   1
  -1   6 -11 26.3204 3.49178   2
   1  -6  11 16.1708 3.24958   1
   1  -6  11 19.8606 3.60994   2
  -2   6 -11 59.4655 5.20556   2
  -2   6 -11 50.7231 4.84457   1
   2  -6  11 62.1267 3.89728   4
   2  -6  11 72.8761 6.45898   1
  -3   6 -11 3.33227 1.55470   2
  -3   6 -11 2.28172 1.40004   1
   3  -6  11 1.77844 1.45379   1
   3  -6  11 2.91155 1.07635   4
  -4   6 -11 1.70254 1.30468   1
  -4   6 -11 3.15182 1.49345   2
   4  -6  11 3.84069 1.27664   4
  -5   6 -11 -0.3552 0.94969   2
  -5   6 -11 1.38307 1.15053   1
   5  -6  11 0.59264 0.72143   4
  -6   6 -11 16.8614 2.87979   2
  -6   6 -11 21.1536 3.23729   1
   6  -6  11 14.3382 2.26084   4
  -7   6 -11 4.34062 1.73057   1
  -7   6 -11 3.94564 1.60080   2
   7  -6  11 5.92861 1.58258   4
  -8   6 -11 1.73376 1.38229   2
  -6  -5  11 3.84661 2.10703   1
  -6  -5  11 1.17117 1.61650   2
  -6  -5  11 2.53774 1.17328   3
  -5  -5  11 -0.1493 0.81294   3
  -5  -5  11 0.06807 1.29353   1
  -5  -5  11 0.62119 1.46830   2
  -4  -5  11 0.43026 1.35963   1
  -4  -5  11 -1.0778 1.08272   2
  -4  -5  11 -1.8988 0.78084   3
   3   5 -11 5.72575 1.81000   1
  -3  -5  11 4.73056 1.98168   2
  -3  -5  11 8.68039 2.49497   1
   2   5 -11 6.32528 1.74196   1
  -2  -5  11 11.8436 2.66594   2
  -2  -5  11 13.7495 3.02765   1
   1   5 -11 10.1207 2.12338   2
   1   5 -11 9.31525 2.11687   1
  -1  -5  11 15.2377 2.84721   2
  -1  -5  11 11.6747 2.71638   1
   0   5 -11 5.04433 1.72752   1
   0   5 -11 5.66670 1.79297   2
   0  -5  11 8.52567 2.12612   2
   0  -5  11 4.44422 1.96249   1
  -1   5 -11 2.41082 1.37471   2
  -1   5 -11 1.99080 1.29665   1
   1  -5  11 1.92823 1.45094   1
   1  -5  11 1.64590 1.33680   2
   1  -5  11 2.09042 1.66158   4
  -2   5 -11 33.9800 3.76057   1
  -2   5 -11 42.9333 4.32423   2
   2  -5  11 43.5249 2.88635   4
   2  -5  11 32.4300 4.21396   1
  -3   5 -11 2.25037 1.26964   2
  -3   5 -11 0.59536 1.02174   1
   3  -5  11 3.34662 1.63742   1
   3  -5  11 4.16164 1.16060   4
  -4   5 -11 -0.0648 0.88442   1
  -4   5 -11 -0.5991 0.71650   2
   4  -5  11 -0.2565 0.49909   4
  -5   5 -11 33.0182 3.86496   1
  -5   5 -11 32.2438 3.78735   2
   5  -5  11 33.8476 3.26206   4
  -6   5 -11 26.7295 3.46186   2
  -6   5 -11 22.2111 3.14415   1
   6  -5  11 29.0700 3.10088   4
  -7   5 -11 1.28400 1.17712   1
  -7   5 -11 1.17891 1.19135   2
   7  -5  11 1.77878 1.10320   4
  -8   5 -11 -0.3345 0.99123   2
  -8   5 -11 -0.4498 0.89978   1
  -7  -4  11 1.41683 1.58147   2
  -7  -4  11 -0.0645 0.68409   3
  -7  -4  11 0.52237 1.43556   1
  -6  -4  11 3.84522 1.11869   3
  -6  -4  11 6.02864 2.15586   2
  -6  -4  11 4.79636 2.09478   1
  -5  -4  11 2.61571 1.70803   1
  -5  -4  11 4.58900 1.95234   2
  -5  -4  11 2.35486 0.91895   3
   4   4 -11 4.81560 1.56897   1
  -4  -4  11 5.35426 1.12437   3
  -4  -4  11 4.96860 1.90683   2
  -4  -4  11 7.05558 2.26063   1
   3   4 -11 6.06280 1.69781   1
  -3  -4  11 7.45044 2.28488   1
  -3  -4  11 5.43187 1.10760   3
  -3  -4  11 7.09429 2.28067   2
   2   4 -11 5.63711 1.74900   1
   2   4 -11 7.66498 2.05366   2
  -2  -4  11 7.65818 2.19974   2
  -2  -4  11 8.35442 2.35394   1
   1   4 -11 1.49147 1.02936   2
   1   4 -11 1.08918 1.00398   1
  -1  -4  11 1.15544 1.27148   1
  -1  -4  11 0.02962 1.09059   2
   0   4 -11 0.07505 0.94277   2
   0   4 -11 0.79007 1.04630   1
   0  -4  11 2.30636 1.54971   1
   0  -4  11 0.25549 0.93737   2
  -1   4 -11 24.7743 3.17936   1
  -1   4 -11 23.5545 3.16829   2
   1  -4  11 22.3648 2.44813   4
   1  -4  11 23.4962 3.24830   2
   1  -4  11 26.4850 3.59178   1
  -2   4 -11 53.5028 4.65541   2
  -2   4 -11 60.7604 5.22311   1
   2  -4  11 58.8553 5.51242   1
   2  -4  11 54.2687 3.15515   4
  -3   4 -11 4.30395 1.54307   1
  -3   4 -11 6.69284 1.87817   2
   3  -4  11 4.37404 1.10221   4
   3  -4  11 4.09228 1.70492   1
  -4   4 -11 4.84597 1.64748   1
  -4   4 -11 5.55605 1.68737   2
   4  -4  11 2.28507 0.99910   4
  -5   4 -11 9.19956 2.12643   2
  -5   4 -11 7.36372 1.87549   1
   5  -4  11 6.26550 1.43129   4
  -6   4 -11 -0.8196 0.77925   2
  -6   4 -11 0.23987 0.92744   1
   6  -4  11 0.18579 0.79978   4
  -7   4 -11 -2.3610 0.73073   1
  -7   4 -11 0.83227 0.99649   2
  -8   4 -11 2.08790 1.35632   2
  -8  -3  11 2.20688 1.13919   3
  -8  -3  11 1.11298 1.66051   2
  -8  -3  11 1.76168 1.93261   1
  -7  -3  11 -0.2837 1.25931   1
  -7  -3  11 0.54360 0.82318   3
  -7  -3  11 1.11286 1.46486   2
  -6  -3  11 -0.1430 1.20292   1
  -6  -3  11 0.98913 1.36998   2
  -6  -3  11 0.90494 0.73553   3
  -5  -3  11 0.06272 0.65515   3
  -5  -3  11 0.67004 1.30427   1
  -5  -3  11 1.04137 1.37442   2
   4   3 -11 -1.0690 0.72994   1
  -4  -3  11 1.31273 1.37946   1
  -4  -3  11 0.43985 0.63296   3
  -4  -3  11 0.56193 1.24584   2
   3   3 -11 -0.0954 0.84458   1
  -3  -3  11 0.43664 0.99223   2
  -3  -3  11 -1.4179 0.93507   1
  -3  -3  11 0.30502 0.47009   3
   2   3 -11 14.9064 2.52378   2
   2   3 -11 17.5383 2.76478   1
  -2  -3  11 12.1630 2.55249   2
  -2  -3  11 14.2285 2.96943   1
  -2  -3  11 11.1272 1.28736   3
   1   3 -11 32.5374 3.64862   2
   1   3 -11 28.8144 3.39421   1
  -1  -3  11 30.6551 3.84729   2
  -1  -3  11 29.0396 3.95796   1
   0   3 -11 4.48429 1.53733   1
   0   3 -11 4.95044 1.65257   2
   0  -3  11 4.98875 1.46440   4
   0  -3  11 3.50751 1.71321   1
   0  -3  11 7.13577 1.89995   2
  -1   3 -11 29.7560 3.41898   2
  -1   3 -11 27.8385 3.33258   1
   1  -3  11 27.4854 3.49192   2
   1  -3  11 27.2534 2.40914   4
   1  -3  11 27.0804 3.60348   1
  -2   3 -11 3.37627 1.37775   2
  -2   3 -11 6.87053 1.79650   1
   2  -3  11 6.36178 1.24222   4
   2  -3  11 4.10976 1.69285   1
  -3   3 -11 -0.2740 0.79840   1
  -3   3 -11 0.01969 0.77309   2
   3  -3  11 0.05158 1.03843   1
   3  -3  11 0.30234 0.63963   4
  -4   3 -11 1.07645 1.00554   1
  -4   3 -11 0.30593 0.95139   2
   4  -3  11 0.59719 0.68845   4
  -5   3 -11 4.86626 1.57744   1
  -5   3 -11 4.85886 1.59724   2
   5  -3  11 2.17502 0.92343   4
  -6   3 -11 10.8366 2.30270   1
  -6   3 -11 10.4677 2.24552   2
  -7   3 -11 0.33423 1.09498   2
  -7   3 -11 0.72121 1.14304   1
  -8  -2  11 -0.2295 0.64609   3
  -8  -2  11 1.31806 1.54232   2
  -8  -2  11 -0.3151 1.18557   1
  -7  -2  11 0.48809 1.30838   2
  -7  -2  11 1.45858 0.80394   3
  -7  -2  11 4.56085 1.95510   1
  -6  -2  11 18.8918 3.22264   2
  -6  -2  11 18.9865 3.59341   1
  -6  -2  11 17.8626 2.09923   3
  -5  -2  11 7.03504 2.09692   2
  -5  -2  11 5.94124 2.11110   1
  -5  -2  11 7.20456 1.28183   3
   4   2 -11 61.8263 4.30760   1
  -4  -2  11 63.1429 5.87991   1
  -4  -2  11 56.0409 5.23132   2
  -4  -2  11 59.8186 2.93367   3
   3   2 -11 75.0474 4.81458   2
   3   2 -11 87.4827 5.15439   1
  -3  -2  11 81.6993 5.30462   2
  -3  -2  11 90.9051 5.89644   1
  -3  -2  11 85.0384 3.40514   3
   2   2 -11 34.8935 3.76176   1
   2   2 -11 35.3237 3.76791   2
  -2  -2  11 36.8381 4.05876   2
  -2  -2  11 37.1197 1.85713   3
  -2  -2  11 41.8286 4.65938   1
   1   2 -11 2.47018 1.29102   1
   1   2 -11 2.88956 1.36234   2
  -1  -2  11 2.88030 1.55033   1
  -1  -2  11 1.76134 1.25440   2
  -1  -2  11 1.40456 1.15218   4
   0   2 -11 19.6120 2.76746   2
   0   2 -11 17.3350 2.64438   1
   0  -2  11 15.3370 2.54220   2
   0  -2  11 19.6079 3.16267   1
   0  -2  11 15.4490 1.70256   4
  -1   2 -11 39.8949 4.01541   1
  -1   2 -11 28.3165 3.42698   2
   1  -2  11 30.2190 3.52705   2
   1  -2  11 27.9749 3.62128   1
   1  -2  11 25.6853 2.26060   4
  -2   2 -11 -0.2896 0.81013   1
  -2   2 -11 0.49333 0.90105   2
   2  -2  11 -0.9103 0.91600   1
   2  -2  11 0.42024 0.53603   4
  -3   2 -11 4.35925 1.62307   1
  -3   2 -11 3.11744 1.43085   2
   3  -2  11 3.22470 0.98537   4
   3  -2  11 2.90616 1.38646   1
  -4   2 -11 14.0100 2.57242   1
  -4   2 -11 18.5884 2.82275   2
   4  -2  11 17.5283 2.21487   4
  -5   2 -11 0.56145 0.91168   2
  -5   2 -11 1.14888 1.11445   1
  -6   2 -11 0.87738 0.96323   1
  -6   2 -11 1.89254 1.24195   2
  -7   2 -11 1.76568 1.31711   2
  -7   2 -11 1.66238 1.21079   1
  -9  -1  11 0.08640 1.56954   1
  -9  -1  11 -0.6504 0.66520   3
  -9  -1  11 0.23852 1.33900   2
  -8  -1  11 1.78027 1.62827   2
  -8  -1  11 3.63970 1.87945   1
  -8  -1  11 2.38622 1.08838   3
  -7  -1  11 1.91967 1.46342   2
  -7  -1  11 -1.0338 1.10448   1
  -7  -1  11 2.36330 0.96747   3
  -6  -1  11 0.68091 1.40486   1
  -6  -1  11 0.35161 0.56847   3
  -6  -1  11 0.07643 0.94674   2
  -5  -1  11 29.8739 3.72228   2
  -5  -1  11 29.9515 2.51483   3
  -5  -1  11 34.2747 4.36605   1
  -4  -1  11 50.9127 5.11168   1
  -4  -1  11 49.0591 2.56265   3
  -4  -1  11 57.2843 5.09473   2
   3   1 -11 12.1174 2.15573   1
   3   1 -11 9.41439 1.92709   2
  -3  -1  11 6.29679 1.86389   2
  -3  -1  11 10.2102 1.16902   3
  -3  -1  11 11.9991 2.61981   1
   2   1 -11 75.2197 4.70079   2
   2   1 -11 71.2820 4.61532   1
  -2  -1  11 72.0683 2.75175   3
  -2  -1  11 79.7578 5.38422   1
  -2  -1  11 77.5636 4.96079   2
   1   1 -11 134.875 6.60370   1
   1   1 -11 137.150 6.59303   2
  -1  -1  11 142.194 6.85244   2
  -1  -1  11 138.570 7.24905   1
  -1  -1  11 129.491 3.94639   3
  -1  -1  11 135.605 4.79131   4
   0   1 -11 14.7619 2.47091   2
   0   1 -11 16.0329 2.53711   1
   0  -1  11 9.58690 2.23338   1
   0  -1  11 13.2158 2.44736   2
   0  -1  11 12.8877 1.47765   4
  -1   1 -11 76.7272 4.68962   2
  -1   1 -11 70.6264 4.61670   1
   1  -1  11 69.1561 3.23159   4
   1  -1  11 64.7248 4.36410   2
   1  -1  11 68.8829 4.89447   1
  -2   1 -11 108.809 5.79831   2
  -2   1 -11 107.162 5.78309   1
   2  -1  11 108.186 6.04528   1
   2  -1  11 97.4931 4.26193   4
  -3   1 -11 2.45781 1.16088   1
  -3   1 -11 2.91256 1.35345   2
   3  -1  11 4.27992 1.66141   1
  -4   1 -11 2.02899 1.21742   2
  -4   1 -11 1.35255 1.16713   1
  -5   1 -11 2.26189 1.19466   2
  -6   1 -11 7.92038 1.92831   2
  -7   1 -11 1.66223 1.32604   2
  -9   0  11 -1.2075 1.36047   1
  -9   0  11 1.14830 1.31371   2
  -9   0  11 1.19959 0.85060   3
  -8   0  11 13.2718 2.75554   2
  -8   0  11 15.6046 3.13296   1
  -8   0  11 17.6965 2.34468   3
  -7   0  11 14.6603 3.02696   1
  -7   0  11 10.8254 2.47501   2
  -7   0  11 13.8457 1.88498   3
  -6   0  11 28.6532 3.95847   1
  -6   0  11 28.4713 3.72117   2
  -6   0  11 31.5537 2.61952   3
  -5   0  11 1.71196 1.28770   2
  -5   0  11 1.50804 1.47958   1
  -5   0  11 2.95708 0.83489   3
  -4   0  11 32.6865 4.16121   1
  -4   0  11 22.3272 1.89381   3
  -4   0  11 27.7403 3.49186   2
   3   0 -11 4.41922 1.52206   2
  -3   0  11 4.00175 0.76244   3
  -3   0  11 8.54861 2.11026   2
  -3   0  11 6.40356 1.99252   1
   2   0 -11 3.17784 1.37236   2
  -2   0  11 3.73848 1.61732   1
  -2   0  11 2.43414 0.56489   3
  -2   0  11 4.30594 1.51486   2
  -2   0  11 3.73066 0.83879   4
   1   0 -11 15.5322 2.49956   2
  -1   0  11 16.0110 0.86437   3
  -1   0  11 19.3554 2.76943   2
  -1   0  11 12.5489 2.55890   1
  -1   0  11 16.7932 1.50850   4
   0   0 -11 183.937 8.12061   2
   0   0  11 202.724 8.31036   2
   0   0  11 199.529 8.79598   1
   0   0  11 187.588 6.17179   4
  -1   0 -11 65.7040 4.44827   2
   1   0  11 64.8749 3.04365   4
   1   0  11 59.8139 5.24786   1
  -2   0 -11 88.2556 5.22532   2
   2   0  11 92.2012 5.49900   1
  -3   0 -11 -0.6108 0.72069   2
  -4   0 -11 -0.8849 0.62147   2
  -5   0 -11 1.19568 1.21943   2
  -6   0 -11 3.77811 1.63287   2
  -7   0 -11 4.56284 1.63519   2
  -9   1  11 -0.0369 1.41782   1
  -9   1  11 5.55589 1.95222   2
  -9   1  11 5.39881 1.44335   3
  -8   1  11 75.8196 4.13558   3
  -8   1  11 77.1819 5.42893   2
  -8   1  11 87.0042 6.02719   1
  -7   1  11 41.2487 4.49225   2
  -7   1  11 39.4313 4.72179   1
  -6   1  11 12.6223 2.73047   1
  -6   1  11 12.4522 2.50396   2
  -5   1  11 0.55663 1.05925   2
  -5   1  11 2.48573 1.44090   1
   4  -1 -11 19.8291 2.81683   2
  -4   1  11 11.8085 2.52392   1
  -4   1  11 15.3004 2.60680   2
   3  -1 -11 55.1984 4.65817   2
  -3   1  11 48.1067 4.42270   2
  -3   1  11 49.3140 4.98845   1
  -3   1  11 44.6837 2.07584   4
   2  -1 -11 24.7012 3.22798   2
  -2   1  11 24.2548 3.59393   1
  -2   1  11 23.0333 3.06643   2
  -2   1  11 25.1739 1.40535   4
   1  -1 -11 0.82592 0.94787   2
  -1   1  11 0.01699 0.22243   3
  -1   1  11 0.62508 1.05519   1
  -1   1  11 0.56709 0.40892   4
  -1   1  11 -0.0118 0.87376   2
   0  -1 -11 60.8039 5.03522   2
   0   1  11 40.4030 4.28256   1
   0   1  11 44.2088 4.03586   2
  -1  -1 -11 2.41594 1.25192   2
   1   1  11 2.04930 1.30917   1
  -2  -1 -11 28.3734 3.48226   2
   2   1  11 30.3201 3.68662   1
  -3  -1 -11 1.95313 1.30479   2
  -4  -1 -11 -0.2485 0.91659   2
  -5  -1 -11 8.73431 2.18071   2
  -6  -1 -11 0.54548 1.12187   2
 -10   2  11 1.28288 1.29569   2
 -10   2  11 3.12421 1.92833   1
  -9   2  11 1.98655 1.49595   2
  -9   2  11 0.90657 1.45658   1
  -8   2  11 5.41557 2.05158   1
  -8   2  11 3.70286 1.63655   2
  -7   2  11 1.18256 1.21935   2
  -7   2  11 0.43929 1.12598   1
  -6   2  11 14.7489 2.75051   2
  -6   2  11 10.3522 2.49178   1
  -5   2  11 0.06067 0.88118   2
  -5   2  11 -0.5150 0.85480   1
   4  -2 -11 8.46510 2.06719   2
  -4   2  11 6.93291 0.83461   4
  -4   2  11 6.81154 2.05627   1
  -4   2  11 6.57740 1.82260   2
   3  -2 -11 68.8214 4.55433   2
  -3   2  11 68.7837 4.94729   1
  -3   2  11 62.2933 2.15264   4
  -3   2  11 57.6627 4.91064   2
   2  -2 -11 1.35442 1.13188   2
  -2   2  11 3.47161 1.60276   1
  -2   2  11 3.90660 1.48368   2
   1  -2 -11 27.7698 3.56191   2
  -1   2  11 30.6859 3.87106   1
  -1   2  11 24.5430 1.26968   5
  -1   2  11 26.0274 3.10542   2
   0  -2 -11 47.1235 4.50891   2
   0   2  11 32.7354 1.61880   5
   0   2  11 41.8811 4.42322   1
  -1  -2 -11 24.6302 3.27254   2
   1   2  11 25.6158 3.40491   1
   1   2  11 24.8302 1.49952   5
  -2  -2 -11 12.4038 2.34818   2
   2   2  11 15.3430 1.51742   5
   2   2  11 15.5259 2.77401   1
  -3  -2 -11 2.06496 1.33457   2
   3   2  11 4.06633 1.05141   5
  -4  -2 -11 4.33863 1.64507   2
  -5  -2 -11 19.4267 3.13760   2
  -6  -2 -11 13.1050 2.61048   2
 -10   3  11 -0.6490 0.99618   2
 -10   3  11 2.41640 1.62480   1
  -9   3  11 11.2549 2.46238   2
  -9   3  11 7.85753 2.33070   1
  -8   3  11 15.7685 3.16801   1
  -8   3  11 9.72313 2.24927   2
  -7   3  11 28.7437 3.78055   2
  -7   3  11 34.9675 4.49837   1
  -6   3  11 -0.7423 0.89038   2
  -6   3  11 -0.0789 1.07454   1
  -5   3  11 138.558 7.62569   1
  -5   3  11 158.181 7.45133   2
   4  -3 -11 15.4873 2.75734   2
  -4   3  11 13.6033 2.54959   2
  -4   3  11 14.2146 2.81925   1
   3  -3 -11 24.9748 3.37403   2
  -3   3  11 23.8900 3.13851   2
  -3   3  11 30.8688 3.92400   1
   2  -3 -11 17.0586 2.81141   2
  -2   3  11 25.6420 3.61551   1
  -2   3  11 27.4286 3.30585   2
   1  -3 -11 18.9382 2.86583   2
  -1   3  11 16.9577 2.98505   1
  -1   3  11 17.6527 2.67242   2
  -1   3  11 17.0466 1.42078   5
   0  -3 -11 21.6209 3.20331   2
   0   3  11 20.5575 1.66086   5
   0   3  11 23.2165 3.31981   1
  -1  -3 -11 -0.3225 0.81142   2
   1   3  11 -0.1219 0.35691   5
   1   3  11 -1.0096 0.77010   1
  -2  -3 -11 4.61728 1.62844   2
   2   3  11 5.52100 1.03764   5
  -3  -3 -11 13.1975 2.67890   2
   3   3  11 11.8105 1.62956   5
  -4  -3 -11 2.85348 1.50937   2
  -5  -3 -11 1.02639 1.29167   2
 -10   4  11 7.03935 2.30352   1
 -10   4  11 6.44035 2.01810   2
  -9   4  11 63.4498 5.78965   2
  -9   4  11 63.9293 6.14103   1
  -8   4  11 8.65818 2.46655   1
  -8   4  11 3.71975 1.64611   2
  -7   4  11 6.78865 1.91545   2
  -7   4  11 5.24971 2.00821   1
  -6   4  11 14.8869 3.05564   1
  -6   4  11 21.9747 3.24818   2
  -5   4  11 66.1336 5.91542   1
  -5   4  11 67.6462 4.68082   2
   4  -4 -11 9.79973 2.31787   2
  -4   4  11 7.88907 1.91802   2
  -4   4  11 8.57040 2.29912   1
   3  -4 -11 41.0415 4.51134   2
  -3   4  11 45.6658 4.40064   2
  -3   4  11 43.8265 4.68161   1
   2  -4 -11 17.5612 2.85496   2
  -2   4  11 16.2832 2.60801   2
  -2   4  11 16.9855 2.89736   1
   1  -4 -11 76.8365 5.26619   2
  -1   4  11 85.6985 5.52553   1
  -1   4  11 87.9007 3.41785   5
   0  -4 -11 3.88475 1.55123   2
   0   4  11 4.16233 1.74654   1
   0   4  11 2.18935 0.68141   5
  -1  -4 -11 1.76151 1.43263   2
   1   4  11 0.93323 0.64935   5
   1   4  11 0.54630 1.05702   1
  -2  -4 -11 10.9985 2.49637   2
   2   4  11 8.98776 1.45633   5
  -3  -4 -11 0.91906 1.20448   2
   3   4  11 1.80968 0.91269   5
  -4  -4 -11 2.18308 1.61407   2
   4   4  11 2.49792 1.15915   5
 -10   5  11 2.53252 1.64214   1
 -10   5  11 1.92731 1.32083   2
  -9   5  11 3.19076 1.98049   1
  -9   5  11 1.95255 1.40556   2
  -8   5  11 3.05482 1.58423   2
  -8   5  11 5.44603 2.10049   1
  -7   5  11 1.21795 1.25517   2
  -7   5  11 1.62421 1.46936   1
  -6   5  11 7.74837 2.31200   1
  -6   5  11 9.05505 2.14727   2
  -5   5  11 12.5169 2.80780   1
  -5   5  11 10.6657 2.27042   2
   4  -5 -11 81.4935 5.52050   2
  -4   5  11 83.4599 5.64877   1
  -4   5  11 81.9115 5.11990   2
   3  -5 -11 12.8176 2.69349   2
  -3   5  11 5.84267 1.74584   2
  -3   5  11 5.01351 1.87724   1
   2  -5 -11 2.17107 1.36371   2
  -2   5  11 1.99782 1.37492   1
   1  -5 -11 2.46894 1.53207   2
  -1   5  11 3.08514 0.81720   5
  -1   5  11 0.45853 1.11766   1
   0  -5 -11 1.12156 1.44345   2
   0   5  11 2.08836 1.38645   1
   0   5  11 2.11862 0.81584   5
  -1  -5 -11 3.18660 1.76495   2
   1   5  11 4.12293 1.06685   5
  -2  -5 -11 1.02224 1.40088   2
   2   5  11 3.41920 1.04304   5
  -3  -5 -11 3.02161 1.66021   2
   3   5  11 6.57537 1.47126   5
 -10   6  11 0.87870 1.46136   1
 -10   6  11 0.28458 1.19167   2
  -9   6  11 -0.1297 1.11014   2
  -9   6  11 0.99217 1.45772   1
  -8   6  11 7.99686 2.25311   1
  -8   6  11 2.70350 1.38234   2
  -7   6  11 2.48730 1.62760   1
  -7   6  11 4.31624 1.64419   2
  -6   6  11 21.5725 3.48872   1
  -6   6  11 25.8943 3.47099   2
  -5   6  11 0.70083 1.01037   2
  -5   6  11 0.70325 1.36583   1
   4  -6 -11 -0.6210 0.98064   2
   4  -6 -11 0.52113 1.09670   2
  -4   6  11 1.76131 1.19091   2
  -4   6  11 1.68209 1.44788   1
   3  -6 -11 11.0417 2.65557   2
   3  -6 -11 15.9855 3.09599   2
  -3   6  11 12.0314 2.28542   2
  -3   6  11 9.63426 2.48316   1
   2  -6 -11 -0.3116 1.12121   2
  -2   6  11 1.54108 1.48243   1
   1  -6 -11 10.1158 2.50959   2
  -1   6  11 8.41256 1.33778   5
  -1   6  11 10.4815 2.35405   1
   0  -6 -11 0.35046 1.30360   2
   0   6  11 1.06304 0.74575   5
  -1  -6 -11 31.7657 4.33333   2
   1   6  11 33.3456 2.90501   5
  -2  -6 -11 1.87172 1.59121   2
   2   6  11 2.46635 1.06235   5
 -10   7  11 3.97408 1.82020   2
 -10   7  11 -0.8469 1.45584   1
  -9   7  11 0.08343 1.10295   2
  -9   7  11 -1.5886 0.92750   1
  -8   7  11 0.97127 1.27857   1
  -8   7  11 1.35727 1.36174   2
  -7   7  11 0.82454 1.18396   2
  -7   7  11 -0.1886 1.09488   1
  -6   7  11 25.9140 3.97368   1
  -6   7  11 30.8012 3.94038   2
  -5   7  11 0.75770 1.39490   1
  -5   7  11 -0.1420 1.05059   2
  -4   7  11 52.3747 5.38275   1
  -4   7  11 55.8072 5.11576   2
   3  -7 -11 10.8401 2.66761   2
   3  -7 -11 13.2211 2.90318   2
  -3   7  11 12.8815 2.81773   1
   2  -7 -11 -0.5491 1.09296   2
   2  -7 -11 0.01879 1.20722   2
  -2   7  11 -1.2810 0.83530   1
   1  -7 -11 5.43395 2.02367   2
   1  -7 -11 3.84312 1.92666   2
  -1   7  11 6.14887 2.02516   1
  -1   7  11 1.67709 0.90326   5
   0  -7 -11 0.50568 1.37039   2
   0  -7 -11 0.62372 1.52718   2
   0   7  11 0.44562 0.72970   5
  -1  -7 -11 0.71244 1.57014   2
  -1  -7 -11 1.90657 1.68829   2
   1   7  11 -0.1176 0.70035   5
  -9   8  11 6.08969 1.95900   2
  -9   8  11 3.13475 1.66967   1
  -8   8  11 3.26155 1.63601   1
  -8   8  11 2.50136 1.50880   2
  -7   8  11 11.5100 2.45958   2
  -7   8  11 13.4795 3.10144   1
   6  -8 -11 1.47634 1.44557   1
  -6   8  11 -0.4811 0.90473   2
  -6   8  11 1.95967 1.50307   1
   5  -8 -11 15.0935 2.99857   1
  -5   8  11 9.36278 2.22850   2
  -5   8  11 10.8479 2.77258   1
  -4   8  11 0.74876 1.21224   1
   3  -8 -11 4.62754 2.17028   2
  -3   8  11 2.46645 1.68778   1
   2  -8 -11 4.90798 2.12808   2
  -2   8  11 9.59318 2.39898   1
   1  -8 -11 19.9132 3.78932   2
  -1   8  11 11.4708 1.87978   5
   0  -8 -11 10.1032 2.69768   1
   0  -8 -11 6.47177 2.35284   2
   0   8  11 7.11629 1.58526   5
  -8   9  11 -0.2403 1.23334   1
  -8   9  11 1.06722 1.30297   2
  -7   9  11 3.71528 1.64766   2
  -7   9  11 4.62726 1.94623   1
   6  -9 -11 2.75695 1.78696   1
  -6   9  11 3.81922 1.63646   2
  -6   9  11 5.68305 2.23996   1
   5  -9 -11 3.94844 1.92818   1
  -5   9  11 4.50542 1.99128   1
   4  -9 -11 6.28928 2.28875   1
  -4   9  11 5.58195 2.11604   1
   3  -9 -11 2.60832 1.81289   1
  -3   9  11 2.03799 1.47463   1
   2  -9 -11 5.50427 2.48054   2
   2  -9 -11 3.85350 2.01664   1
   6 -10 -11 20.6891 3.82707   1
  -6  10  11 30.0539 4.57703   1
   5 -10 -11 1.83317 1.65802   1
  -5  10  11 1.75764 1.66971   1
   0   9 -12 -2.2599 0.93590   1
   0  -9  12 2.75060 1.80244   1
  -1   9 -12 3.33018 1.73188   1
   1  -9  12 4.38252 2.27789   1
  -2   9 -12 3.16310 1.68743   1
   2  -9  12 10.0458 2.99650   1
   2  -9  12 10.9805 3.34905   4
  -3   9 -12 5.82659 2.06691   2
  -3   9 -12 6.50024 2.11782   1
   3  -9  12 5.17738 2.71304   1
   3  -9  12 6.12578 2.12032   4
  -4   9 -12 -0.9744 1.07074   1
  -4   9 -12 1.50206 1.44412   2
   4  -9  12 0.04260 0.95681   4
  -2  -8  12 2.16775 1.77049   2
  -2  -8  12 1.80737 1.82236   1
   1   8 -12 -0.7376 0.86956   1
  -1  -8  12 0.81144 1.61822   1
   0   8 -12 -0.6727 1.03136   1
   0  -8  12 0.41657 1.51082   1
  -1   8 -12 1.09418 1.38509   1
   1  -8  12 1.19527 1.60915   1
  -2   8 -12 -0.2410 1.10001   1
  -2   8 -12 -1.0022 0.95719   2
   2  -8  12 -5.4187 1.97576   4
   2  -8  12 0.44665 1.32123   1
  -3   8 -12 6.79064 2.12646   2
  -3   8 -12 4.77449 1.88430   1
   3  -8  12 7.15750 2.43918   1
   3  -8  12 5.99213 1.55695   4
  -4   8 -12 1.22899 1.34876   1
  -4   8 -12 1.44243 1.45061   2
   4  -8  12 1.90771 1.16720   4
  -5   8 -12 4.19712 1.72435   2
  -5   8 -12 4.19345 1.77867   1
   5  -8  12 1.00069 1.00611   4
  -6   8 -12 1.91735 1.46853   2
   6  -8  12 -0.0442 0.86115   4
  -3  -7  12 0.26930 1.52906   1
  -3  -7  12 0.10263 1.70833   2
   2   7 -12 1.64092 1.48129   1
  -2  -7  12 3.82746 1.98083   2
  -2  -7  12 0.66631 1.57812   1
   1   7 -12 2.39282 1.55005   1
  -1  -7  12 2.12515 1.82630   1
  -1  -7  12 -0.7738 1.06006   2
   0   7 -12 -1.4279 0.66054   1
   0  -7  12 -0.4317 1.23490   1
  -1   7 -12 -0.5838 0.94557   1
  -1   7 -12 0.50470 1.03056   2
   1  -7  12 -0.8373 1.21873   1
  -2   7 -12 0.12599 1.09765   1
  -2   7 -12 0.32870 1.18658   2
   2  -7  12 -4.7388 1.31325   4
   2  -7  12 0.56615 1.35480   1
  -3   7 -12 10.9729 2.47871   2
  -3   7 -12 13.4629 2.66142   1
   3  -7  12 8.15143 2.49314   1
   3  -7  12 7.91898 1.74751   4
  -4   7 -12 -1.0280 0.82857   1
  -4   7 -12 -0.1870 0.98718   2
   4  -7  12 0.00071 0.85051   4
  -5   7 -12 2.74580 1.44880   1
  -5   7 -12 3.19120 1.72000   2
   5  -7  12 2.55745 1.20466   4
  -6   7 -12 1.23536 1.27422   1
  -6   7 -12 1.08183 1.26701   2
   6  -7  12 0.58319 0.96811   4
  -4  -6  12 4.05071 2.06139   2
  -4  -6  12 3.14177 1.85738   1
  -3  -6  12 -0.3790 1.20382   1
  -3  -6  12 -2.1818 1.00531   2
   2   6 -12 1.41494 1.33857   1
  -2  -6  12 3.17383 1.85178   1
  -2  -6  12 2.56855 1.69155   2
   1   6 -12 4.73618 1.77236   1
  -1  -6  12 5.08670 2.12511   2
  -1  -6  12 3.87927 1.99823   1
   0   6 -12 2.44599 1.44627   1
   0   6 -12 5.18310 2.04136   2
   0  -6  12 1.97486 1.74196   1
  -1   6 -12 4.47883 1.75994   1
  -1   6 -12 7.79786 2.07463   2
   1  -6  12 5.78946 2.22804   1
   1  -6  12 1.81969 2.04378   4
  -2   6 -12 0.17558 1.09473   1
  -2   6 -12 -0.2724 0.99066   2
   2  -6  12 0.17311 0.85102   4
   2  -6  12 -0.3901 1.16665   1
  -3   6 -12 3.01046 1.66285   2
  -3   6 -12 0.02071 1.10710   1
   3  -6  12 1.89170 0.97877   4
   3  -6  12 -0.2994 1.07031   1
  -4   6 -12 27.5858 3.64127   1
  -4   6 -12 26.8025 3.68888   2
   4  -6  12 35.7802 3.34478   4
  -5   6 -12 -0.6986 0.88057   1
  -5   6 -12 -1.1774 0.84909   2
   5  -6  12 -0.2305 0.78929   4
  -6   6 -12 5.66724 1.84196   1
  -6   6 -12 3.67052 1.65181   2
   6  -6  12 2.72104 1.32227   4
  -5  -5  12 -2.6564 0.80899   3
  -5  -5  12 -0.5758 1.06960   1
  -5  -5  12 -0.4543 1.29581   2
  -4  -5  12 8.25685 2.46726   1
  -4  -5  12 7.76048 2.41658   2
   3   5 -12 5.29661 1.77783   1
  -3  -5  12 3.71558 1.78390   2
  -3  -5  12 6.81019 2.45165   1
   2   5 -12 4.03093 1.62612   1
  -2  -5  12 2.83433 1.85824   1
  -2  -5  12 0.05569 1.19451   2
   1   5 -12 0.53298 1.03584   1
  -1  -5  12 2.12080 1.59210   1
  -1  -5  12 2.87568 1.54655   2
   0   5 -12 9.71998 2.30827   1
   0   5 -12 17.0406 2.82525   2
   0  -5  12 7.64487 2.25212   2
   0  -5  12 10.3362 2.68715   1
  -1   5 -12 0.46759 1.03408   2
  -1   5 -12 -0.1212 0.93567   1
   1  -5  12 -1.5772 1.18895   4
   1  -5  12 -0.9056 1.18956   1
  -2   5 -12 1.29944 1.34627   1
  -2   5 -12 1.75937 1.28928   2
   2  -5  12 2.03167 0.89839   4
   2  -5  12 2.30863 1.75001   1
  -3   5 -12 6.06817 1.92131   2
  -3   5 -12 8.68637 2.17802   1
   3  -5  12 6.40578 1.46456   4
   3  -5  12 5.87326 2.11549   1
  -4   5 -12 0.40495 0.99531   1
  -4   5 -12 0.10988 1.00807   2
   4  -5  12 0.68583 0.84587   4
  -5   5 -12 40.7324 4.49372   2
  -5   5 -12 37.1051 4.16817   1
   5  -5  12 39.9098 3.59361   4
  -6   5 -12 -0.5402 0.93557   2
  -6   5 -12 0.73697 1.09241   1
   6  -5  12 0.19369 0.79138   4
  -7   5 -12 -0.7601 1.05913   2
  -7   5 -12 1.07127 1.27617   1
  -6  -4  12 1.56053 1.75543   1
  -6  -4  12 0.80639 1.40479   2
  -6  -4  12 2.82583 1.08238   3
  -5  -4  12 0.03733 0.63256   3
  -5  -4  12 -0.5756 1.33180   2
  -5  -4  12 -0.5255 1.24439   1
   4   4 -12 10.7047 3.51478   1
  -4  -4  12 8.81141 1.41866   3
  -4  -4  12 11.3348 2.74358   1
  -4  -4  12 8.42550 2.43086   2
   3   4 -12 0.48306 1.01424   1
  -3  -4  12 1.50828 1.60114   1
  -3  -4  12 4.04109 1.92601   2
   2   4 -12 0.86019 1.12189   1
  -2  -4  12 0.65540 1.29477   1
  -2  -4  12 1.76700 1.56453   2
   1   4 -12 0.77785 1.04231   1
   1   4 -12 -0.4765 0.76563   2
  -1  -4  12 -0.0803 1.20613   1
  -1  -4  12 1.61954 1.37193   2
   0   4 -12 16.5913 2.84288   1
   0   4 -12 12.4643 2.51399   2
   0  -4  12 10.2633 2.40515   2
   0  -4  12 6.80718 2.04909   4
   0  -4  12 7.92975 2.33221   1
  -1   4 -12 -1.2155 0.78628   1
  -1   4 -12 0.10366 1.07931   2
   1  -4  12 -0.1038 0.51891   4
   1  -4  12 -0.8029 1.01989   1
  -2   4 -12 0.89599 1.20332   1
  -2   4 -12 1.30198 1.09367   2
   2  -4  12 1.63696 1.49419   1
   2  -4  12 2.24660 0.94447   4
  -3   4 -12 -0.6822 0.77333   2
  -3   4 -12 -1.0441 0.79070   1
   3  -4  12 -0.5537 1.06678   1
   3  -4  12 0.52299 0.75746   4
  -4   4 -12 3.37395 1.46333   2
  -4   4 -12 4.80457 1.72947   1
   4  -4  12 5.34375 1.34866   4
  -5   4 -12 2.55287 1.41748   1
  -5   4 -12 0.64688 1.10883   2
   5  -4  12 0.71176 0.86790   4
  -6   4 -12 18.8762 3.06470   1
  -6   4 -12 17.9352 2.99848   2
  -7   4 -12 4.92060 1.85505   1
  -7   4 -12 7.86209 2.17958   2
  -7  -3  12 -1.1566 1.38691   1
  -7  -3  12 1.08550 0.93472   3
  -7  -3  12 0.91961 1.61659   2
  -6  -3  12 4.75169 1.25000   3
  -6  -3  12 8.73641 2.58057   2
  -6  -3  12 5.79137 2.12926   1
  -5  -3  12 12.6068 3.01590   2
  -5  -3  12 13.3492 1.77504   3
  -5  -3  12 18.5944 3.55282   1
   4   3 -12 0.92881 1.12279   1
  -4  -3  12 -0.3514 1.08940   1
  -4  -3  12 -1.1585 1.12552   2
  -4  -3  12 0.94042 0.62857   3
   3   3 -12 4.99790 1.65343   1
  -3  -3  12 4.39788 0.94234   3
  -3  -3  12 4.35474 1.84609   2
  -3  -3  12 4.44845 1.94197   1
   2   3 -12 12.4046 2.50484   1
   2   3 -12 11.0634 2.66782   2
  -2  -3  12 11.7778 2.63413   2
  -2  -3  12 11.1807 2.80007   1
   1   3 -12 2.44899 1.49366   1
   1   3 -12 4.84885 1.59427   2
  -1  -3  12 4.53699 1.75876   2
  -1  -3  12 4.69224 1.90546   1
   0   3 -12 2.22318 1.35881   1
   0   3 -12 3.53184 1.44658   2
   0  -3  12 1.87750 1.35279   2
   0  -3  12 2.05878 0.98349   4
   0  -3  12 2.30970 1.56747   1
  -1   3 -12 68.2410 4.83074   2
  -1   3 -12 70.4614 4.91228   1
   1  -3  12 70.4954 3.59503   4
   1  -3  12 68.8854 6.16157   1
  -2   3 -12 64.7344 5.46820   1
  -2   3 -12 50.3351 4.92243   2
   2  -3  12 48.6077 4.96898   1
   2  -3  12 49.7920 3.06210   4
  -3   3 -12 9.97417 2.25870   2
  -3   3 -12 9.55419 2.27022   1
   3  -3  12 6.78151 1.36119   4
  -4   3 -12 4.60060 1.62484   1
  -4   3 -12 5.08697 1.73885   2
   4  -3  12 6.75215 1.41335   4
  -5   3 -12 2.72958 1.40801   1
  -5   3 -12 0.66020 1.01686   2
  -6   3 -12 3.58338 1.55374   1
  -6   3 -12 5.15902 1.82649   2
  -7   3 -12 2.70147 1.51935   2
  -8  -2  12 1.09568 1.50286   2
  -8  -2  12 -0.8500 1.52216   1
  -7  -2  12 1.19587 1.74586   1
  -7  -2  12 2.46574 1.63611   2
  -7  -2  12 3.13577 1.13644   3
  -6  -2  12 6.79127 1.36850   3
  -6  -2  12 6.91794 2.24484   2
  -6  -2  12 8.02358 2.55660   1
  -5  -2  12 0.77959 1.43293   1
  -5  -2  12 2.62999 1.67446   2
  -5  -2  12 0.71191 0.71172   3
   4   2 -12 0.24123 0.92651   1
  -4  -2  12 0.37735 1.04962   2
  -4  -2  12 1.68388 1.48413   1
  -4  -2  12 -0.0458 0.51439   3
   3   2 -12 4.20659 1.50558   1
  -3  -2  12 4.15968 1.65317   2
  -3  -2  12 5.51269 0.94086   3
  -3  -2  12 6.11310 2.27264   1
   2   2 -12 14.4595 2.47329   1
   2   2 -12 17.7318 2.76077   2
  -2  -2  12 15.7158 3.12294   1
  -2  -2  12 25.6312 3.55239   2
  -2  -2  12 20.4419 1.35239   3
   1   2 -12 47.4629 4.54241   1
   1   2 -12 52.8094 4.74780   2
  -1  -2  12 51.2720 5.29334   1
  -1  -2  12 52.9313 3.05918   4
  -1  -2  12 47.0585 4.60350   2
   0   2 -12 10.2395 2.29877   1
   0   2 -12 4.89756 1.69323   2
   0  -2  12 4.65418 1.63591   2
   0  -2  12 10.8219 2.63903   1
   0  -2  12 8.61989 1.40365   4
  -1   2 -12 26.8421 3.44968   1
  -1   2 -12 29.2299 3.62638   2
   1  -2  12 23.7344 3.64854   1
   1  -2  12 21.6995 2.17729   4
  -2   2 -12 24.4275 3.35747   1
  -2   2 -12 26.7072 3.47296   2
   2  -2  12 25.1459 3.63218   1
   2  -2  12 22.5048 2.29046   4
  -3   2 -12 0.36897 0.99171   2
  -3   2 -12 0.14983 0.91331   1
   3  -2  12 -0.4769 0.49819   4
  -4   2 -12 20.9480 3.15927   2
  -4   2 -12 17.9256 2.88316   1
  -5   2 -12 1.53116 1.23063   2
  -5   2 -12 3.78869 1.46405   1
  -6   2 -12 1.66929 1.26760   1
  -6   2 -12 3.11955 1.50399   2
  -8  -1  12 1.83498 0.97581   3
  -8  -1  12 -0.3723 1.45323   1
  -8  -1  12 -0.3522 1.21239   2
  -7  -1  12 1.56758 1.51485   2
  -7  -1  12 0.95860 1.50682   1
  -7  -1  12 1.47704 0.86427   3
  -6  -1  12 5.17157 1.18051   3
  -6  -1  12 8.08670 2.50688   1
  -6  -1  12 5.21810 2.15513   2
  -5  -1  12 23.8134 2.21742   3
  -5  -1  12 17.1073 3.32220   1
  -5  -1  12 25.1839 3.74275   2
  -4  -1  12 0.54333 1.33608   1
  -4  -1  12 1.07320 0.56785   3
  -4  -1  12 0.48398 1.19963   2
  -3  -1  12 3.56193 1.54157   2
  -3  -1  12 2.91384 0.69541   3
  -3  -1  12 4.39574 1.90260   1
   2   1 -12 0.15871 0.92929   1
   2   1 -12 -0.4561 0.99785   2
  -2  -1  12 -2.4481 1.04895   4
  -2  -1  12 0.03998 1.19360   1
  -2  -1  12 -0.1738 0.87488   2
  -2  -1  12 0.42831 0.37215   3
   1   1 -12 32.7285 3.68320   2
   1   1 -12 34.5359 4.02171   1
  -1  -1  12 29.7056 1.96878   4
  -1  -1  12 39.1688 4.64616   1
  -1  -1  12 38.4992 4.19140   2
   0   1 -12 100.593 5.85653   2
   0   1 -12 107.447 6.10077   1
   0  -1  12 99.7706 4.13379   4
   0  -1  12 103.401 6.52288   2
   0  -1  12 113.658 6.65346   1
  -1   1 -12 134.515 6.85546   2
  -1   1 -12 122.063 6.70735   1
   1  -1  12 130.988 7.15813   1
   1  -1  12 131.175 5.02665   4
  -2   1 -12 14.7247 2.66379   1
  -2   1 -12 10.8890 2.29199   2
   2  -1  12 10.4286 2.30116   1
   2  -1  12 10.1354 1.52499   4
  -3   1 -12 36.0628 4.12284   2
  -3   1 -12 35.7973 4.02746   1
  -4   1 -12 1.03791 1.11424   2
  -5   1 -12 2.51647 1.40833   2
  -6   1 -12 11.0034 2.44264   2
  -8   0  12 2.31999 1.45858   2
  -8   0  12 2.97135 1.92099   1
  -8   0  12 1.79933 0.93599   3
  -7   0  12 1.26636 1.50572   1
  -7   0  12 -0.3549 1.13954   2
  -7   0  12 0.17793 0.71036   3
  -6   0  12 -0.8811 0.91688   2
  -6   0  12 -0.7531 0.53404   3
  -6   0  12 -0.6280 1.10839   1
  -5   0  12 -0.3571 0.40394   3
  -5   0  12 -0.7850 0.93546   2
  -5   0  12 -0.6471 1.06791   1
  -4   0  12 36.5780 4.16004   2
  -4   0  12 39.9670 2.23250   3
  -4   0  12 42.1550 4.84899   1
   3   0 -12 3.67343 1.54762   2
  -3   0  12 3.82531 1.73665   1
  -3   0  12 3.14672 1.56930   2
  -3   0  12 3.64328 0.74352   3
  -3   0  12 1.30034 1.16646   4
   2   0 -12 4.23100 1.68953   2
  -2   0  12 4.60132 1.60592   2
  -2   0  12 4.71721 0.85306   4
  -2   0  12 3.98529 0.64095   3
  -2   0  12 3.53772 1.78296   1
   1   0 -12 -0.2178 0.88082   2
  -1   0  12 0.02047 0.98552   1
  -1   0  12 0.25007 0.39325   4
  -1   0  12 0.34660 1.07606   2
   0   0 -12 3.11505 1.43374   2
   0   0  12 2.61733 0.72355   4
   0   0  12 1.28409 1.47712   1
  -1   0 -12 -0.5067 0.96151   2
   1   0  12 0.05760 1.12417   1
   1   0  12 0.48658 0.53700   4
  -2   0 -12 1.67046 1.12611   2
   2   0  12 1.65439 1.23820   1
  -3   0 -12 2.03208 1.21959   2
  -4   0 -12 11.8434 2.39642   2
  -5   0 -12 2.37370 1.45161   2
  -6   0 -12 10.2387 2.58915   2
  -9   1  12 0.93717 0.80337   3
  -9   1  12 -0.2409 1.13019   2
  -9   1  12 0.09651 1.45361   1
  -8   1  12 1.40400 1.36816   2
  -8   1  12 0.79757 0.94738   3
  -8   1  12 1.39203 1.88545   1
  -7   1  12 -1.4192 1.03676   1
  -7   1  12 0.21572 0.56774   3
  -7   1  12 1.18852 1.26657   2
  -6   1  12 3.89871 1.62595   2
  -6   1  12 1.41568 0.76221   3
  -6   1  12 1.85289 1.44179   1
  -5   1  12 27.1017 3.68977   2
  -5   1  12 34.3824 4.45998   1
  -4   1  12 10.9990 1.38120   3
  -4   1  12 11.0889 2.52827   1
  -4   1  12 13.3071 2.56937   2
   3  -1 -12 1.12042 1.10120   2
  -3   1  12 0.20905 0.98328   2
  -3   1  12 1.29477 1.29493   1
  -3   1  12 0.82944 0.45456   3
   2  -1 -12 4.10541 1.65740   2
  -2   1  12 2.52064 1.56201   1
  -2   1  12 2.01146 1.39200   2
  -2   1  12 3.55784 0.64786   4
   1  -1 -12 2.83563 1.57630   2
  -1   1  12 0.80962 0.46919   4
  -1   1  12 1.97187 1.43914   1
  -1   1  12 0.11932 1.11286   2
   0  -1 -12 0.78537 1.21902   2
   0   1  12 3.81324 1.70353   1
  -1  -1 -12 0.57120 1.09019   2
   1   1  12 -0.5256 0.90588   1
  -2  -1 -12 2.92360 1.59922   2
  -3  -1 -12 40.8537 4.42983   2
  -4  -1 -12 -1.4048 0.77767   2
  -5  -1 -12 12.5551 2.72048   2
  -9   2  12 11.1396 2.70310   2
  -9   2  12 15.9075 3.31040   1
  -8   2  12 43.1355 5.08837   1
  -8   2  12 42.8015 4.76133   2
  -7   2  12 28.1619 4.20604   1
  -7   2  12 32.6090 4.08590   2
  -6   2  12 24.2943 3.46914   2
  -6   2  12 25.4788 3.75621   1
  -5   2  12 4.08705 1.75513   2
  -5   2  12 5.76852 2.02687   1
  -4   2  12 10.4091 2.35531   2
  -4   2  12 11.7617 2.79433   1
   3  -2 -12 0.84636 1.20299   2
  -3   2  12 0.59775 1.05899   2
  -3   2  12 1.98681 1.49666   1
   2  -2 -12 14.8432 2.65422   2
  -2   2  12 14.2288 2.49876   2
  -2   2  12 15.5472 3.05196   1
   1  -2 -12 28.4067 3.68109   2
  -1   2  12 36.3022 4.42450   1
   0  -2 -12 0.11952 0.95969   2
   0   2  12 1.02466 1.11660   1
  -1  -2 -12 2.20446 1.36760   2
   1   2  12 4.92472 1.72431   1
  -2  -2 -12 0.53974 1.19536   2
  -3  -2 -12 1.12346 1.18920   2
  -4  -2 -12 -0.9696 0.93882   2
  -5  -2 -12 -0.5686 1.10010   2
  -9   3  12 1.31210 1.61483   1
  -9   3  12 1.54301 1.65134   2
  -8   3  12 -1.2497 1.08091   1
  -8   3  12 0.36101 1.28210   2
  -7   3  12 9.50264 2.35429   2
  -7   3  12 9.96240 2.67522   1
  -6   3  12 42.3585 4.60266   2
  -6   3  12 53.0862 5.53208   1
  -5   3  12 25.5339 3.98428   1
  -5   3  12 25.7079 3.54836   2
  -4   3  12 95.5809 6.26381   1
  -4   3  12 84.3856 5.41480   2
   3  -3 -12 0.47980 1.21554   2
  -3   3  12 1.37136 1.07452   2
  -3   3  12 1.75789 1.43174   1
   2  -3 -12 -0.0716 0.79991   2
  -2   3  12 0.05965 1.06880   1
  -2   3  12 0.15169 0.98846   2
   1  -3 -12 29.0902 3.81802   2
  -1   3  12 31.7385 4.17182   1
   0  -3 -12 6.34583 2.06268   2
   0   3  12 4.19593 1.67465   1
  -1  -3 -12 -0.6084 0.95425   2
  -2  -3 -12 15.3437 2.95383   2
  -3  -3 -12 6.33494 1.99826   2
  -4  -3 -12 2.72876 1.56472   2
  -9   4  12 20.3856 3.79091   1
  -9   4  12 24.0768 3.74816   2
  -8   4  12 0.76700 1.37823   1
  -8   4  12 0.72875 1.11472   2
  -7   4  12 18.8162 3.15746   2
  -7   4  12 12.2198 2.85474   1
  -6   4  12 1.09573 1.24520   2
  -6   4  12 1.12740 1.45548   1
  -5   4  12 28.9126 4.01114   1
  -5   4  12 30.4353 3.90821   2
  -4   4  12 70.3540 5.80503   2
  -4   4  12 70.6913 6.51643   1
   3  -4 -12 13.1602 2.63954   2
  -3   4  12 15.1720 2.71452   2
  -3   4  12 15.7711 3.00775   1
   2  -4 -12 25.0580 3.62924   2
  -2   4  12 25.4172 3.88747   1
   1  -4 -12 1.95784 1.42419   2
  -1   4  12 -0.4480 1.01866   1
   0  -4 -12 3.62996 1.66470   2
   0   4  12 3.34346 1.63250   1
  -1  -4 -12 0.37332 1.24310   2
  -2  -4 -12 1.42630 1.62999   2
  -3  -4 -12 -0.1961 1.17452   2
  -9   5  12 14.6361 2.82835   2
  -9   5  12 19.3616 3.62500   1
  -8   5  12 3.63731 1.84877   1
  -8   5  12 0.73542 1.37037   2
  -7   5  12 0.93305 1.16056   2
  -7   5  12 1.40122 1.49604   1
  -6   5  12 -0.3865 1.08743   1
  -6   5  12 -0.2589 0.90186   2
  -5   5  12 7.44585 2.03449   2
  -5   5  12 7.12644 2.28921   1
  -4   5  12 9.14472 2.44520   1
  -4   5  12 8.61275 2.15305   2
   3  -5 -12 11.6244 2.69569   2
  -3   5  12 18.9644 3.28902   1
   2  -5 -12 7.53371 2.25852   2
  -2   5  12 6.34492 2.11301   1
   1  -5 -12 7.18658 2.25751   2
  -1   5  12 8.50321 2.22072   1
  -1   5  12 8.41453 1.91918   5
   0  -5 -12 11.8030 2.72143   2
  -1  -5 -12 3.80037 1.77240   2
  -2  -5 -12 2.31559 1.73073   2
  -9   6  12 2.06349 1.51364   2
  -9   6  12 2.13973 1.69274   1
  -8   6  12 1.26549 1.36824   1
  -8   6  12 1.52247 1.33121   2
  -7   6  12 1.10161 1.36612   1
  -7   6  12 -1.0987 0.85089   2
  -6   6  12 5.12385 2.01623   1
  -6   6  12 4.32001 1.63526   2
  -5   6  12 28.0146 3.76617   2
  -5   6  12 25.6082 3.91933   1
  -4   6  12 3.11748 1.55648   2
  -4   6  12 5.91287 2.11546   1
   3  -6 -12 2.42514 1.71527   2
  -3   6  12 0.11927 1.22705   1
   2  -6 -12 4.27282 1.79882   2
  -2   6  12 3.53734 1.70215   1
   1  -6 -12 0.79393 1.20519   2
  -1   6  12 0.98205 0.74045   5
  -1   6  12 -0.2469 1.14371   1
   0  -6 -12 -0.3200 1.21074   2
  -1  -6 -12 0.99217 1.48779   2
  -9   7  12 1.32910 1.45999   2
  -8   7  12 -1.1998 0.96213   2
  -8   7  12 0.99942 1.59227   1
  -7   7  12 0.26560 1.26950   2
  -7   7  12 2.19767 1.63222   1
  -6   7  12 12.4124 2.68180   2
  -6   7  12 7.96052 2.41431   1
  -5   7  12 5.85777 1.76657   2
  -5   7  12 3.54766 1.89618   1
  -4   7  12 1.63104 1.44799   1
   3  -7 -12 15.6936 3.64027   2
   3  -7 -12 14.4660 3.37590   2
  -3   7  12 12.0317 2.83890   1
   2  -7 -12 12.5982 2.88721   2
   2  -7 -12 9.09851 2.57838   2
  -2   7  12 13.7999 2.94402   1
   1  -7 -12 3.34410 1.88127   2
   1  -7 -12 0.69260 1.35388   2
  -1   7  12 1.82406 0.91432   5
   0  -7 -12 17.8171 3.61687   2
   0  -7 -12 23.0793 4.05419   2
  -8   8  12 21.1677 3.82030   1
  -8   8  12 20.7389 3.51232   2
  -7   8  12 2.80304 1.80966   1
  -7   8  12 4.81984 1.89150   2
   6  -8 -12 6.17581 2.15473   1
  -6   8  12 3.91860 1.81861   2
  -6   8  12 5.17111 2.08152   1
  -5   8  12 17.2590 3.57536   1
  -4   8  12 25.9459 4.10687   1
  -3   8  12 0.33198 1.22748   1
   2  -8 -12 9.07327 2.75466   2
  -2   8  12 8.99033 1.66041   5
   6  -9 -12 1.92097 1.61397   1
  -6   9  12 1.21658 1.67424   1
   5  -9 -12 2.63025 1.88740   1
  -5   9  12 2.50995 1.79441   1
   4  -9 -12 11.9800 2.94729   1
  -4   9  12 12.1787 2.96539   1
   0   8 -13 3.58740 1.84875   1
   0  -8  13 1.08248 1.77126   1
   1  -8  13 5.80224 2.55124   1
   1  -8  13 9.83636 2.92569   4
  -2   8 -13 0.68764 1.38266   1
   2  -8  13 -2.9580 1.47324   4
   2  -8  13 0.39689 1.49290   1
  -3   8 -13 2.07206 1.64941   1
  -3   8 -13 1.04800 1.35432   2
   3  -8  13 2.15197 1.20996   4
  -4   8 -13 6.69425 2.25469   2
  -2  -7  13 1.33393 1.68316   1
  -2  -7  13 2.80901 2.06406   2
   1   7 -13 1.35937 1.49033   1
  -1  -7  13 0.61001 1.64030   1
   0   7 -13 9.60363 2.45768   1
   0  -7  13 14.6786 3.38639   1
  -1   7 -13 -0.5046 1.10789   1
   1  -7  13 -6.4041 1.96581   4
   1  -7  13 0.39604 1.46359   1
  -2   7 -13 12.3059 2.73240   2
  -2   7 -13 10.1860 2.51712   1
   2  -7  13 6.21215 2.46902   1
   2  -7  13 8.41002 1.77519   4
  -3   7 -13 -0.5882 1.07616   1
  -3   7 -13 0.31463 1.03813   2
   3  -7  13 0.69039 0.96096   4
  -4   7 -13 0.22566 1.28079   1
  -4   7 -13 2.40217 1.54582   2
   4  -7  13 0.13923 0.76670   4
  -5   7 -13 11.0576 2.71094   2
   5  -7  13 10.6442 2.09937   4
  -3  -6  13 -0.0013 1.57196   1
  -3  -6  13 2.09728 1.69438   2
   2   6 -13 -0.6927 1.02789   1
  -2  -6  13 1.02145 1.66255   2
  -2  -6  13 -0.5702 1.51763   1
   1   6 -13 -0.2062 1.12485   1
  -1  -6  13 0.96616 1.48465   1
   0   6 -13 2.85723 1.52331   1
   0  -6  13 5.11921 2.22623   1
  -1   6 -13 9.45529 2.34731   1
  -1   6 -13 10.4015 2.51080   2
   1  -6  13 7.63450 2.61903   1
   1  -6  13 5.85980 2.16068   4
  -2   6 -13 1.36902 1.36049   2
  -2   6 -13 2.57597 1.58063   1
   2  -6  13 0.59893 0.87686   4
   2  -6  13 -0.2397 1.56784   1
  -3   6 -13 9.44403 2.40544   1
  -3   6 -13 4.94455 1.88714   2
   3  -6  13 5.64782 1.55841   4
  -4   6 -13 41.8310 4.89415   1
  -4   6 -13 47.1289 5.06078   2
   4  -6  13 39.0210 3.71103   4
  -5   6 -13 0.82940 1.25773   1
  -5   6 -13 -0.4320 1.17208   2
   5  -6  13 0.28424 0.87547   4
  -4  -5  13 3.57558 1.97504   1
  -4  -5  13 1.33115 1.71602   2
   3   5 -13 2.66997 1.55193   1
  -3  -5  13 0.07426 1.26494   2
  -3  -5  13 0.71038 1.64097   1
   2   5 -13 6.50149 2.06591   1
  -2  -5  13 5.18876 2.12396   2
  -2  -5  13 7.25695 2.71375   1
   1   5 -13 1.19088 1.34276   1
  -1  -5  13 -1.2366 1.21204   1
   0   5 -13 5.17847 2.03632   1
   0   5 -13 9.46714 2.44888   2
   0  -5  13 3.95380 2.08650   1
   0  -5  13 0.98361 2.16943   4
  -1   5 -13 0.30506 1.04948   1
  -1   5 -13 -0.2792 1.12546   2
   1  -5  13 0.37264 0.72914   4
   1  -5  13 0.09123 1.44145   1
  -2   5 -13 0.33129 1.05848   2
  -2   5 -13 -0.6233 0.91262   1
   2  -5  13 -1.1498 1.17786   1
   2  -5  13 0.36258 0.62899   4
  -3   5 -13 3.16554 1.70752   1
  -3   5 -13 1.57447 1.44309   2
   3  -5  13 4.62471 1.25272   4
  -4   5 -13 0.62229 1.27458   1
  -4   5 -13 1.48155 1.44106   2
   4  -5  13 0.87777 0.85134   4
  -5   5 -13 1.14419 1.35653   1
  -5   5 -13 0.17281 1.10488   2
   5  -5  13 1.49948 1.09380   4
  -5  -4  13 9.16133 1.62804   3
  -5  -4  13 8.20161 2.73895   1
  -5  -4  13 4.77864 2.23758   2
  -4  -4  13 13.0996 1.81686   3
  -4  -4  13 13.8320 3.13890   2
  -4  -4  13 21.6647 3.92788   1
   3   4 -13 17.7366 3.03630   1
  -3  -4  13 17.8914 3.55003   1
  -3  -4  13 24.9295 3.94149   2
   2   4 -13 1.27858 1.25081   1
  -2  -4  13 1.93842 1.61683   2
  -2  -4  13 0.19661 1.43415   1
   1   4 -13 1.16086 1.20720   1
  -1  -4  13 1.29447 1.26385   2
  -1  -4  13 1.40476 1.52177   1
   0   4 -13 3.25567 1.64185   2
   0   4 -13 4.32440 1.76400   1
   0  -4  13 3.22652 1.47334   4
   0  -4  13 4.59847 2.07656   1
  -1   4 -13 20.2723 3.23720   1
  -1   4 -13 14.8316 2.88115   2
   1  -4  13 13.5107 2.98257   1
   1  -4  13 16.2678 2.05776   4
  -2   4 -13 2.73785 1.41093   1
  -2   4 -13 3.37791 1.61048   2
   2  -4  13 1.67262 1.55849   1
   2  -4  13 2.99144 1.09178   4
  -3   4 -13 6.25740 2.13229   1
  -3   4 -13 3.47175 1.75612   2
   3  -4  13 6.74667 1.50097   4
  -4   4 -13 3.93065 1.68057   1
  -4   4 -13 1.35200 1.37073   2
   4  -4  13 1.37216 0.86890   4
  -5   4 -13 3.39603 1.71463   1
  -5   4 -13 4.67711 1.92204   2
   5  -4  13 3.43788 1.36090   4
  -6  -3  13 16.7636 3.70822   1
  -6  -3  13 9.56564 2.64719   2
  -5  -3  13 23.7225 3.95676   2
  -5  -3  13 20.2878 3.79800   1
  -5  -3  13 23.6727 2.31520   3
   4   3 -13 6.92838 2.07189   1
  -4  -3  13 12.5723 3.06030   1
  -4  -3  13 10.2486 1.48352   3
  -4  -3  13 8.88154 2.55812   2
   3   3 -13 1.04663 1.21844   1
  -3  -3  13 -0.8499 0.57783   3
  -3  -3  13 0.81027 1.28199   2
  -3  -3  13 -1.4852 1.08801   1
   2   3 -13 21.7506 3.34800   1
  -2  -3  13 20.4710 3.30773   2
  -2  -3  13 24.6077 3.97454   1
   1   3 -13 0.84779 1.07876   2
   1   3 -13 0.41330 1.04073   1
  -1  -3  13 0.09906 1.34021   1
  -1  -3  13 -3.9685 1.25847   4
  -1  -3  13 2.62865 1.58549   2
   0   3 -13 10.0692 2.41348   1
   0   3 -13 8.76626 2.29096   2
   0  -3  13 8.99495 2.56769   1
   0  -3  13 6.55123 1.30741   4
  -1   3 -13 12.1333 2.57748   2
  -1   3 -13 11.6235 2.54160   1
   1  -3  13 13.5894 3.05341   1
   1  -3  13 9.99983 1.57164   4
  -2   3 -13 2.23584 1.39806   2
  -2   3 -13 3.24728 1.66780   1
   2  -3  13 3.20004 0.97575   4
   2  -3  13 2.38706 1.60141   1
  -3   3 -13 7.32012 2.21768   1
  -3   3 -13 6.58233 2.01567   2
   3  -3  13 3.52409 1.08986   4
  -4   3 -13 0.58549 1.07070   2
  -4   3 -13 0.33023 0.98118   1
   4  -3  13 0.87088 0.81226   4
  -5   3 -13 -0.8606 0.95118   2
  -5   3 -13 0.74553 1.22191   1
  -7  -2  13 1.78644 1.68761   2
  -7  -2  13 2.45813 1.09573   3
  -7  -2  13 2.58382 1.88555   1
  -6  -2  13 -0.5837 1.21533   1
  -6  -2  13 0.33003 0.70190   3
  -6  -2  13 0.65382 1.32732   2
  -5  -2  13 7.93771 1.36867   3
  -5  -2  13 7.94323 2.56778   1
  -5  -2  13 9.09057 2.43869   2
  -4  -2  13 13.2488 2.96028   2
  -4  -2  13 11.2328 2.88352   1
  -4  -2  13 6.37621 1.13895   3
   3   2 -13 2.21730 1.30288   1
  -3  -2  13 4.91417 1.09110   3
  -3  -2  13 3.21208 1.68649   2
  -3  -2  13 5.61065 2.13623   1
   2   2 -13 5.82398 1.81601   1
  -2  -2  13 4.50655 2.17110   1
  -2  -2  13 0.63255 1.66417   4
  -2  -2  13 4.90343 1.80246   2
   1   2 -13 5.63882 1.85377   1
   1   2 -13 8.00200 2.08747   2
  -1  -2  13 13.4255 2.94432   1
  -1  -2  13 8.73294 1.31142   4
  -1  -2  13 3.75655 1.72137   2
   0   2 -13 43.0050 4.57810   2
   0   2 -13 43.9055 4.68836   1
   0  -2  13 38.6357 2.52349   4
   0  -2  13 34.6191 4.51079   1
  -1   2 -13 56.1709 5.27284   1
  -1   2 -13 59.1806 5.47701   2
   1  -2  13 57.9777 3.22529   4
   1  -2  13 61.6345 5.91834   1
  -2   2 -13 65.3265 5.68700   2
  -2   2 -13 51.7844 5.11377   1
   2  -2  13 67.8595 6.02942   1
   2  -2  13 56.2566 3.28412   4
  -3   2 -13 7.14550 2.15483   1
  -3   2 -13 6.79194 2.06339   2
   3  -2  13 5.51247 1.32253   4
  -4   2 -13 -0.7936 0.93345   2
  -4   2 -13 1.87462 1.46695   1
  -5   2 -13 3.00170 1.58105   1
  -5   2 -13 2.42371 1.42292   2
  -7  -1  13 24.7267 2.65827   3
  -7  -1  13 22.3360 3.92467   1
  -7  -1  13 24.9623 3.86304   2
  -6  -1  13 10.9374 1.64456   3
  -6  -1  13 11.7471 2.91359   1
  -6  -1  13 15.4546 3.14457   2
  -5  -1  13 18.3067 3.34647   2
  -5  -1  13 15.2141 3.19967   1
  -5  -1  13 15.1363 1.76938   3
  -4  -1  13 4.58501 0.95618   3
  -4  -1  13 8.27915 2.25836   2
  -4  -1  13 4.53237 2.04119   1
  -3  -1  13 16.2362 3.23050   1
  -3  -1  13 13.9393 2.82301   2
   2   1 -13 15.4969 2.68109   2
  -2  -1  13 14.4856 1.59317   4
  -2  -1  13 13.0382 2.91176   1
  -2  -1  13 12.4501 2.60484   2
   1   1 -13 38.2349 4.29411   1
   1   1 -13 25.4239 3.49541   2
  -1  -1  13 29.5134 2.02029   4
  -1  -1  13 28.6245 4.08440   1
   0   1 -13 60.2966 5.57925   2
   0   1 -13 63.2869 5.64784   1
   0  -1  13 53.1981 2.89247   4
   0  -1  13 65.1002 6.18769   1
  -1   1 -13 38.1094 4.45076   2
  -1   1 -13 41.2413 4.51718   1
   1  -1  13 38.2481 2.44997   4
   1  -1  13 45.3094 5.02265   1
  -2   1 -13 2.45166 1.49424   2
  -2   1 -13 3.60676 1.51809   1
   2  -1  13 3.87104 1.08926   4
  -3   1 -13 -0.7042 0.92709   2
  -4   1 -13 13.4187 2.75439   2
  -5   1 -13 6.76170 2.04465   2
  -8   0  13 16.1675 2.26058   3
  -8   0  13 12.8253 2.98550   2
  -8   0  13 15.1622 3.50675   1
  -7   0  13 1.88824 1.88970   1
  -7   0  13 6.91881 1.44656   3
  -7   0  13 2.23015 1.70274   2
  -6   0  13 5.28877 2.15041   1
  -6   0  13 8.72500 1.42958   3
  -6   0  13 4.95069 1.90763   2
  -5   0  13 13.8458 3.08346   1
  -5   0  13 6.74905 1.19418   3
  -5   0  13 8.92295 2.41289   2
  -4   0  13 -0.1537 1.00845   2
  -4   0  13 0.05526 0.50671   3
  -4   0  13 -0.6097 1.01107   1
  -3   0  13 2.04726 1.72031   1
  -3   0  13 4.02154 1.74013   2
   2   0 -13 0.90137 1.09970   2
  -2   0  13 2.94400 1.59125   2
  -2   0  13 2.50275 1.59933   1
   1   0 -13 0.81696 1.06781   2
  -1   0  13 1.54786 1.37364   1
   0   0 -13 27.5147 3.82170   2
   0   0  13 41.5478 4.88977   1
   0   0  13 32.8411 2.40066   4
  -1   0 -13 0.58801 1.27550   2
   1   0  13 2.26857 1.55658   1
  -2   0 -13 55.5275 5.23236   2
  -3   0 -13 4.69508 1.81082   2
  -4   0 -13 17.8065 3.16443   2
  -5   0 -13 13.9472 2.95956   2
  -8   1  13 4.51209 1.98543   2
  -8   1  13 8.74910 1.67249   3
  -8   1  13 8.48928 2.65666   1
  -7   1  13 1.45936 0.90123   3
  -7   1  13 2.04351 1.54979   2
  -7   1  13 4.04472 2.22521   1
  -6   1  13 5.73468 2.38823   1
  -6   1  13 9.32485 1.46923   3
  -6   1  13 6.56929 2.22801   2
  -5   1  13 1.62749 0.75063   3
  -5   1  13 1.69469 1.36926   1
  -5   1  13 4.61192 1.96902   2
  -4   1  13 0.15325 1.15803   2
  -4   1  13 0.64016 0.49885   3
  -4   1  13 1.94608 1.59786   1
  -3   1  13 52.0338 5.10269   2
  -3   1  13 49.1273 5.31372   1
   2  -1 -13 9.16734 2.29300   2
  -2   1  13 3.84937 1.66856   2
  -2   1  13 6.36866 2.17225   1
   1  -1 -13 24.1006 3.59579   2
  -1   1  13 24.4352 3.80708   1
   0  -1 -13 13.8248 2.76079   2
   0   1  13 11.6221 2.72389   1
  -1  -1 -13 2.22753 1.51621   2
   1   1  13 1.37654 1.48822   1
  -2  -1 -13 2.01293 1.50079   2
  -3  -1 -13 10.6546 2.61703   2
  -4  -1 -13 14.1305 2.92378   2
  -8   2  13 2.10882 1.97294   1
  -8   2  13 1.70499 1.65036   2
  -7   2  13 5.11367 2.01877   1
  -7   2  13 6.85485 2.15781   2
  -6   2  13 -0.4919 1.00458   1
  -6   2  13 -0.3712 1.00251   2
  -5   2  13 36.1321 4.67652   1
  -5   2  13 25.3075 3.80641   2
  -4   2  13 10.6779 2.76892   1
  -4   2  13 8.57934 2.26679   2
  -3   2  13 42.7842 4.98865   1
  -3   2  13 39.6052 4.33894   2
   2  -2 -13 16.4621 3.01049   2
  -2   2  13 20.6234 3.49662   1
   1  -2 -13 25.7403 3.66619   2
  -1   2  13 23.0993 3.67720   1
   0  -2 -13 7.61186 2.25266   2
   0   2  13 3.44202 1.77010   1
  -1  -2 -13 7.49956 2.11920   2
  -2  -2 -13 0.30230 1.15517   2
  -3  -2 -13 16.8214 3.13689   2
  -4  -2 -13 -1.2065 0.96181   2
  -8   3  13 6.93981 2.17516   2
  -8   3  13 3.86934 2.03495   1
  -7   3  13 30.3077 4.53847   1
  -7   3  13 25.6904 3.88845   2
  -6   3  13 6.43161 2.03710   2
  -6   3  13 11.9919 2.98898   1
  -5   3  13 7.88903 2.52455   1
  -5   3  13 4.30493 1.73328   2
  -4   3  13 12.8341 2.71162   2
  -4   3  13 9.49781 2.62217   1
   3  -3 -13 0.39554 1.36489   2
  -3   3  13 1.04428 1.16733   2
  -3   3  13 1.11396 1.56793   1
   2  -3 -13 4.69083 1.80228   2
  -2   3  13 0.57201 1.24526   1
   1  -3 -13 3.73937 1.68613   2
  -1   3  13 6.99126 2.18631   1
   0  -3 -13 3.68454 1.77901   2
   0   3  13 5.92735 1.99971   1
  -1  -3 -13 14.1263 2.82785   2
  -2  -3 -13 1.17359 1.40934   2
  -3  -3 -13 0.99115 1.54370   2
  -8   4  13 0.90323 1.51622   2
  -8   4  13 -1.0692 1.12697   1
  -7   4  13 6.97876 2.25133   1
  -7   4  13 5.03114 1.91898   2
  -6   4  13 10.5262 2.70767   1
  -6   4  13 5.15524 1.89824   2
  -5   4  13 7.63892 2.57387   1
  -5   4  13 9.09328 2.46386   2
  -4   4  13 11.1209 2.49501   2
  -4   4  13 10.6934 2.71059   1
   3  -4 -13 0.48327 1.86511   2
  -3   4  13 0.82766 1.37744   1
   2  -4 -13 18.8510 3.46567   2
  -2   4  13 19.9561 3.48408   1
   1  -4 -13 6.14537 2.14076   2
  -1   4  13 7.19972 2.19487   1
   0  -4 -13 3.41724 1.85239   2
  -1  -4 -13 2.76717 1.66766   2
  -2  -4 -13 10.3531 2.69159   2
  -8   5  13 8.71696 2.62471   1
  -8   5  13 7.36300 2.23374   2
  -7   5  13 6.84007 2.28401   2
  -7   5  13 8.81574 2.61444   1
  -6   5  13 11.7000 2.59399   2
  -6   5  13 13.0731 3.11448   1
  -5   5  13 0.71246 1.58039   1
  -5   5  13 -0.5393 0.97108   2
  -4   5  13 11.5096 2.79938   1
  -3   5  13 9.33892 2.77694   1
   2  -5 -13 1.02049 1.43150   2
  -2   5  13 0.27754 1.48128   1
   1  -5 -13 14.2864 3.07867   2
  -1   5  13 14.9408 2.98584   1
   0  -5 -13 2.55559 1.73136   2
  -1  -5 -13 -0.2755 1.26689   2
  -8   6  13 1.71740 1.75688   1
  -8   6  13 -0.4562 1.29051   2
  -7   6  13 2.01734 1.80966   1
  -7   6  13 0.80362 1.32414   2
  -6   6  13 0.89992 1.38071   1
  -6   6  13 -0.5413 1.08975   2
  -5   6  13 -0.2302 1.42935   1
  -4   6  13 3.35041 1.83665   1
  -3   6  13 6.02649 2.28594   1
   2  -6 -13 6.78700 2.35832   2
  -2   6  13 5.78393 2.00213   1
   1  -6 -13 3.63154 1.94489   2
   0  -6 -13 1.67593 1.63243   2
  -7   7  13 2.04523 1.77220   1
  -7   7  13 5.75519 1.94616   2
  -6   7  13 5.06746 2.12366   1
  -6   7  13 4.01067 2.08646   2
  -5   7  13 5.96348 2.45253   1
  -4   7  13 0.76716 1.58314   1
  -3   7  13 8.58949 2.49993   1
   2  -7 -13 13.9877 3.37564   2
   2  -7 -13 11.9736 3.05205   2
   1  -7  14 -3.5660 1.50941   4
   1  -7  14 1.02379 1.64314   1
   2   6 -14 -0.1675 1.17281   1
  -2  -6  14 -0.0593 1.72404   1
   1   6 -14 -0.0141 1.12414   1
  -1  -6  14 -0.4111 1.33280   1
   0   6 -14 0.08459 1.28267   1
   0  -6  14 -0.0166 1.48750   1
   0  -6  14 -9.1068 2.35225   4
  -1   6 -14 -0.6681 1.24175   1
   1  -6  14 1.26758 1.69101   1
   1  -6  14 0.60925 0.81417   4
  -2   6 -14 1.95919 1.49035   1
  -2   6 -14 0.85775 1.33729   2
   2  -6  14 0.16171 0.87258   4
  -3   6 -14 0.72843 1.38120   1
  -3   6 -14 3.62784 1.85122   2
   3  -6  14 3.28146 1.32199   4
  -3  -5  14 0.29397 1.55447   1
  -3  -5  14 0.93652 1.58037   2
   2   5 -14 2.32588 1.53956   1
  -2  -5  14 2.77386 2.06624   1
   1   5 -14 -1.0979 0.94896   1
  -1  -5  14 -0.3351 1.49621   1
   0   5 -14 2.09167 1.55479   1
   0  -5  14 -1.7129 1.28789   4
   0  -5  14 0.47904 1.56259   1
  -1   5 -14 2.27888 1.68339   2
  -1   5 -14 3.10130 1.85497   1
   1  -5  14 1.51260 1.65934   1
   1  -5  14 1.99713 1.00373   4
  -2   5 -14 -0.0923 1.02095   1
  -2   5 -14 0.11474 1.30651   2
   2  -5  14 -0.2502 0.78970   4
  -3   5 -14 2.38000 1.59575   1
  -3   5 -14 6.39781 2.34442   2
   3  -5  14 3.77030 1.25988   4
  -4   5 -14 4.12378 1.77612   1
  -4   5 -14 1.29184 1.64400   2
   4  -5  14 0.62940 0.96527   4
  -4  -4  14 -1.3057 1.18711   1
  -4  -4  14 0.91408 1.43507   2
   3   4 -14 3.77244 1.75343   1
  -3  -4  14 3.20344 2.04688   1
  -3  -4  14 3.47896 1.91343   2
   2   4 -14 -0.2990 1.13353   1
  -2  -4  14 -0.0181 1.44197   1
   1   4 -14 9.18024 2.43822   1
  -1  -4  14 10.5885 2.93008   1
  -1  -4  14 -1.9171 1.89627   4
   0   4 -14 2.85809 2.09769   2
   0   4 -14 3.82157 1.83779   1
   0  -4  14 4.97871 1.25091   4
   0  -4  14 6.34883 2.38179   1
  -1   4 -14 4.00160 1.75163   1
  -1   4 -14 5.63761 2.04605   2
   1  -4  14 4.04342 1.18668   4
   1  -4  14 2.63297 1.85791   1
  -2   4 -14 3.88007 1.80759   2
  -2   4 -14 4.57684 1.78465   1
   2  -4  14 5.29245 1.38018   4
  -3   4 -14 1.29537 1.31154   1
  -3   4 -14 -1.0872 0.98742   2
   3  -4  14 -0.4635 0.49515   4
  -4   4 -14 2.64283 1.55989   1
  -4   4 -14 4.68360 1.88210   2
   4  -4  14 2.84234 1.22844   4
  -5  -3  14 11.4014 2.90112   2
  -5  -3  14 14.0819 3.48932   1
  -4  -3  14 3.41222 2.13804   1
  -4  -3  14 6.26833 2.42614   2
   3   3 -14 5.90472 1.97596   1
  -3  -3  14 10.6962 2.83590   2
  -3  -3  14 7.14754 2.69127   1
   2   3 -14 -0.1556 1.05037   1
  -2  -3  14 -5.0553 1.66780   4
  -2  -3  14 -0.7801 1.36012   1
   1   3 -14 6.09504 2.09622   1
  -1  -3  14 5.60541 2.23680   1
  -1  -3  14 6.14140 1.36814   4
   0   3 -14 8.28108 2.34391   1
   0   3 -14 11.0063 2.63096   2
   0  -3  14 4.32003 1.18317   4
   0  -3  14 3.93669 2.11030   1
  -1   3 -14 3.66339 1.66502   1
  -1   3 -14 4.12932 1.76304   2
   1  -3  14 4.10195 1.14918   4
   1  -3  14 1.98838 1.64026   1
  -2   3 -14 0.73335 1.08881   1
  -2   3 -14 -0.0957 1.21863   2
   2  -3  14 0.15249 0.66952   4
  -3   3 -14 9.78486 2.57241   1
  -3   3 -14 10.5434 2.68113   2
   3  -3  14 11.0592 1.85019   4
  -4   3 -14 1.17103 1.43091   2
  -4   3 -14 0.86036 1.32405   1
   4  -3  14 0.57289 0.81357   4
  -6  -2  14 -0.9964 1.31400   2
  -6  -2  14 -0.1781 1.66141   1
  -6  -2  14 1.41058 0.90870   3
  -5  -2  14 0.49371 1.34001   2
  -5  -2  14 -0.7741 1.28231   1
  -4  -2  14 -0.3549 1.39068   1
  -4  -2  14 1.06872 1.37580   2
   3   2 -14 10.4025 2.42549   1
  -3  -2  14 12.5990 3.04639   1
  -3  -2  14 13.0567 3.05421   2
   2   2 -14 4.84699 1.92176   1
  -2  -2  14 6.88099 2.41230   1
   1   2 -14 0.92797 1.55504   2
   1   2 -14 2.72319 1.75936   1
  -1  -2  14 1.23435 0.86064   4
  -1  -2  14 1.85256 1.71782   1
   0   2 -14 1.33754 1.26705   1
   0   2 -14 -0.0137 1.28347   2
   0  -2  14 -0.3277 1.50951   1
   0  -2  14 -0.0976 0.59215   4
  -1   2 -14 2.62375 1.50392   1
  -1   2 -14 -0.2032 1.13516   2
   1  -2  14 0.71589 0.66834   4
   1  -2  14 3.80560 1.89385   1
  -2   2 -14 0.49429 1.07617   1
  -2   2 -14 -0.4046 0.89206   2
   2  -2  14 0.17400 0.63194   4
  -3   2 -14 12.8664 3.01668   1
  -3   2 -14 7.71511 2.24287   2
   3  -2  14 5.66116 1.35681   4
  -4   2 -14 18.4727 3.37265   2
  -4   2 -14 16.3917 3.10493   1
  -6  -1  14 1.09597 1.50958   2
  -6  -1  14 0.37321 0.71905   3
  -6  -1  14 -0.3627 1.49566   1
  -5  -1  14 -1.4047 1.14094   2
  -5  -1  14 0.35296 1.48378   1
  -4  -1  14 1.63899 1.55583   1
  -4  -1  14 -0.0703 1.32447   2
  -3  -1  14 5.69365 2.12851   2
  -3  -1  14 6.92113 2.50421   1
  -2  -1  14 4.04455 2.01397   1
   1   1 -14 14.4073 2.75780   2
  -1  -1  14 17.7110 3.56274   1
   0   1 -14 10.9664 2.60454   2
   0  -1  14 12.3918 2.88277   1
  -1   1 -14 7.60893 2.29724   2
   1  -1  14 10.1246 2.62952   1
  -2   1 -14 7.74441 2.21437   2
  -3   1 -14 1.36213 1.40063   2
  -4   1 -14 6.09808 2.05483   2
  -7   0  14 7.61375 1.49520   3
  -7   0  14 6.00821 2.53275   1
  -7   0  14 4.68137 2.08932   2
  -6   0  14 4.56146 1.19325   3
  -6   0  14 3.88001 1.98172   1
  -6   0  14 4.80792 2.01301   2
  -5   0  14 4.62743 2.28486   1
  -5   0  14 0.31426 1.47792   2
  -4   0  14 8.02213 2.39999   2
  -4   0  14 7.35730 2.51667   1
  -3   0  14 1.10109 1.48409   2
  -3   0  14 3.03587 1.84375   1
  -2   0  14 3.23604 1.79887   1
   1   0 -14 2.57033 1.57745   2
  -1   0  14 -0.2699 1.16534   1
   0   0 -14 -0.9201 1.15582   2
   0   0  14 1.99220 1.71547   1
  -1   0 -14 6.56353 2.10500   2
  -2   0 -14 6.13291 2.11973   2
  -3   0 -14 6.80215 2.31133   2
  -7   1  14 0.19156 1.21443   2
  -7   1  14 -1.3641 0.99806   1
  -7   1  14 0.99635 0.78290   3
  -6   1  14 18.2533 3.28287   2
  -6   1  14 15.8973 3.38061   1
  -6   1  14 24.5910 3.27803   3
  -5   1  14 5.99748 2.13262   2
  -5   1  14 3.72929 1.93414   1
  -4   1  14 3.55976 1.93854   1
  -4   1  14 10.0174 2.55463   2
  -3   1  14 15.7535 3.31565   1
  -3   1  14 19.2805 4.16272   2
   2  -1 -14 3.64080 1.91146   2
  -2   1  14 2.09300 1.66064   1
   1  -1 -14 1.55281 1.37391   2
  -1   1  14 0.30967 1.35165   1
   0  -1 -14 -0.9224 1.09516   2
   0   1  14 1.72956 1.48423   1
  -1  -1 -14 0.63178 1.40138   2
  -2  -1 -14 24.5590 3.92718   2
  -3  -1 -14 4.42632 1.95307   2
  -7   2  14 3.46339 1.78971   2
  -7   2  14 4.36078 1.16231   3
  -7   2  14 1.16227 1.52700   1
  -6   2  14 0.13230 1.30719   1
  -6   2  14 0.16462 1.20729   2
  -5   2  14 0.26266 1.37529   1
  -5   2  14 1.55791 1.41890   2
  -4   2  14 1.09055 1.46353   2
  -4   2  14 1.45290 1.55316   1
  -3   2  14 18.9715 3.58325   1
   2  -2 -14 31.0804 4.19484   2
  -2   2  14 24.8541 4.16166   1
   1  -2 -14 0.07491 1.21704   2
  -1   2  14 0.16244 1.42773   1
   0  -2 -14 3.33406 1.76032   2
   0   2  14 3.32131 1.99927   1
  -1  -2 -14 1.21066 1.40713   2
  -2  -2 -14 17.2752 3.33816   2
  -7   3  14 4.22639 2.22318   1
  -7   3  14 4.54679 2.03411   2
  -6   3  14 28.3502 4.40244   1
  -6   3  14 22.7095 3.74991   2
  -5   3  14 14.2033 2.93478   2
  -5   3  14 9.25662 2.76270   1
  -4   3  14 0.68752 1.37061   1
  -4   3  14 -1.1506 1.59831   2
  -3   3  14 0.60709 1.45014   1
   2  -3 -14 1.51819 1.68587   2
  -2   3  14 0.76663 1.44103   1
   1  -3 -14 18.3460 3.26443   2
  -1   3  14 12.3580 2.92785   1
   0  -3 -14 2.93491 1.84518   2
  -1  -3 -14 -1.3697 1.02544   2
  -7   4  14 -0.0429 1.16290   2
  -7   4  14 -0.2218 1.43898   1
  -6   4  14 0.23240 1.36804   1
  -6   4  14 2.04453 1.41445   2
  -5   4  14 9.80774 2.55100   2
  -5   4  14 8.66403 2.79536   1
  -4   4  14 30.6567 4.76406   1
  -3   4  14 0.06283 1.33194   1
   2  -4 -14 1.92272 1.56955   2
  -2   4  14 1.42951 1.64795   1
   1  -4 -14 3.47985 1.87032   2
  -1   4  14 0.87580 1.73873   1
   0  -4 -14 -0.9185 1.20427   2
  -7   5  14 13.1804 2.94313   2
  -6   5  14 2.81107 1.84242   1
  -6   5  14 0.31960 1.39587   2
  -5   5  14 7.82319 2.60001   1
  -4   5  14 3.29252 1.93542   1
  -3   5  14 3.11915 1.91810   1
  -2   5  14 2.50688 1.71258   1
   1  -5 -14 3.36534 2.04693   2
  -5   6  14 2.24750 1.76530   1
  -4   6  14 0.88443 1.54782   1
  -3   6  14 -0.5667 1.39772   1
   0  -5  15 5.08978 2.55529   1
   2   4 -15 0.78631 1.37229   1
  -2  -4  15 0.41032 1.39545   1
   1   4 -15 3.55260 1.78926   1
  -1  -4  15 3.42605 2.15607   1
   0   4 -15 30.0461 4.25303   1
   0  -4  15 30.0303 2.93401   4
   0  -4  15 40.5169 5.55860   1
  -1   4 -15 11.6500 2.86974   1
  -1   4 -15 7.51335 2.37619   2
   1  -4  15 10.1478 1.79273   4
  -2   4 -15 2.27867 1.77643   2
   2  -4  15 0.52521 0.86495   4
   3   3 -15 -1.1469 1.14672   1
  -3  -3  15 0.21787 1.69243   1
   2   3 -15 11.3754 2.69815   1
  -2  -3  15 6.01122 2.51247   1
   1   3 -15 9.71723 2.66297   1
  -1  -3  15 14.0600 3.43857   1
   0   3 -15 51.2261 5.42323   1
   0  -3  15 51.9257 5.99196   1
  -1   3 -15 17.7014 3.43332   2
  -1   3 -15 21.4723 3.55427   1
  -2   3 -15 0.45234 1.32437   1
  -2   3 -15 -0.5721 1.12408   2
  -4  -2  15 -0.2807 1.42056   1
  -4  -2  15 0.51049 1.34846   2
  -3  -2  15 1.54065 1.88955   1
  -2  -2  15 -0.5167 1.32882   1
   1   2 -15 19.9478 3.56782   1
  -1  -2  15 25.7185 4.48256   1
   0   2 -15 6.19367 2.17932   1
   0   2 -15 8.91457 2.66143   2
   0  -2  15 3.82885 2.01825   1
  -1   2 -15 7.38326 2.19864   1
  -1   2 -15 4.41188 1.97538   2
  -2   2 -15 10.4135 2.64130   1
  -2   2 -15 7.18964 2.25000   2
  -5  -1  15 0.86485 1.57379   2
  -5  -1  15 -0.6015 1.41466   1
  -4  -1  15 5.61611 2.26861   2
  -4  -1  15 8.10996 2.83817   1
  -3  -1  15 5.24403 2.35951   1
  -2  -1  15 0.44009 1.60406   1
  -1  -1  15 0.67569 1.25634   1
   0   1 -15 11.7864 2.76327   2
   0  -1  15 10.6747 2.84954   1
  -1   1 -15 7.51574 2.33713   2
  -2   1 -15 0.49295 1.41408   2
  -5   0  15 0.82427 1.65761   1
  -5   0  15 0.85940 1.49428   2
  -4   0  15 37.2391 6.90319   2
  -4   0  15 27.2839 4.42946   1
  -3   0  15 5.97774 2.44568   1
  -2   0  15 2.49891 1.93097   1
  -1   0  15 4.71676 2.03623   1
   0   0 -15 13.9227 3.09667   2
   0   0  15 6.24482 2.86387   1
  -1   0 -15 2.84843 1.84596   2
  -5   1  15 23.6770 3.82758   2
  -5   1  15 22.5157 4.32798   1
  -4   1  15 -0.8174 1.10034   1
  -3   1  15 6.31742 2.55895   1
  -2   1  15 1.54399 1.93067   1
   1  -1 -15 2.40726 1.80280   2
  -1   1  15 -0.4540 1.56355   1
   0  -1 -15 4.61757 2.07285   2
  -1  -1 -15 7.02184 2.40262   2
  -5   2  15 -0.3041 1.31462   1
  -5   2  15 2.28411 1.60180   2
  -4   2  15 -0.2733 1.40992   1
  -3   2  15 0.63745 1.65930   1
  -2   2  15 38.7934 5.29061   1
   1  -2 -15 4.77372 1.95604   2
  -1   2  15 4.00352 2.14950   1
   0  -2 -15 2.74337 1.67224   2
  -5   3  15 7.78880 2.81627   1
  -4   3  15 -0.2390 1.35802   1
  -3   3  15 0.35724 1.62858   1
  -2   3  15 6.42765 2.42398   1
   1  -3 -15 16.4666 3.57050   2
  -4   4  15 5.05412 2.30100   1
  -3   4  15 2.95367 1.85702   1
  -2   4  15 6.48049 2.50605   1
   0   0   0    0.00    0.00   0

 _exptl_absorpt_process_details 'SADABS 2014/4'
 _exptl_absorpt_correction_type   multiscan
 _exptl_absorpt_correction_T_max  0.9485
 _exptl_absorpt_correction_T_min  0.9025
 _exptl_special_details
)
 The following wavelength and cell were deduced by SADABS from the
 direction cosines etc. They are given here for emergency use only:
 CELL 0.71055   10.378   11.474   12.693   91.343   97.707  115.928
)

;
_shelx_hkl_checksum              29168
loop_
_space_group_symop_operation_xyz
'x, y, z'
'-x, -y, -z'
loop_
_atom_site_label
_atom_site_type_symbol
_atom_site_fract_x
_atom_site_fract_y
_atom_site_fract_z
_atom_site_U_iso_or_equiv
_atom_site_adp_type
_atom_site_occupancy
_atom_site_site_symmetry_order
_atom_site_calc_flag
_atom_site_refinement_flags_posn
_atom_site_refinement_flags_adp
S1 S 0.57880(5) 0.84268(5) 1.03399(4) 0.04722(15) Uani 1 1 d . .
O1 O 1.02903(14) 0.62395(13) 0.85925(10) 0.0542(4) Uani 1 1 d . .
O2 O 0.30560(12) 0.36585(12) 0.60891(10) 0.0464(3) Uani 1 1 d . .
O3 O 0.21677(14) 0.47798(15) 0.69018(11) 0.0634(4) Uani 1 1 d . .
O4 O 0.42537(15) 0.78519(16) 1.02776(12) 0.0700(5) Uani 1 1 d . .
O5 O 0.64171(19) 0.93266(15) 0.95935(11) 0.0747(5) Uani 1 1 d . .
N1 N 0.79240(14) 0.65029(14) 1.01431(11) 0.0373(3) Uani 1 1 d . .
N2 N 0.83933(16) 0.80659(15) 1.15594(12) 0.0454(4) Uani 1 1 d . .
N3 N 0.62458(14) 0.72092(14) 1.02119(11) 0.0389(3) Uani 1 1 d . .
C1 C 1.0360(2) 0.6304(2) 0.74954(17) 0.0643(6) Uani 1 1 d . .
H1 H 0.9747 0.6672 0.7181 0.097 Uiso 1 1 calc R U
H19 H 1.0039 0.5445 0.7158 0.097 Uiso 1 1 calc R U
H20 H 1.1343 0.6839 0.7398 0.097 Uiso 1 1 calc R U
C2 C 1.0654(2) 0.74605(19) 0.91377(16) 0.0523(5) Uani 1 1 d . .
H21 H 0.9975 0.7788 0.8853 0.063 Uiso 1 1 calc R U
H22 H 1.1621 0.8083 0.9045 0.063 Uiso 1 1 calc R U
C3 C 1.05924(19) 0.7285(2) 1.02989(15) 0.0499(5) Uani 1 1 d . .
H18 H 1.0774 0.8104 1.0669 0.060 Uiso 1 1 calc R U
H17 H 1.1362 0.7067 1.0590 0.060 Uiso 1 1 calc R U
C4 C 0.91595(18) 0.62408(18) 1.05200(14) 0.0425(4) Uani 1 1 d . .
H23 H 0.8994 0.5413 1.0176 0.051 Uiso 1 1 calc R U
H24 H 0.9218 0.6168 1.1283 0.051 Uiso 1 1 calc R U
C5 C 0.68557(16) 0.58872(16) 0.92592(13) 0.0341(4) Uani 1 1 d . .
C6 C 0.67607(17) 0.50361(16) 0.84387(13) 0.0342(4) Uani 1 1 d . .
H16 H 0.7487 0.4775 0.8415 0.041 Uiso 1 1 calc R U
C7 C 0.55351(16) 0.45708(16) 0.76367(13) 0.0337(4) Uani 1 1 d . .
C8 C 0.53815(16) 0.37450(16) 0.66860(13) 0.0344(4) Uani 1 1 d . .
C9 C 0.41561(18) 0.33224(17) 0.59591(14) 0.0384(4) Uani 1 1 d . .
C10 C 0.37651(18) 0.25124(17) 0.49385(14) 0.0394(4) Uani 1 1 d . .
C11 C 0.41487(19) 0.15082(18) 0.48107(15) 0.0479(5) Uani 1 1 d . .
H10 H 0.4668 0.1330 0.5385 0.057 Uiso 1 1 calc R U
C12 C 0.3773(2) 0.0772(2) 0.38484(17) 0.0574(5) Uani 1 1 d . .
H9 H 0.4030 0.0097 0.3780 0.069 Uiso 1 1 calc R U
C13 C 0.3019(2) 0.1030(2) 0.29859(17) 0.0624(6) Uani 1 1 d . .
H2 H 0.2784 0.0544 0.2331 0.075 Uiso 1 1 calc R U
C14 C 0.7055(3) 1.0497(2) 1.31434(18) 0.0625(6) Uani 1 1 d . .
H3 H 0.6783 1.1041 1.3514 0.075 Uiso 1 1 calc R U
C15 C 0.8236(3) 1.0316(2) 1.35714(18) 0.0659(6) Uani 1 1 d . .
H26 H 0.8760 1.0745 1.4232 0.079 Uiso 1 1 calc R U
C16 C 0.8655(2) 0.9514(2) 1.30438(16) 0.0567(5) Uani 1 1 d . .
H25 H 0.9456 0.9408 1.3353 0.068 Uiso 1 1 calc R U
C17 C 0.7897(2) 0.88548(17) 1.20480(15) 0.0452(4) Uani 1 1 d . .
C18 C 0.76010(18) 0.73397(17) 1.07109(14) 0.0380(4) Uani 1 1 d . .
C19 C 0.31545(19) 0.45029(19) 0.69111(14) 0.0434(4) Uani 1 1 d . .
C20 C 0.44482(17) 0.49759(17) 0.77169(13) 0.0360(4) Uani 1 1 d . .
C21 C 0.45651(17) 0.58618(17) 0.85409(13) 0.0381(4) Uani 1 1 d . .
H6 H 0.3845 0.6129 0.8576 0.046 Uiso 1 1 calc R U
C22 C 0.57832(17) 0.63172(16) 0.92930(13) 0.0351(4) Uani 1 1 d . .
C23 C 0.6694(2) 0.90543(17) 1.16214(14) 0.0441(4) Uani 1 1 d . .
C24 C 0.6282(2) 0.98713(19) 1.21668(16) 0.0534(5) Uani 1 1 d . .
H4 H 0.5486 0.9992 1.1871 0.064 Uiso 1 1 calc R U
C25 C 0.2618(3) 0.2007(2) 0.30986(16) 0.0645(6) Uani 1 1 d . .
H8 H 0.2099 0.2177 0.2519 0.077 Uiso 1 1 calc R U
C26 C 0.2979(2) 0.2746(2) 0.40660(15) 0.0536(5) Uani 1 1 d . .
H7 H 0.2693 0.3403 0.4133 0.064 Uiso 1 1 calc R U
C27 C 0.66040(17) 0.34754(16) 0.64623(13) 0.0353(4) Uani 1 1 d . .
C28 C 0.72181(19) 0.39022(18) 0.55536(14) 0.0445(4) Uani 1 1 d . .
H15 H 0.6887 0.4380 0.5112 0.053 Uiso 1 1 calc R U
C29 C 0.8318(2) 0.3627(2) 0.52956(16) 0.0544(5) Uani 1 1 d . .
H14 H 0.8705 0.3905 0.4677 0.065 Uiso 1 1 calc R U
C30 C 0.8835(2) 0.2943(2) 0.59542(18) 0.0567(6) Uani 1 1 d . .
H13 H 0.9576 0.2761 0.5784 0.068 Uiso 1 1 calc R U
C31 C 0.82550(19) 0.25307(19) 0.68662(16) 0.0508(5) Uani 1 1 d . .
H12 H 0.8612 0.2075 0.7315 0.061 Uiso 1 1 calc R U
C32 C 0.71422(17) 0.27881(16) 0.71221(14) 0.0394(4) Uani 1 1 d . .
H11 H 0.6753 0.2500 0.7738 0.047 Uiso 1 1 calc R U
loop_
_atom_site_aniso_label
_atom_site_aniso_U_11
_atom_site_aniso_U_22
_atom_site_aniso_U_33
_atom_site_aniso_U_23
_atom_site_aniso_U_13
_atom_site_aniso_U_12
S1 0.0593(3) 0.0473(3) 0.0446(3) -0.0010(2) 0.0094(2) 0.0324(2)
O1 0.0628(8) 0.0518(8) 0.0483(8) -0.0011(6) 0.0134(6) 0.0250(7)
O2 0.0404(6) 0.0581(8) 0.0428(7) -0.0098(6) -0.0042(5) 0.0276(6)
O3 0.0474(7) 0.0908(11) 0.0620(9) -0.0161(8) -0.0078(7) 0.0457(8)
O4 0.0546(8) 0.0859(11) 0.0807(11) -0.0238(9) -0.0003(8) 0.0461(8)
O5 0.1276(14) 0.0582(9) 0.0491(9) 0.0143(7) 0.0234(9) 0.0482(9)
N1 0.0365(7) 0.0429(8) 0.0344(8) -0.0058(6) 0.0010(6) 0.0213(6)
N2 0.0484(8) 0.0490(9) 0.0377(9) -0.0090(7) 0.0013(7) 0.0229(7)
N3 0.0399(7) 0.0421(8) 0.0388(8) -0.0055(7) 0.0051(6) 0.0226(6)
C1 0.0774(15) 0.0662(15) 0.0537(13) -0.0001(11) 0.0235(11) 0.0325(12)
C2 0.0478(10) 0.0481(12) 0.0568(13) -0.0033(10) 0.0112(9) 0.0171(9)
C3 0.0399(9) 0.0626(13) 0.0459(11) -0.0083(9) -0.0006(8) 0.0243(9)
C4 0.0449(9) 0.0528(11) 0.0354(10) 0.0001(8) -0.0001(8) 0.0289(9)
C5 0.0328(8) 0.0361(9) 0.0334(9) 0.0018(7) 0.0043(7) 0.0157(7)
C6 0.0336(8) 0.0381(9) 0.0351(9) 0.0011(7) 0.0060(7) 0.0197(7)
C7 0.0335(8) 0.0354(9) 0.0324(9) 0.0031(7) 0.0062(7) 0.0154(7)
C8 0.0362(8) 0.0355(9) 0.0317(9) 0.0023(7) 0.0051(7) 0.0164(7)
C9 0.0395(9) 0.0416(10) 0.0367(10) 0.0028(8) 0.0046(7) 0.0210(8)
C10 0.0398(9) 0.0394(10) 0.0359(10) 0.0000(8) 0.0034(8) 0.0156(8)
C11 0.0482(10) 0.0435(11) 0.0485(11) -0.0018(9) -0.0010(9) 0.0199(9)
C12 0.0578(12) 0.0490(12) 0.0625(14) -0.0129(10) 0.0034(10) 0.0239(10)
C13 0.0722(14) 0.0570(14) 0.0446(12) -0.0124(10) 0.0066(11) 0.0181(11)
C14 0.0738(14) 0.0486(12) 0.0635(14) -0.0100(11) 0.0282(12) 0.0218(11)
C15 0.0757(15) 0.0592(14) 0.0490(13) -0.0159(11) 0.0144(11) 0.0175(12)
C16 0.0621(12) 0.0547(13) 0.0454(12) -0.0090(10) 0.0061(10) 0.0202(10)
C17 0.0505(10) 0.0392(10) 0.0413(11) -0.0029(8) 0.0133(8) 0.0145(8)
C18 0.0396(9) 0.0394(10) 0.0367(10) 0.0003(8) 0.0077(8) 0.0189(8)
C19 0.0393(9) 0.0530(11) 0.0401(10) -0.0018(9) 0.0029(8) 0.0239(8)
C20 0.0342(8) 0.0421(10) 0.0336(9) 0.0036(8) 0.0053(7) 0.0186(7)
C21 0.0359(8) 0.0457(10) 0.0388(10) 0.0022(8) 0.0077(7) 0.0233(8)
C22 0.0373(8) 0.0365(9) 0.0342(9) 0.0006(7) 0.0087(7) 0.0184(7)
C23 0.0520(10) 0.0375(10) 0.0428(11) 0.0005(8) 0.0181(9) 0.0171(8)
C24 0.0620(12) 0.0449(11) 0.0567(13) 0.0001(10) 0.0235(10) 0.0234(10)
C25 0.0841(15) 0.0622(14) 0.0377(12) -0.0006(10) -0.0090(11) 0.0293(12)
C26 0.0653(12) 0.0491(12) 0.0447(12) -0.0024(9) -0.0049(10) 0.0280(10)
C27 0.0350(8) 0.0343(9) 0.0342(9) -0.0054(7) 0.0035(7) 0.0142(7)
C28 0.0466(10) 0.0441(11) 0.0400(10) -0.0005(8) 0.0102(8) 0.0170(8)
C29 0.0464(10) 0.0568(13) 0.0494(12) -0.0114(10) 0.0158(9) 0.0122(9)
C30 0.0397(10) 0.0616(13) 0.0658(14) -0.0251(11) 0.0040(10) 0.0228(10)
C31 0.0465(10) 0.0487(11) 0.0577(13) -0.0146(10) -0.0084(9) 0.0272(9)
C32 0.0394(9) 0.0369(10) 0.0393(10) -0.0053(8) 0.0004(7) 0.0166(8)
loop_
_atom_type_symbol
_atom_type_description
_atom_type_scat_dispersion_real
_atom_type_scat_dispersion_imag
_atom_type_scat_source
C C 0.0033 0.0016 'International Tables Vol C Tables 4.2.6.8 and 6.1.1.4'
H H 0.0000 0.0000 'International Tables Vol C Tables 4.2.6.8 and 6.1.1.4'
N N 0.0061 0.0033 'International Tables Vol C Tables 4.2.6.8 and 6.1.1.4'
O O 0.0106 0.0060 'International Tables Vol C Tables 4.2.6.8 and 6.1.1.4'
S S 0.1246 0.1234 'International Tables Vol C Tables 4.2.6.8 and 6.1.1.4'
loop_
_geom_angle_atom_site_label_1
_geom_angle_atom_site_label_2
_geom_angle_atom_site_label_3
_geom_angle
O5 S1 O4 117.90(10)
O5 S1 N3 108.47(9)
O4 S1 N3 106.95(8)
O5 S1 C23 110.55(9)
O4 S1 C23 112.64(9)
N3 S1 C23 98.33(8)
C1 O1 C2 112.98(16)
C19 O2 C9 123.27(13)
C18 N1 C5 110.23(13)
C18 N1 C4 122.17(14)
C5 N1 C4 127.32(14)
C18 N2 C17 117.63(15)
C18 N3 C22 108.37(13)
C18 N3 S1 120.68(12)
C22 N3 S1 124.20(11)
O1 C1 H1 109.5
O1 C1 H19 109.5
H1 C1 H19 109.5
O1 C1 H20 109.5
H1 C1 H20 109.5
H19 C1 H20 109.5
O1 C2 C3 108.34(17)
O1 C2 H21 110.0
C3 C2 H21 110.0
O1 C2 H22 110.0
C3 C2 H22 110.0
H21 C2 H22 108.4
C2 C3 C4 114.03(15)
C2 C3 H18 108.7
C4 C3 H18 108.7
C2 C3 H17 108.7
C4 C3 H17 108.7
H18 C3 H17 107.6
N1 C4 C3 113.12(15)
N1 C4 H23 109.0
C3 C4 H23 109.0
N1 C4 H24 109.0
C3 C4 H24 109.0
H23 C4 H24 107.8
C6 C5 N1 130.88(15)
C6 C5 C22 121.57(14)
N1 C5 C22 107.52(14)
C5 C6 C7 118.20(15)
C5 C6 H16 120.9
C7 C6 H16 120.9
C6 C7 C20 118.90(15)
C6 C7 C8 122.58(14)
C20 C7 C8 118.42(14)
C9 C8 C7 118.84(15)
C9 C8 C27 120.00(15)
C7 C8 C27 120.89(13)
C8 C9 O2 121.75(15)
C8 C9 C10 128.88(16)
O2 C9 C10 109.34(13)
C11 C10 C26 117.96(17)
C11 C10 C9 122.37(16)
C26 C10 C9 119.66(16)
C12 C11 C10 121.09(18)
C12 C11 H10 119.5
C10 C11 H10 119.5
C11 C12 C13 120.3(2)
C11 C12 H9 119.8
C13 C12 H9 119.8
C25 C13 C12 119.5(2)
C25 C13 H2 120.3
C12 C13 H2 120.3
C24 C14 C15 119.6(2)
C24 C14 H3 120.2
C15 C14 H3 120.2
C16 C15 C14 121.4(2)
C16 C15 H26 119.3
C14 C15 H26 119.3
C15 C16 C17 121.0(2)
C15 C16 H25 119.5
C17 C16 H25 119.5
N2 C17 C16 117.62(18)
N2 C17 C23 125.48(17)
C16 C17 C23 116.90(18)
N2 C18 N1 124.96(15)
N2 C18 N3 127.88(16)
N1 C18 N3 107.13(14)
O3 C19 O2 117.07(16)
O3 C19 C20 126.12(18)
O2 C19 C20 116.81(15)
C21 C20 C7 122.61(15)
C21 C20 C19 116.79(15)
C7 C20 C19 120.58(16)
C22 C21 C20 116.99(15)
C22 C21 H6 121.5
C20 C21 H6 121.5
C21 C22 C5 121.65(16)
C21 C22 N3 131.69(15)
C5 C22 N3 106.65(14)
C24 C23 C17 121.45(18)
C24 C23 S1 117.22(16)
C17 C23 S1 121.00(14)
C14 C24 C23 119.7(2)
C14 C24 H4 120.1
C23 C24 H4 120.1
C13 C25 C26 120.64(19)
C13 C25 H8 119.7
C26 C25 H8 119.7
C25 C26 C10 120.50(19)
C25 C26 H7 119.8
C10 C26 H7 119.8
C28 C27 C32 118.32(16)
C28 C27 C8 119.23(15)
C32 C27 C8 122.44(15)
C29 C28 C27 120.98(18)
C29 C28 H15 119.5
C27 C28 H15 119.5
C30 C29 C28 120.01(19)
C30 C29 H14 120.0
C28 C29 H14 120.0
C29 C30 C31 119.77(18)
C29 C30 H13 120.1
C31 C30 H13 120.1
C30 C31 C32 120.52(19)
C30 C31 H12 119.7
C32 C31 H12 119.7
C31 C32 C27 120.38(17)
C31 C32 H11 119.8
C27 C32 H11 119.8
loop_
_geom_bond_atom_site_label_1
_geom_bond_atom_site_label_2
_geom_bond_distance
S1 O5 1.4200(15)
S1 O4 1.4225(14)
S1 N3 1.6736(14)
S1 C23 1.7303(19)
O1 C1 1.407(2)
O1 C2 1.417(2)
O2 C19 1.369(2)
O2 C9 1.384(2)
O3 C19 1.198(2)
N1 C18 1.367(2)
N1 C5 1.390(2)
N1 C4 1.466(2)
N2 C18 1.285(2)
N2 C17 1.392(2)
N3 C18 1.407(2)
N3 C22 1.415(2)
C1 H1 0.9600
C1 H19 0.9600
C1 H20 0.9600
C2 C3 1.499(3)
C2 H21 0.9700
C2 H22 0.9700
C3 C4 1.515(2)
C3 H18 0.9700
C3 H17 0.9700
C4 H23 0.9700
C4 H24 0.9700
C5 C6 1.374(2)
C5 C22 1.407(2)
C6 C7 1.406(2)
C6 H16 0.9300
C7 C20 1.410(2)
C7 C8 1.463(2)
C8 C9 1.354(2)
C8 C27 1.491(2)
C9 C10 1.476(2)
C10 C11 1.388(3)
C10 C26 1.391(2)
C11 C12 1.376(3)
C11 H10 0.9300
C12 C13 1.376(3)
C12 H9 0.9300
C13 C25 1.368(3)
C13 H2 0.9300
C14 C24 1.373(3)
C14 C15 1.377(3)
C14 H3 0.9300
C15 C16 1.372(3)
C15 H26 0.9300
C16 C17 1.399(3)
C16 H25 0.9300
C17 C23 1.408(3)
C19 C20 1.455(2)
C20 C21 1.396(2)
C21 C22 1.364(2)
C21 H6 0.9300
C23 C24 1.393(3)
C24 H4 0.9300
C25 C26 1.384(3)
C25 H8 0.9300
C26 H7 0.9300
C27 C28 1.389(2)
C27 C32 1.391(2)
C28 C29 1.386(3)
C28 H15 0.9300
C29 C30 1.375(3)
C29 H14 0.9300
C30 C31 1.375(3)
C30 H13 0.9300
C31 C32 1.386(2)
C31 H12 0.9300
C32 H11 0.9300
