#------------------------------------------------------------------------------
#$Date: 2016-05-28 05:23:15 +0300 (Sat, 28 May 2016) $
#$Revision: 183134 $
#$URL: svn://www.crystallography.net/cod/cif/1/54/33/1543371.cif $
#------------------------------------------------------------------------------
#
# This file is available in the Crystallography Open Database (COD),
# http://www.crystallography.net/. The original data for this entry
# were provided by IUCr Journals, http://journals.iucr.org/.
#
# The file may be used within the scientific community so long as
# proper attribution is given to the journal article from which the
# data were obtained.
#
data_1543371
loop_
_publ_author_name
'Ansideri, Francesco'
'Schollmeyer, Dieter'
'Koch, Pierre'
_publ_section_title
;
 1-(3',6'-Dihydroxy-3-oxo-3<i>H</i>-spiro[isobenzofuran-1,9'-xanthen]-5-yl)-3-[4-({4-[1-(4-fluorophenyl)-1<i>H</i>-imidazol-5-yl]pyridin-2-yl}amino)phenyl]thiourea
 methanol monosolvate
;
_journal_issue                   5
_journal_name_full               IUCrData
_journal_page_first              x160840
_journal_paper_doi               10.1107/S2414314616008403
_journal_volume                  1
_journal_year                    2016
_chemical_formula_iupac          'C41 H27 F N6 O5 S, C H4 O'
_chemical_formula_moiety         'C41 H27 F N6 O5 S, C H4 O'
_chemical_formula_sum            'C42 H31 F N6 O6 S'
_chemical_formula_weight         766.79
_chemical_name_systematic
'1-(3',6'-Dihydroxy-3-oxo-3<i>H</i>-spiro[isobenzofuran-1,9'-xanthen]-5-yl)-3-[4-({4-[1-(4-fluorophenyl)-1<i>H</i>-imidazol-5-yl]pyridin-2-yl}amino)phenyl]thiourea; methanol'
_space_group_crystal_system      monoclinic
_space_group_IT_number           15
_space_group_name_Hall           '-C 2yc'
_space_group_name_H-M_alt        'C 1 2/c 1'
_symmetry_space_group_name_Hall  '-C 2yc'
_symmetry_space_group_name_H-M   'C 1 2/c 1'
_atom_sites_solution_hydrogens   mixed
_audit_creation_method           SHELXL-2014/7
_cell_angle_alpha                90
_cell_angle_beta                 92.283(4)
_cell_angle_gamma                90
_cell_formula_units_Z            8
_cell_length_a                   15.1825(8)
_cell_length_b                   17.7557(7)
_cell_length_c                   26.2236(13)
_cell_measurement_reflns_used    7245
_cell_measurement_temperature    193(2)
_cell_measurement_theta_max      27.94
_cell_measurement_theta_min      2.32
_cell_volume                     7063.6(6)
_computing_cell_refinement
;
X-AREA (Stoe & Cie, 2011
;
_computing_data_collection
;
X-AREA (Stoe & Cie, 2011)
;
_computing_data_reduction
;
X-RED (Stoe & Cie, 2011
;
_computing_publication_material
;
SHELXL2014 (Sheldrick, 2015)
;
_computing_structure_refinement
;
SHELXL2014 (Sheldrick, 2015)
;
_computing_structure_solution
;
SIR2004 (Burla <i>et al.</i>,  2005)
;
_diffrn_ambient_temperature      193(2)
_diffrn_detector_area_resol_mean 6.67
_diffrn_measured_fraction_theta_full 0.999
_diffrn_measured_fraction_theta_max 0.987
_diffrn_measurement_device_type  'Stoe IPDS 2T'
_diffrn_measurement_method       'rotation method'
_diffrn_radiation_type           MoK\a
_diffrn_radiation_wavelength     0.71073
_diffrn_reflns_av_R_equivalents  0.0850
_diffrn_reflns_limit_h_max       20
_diffrn_reflns_limit_h_min       -20
_diffrn_reflns_limit_k_max       23
_diffrn_reflns_limit_k_min       -21
_diffrn_reflns_limit_l_max       35
_diffrn_reflns_limit_l_min       -35
_diffrn_reflns_number            23065
_diffrn_reflns_theta_full        25.242
_diffrn_reflns_theta_max         28.638
_diffrn_reflns_theta_min         2.317
_exptl_absorpt_coefficient_mu    0.158
_exptl_absorpt_correction_type   none
_exptl_crystal_colour            colourless
_exptl_crystal_density_diffrn    1.442
_exptl_crystal_description       block
_exptl_crystal_F_000             3184
_exptl_crystal_size_max          0.090
_exptl_crystal_size_mid          0.076
_exptl_crystal_size_min          0.072
_refine_diff_density_max         0.353
_refine_diff_density_min         -0.377
_refine_ls_extinction_coef       0.00101(19)
_refine_ls_extinction_expression Fc^*^=kFc[1+0.001xFc^2^\l^3^/sin(2\q)]^-1/4^
_refine_ls_extinction_method
;
SHELXL2014 (Sheldrick, 2015)
;
_refine_ls_goodness_of_fit_ref   0.918
_refine_ls_hydrogen_treatment    constr
_refine_ls_matrix_type           full
_refine_ls_number_parameters     516
_refine_ls_number_reflns         8960
_refine_ls_number_restraints     2
_refine_ls_restrained_S_all      0.918
_refine_ls_R_factor_all          0.1938
_refine_ls_R_factor_gt           0.0701
_refine_ls_shift/su_max          0.000
_refine_ls_shift/su_mean         0.000
_refine_ls_structure_factor_coef Fsqd
_refine_ls_weighting_details
'w=1/[\s^2^(Fo^2^)+(0.1100P)^2^] where P=(Fo^2^+2Fc^2^)/3'
_refine_ls_weighting_scheme      calc
_refine_ls_wR_factor_gt          0.1618
_refine_ls_wR_factor_ref         0.2397
_reflns_number_gt                3244
_reflns_number_total             8960
_reflns_threshold_expression     'I > 2\s(I)'
_cod_data_source_file            hb4047sup1.cif
_cod_data_source_block           I
_cod_database_code               1543371
_shelx_space_group_comment
;
The symmetry employed for this shelxl refinement is uniquely defined
by the following loop, which should always be used as a source of
symmetry information in preference to the above space-group names.
They are only intended as comments.
;
_shelx_estimated_absorpt_t_min   0.986
_shelx_estimated_absorpt_t_max   0.989
_shelx_hkl_file
;
  -1  -9 -18   -3.05    1.83   0
  -1  -9 -17    0.08    1.75   0
  -1  -9 -16   -0.49    2.37   0
  -1  -9 -15   -1.06    1.77   0
  -1  -9 -14    0.20    1.68   0
  -1  -7 -22    2.86    2.11   0
  -1  -7  -8    2.00    3.10   0
  -1  -5 -24   -1.93    2.44   0
  -1  -1 -25    0.57    2.27   0
  -1   3 -22    0.76    2.34   0
   0 -12 -18   -2.37    1.66   0
   0 -12 -17   -1.34    1.68   0
   0 -12 -16   -0.59    2.18   0
   0 -12 -14   -1.70    2.22   0
   0 -12 -13    1.15    1.83   0
   0 -10 -24   -0.50    2.10   0
   0 -10  -6   -0.77    2.71   0
   0  -8 -27   -1.01    1.67   0
   0  -8  -3  210.99    4.61   0
   0  -6 -29    0.36    1.66   0
   0  -4   0  620.64    9.02   0
   0  -2 -30    0.27    2.23   0
   0   4 -27    3.03    2.40   0
   0   6  -5   12.32    3.21   0
   1 -13 -24   -0.27    1.54   0
   1 -13 -23    7.38    2.21   0
   1 -13  -7    7.53    2.44   0
   1 -11 -28   -0.98    1.66   0
   1 -11 -27    1.10    2.18   0
   1 -11  -2   -0.32    1.82   0
   1  -9 -30    2.65    2.11   0
   1  -9   0    1.82    2.80   0
   1  -7 -32    0.15    1.68   0
   1  -7   2  204.27    4.62   0
   1  -5 -33   -2.15    1.65   0
   1  -5   3   25.21    3.16   0
   1  -3 -33    0.42    2.41   0
   1   1 -33    0.38    1.87   0
   1   3 -32    0.54    1.81   0
   1   7  -2    4.68    2.66   0
   2 -16 -20   -0.93    1.83   0
   2 -16 -19   -1.87    1.76   0
   2 -16 -18   -1.29    2.30   0
   2 -16 -17    0.94    2.55   0
   2 -16 -16    7.75    2.46   0
   2 -16 -15    3.97    2.43   0
   2 -16 -13    3.11    2.33   0
   2 -16 -12   -1.56    2.05   0
   2 -16 -11   -0.28    1.77   0
   2 -14 -27   -1.58    1.54   0
   2 -14 -26   -0.23    2.15   0
   2 -12 -30    1.20    1.85   0
   2 -12   0   15.79    2.52   0
   2  -8   4    9.65    2.82   0
   2   0   6 3926.03   25.23   0
   2  10  -3    1.82    2.74   0
   2  12 -21    0.08    2.28   0
   2  12  -9   20.06    3.05   0
   3 -17 -23   -0.17    1.66   0
   3 -17 -22    1.96    2.11   0
   3 -17 -21    3.16    2.54   0
   3 -17  -9   -2.21    2.17   0
   3 -17  -8    2.68    2.04   0
   3 -17  -7   -0.91    1.77   0
   3 -11   4   -1.75    2.72   0
   3   1   8    0.76    2.39   0
   3   5   6   11.47    2.57   0
   3   9 -32    0.20    3.41   0
   3   9   2    2.52    1.89   0
   3  11  -1    0.95    2.41   0
   3  13 -24    1.50    2.10   0
   3  13  -7   -0.66    1.65   0
   4 -18  -7    0.26    2.22   0
   4 -18  -6    1.63    1.69   0
   4 -16  -1    4.13    2.33   0
   4  14  -5    1.02    2.05   0
   5 -19  -6    1.88    2.38   0
   5 -19  -5    1.18    1.66   0
   5  -1  12   33.09    3.36   0
   5   3  11   81.67    3.22   0
   5   5  10   30.84    2.85   0
   5  13   1   -1.27    1.94   0
   6 -20  -6   -1.41    2.30   0
   6 -20  -5   -1.25    1.60   0
   6 -16   4   -0.96    2.32   0
   6 -14   7   -0.48    2.65   0
   6 -12   9   -0.48    2.16   0
   6   4  12    8.64    1.90   0
   6   6  11   25.48    2.61   0
   6  14   1   -0.28    1.59   0
   7 -21  -6   -0.03    2.32   0
   7 -21  -5    0.60    1.74   0
   7   5  13   15.83    2.25   0
   7   9  10   -0.83    2.02   0
   7  11   8    0.51    2.11   0
   8 -20   0    0.94    2.32   0
   8 -14  10   -0.08    2.32   0
   8  14   5    0.30    1.45   0
   8  18  -5   -1.30    1.33   0
   9 -21   0    0.30    1.19   0
   9 -21   0    1.26    1.15   0
   9 -19   4    7.41    2.59   0
   9 -15  10   -0.73    2.21   0
   9 -13  12    0.70    2.55   0
   9   5  15    0.25    1.61   0
   9   7  14   -0.67    2.27   0
   9  15   5   -0.36    1.96   0
   9  19  -6   -0.20    1.77   0
  10 -20   4    0.62    1.33   0
  10 -20   4   -0.02    1.16   0
  10 -16  10    0.25    2.38   0
  10  -6  17    1.91    2.95   0
  10   2  17    0.68    1.87   0
  10   8  14    0.69    1.49   0
  10  18   0    1.98    1.65   0
  10  20  -8   -0.34    1.63   0
  11 -19   7    0.63    1.19   0
  11 -19   7   -0.75    1.14   0
  11 -15  12    0.20    2.40   0
  11  -5  18   -0.25    2.66   0
  11   1  18    0.06    2.16   0
  11  15   7    0.82    1.40   0
  11  17   4    1.90    1.85   0
  11  19  -2    0.43    1.16   0
  11  19  -1   -0.08    1.38   0
  12  -2  19    1.42    1.92   0
  12   6  17   -0.50    1.85   0
  12  10  14   -0.67    1.35   0
  12  12  12    1.19    1.32   0
  12  14  10    0.51    1.81   0
  12  16   7    0.85    1.48   0
  12  18   3    1.62    1.77   0
  13   5  18   -1.59    1.68   0
  13   7  17   -1.16    1.80   0
  13  11  14    2.44    1.71   0
  13  13  12    1.03    1.49   0
  13  15   9    0.12    1.32   0
  13  17   6    0.06    1.50   0
  14  -2  20    1.41    1.74   0
  14   4  19    4.09    1.66   0
  14   6  18   -0.38    1.67   0
  14   8  17    0.34    1.53   0
  14  14  11    1.35    1.21   0
  14  16   8    0.32    1.13   0
  15  -5  20   -0.38    2.14   0
  15   1  20    1.16    1.69   0
  15   7  18    0.04    1.61   0
  15  11  15   -0.71    1.38   0
  16   2  20    0.46    1.15   0
  16   2  20   -0.03    0.65   0
  -1  -7 -21   17.91    1.99   0
  -1  -7 -20    4.59    2.30   0
  -1  -7 -19    9.45    2.46   0
  -1  -7  -9  163.11    3.53   0
  -1  -5 -23    2.68    1.71   0
  -1  -5  -6    4.60    2.78   0
  -1  -3 -24    1.65    2.45   0
  -1  -3  -5   -1.87    4.19   0
  -1  -1 -24    9.79    2.37   0
   0 -10 -23   -0.44    1.69   0
   0 -10 -22   -1.59    2.06   0
   0 -10  -7    3.86    2.59   0
   0  -8 -26    1.65    1.77   0
   0  -6 -28   -0.25    1.74   0
   0  -4 -29    1.23    1.89   0
   0  -2 -29    4.30    2.58   0
   0   6 -24    2.92    3.09   0
   0   8 -10    6.08    2.56   0
   1 -13 -22    4.00    1.62   0
   1 -13 -21   13.29    2.25   0
   1 -13 -20   -1.21    2.19   0
   1 -13  -9    8.54    2.65   0
   1 -13  -8   11.82    1.71   0
   1 -11 -26   -0.18    2.11   0
   1 -11  -3    2.48    1.85   0
   1  -9 -29    1.43    1.97   0
   1  -7 -31    0.21    1.59   0
   1  -5 -32   -0.94    2.14   0
   1  -1 -33   -0.71    1.14   0
   1  -1 -33   -0.31    1.16   0
   1   5 -30    0.96    2.13   0
   1   9  -5    9.48    2.72   0
   1  11 -15   -0.11    2.11   0
   1  11 -14    8.25    2.28   0
   2 -14 -25    0.03    1.56   0
   2 -14 -24    2.84    2.32   0
   2 -14  -5    5.27    2.37   0
   2 -12 -29    0.32    1.69   0
   2 -12  -1    3.43    2.61   0
   2 -10 -31   -3.46    2.41   0
   2 -10   2   19.06    3.05   0
   2  -8 -33    0.64    2.50   0
   2   2 -35    0.11    1.51   0
   2   4 -34   -0.30    1.69   0
   2   4 -34    0.12    0.97   0
   2   6   3   32.77    2.97   0
   2   8   1   19.98    3.21   0
   2  12 -22   -0.55    2.09   0
   2  12  -8    6.73    2.54   0
   3 -17 -20    0.38    1.67   0
   3 -17 -19   -1.53    1.64   0
   3 -17 -18    4.90    2.32   0
   3 -17 -17    4.46    2.46   0
   3 -17 -16   13.57    2.51   0
   3 -17 -14    1.41    2.33   0
   3 -17 -13    8.21    2.40   0
   3 -17 -12    4.06    2.42   0
   3 -17 -11    0.76    2.01   0
   3 -17 -10    7.35    1.64   0
   3 -15 -27   -0.71    1.09   0
   3 -15 -26    6.62    2.36   0
   3 -15  -3   59.85    3.09   0
   3 -13   1   12.94    2.64   0
   3  -7   7   17.75    3.13   0
   3   7   5    5.35    2.95   0
   3  13  -6    2.92    1.66   0
   3  13  -5    1.15    2.07   0
   4 -18 -22   -0.87    1.81   0
   4 -18 -21    0.27    2.19   0
   4 -18 -20   -2.39    2.18   0
   4 -18  -9   -1.45    2.17   0
   4 -18  -8    0.36    1.61   0
   4 -12   5   15.92    2.89   0
   4 -10   7   16.58    2.45   0
   4   4   9  107.30    3.21   0
   4   6   8   74.00    3.47   0
   4   8   6    6.39    1.98   0
   4  12   1    8.46    2.20   0
   4  14 -26    0.52    2.07   0
   4  14  -4    6.49    2.16   0
   5 -19  -8    0.56    2.40   0
   5 -19  -7    1.17    1.67   0
   5 -17  -1    2.53    2.19   0
   5 -13   6   42.30    2.91   0
   5 -11   8   32.96    2.59   0
   5  -3  12   26.06    3.63   0
   5   7   9   67.72    3.02   0
   5   9   7    8.42    1.77   0
   5  11   5    4.14    2.28   0
   5  15  -3   13.50    2.25   0
   6 -20  -8    1.69    2.30   0
   6 -20  -7    0.25    2.14   0
   6 -18   0    2.72    1.61   0
   6   2  13    8.80    1.65   0
   6   8  10    2.50    2.33   0
   6  10   8    6.10    2.17   0
   6  14   2   29.63    1.89   0
   6  16  -3    9.41    1.51   0
   6  18 -16    1.34    1.84   0
   6  18 -15    0.21    1.79   0
   6  18 -14    2.83    1.89   0
   7 -21  -8   -3.24    2.38   0
   7 -21  -7   -0.13    1.73   0
   7 -19   0    0.70    1.70   0
   7 -17   4    9.94    2.35   0
   7 -15   7    0.43    2.51   0
   7   3  14   25.15    1.87   0
   7   7  12    1.47    1.70   0
   7  15   2    2.11    1.47   0
   7  17  -3   -0.30    1.27   0
   8 -20  -1   -2.08    2.12   0
   8 -18   4    8.97    2.50   0
   8  -2  16    2.19    2.46   0
   8   4  15   47.50    2.37   0
   8   6  14   11.80    2.37   0
   8  10  11    3.23    2.01   0
   8  14   6    6.09    2.05   0
   8  16   2    6.34    1.37   0
   8  18  -4    2.09    1.39   0
   9 -21  -1    1.19    1.19   0
   9 -21  -1    0.60    1.15   0
   9 -17   7   -1.24    2.75   0
   9  -1  17   10.75    2.29   0
   9   9  13    3.44    2.28   0
   9  11  11    1.76    1.46   0
   9  13   9   -1.05    1.77   0
   9  15   6    3.00    1.84   0
   9  17   2    0.52    1.69   0
   9  19  -5    0.92    1.25   0
   9  19  -4    0.58    1.74   0
  10 -20   3   -0.52    2.32   0
  10 -18   7    2.25    2.19   0
  10 -14  12    0.12    2.17   0
  10   6  16   18.48    2.06   0
  10  10  13    7.22    1.64   0
  10  12  11    3.19    1.44   0
  10  16   5    0.23    1.40   0
  10  18   1    1.08    1.65   0
  10  20  -7    0.81    1.14   0
  10  20  -6    0.65    1.63   0
  11   3  18    3.33    1.73   0
  11   5  17   -0.28    1.30   0
  11   7  16    7.84    1.57   0
  11  11  13    1.12    1.34   0
  11  13  11    3.97    1.88   0
  11  15   8    0.00    1.35   0
  11  17   5   -0.58    1.49   0
  11  19   0    0.81    1.63   0
  12 -18   9   -0.10    1.63   0
  12  -4  19    0.97    2.30   0
  12   0  19    0.54    1.98   0
  12   4  18    2.96    1.43   0
  12   8  16   -2.19    1.42   0
  12  12  13    1.45    1.74   0
  12  18   4   -0.29    1.81   0
  13   3  19    5.24    2.05   0
  13   9  16    2.71    1.42   0
  13  15  10    0.56    1.68   0
  13  17   7    2.16    1.41   0
  14  -4  20    2.24    2.03   0
  14   0  20    0.48    1.87   0
  14  12  14    0.09    1.16   0
  14  14  12    7.44    1.65   0
  15   3  20    0.88    1.26   0
  15   5  19    0.24    1.19   0
  15   9  17    1.12    1.70   0
  -1  -7 -18    2.79    1.63   0
  -1  -7 -17   40.16    2.81   0
  -1  -7 -16   -0.70    2.49   0
  -1  -7 -15    1.45    2.50   0
  -1  -7 -13    3.10    2.66   0
  -1  -7 -12    5.20    2.81   0
  -1  -7 -11   36.14    2.33   0
  -1  -7 -10    1.50    2.04   0
  -1  -5 -22    3.17    1.80   0
  -1  -5 -21   13.48    2.77   0
  -1  -5  -7  279.33    5.29   0
  -1  -3 -23   -0.42    2.35   0
  -1   1 -23    4.27    2.10   0
  -1   3 -21    1.02    1.95   0
  -1   5 -15    1.83    4.31   0
   0 -10 -21    2.40    1.72   0
   0 -10 -20    9.15    2.33   0
   0 -10 -19    2.72    2.60   0
   0 -10  -9   -2.72    2.63   0
   0 -10  -8    5.83    1.99   0
   0  -8 -25   -0.77    1.64   0
   0  -8 -24    1.34    2.27   0
   0  -8  -4    4.67    2.34   0
   0  -6 -27    0.21    1.61   0
   0  -6  -2  357.10    6.05   0
   0  -4 -28    4.05    2.31   0
   0   2 -28    0.45    1.82   0
   0   4  -2    1.77    4.41   0
   0   8  -9  148.69    4.53   0
   1 -13 -19   -2.02    1.67   0
   1 -13 -18    0.67    1.74   0
   1 -13 -17    7.46    2.39   0
   1 -13 -16   -0.39    2.33   0
   1 -13 -15    0.74    2.27   0
   1 -13 -14    1.56    2.34   0
   1 -13 -13   -0.82    2.35   0
   1 -13 -12    6.96    2.45   0
   1 -13 -11    9.48    2.36   0
   1 -13 -10   79.08    2.51   0
   1 -11 -25    0.15    1.68   0
   1 -11 -24   -0.08    2.18   0
   1 -11  -4   -1.93    2.43   0
   1  -9 -28    0.97    1.71   0
   1  -9  -1   46.17    3.44   0
   1  -7 -30    0.46    2.03   0
   1  -5 -31   -2.65    2.39   0
   1  -1 -32   -2.37    2.56   0
   1   1 -32    1.21    1.97   0
   1   3 -31   -0.36    2.19   0
   1   5   1    4.45    2.87   0
   1   7  -1    0.23    2.58   0
   1  11 -13    3.44    1.85   0
   1  11 -11   15.40    2.21   0
   2 -14 -23    2.22    1.65   0
   2 -14 -22    2.06    2.19   0
   2 -14  -6   32.71    2.11   0
   2 -12 -28    2.50    1.67   0
   2 -12 -27    2.11    2.25   0
   2 -10 -30    2.58    2.20   0
   2  -6 -34    0.84    1.14   0
   2  -6   5   31.75    3.83   0
   2  -2 -35   -1.24    2.14   0
   2   4   5    4.81    3.98   0
   2   8 -30    0.02    2.91   0
   2  12  -7    1.57    1.64   0
   3 -15  -4   47.22    2.69   0
   3 -13 -29   -0.12    2.15   0
   3   9   3    3.55    1.92   0
   3  13  -4    0.81    2.08   0
   4 -18 -19    3.66    1.64   0
   4 -18 -18    0.72    1.65   0
   4 -18 -17   -1.01    2.12   0
   4 -18 -16    0.29    2.17   0
   4 -18 -15    0.64    2.57   0
   4 -18 -14    1.86    2.54   0
   4 -18 -13   -1.33    1.95   0
   4 -18 -12    3.47    1.72   0
   4 -18 -11    8.40    1.87   0
   4 -16  -3    3.32    2.41   0
   4 -14   2  141.54    3.16   0
   4   2  10    8.68    1.68   0
   4  16 -16    0.50    1.98   0
   4  16 -15    1.74    2.19   0
   4  16 -14    0.68    2.28   0
   4  16 -13    1.23    2.01   0
   5 -19 -20    1.38    1.21   0
   5 -19 -19   -1.58    2.19   0
   5 -19 -18   -0.36    2.55   0
   5 -19 -17    0.23    2.52   0
   5 -19 -12   -1.98    2.19   0
   5 -19 -11    3.20    2.24   0
   5 -19 -10    2.46    2.10   0
   5 -19  -9    0.47    1.76   0
   5 -17  -2    3.60    2.41   0
   5   1  12   31.37    2.37   0
   5  15  -2    0.34    2.12   0
   5  17 -19    1.64    1.86   0
   5  17 -18    2.25    2.18   0
   5  17 -17   -0.68    2.11   0
   5  17 -16   -0.16    1.53   0
   5  17 -15    4.67    1.68   0
   5  17 -14    0.99    1.61   0
   5  17 -13   -0.89    1.60   0
   5  17 -12    2.59    2.18   0
   5  17 -11   -0.23    2.04   0
   6 -20  -9    0.89    1.66   0
   6 -18  -1   -0.83    1.56   0
   6 -16   3   -1.77    2.35   0
   6  12   6   69.99    2.17   0
   6  16  -2    4.97    1.51   0
   6  18 -19   -1.33    1.78   0
   6  18 -18    2.41    2.13   0
   6  18 -17    2.95    1.62   0
   6  18 -13    2.62    1.54   0
   6  18 -12   -0.67    1.50   0
   6  18 -11    1.29    1.86   0
   6  18 -10    0.44    1.75   0
   7 -21 -11    1.76    1.96   0
   7 -21 -10    1.62    1.53   0
   7 -21  -9    1.42    1.69   0
   7 -19  -1    1.52    1.64   0
   7  -1  15    1.69    2.12   0
   7   9  11    1.28    2.27   0
   7  11   9    1.58    1.50   0
   7  15   3    2.41    1.39   0
   7  19 -16    1.35    1.95   0
   7  19 -15    1.31    0.93   0
   7  19 -15    1.05    0.91   0
   7  19 -14   -0.28    1.41   0
   7  19 -13   -0.51    1.90   0
   7  19 -12    0.85    1.89   0
   7  19 -11    0.94    1.56   0
   8 -20  -2    1.44    2.45   0
   8 -16   7   -0.25    1.85   0
   8   0  16    8.45    2.40   0
   8   8  13    7.73    1.78   0
   8  12   9    3.71    1.48   0
   8  16   3    1.10    1.41   0
   8  18  -2    2.50    1.84   0
   8  20 -13    0.94    1.56   0
   9 -21  -2    1.93    1.82   0
   9 -19   3    1.36    2.35   0
   9  17   3    4.31    1.76   0
   9  19  -3    0.76    1.34   0
  10  -2  18    0.12    2.26   0
  10   0  18    0.36    2.11   0
  10   4  17    6.67    1.49   0
  10   8  15    4.93    1.50   0
  10  14   9   -0.97    1.44   0
  10  16   6    4.90    1.46   0
  10  18   2    1.56    1.29   0
  10  20  -5   -0.21    1.10   0
  10  20  -4   -0.17    1.64   0
  11 -19   6    0.32    1.74   0
  11 -19   6   -0.12    1.25   0
  11 -17   9    1.25    2.32   0
  11   9  15    0.85    1.44   0
  11  15   9    0.28    1.81   0
  11  17   6    0.29    1.52   0
  11  19   1    1.00    1.29   0
  12   2  19    1.38    1.81   0
  12  10  15   -0.81    1.34   0
  12  14  11   -0.83    1.29   0
  12  16   8   -1.32    1.19   0
  12  18   5    1.51    1.78   0
  13  -1  20   -0.08    2.06   0
  13   7  18    1.85    1.62   0
  13  11  15    0.54    1.35   0
  13  13  13    1.37    1.19   0
  14  -8  19    0.18    3.31   0
  14   2  20    0.00    1.23   0
  14   6  19    0.42    1.50   0
  15  11  16    2.17    0.87   0
  -1  -7 -14    8.36    1.83   0
  -1  -5 -20    3.11    1.97   0
  -1  -5 -19    9.24    2.56   0
  -1  -5  -8  105.12    4.08   0
  -1  -3 -22   -2.31    2.35   0
  -1  -3  -6  472.80    7.33   0
  -1   5 -14   13.79    6.30   0
  -1   5 -11    1.85    6.38   0
   0 -10 -18    0.02    1.73   0
   0 -10 -17   -0.90    1.87   0
   0 -10 -16    1.17    2.36   0
   0 -10 -14    2.91    2.39   0
   0 -10 -13   -2.84    2.38   0
   0  -8 -23    0.90    2.10   0
   0  -8  -5    2.69    2.89   0
   0  -6 -26    0.06    1.59   0
   0  -2 -28   -1.95    1.81   0
   0   4 -26    1.36    2.07   0
   0   6  -4    1.45    3.16   0
   0   8  -8   52.07    3.29   0
   1 -11 -23   -2.52    1.87   0
   1 -11  -5   15.85    2.10   0
   1  -9 -27   -0.30    1.65   0
   1  -7 -29   -0.85    2.00   0
   1  -7   1   -1.61    2.25   0
   1  -3 -31    0.92    2.46   0
   1   9  -4    2.16    2.26   0
   1  11 -18   -0.49    1.92   0
   1  11 -10    2.20    2.24   0
   2 -14 -21    1.67    1.63   0
   2 -14 -20    4.00    2.19   0
   2 -14 -19   -1.12    2.42   0
   2 -14  -9   -1.71    2.34   0
   2 -14  -8   -5.84    2.11   0
   2 -12 -26    1.47    1.89   0
   2 -12  -2    2.34    1.86   0
   2 -10 -29    0.60    2.20   0
   2 -10   1   -0.09    3.16   0
   2  -8 -32    0.36    1.82   0
   2  -6 -33    1.29    1.97   0
   2  -4 -34    0.12    1.52   0
   2  -4 -34   -0.27    1.07   0
   2   2 -34    1.13    2.21   0
   2   2   6   73.31    4.53   0
   2   6 -32    0.75    2.05   0
   2   6 -32    0.10    0.95   0
   2   6   4   74.57    3.97   0
   2   8   2    0.17    3.05   0
   2  10  -1    0.83    2.60   0
   3 -15 -24    0.46    1.72   0
   3 -15 -23   -1.43    2.08   0
   3 -15  -6    6.47    2.58   0
   3 -13 -28    2.23    1.91   0
   3 -13   0   -0.06    1.73   0
   3 -11   3    0.56    1.96   0
   3  -9   5   28.38    2.88   0
   3   3   8   88.84    3.29   0
   3   5   7   20.25    2.56   0
   3  13 -25    0.65    2.32   0
   4 -16 -25    0.27    1.74   0
   4 -16 -24    1.20    2.40   0
   4 -16  -4    0.19    2.42   0
   4   8   7   25.04    2.14   0
   4  12   2    0.22    1.53   0
   4  16 -19   -0.23    1.89   0
   4  16 -18    0.96    2.33   0
   4  16 -17    0.30    1.62   0
   4  16 -12   -0.41    1.50   0
   5 -19 -16   -1.07    1.89   0
   5 -19 -14    3.65    1.79   0
   5 -19 -13   -0.16    1.64   0
   5 -17  -3   -0.08    2.27   0
   5 -13   5   20.53    2.73   0
   5   5  11    1.16    2.68   0
   5   7  10    9.05    2.27   0
   5  13   3    0.27    1.67   0
   5  15  -1   -1.10    2.19   0
   5  17 -20    0.95    1.98   0
   5  17 -10   -1.70    1.49   0
   5  17  -9   -1.26    1.86   0
   5  17  -8    1.86    1.65   0
   6 -20 -16    0.38    1.71   0
   6 -20 -15    2.63    1.78   0
   6 -20 -14    0.88    1.70   0
   6 -20 -13   -1.54    1.71   0
   6 -20 -12   -1.32    1.60   0
   6 -14   6    0.47    1.74   0
   6   4  13   20.19    2.52   0
   6   6  12   -0.88    1.86   0
   6  12   7   -2.52    1.98   0
   6  14   4    6.19    1.93   0
   6  16  -1   -2.23    1.37   0
   6  18 -20   -1.00    1.79   0
   6  18 -20   -0.51    1.07   0
   6  18  -9   -1.12    1.35   0
   6  18  -8   -0.44    1.98   0
   7 -19  -2    0.59    1.67   0
   7  -3  15    0.21    2.12   0
   7   1  15    2.39    2.26   0
   7   5  14    2.47    2.42   0
   7   7  13   16.77    2.28   0
   7  15   4    4.40    2.01   0
   7  17  -1    1.18    1.21   0
   7  19 -10    1.12    1.36   0
   7  19  -9   -1.78    2.03   0
   7  19  -8   -0.60    1.66   0
   8 -20  -3    3.47    2.61   0
   8 -18   3    1.32    1.89   0
   8 -10  13    6.86    3.13   0
   8  -4  16   19.05    3.16   0
   8   2  16    1.02    2.03   0
   8  14   7   -3.22    1.50   0
   8  16   4   -0.44    1.94   0
   8  18  -1   -0.03    1.36   0
   8  20 -12    1.50    1.44   0
   8  20 -11    0.18    1.40   0
   8  20 -10   -0.93    1.97   0
   8  20  -9    3.24    1.73   0
   9 -21  -4    3.14    2.39   0
   9 -21  -3   -0.54    1.71   0
   9 -19   2   -2.67    2.33   0
   9  -7  16    7.31    4.45   0
   9   7  15    2.09    1.58   0
   9   9  14    2.77    2.27   0
   9  11  12  -12.77    1.69   0
   9  13  10   -0.02    1.42   0
   9  17   4    0.41    1.72   0
   9  19  -2    1.52    1.28   0
   9  19  -1   -1.90    1.56   0
  10 -20   2   -0.56    1.15   0
  10 -20   2   -1.30    1.07   0
  10 -18   6   -0.32    2.12   0
  10 -16   9   -0.46    2.34   0
  10   2  18    1.81    1.89   0
  10  10  14   -1.57    1.44   0
  10  12  12   -4.70    1.48   0
  10  14  10   -0.84    1.82   0
  10  16   7   -0.74    1.47   0
  10  18   3    1.19    1.34   0
  10  20  -3   -0.48    1.16   0
  10  20  -2   -0.02    1.46   0
  11  -1  19    1.46    2.10   0
  11   1  19    3.62    1.79   0
  11   5  18   -0.19    1.60   0
  11   7  17   -2.59    2.10   0
  11  13  12   -0.75    1.28   0
  11  15  10   -0.68    1.68   0
  11  19   2   -0.28    1.28   0
  12 -18   8    1.03    2.47   0
  12 -16  11   -1.46    2.67   0
  12   4  19    1.90    1.75   0
  12   6  18   -0.34    1.19   0
  12  12  14   -0.54    1.40   0
  12  14  12    1.97    1.73   0
  12  16   9    0.67    1.37   0
  12  18   6   -0.37    1.48   0
  13 -15  13   -1.04    2.41   0
  13 -13  15    1.43    3.27   0
  13  -7  19    5.33    3.19   0
  13  -3  20    1.33    2.15   0
  13   1  20   -0.61    1.84   0
  13   5  19   -0.18    1.33   0
  13   9  17    1.18    1.42   0
  13  13  14   -1.65    1.48   0
  13  15  11    0.28    1.21   0
  13  17   8    1.58    1.20   0
  14   4  20    1.12    1.59   0
  14   8  18   -0.67    1.40   0
  14  10  17   -1.41    1.90   0
  14  12  15   -0.91    1.21   0
  14  14  13   -0.94    1.10   0
  15  -1  21   -0.87    2.07   0
  15   1  21   -1.27    1.51   0
  15   5  20   -0.11    1.42   0
  15   7  19   -0.60    0.87   0
  15   7  19   -0.47    0.89   0
  15   9  18   -1.11    1.85   0
  -1  -5 -18    1.39    1.79   0
  -1  -5 -17    5.92    2.60   0
  -1  -5 -10    1.37    3.11   0
  -1  -5  -9    0.75    2.35   0
  -1  -3 -21    0.61    1.74   0
  -1  -3 -20   29.19    2.91   0
  -1  -1 -22    0.19    1.70   0
  -1   3 -20   24.60    2.67   0
   0  -8 -22    4.24    1.82   0
   0  -8 -21    8.75    2.51   0
   0  -8  -6   -1.01    2.84   0
   0  -6 -25    1.31    1.64   0
   0  -6 -24    4.45    2.30   0
   0  -6  -3   13.40    3.56   0
   0  -4 -26    0.29    2.28   0
   0  -4  -1  237.92    5.89   0
   0  -2 -27    3.04    2.45   0
   0   2 -27    0.26    1.98   0
   1 -11 -22   -0.41    1.58   0
   1 -11 -21    1.49    2.01   0
   1 -11  -7    2.90    2.62   0
   1 -11  -6   40.01    2.32   0
   1  -9 -26    1.03    1.68   0
   1  -9 -25    2.53    2.26   0
   1  -9  -2   51.71    3.58   0
   1  -7 -28   -2.14    2.03   0
   1  -5 -30   -1.50    1.79   0
   1  -1 -31    1.59    2.49   0
   1   3   3   -0.05    4.89   0
   1   5 -29    0.71    2.02   0
   1   7   0   26.81    3.58   0
   1   9  -3   10.46    2.88   0
   1  11 -19    0.97    2.47   0
   1  11  -9   18.12    2.67   0
   2 -14 -18    3.63    1.75   0
   2 -14 -17    2.55    1.79   0
   2 -14 -16   -0.17    2.22   0
   2 -14 -15   10.21    2.51   0
   2 -14 -14    5.93    2.41   0
   2 -14 -13    1.59    2.26   0
   2 -14 -12    2.25    2.24   0
   2 -14 -11    6.24    1.75   0
   2 -14 -10    0.29    1.72   0
   2 -12 -25    0.09    1.75   0
   2 -12 -24    1.31    2.15   0
   2 -12  -3   67.66    2.48   0
   2 -10 -28    3.12    2.19   0
   2  -8 -31   -0.94    1.66   0
   2  -8   3  327.29    5.57   0
   2  -6 -32   -1.79    2.29   0
   2  -2 -34   -0.03    1.60   0
   2  -2 -34    0.92    1.17   0
   2   4 -33    2.04    1.98   0
   2  12 -23    1.22    2.25   0
   2  12  -5   -0.72    1.71   0
   3 -15 -22    3.77    1.84   0
   3 -15 -21   -0.19    1.81   0
   3 -15 -20    1.86    2.41   0
   3 -15  -8   13.17    2.37   0
   3 -15  -7   -0.62    2.09   0
   3 -13 -27    1.83    1.59   0
   3 -13  -1    9.91    2.28   0
   3   7   6    9.49    2.14   0
   3   9   4  275.04    3.88   0
   3  15 -17    1.06    2.17   0
   3  15 -16    0.32    2.15   0
   3  15 -15    7.75    2.31   0
   3  15 -14   13.52    1.93   0
   3  15 -13    0.95    1.70   0
   3  15 -12    0.52    2.15   0
   3  15 -11   -0.62    2.12   0
   4 -16 -23    0.54    1.73   0
   4 -16 -22    1.97    2.54   0
   4 -16  -5    0.42    1.77   0
   4 -12   4    1.73    1.90   0
   4  -8   8    0.96    2.85   0
   4   4  10    4.48    2.90   0
   4   6   9    2.23    2.79   0
   4  12   3   16.64    2.31   0
   4  14 -27   -0.21    2.29   0
   4  14  -1   62.70    2.73   0
   4  16 -20    1.81    2.05   0
   4  16  -9    1.17    1.55   0
   4  16  -8    3.85    2.06   0
   5 -17  -4   -0.03    2.15   0
   5 -15   1    0.42    2.47   0
   5   3  12   29.59    2.15   0
   5  13   4   15.22    2.32   0
   5  15   0    3.29    2.21   0
   5  17 -22    2.52    2.19   0
   5  17 -21    0.38    1.99   0
   5  17  -7    3.02    1.38   0
   5  17  -6    1.52    1.89   0
   6 -18  -4   -0.83    2.43   0
   6 -18  -3    0.47    1.79   0
   6 -16   2    4.04    1.84   0
   6 -12   8    8.43    2.44   0
   6 -10  10    1.33    2.60   0
   6  -2  14   14.85    2.97   0
   6   0  14   67.71    3.00   0
   6   8  11   20.13    1.81   0
   6  16   0    6.34    1.47   0
   6  18  -7    1.59    1.40   0
   6  18  -6    3.84    1.91   0
   7 -19  -4    1.27    2.44   0
   7 -19  -3    9.82    1.83   0
   7 -17   2    2.15    2.31   0
   7 -15   6   14.67    2.14   0
   7   3  15   -0.01    2.13   0
   7   9  12    4.63    2.29   0
   7  11  10    4.22    1.58   0
   7  13   8    0.35    1.97   0
   7  15   5    5.17    2.06   0
   7  17   0    3.60    1.34   0
   7  17   1   -0.85    1.61   0
   7  19  -7   -0.69    1.38   0
   7  19  -6    1.41    1.83   0
   8 -20  -4    2.52    1.85   0
   8 -18   2    0.87    2.25   0
   8 -16   6    2.57    2.11   0
   8 -14   9    0.23    2.04   0
   8   6  15    5.36    1.63   0
   8   8  14    3.53    2.40   0
   8  14   8    0.55    1.38   0
   8  16   5    0.59    1.98   0
   8  18   0    1.47    1.24   0
   8  20  -8   -1.26    1.41   0
   8  20  -7   -0.83    1.72   0
   9 -21  -5   -0.13    1.77   0
   9 -17   6    0.98    1.95   0
   9 -15   9    0.60    2.46   0
   9   3  17   12.28    1.68   0
   9  11  13   23.35    2.02   0
   9  15   8   10.62    1.54   0
   9  17   5    2.79    1.68   0
   9  19   0   -2.05    1.78   0
  10 -20   1    1.30    1.79   0
  10 -10  15    0.02    3.83   0
  10  -4  18    0.39    2.45   0
  10   6  17    3.90    1.55   0
  10   8  16    3.80    2.06   0
  10  12  13   -1.45    1.84   0
  10  18   4   -0.34    1.46   0
  10  20  -1   -1.42    1.63   0
  11 -19   5    0.25    1.82   0
  11  -3  19   13.85    2.49   0
  11   9  16    0.18    1.50   0
  11  13  13   -0.31    1.76   0
  11  17   7   -0.85    1.25   0
  11  19   3    3.38    1.31   0
  12  -8  18    0.55    3.69   0
  12  10  16    1.66    1.47   0
  12  16  10    0.36    1.80   0
  12  18   7    0.83    1.49   0
  13   3  20    1.78    1.22   0
  13  11  16    1.79    1.39   0
  13  15  12    0.43    1.32   0
  13  17   9    3.48    1.31   0
  14  -6  20    4.37    2.75   0
  14   0  21   -0.10    1.73   0
  14  12  16    2.23    1.68   0
  15  -7  20   -0.41    2.66   0
  15  -3  21    0.14    2.10   0
  15   3  21    0.65    1.61   0
  -1  -5 -16   25.48    2.24   0
  -1  -5 -15    2.04    1.94   0
  -1  -5 -14   14.96    2.67   0
  -1  -5 -13   63.62    3.32   0
  -1  -5 -12   44.72    3.15   0
  -1  -5 -11    2.93    2.25   0
  -1  -3 -19    0.82    2.58   0
  -1  -3  -7   56.25    3.29   0
  -1  -1 -21    1.86    1.76   0
  -1   1  -6 1661.18   23.05   0
  -1   3 -19    1.05    2.25   0
   0  -8 -20    0.46    1.80   0
   0  -8 -19    3.68    2.53   0
   0  -8  -7   26.30    2.39   0
   0  -6 -23    6.01    2.23   0
   0  -4 -25    0.95    2.39   0
   0  -2 -26    3.36    2.61   0
   0   8  -7   24.25    2.96   0
   1 -11 -20   -0.59    1.61   0
   1 -11 -19    0.29    1.64   0
   1 -11  -9   18.68    2.70   0
   1 -11  -8    0.94    1.79   0
   1  -9 -24    0.94    2.22   0
   1  -9  -3    8.55    3.22   0
   1  -7 -27    1.40    2.17   0
   1  -5 -29    0.79    1.82   0
   1  -5   2   45.44    4.43   0
   1  -3 -30    1.37    2.32   0
   1   3 -30    1.04    2.08   0
   1   5   2   41.46    3.30   0
   1   7 -27    2.91    2.80   0
   1  11  -8    1.08    1.78   0
   1  11  -7    4.10    2.34   0
   2 -12 -23    2.10    1.63   0
   2 -12  -4   29.63    2.19   0
   2 -10 -27    2.04    2.06   0
   2  -8 -30    1.21    1.80   0
   2  -4 -33   -0.90    1.75   0
   2  10   0   97.38    2.83   0
   2  12  -4   22.29    2.06   0
   3 -15 -19    0.85    1.69   0
   3 -15 -17    1.68    2.18   0
   3 -15 -16    2.55    2.46   0
   3 -15 -15    9.44    2.62   0
   3 -15 -12    0.82    2.33   0
   3 -15 -10   49.25    2.62   0
   3 -13 -26    3.15    1.62   0
   3 -13 -25   -0.11    2.35   0
   3 -13  -2   59.25    2.99   0
   3 -11 -29   -0.44    2.00   0
   3 -11   2   16.55    2.62   0
   3  -9 -32   -1.48    1.19   0
   3  -9 -32    0.37    1.15   0
   3  -1   9   12.72    4.01   0
   3   1   9   12.09    2.47   0
   3  13  -2   61.08    2.22   0
   3  15 -19   -0.34    1.77   0
   3  15 -18   14.21    2.40   0
   3  15  -9   14.12    2.30   0
   3  15  -8   11.61    2.13   0
   4 -16 -21    0.02    1.78   0
   4 -16 -20    3.48    2.44   0
   4 -16  -6    8.70    1.88   0
   4 -14 -27   -1.25    1.57   0
   4 -14   0    9.62    1.97   0
   4 -10   6   33.24    2.70   0
   4   0  11    0.26    2.25   0
   4   8   8   -1.21    1.91   0
   4  14   0    9.86    2.20   0
   4  16 -21    4.41    1.92   0
   4  16  -7   15.53    1.73   0
   4  16  -6    5.53    1.96   0
   5 -17 -23    2.30    1.75   0
   5 -17 -22    3.01    1.88   0
   5 -17 -21    4.01    2.49   0
   5 -17  -6    0.56    2.34   0
   5 -17  -5    1.71    1.67   0
   5 -11   7    6.96    2.14   0
   5  -9   9   51.23    3.50   0
   5   9   9   49.90    2.11   0
   5  11   7    5.99    1.59   0
   5  15   1    2.38    2.11   0
   5  17  -5   -0.88    2.01   0
   6 -18  -5    1.27    1.72   0
   6 -16   1   26.99    2.66   0
   6 -14   5    4.39    2.47   0
   6   2  14   12.47    1.73   0
   6  10  10    1.86    1.45   0
   6  12   8    8.73    2.21   0
   6  14   5    3.43    1.50   0
   6  16   1   25.15    1.74   0
   6  18  -5   -0.52    1.45   0
   6  18  -4   -0.39    1.79   0
   7 -19  -5   -0.40    1.73   0
   7 -17   1    1.21    2.27   0
   7  17   2    2.42    1.67   0
   7  19  -5    0.45    1.40   0
   7  19  -4    1.53    1.66   0
   8 -20  -6    1.90    2.13   0
   8 -20  -5   -2.37    1.61   0
   8 -18   1   -0.40    2.52   0
   8 -12  11    3.67    2.48   0
   8   4  16   20.42    1.79   0
   8  10  13    9.37    2.38   0
   8  12  11    3.50    1.56   0
   8  14   9    1.10    1.95   0
   8  16   6    2.06    1.78   0
   8  18   1    0.95    1.30   0
   8  18   2    3.20    1.66   0
   8  20  -6   -0.13    1.34   0
   8  20  -5   -1.51    1.89   0
   9 -21  -7    2.13    1.20   0
   9 -19   1    0.70    1.83   0
   9   5  17    0.41    2.17   0
   9   7  16    8.70    1.73   0
   9   9  15    3.25    2.17   0
   9  13  11    0.66    1.41   0
   9  15   9   -1.46    2.00   0
   9  19   1    1.39    1.28   0
   9  21  -6    0.87    1.59   0
  10 -20   0    0.27    1.80   0
  10 -18   5   -1.67    2.14   0
  10   4  18    1.13    1.38   0
  10  10  15    0.20    1.41   0
  10  14  11   -0.79    1.44   0
  10  16   9   -1.65    1.70   0
  10  18   5    2.78    1.53   0
  11 -19   4    2.35    2.43   0
  11 -17   8   -0.96    2.37   0
  11 -15  11    0.97    2.29   0
  11   3  19   15.42    1.70   0
  11   7  18    1.61    1.88   0
  11  11  15   -0.74    1.32   0
  11  15  11    3.40    1.52   0
  11  17   8   -0.22    1.27   0
  11  19   4    0.49    1.21   0
  12 -14  13    1.51    2.67   0
  12 -12  15    0.19    2.95   0
  12  -6  19    5.51    2.67   0
  12  -2  20    7.08    2.38   0
  12   0  20    2.82    1.61   0
  12   2  20    7.04    1.95   0
  12   6  19    7.89    1.94   0
  12   8  18   -3.10    1.90   0
  12  10  17   15.69    1.97   0
  12  12  15    1.51    1.43   0
  12  14  13    1.22    1.28   0
  12  16  11    3.58    1.68   0
  13  -5  20    1.08    2.41   0
  13   5  20    2.84    1.97   0
  13   7  19    7.89    1.51   0
  13   9  18    0.76    1.34   0
  13  13  15    1.54    1.69   0
  14  -2  21   -0.40    2.04   0
  14   2  21    0.06    1.75   0
  14   6  20    5.61    1.88   0
  14   8  19    0.64    1.44   0
  14  10  18    2.12    1.98   0
  15   7  20    0.19    1.86   0
  -1  -3 -18    1.48    1.93   0
  -1  -3 -17   13.28    2.89   0
  -1  -3  -8    9.44    2.57   0
  -1  -1 -20   17.49    2.14   0
  -1  -1 -19   13.92    2.71   0
   0  -8 -18    8.92    1.76   0
   0  -8 -17    2.40    2.31   0
   0  -8 -16    2.66    2.45   0
   0  -8 -10    4.01    2.88   0
   0  -8  -9  143.27    3.34   0
   0  -8  -8   54.71    2.67   0
   0  -6 -22    5.22    2.23   0
   0  -6  -4    0.19    2.84   0
   0  -4 -24    0.25    2.41   0
   0   2 -26    0.91    2.00   0
   0   4 -25    0.42    2.21   0
   0   6  -3   11.12    2.48   0
   0   8  -6    0.95    2.52   0
   1 -11 -17    6.57    1.82   0
   1 -11 -16   16.49    1.91   0
   1 -11 -15    1.76    1.82   0
   1 -11 -14   11.97    2.38   0
   1 -11 -13    4.18    2.32   0
   1 -11 -12    4.55    2.23   0
   1 -11 -10    2.86    1.79   0
   1  -9 -23   -1.75    1.61   0
   1  -7 -26    1.17    2.11   0
   1  -7   0   30.93    2.69   0
   1  -5 -28    0.12    2.11   0
   1  -3 -29    3.63    2.55   0
   1  -3   3    0.89    4.59   0
   1  -1 -30    7.45    2.45   0
   1   9  -2   48.95    2.55   0
   1  11 -20    0.60    2.43   0
   1  11  -6   36.57    2.78   0
   2 -12 -22   -0.37    1.67   0
   2 -12 -21   -3.38    1.93   0
   2 -12  -6    6.31    2.50   0
   2 -12  -5   -2.00    1.72   0
   2 -10 -26    2.09    1.66   0
   2  -8 -29   -0.27    1.70   0
   2  -6 -31    0.54    1.69   0
   2  -4 -32    1.84    2.16   0
   2  -2 -33    0.79    1.77   0
   2   0 -33   -0.38    2.27   0
   2   2 -33   -1.08    1.89   0
   2   4   6  134.06    3.81   0
   2   6   5   34.33    3.58   0
   2  10   1    0.15    2.67   0
   2  12  -3   57.45    2.32   0
   2  14 -15    1.75    2.15   0
   2  14 -14    0.89    2.31   0
   2  14 -13    1.57    2.22   0
   2  14 -12    1.52    2.21   0
   2  14 -11    6.75    2.16   0
   3 -15 -14   11.42    1.75   0
   3 -15 -13    4.20    1.83   0
   3 -13 -24    0.08    1.57   0
   3 -13 -23   -1.44    2.07   0
   3 -13  -3   15.83    2.42   0
   3 -11 -28    1.10    1.95   0
   3  -9 -31   -1.14    1.65   0
   3  -7 -33    0.24    1.14   0
   3  -7 -33    0.01    1.18   0
   3  -5 -34    2.91    2.19   0
   3   5   8   77.95    3.01   0
   3   7   7   16.56    3.11   0
   3   9   5   28.23    2.23   0
   3  11   3   -0.21    2.43   0
   3  13 -26    0.88    2.40   0
   3  13  -1    5.74    1.71   0
   3  15 -20    2.02    2.06   0
   3  15  -7   -0.74    2.22   0
   4 -16 -19    0.48    1.73   0
   4 -16 -18   -0.16    1.87   0
   4 -16 -17    0.33    2.34   0
   4 -16 -16    1.90    2.34   0
   4 -16 -15    0.36    2.50   0
   4 -16 -14    0.29    2.44   0
   4 -16 -13    2.13    2.32   0
   4 -16 -12    2.42    2.27   0
   4 -16 -11    6.76    2.36   0
   4 -16 -10   13.79    2.24   0
   4 -16  -9    1.85    1.68   0
   4 -16  -8    3.72    1.83   0
   4 -14 -26    0.57    1.64   0
   4 -14  -1   64.50    2.55   0
   4 -12   3   14.55    2.07   0
   4  -2  11    3.62    3.29   0
   4   2  11    3.36    1.75   0
   4  12   4    3.05    1.55   0
   4  14   1   72.70    2.69   0
   4  16 -22    1.87    1.97   0
   4  16  -5    2.83    1.44   0
   5 -17 -20    1.51    1.65   0
   5 -17 -19    0.07    2.02   0
   5 -17 -18    2.69    2.33   0
   5 -17  -9   -0.05    2.27   0
   5 -17  -8    0.15    2.01   0
   5 -17  -7    0.70    1.68   0
   5 -15 -26    0.01    2.28   0
   5 -15   0   -0.74    1.77   0
   5 -13   4   16.31    2.03   0
   5   1  13   19.61    2.12   0
   5   5  12    9.09    2.06   0
   5   7  11    3.06    1.68   0
   5  11   8   31.76    2.40   0
   5  13   5   18.90    1.82   0
   5  15   2   10.77    2.10   0
   5  17 -23   -0.21    1.62   0
   5  17 -23   -0.14    0.94   0
   5  17  -4    1.99    1.52   0
   5  17  -3   -0.26    1.88   0
   6 -18 -21   -0.17    1.33   0
   6 -18 -20    2.51    1.71   0
   6 -18 -19    1.04    2.45   0
   6 -18  -8    0.91    2.24   0
   6 -18  -7    1.70    1.64   0
   6 -18  -6    0.34    1.79   0
   6 -16   0    3.98    2.30   0
   6   4  14    3.09    2.22   0
   6   6  13    2.29    1.71   0
   6   8  12    0.01    1.73   0
   6  14   6   -0.64    2.03   0
   6  16   2    6.04    1.48   0
   6  18  -3   -0.42    1.95   0
   7 -19  -8    0.16    2.41   0
   7 -19  -7   -0.60    1.71   0
   7 -15   5    6.92    2.30   0
   7 -13   8    0.80    2.41   0
   7   7  14   -0.97    1.59   0
   7   9  13    2.43    2.21   0
   7  11  11   52.98    2.13   0
   7  13   9   34.61    1.91   0
   7  15   6   13.16    1.58   0
   7  17   3    2.86    1.77   0
   7  19  -3    7.39    2.04   0
   8 -20 -10    0.70    2.23   0
   8 -20  -9    1.75    2.36   0
   8 -20  -8    1.13    1.75   0
   8 -20  -7    0.13    1.77   0
   8 -18   0    1.05    2.15   0
   8 -16   5   -0.70    2.28   0
   8   0  17   -0.57    2.20   0
   8   2  17    2.01    1.77   0
   8   6  16   -1.41    1.93   0
   8   8  15    3.18    2.07   0
   8  12  12   35.57    2.18   0
   8  18   3    0.19    1.64   0
   8  20  -4   -0.90    1.38   0
   8  20  -3    1.42    1.72   0
   9 -19   0   -0.72    1.67   0
   9 -17   5    3.61    1.94   0
   9 -13  11    2.87    2.34   0
   9 -11  13   20.84    3.70   0
   9  -5  17   -0.20    2.69   0
   9  -1  18    9.30    2.32   0
   9   1  18    6.27    2.14   0
   9  11  14   10.59    2.28   0
   9  17   6    2.36    1.46   0
   9  19   2    1.53    1.25   0
   9  21  -5    1.23    1.20   0
   9  21  -4    0.28    1.46   0
  10 -20  -1    0.87    1.24   0
  10 -20  -1   -0.37    1.19   0
  10 -18   4    2.26    2.52   0
  10 -16   8    3.85    2.79   0
  10 -14  11    2.05    2.27   0
  10   0  19    0.26    1.92   0
  10   6  18    0.82    1.82   0
  10   8  17   -0.82    2.11   0
  10  12  14    0.92    1.42   0
  10  14  12    0.77    1.35   0
  10  18   6    1.73    1.38   0
  10  20   1    0.47    1.25   0
  10  20   2   -2.08    1.55   0
  11 -11  15    0.00    3.45   0
  11   5  19    0.51    1.94   0
  11   9  17    2.36    1.54   0
  11  11  16    3.21    1.81   0
  11  13  14   -0.96    1.31   0
  11  15  12   -0.57    1.95   0
  11  17   9   -0.32    1.29   0
  11  19   5    0.47    1.38   0
  12 -18   7   -0.17    1.77   0
  12 -18   7    0.37    1.27   0
  12   4  20   10.17    2.33   0
  12  12  16    0.94    1.66   0
  12  14  14    1.86    1.78   0
  12  18   8   -0.56    1.27   0
  13  -1  21    2.70    1.93   0
  13   1  21    3.37    1.97   0
  13  11  17   -0.01    1.38   0
  14   4  21    0.77    1.57   0
  14  12  17   -1.21    1.15   0
  15  -5  21    0.33    2.30   0
  15   5  21    0.23    0.67   0
  15   5  21    0.15    0.72   0
  -1  -3 -16    1.95    2.06   0
  -1  -3 -15    8.71    3.05   0
  -1  -3 -10   13.26    3.16   0
  -1  -3  -9    4.37    2.39   0
  -1  -1 -18   68.44    3.36   0
  -1   3 -18    3.29    2.11   0
   0  -8 -15   28.83    2.08   0
   0  -8 -14    0.88    1.77   0
   0  -8 -13    0.76    1.86   0
   0  -8 -12    7.05    2.01   0
   0  -8 -11  144.18    3.20   0
   0  -6 -21   -0.22    1.63   0
   0  -6 -20    4.11    2.36   0
   0  -6  -5   11.43    3.66   0
   0  -4 -23    5.09    2.46   0
   0  -4  -2    2.79    3.31   0
   1  -9 -22    0.78    1.65   0
   1  -9 -21   -1.91    2.44   0
   1  -9  -4    5.20    2.23   0
   1  -5 -27   -2.20    2.39   0
   1  -1 -29    0.33    2.58   0
   1   3 -29    1.88    2.07   0
   1   7   1    1.15    2.15   0
   1   9  -1   42.08    3.21   0
   1  11  -5   13.28    2.77   0
   2 -12 -20    1.55    1.64   0
   2 -12 -19    1.22    1.75   0
   2 -12 -18   -1.31    2.43   0
   2 -12  -8    6.53    2.53   0
   2 -12  -7    1.87    2.23   0
   2 -10 -25    0.89    1.74   0
   2 -10 -24    1.85    2.16   0
   2 -10  -1    0.69    1.99   0
   2  -8 -28   -1.18    1.61   0
   2  -8   2    0.55    3.05   0
   2  -6 -30   -0.08    1.62   0
   2  -4 -31    2.79    2.44   0
   2  -2 -32    0.73    2.41   0
   2   4 -32    0.30    2.20   0
   2   6 -31    0.46    2.32   0
   2   8   4   10.24    2.84   0
   2  12 -24    1.13    2.60   0
   2  12  -2    1.06    2.38   0
   2  14 -17    1.38    2.04   0
   2  14 -16    1.43    2.14   0
   2  14 -10   -0.31    1.71   0
   2  14  -9   -0.90    2.25   0
   3 -13  -4    7.54    2.38   0
   3 -11 -27    0.27    1.70   0
   3 -11   1   25.70    2.26   0
   3  -9 -30   -0.75    1.55   0
   3  -9   4  287.13    5.20   0
   3  -7 -32   -0.28    2.21   0
   3  -7   6    9.89    3.04   0
   3   3   9   31.76    2.45   0
   3   7 -33    0.76    2.68   0
   3  13   0    0.36    1.73   0
   3  15 -21   -0.04    2.07   0
   3  15  -6    7.16    1.72   0
   3  15  -5   13.41    2.35   0
   4 -14 -24   -0.07    1.60   0
   4 -14  -2   47.47    2.22   0
   4 -12 -29    0.26    1.53   0
   4 -12 -28    2.39    2.09   0
   4   4  11    0.13    2.74   0
   4   6  10    1.16    1.92   0
   4   8   9    6.67    2.71   0
   4  10   7   17.41    1.90   0
   4  12   5   12.29    2.34   0
   4  14   2  130.72    2.97   0
   4  16 -23    0.63    2.00   0
   4  16  -4    0.50    1.52   0
   4  16  -3    2.80    2.21   0
   5 -17 -17    1.42    1.85   0
   5 -17 -16   -1.30    1.73   0
   5 -17 -15   -0.16    2.00   0
   5 -17 -14    0.32    1.71   0
   5 -17 -13   -1.07    1.57   0
   5 -17 -12   -1.27    1.65   0
   5 -17 -10    0.86    1.72   0
   5 -15 -25    0.68    2.09   0
   5 -15  -1   -2.99    1.67   0
   5  -1  13   23.23    2.76   0
   5   3  13   17.01    2.56   0
   5   9  10   88.93    2.47   0
   5  15   3    1.33    2.02   0
   5  17  -2    3.70    2.16   0
   6 -18 -18   -1.75    1.84   0
   6 -18 -15    1.95    2.18   0
   6 -18 -14    3.08    2.13   0
   6 -18 -12   -1.29    2.06   0
   6 -18 -11   -1.49    1.98   0
   6 -18 -10    1.08    1.63   0
   6 -18  -9    1.74    1.62   0
   6 -16  -1   -1.57    2.16   0
   6 -14   4    4.07    2.73   0
   6  10  11    4.77    1.55   0
   6  12   9   -2.31    1.58   0
   6  14   7    7.20    1.98   0
   6  16   3    0.81    1.47   0
   6  18  -2    0.30    1.52   0
   7 -19 -18    0.80    1.22   0
   7 -19 -17   -0.61    1.71   0
   7 -19 -15    1.22    1.80   0
   7 -19 -14    0.18    2.13   0
   7 -19 -13    1.14    2.00   0
   7 -19 -12    0.83    1.97   0
   7 -19 -11   -2.10    1.66   0
   7 -19 -10    0.38    1.70   0
   7 -19  -9   -0.97    1.83   0
   7 -17   0    1.65    1.66   0
   7  -1  16    3.02    1.98   0
   7   1  16    1.84    2.20   0
   7  11  12    8.09    2.30   0
   7  13  10    4.42    2.18   0
   7  15   7   -0.86    1.44   0
   7  17   4    8.72    1.86   0
   7  19  -2   -0.54    1.59   0
   7  19  -1    3.00    1.86   0
   8 -20 -13    1.29    1.08   0
   8 -20 -13   -0.62    1.10   0
   8 -20 -12   -0.36    1.65   0
   8 -20 -11    0.22    1.61   0
   8 -18  -1    1.61    2.29   0
   8 -14   8   -0.53    2.05   0
   8  -2  17    2.33    2.26   0
   8   4  17    0.14    1.84   0
   8  10  14   -0.74    2.25   0
   8  14  10   -2.20    1.47   0
   8  16   7   -1.31    1.44   0
   8  18   4    7.98    1.71   0
   8  20  -2   -1.07    1.83   0
   9 -19  -1    1.72    1.65   0
   9 -17   4    2.12    2.68   0
   9   3  18   26.86    1.97   0
   9   7  17    5.75    2.12   0
   9   9  16    0.88    1.88   0
   9  15  10    1.59    1.48   0
   9  17   7   -1.42    1.44   0
   9  19   3   -1.75    1.28   0
   9  21  -3    0.83    1.17   0
  10 -20  -3    2.26    2.54   0
  10 -20  -2   -1.22    1.91   0
  10 -12  13    0.08    2.55   0
  10  -2  19    2.31    2.61   0
  10   2  19    0.78    1.52   0
  10  10  16    2.74    1.68   0
  10  16  10   -1.20    1.40   0
  10  18   7   -1.16    1.36   0
  10  20   3   -1.58    1.83   0
  11 -19   3    1.35    1.14   0
  11 -19   3    0.94    1.11   0
  11 -17   7    1.30    2.57   0
  11 -13  13    0.55    2.18   0
  11  -7  18    1.15    3.98   0
  11   1  20   -1.19    2.02   0
  11  17  10    1.62    1.89   0
  11  19   6    0.58    1.36   0
  12 -16  10   -0.56    2.11   0
  12   8  19   -0.47    1.88   0
  12  10  18   -2.26    1.78   0
  12  16  12   -0.64    1.29   0
  12  18   9    0.60    0.85   0
  13   3  21   -0.32    1.33   0
  13   7  20   -0.21    1.83   0
  13   9  19   -2.60    1.42   0
  13  11  18    2.09    1.78   0
  13  13  16   -2.33    1.30   0
  13  15  14    0.96    1.23   0
  14  -4  21    0.44    2.03   0
  14   6  21    0.43    1.68   0
  14   8  20    1.00    1.47   0
  14  10  19   -0.33    1.98   0
  15  -1  22    1.69    1.98   0
  15   1  22    0.44    0.86   0
  15   1  22    0.43    0.87   0
  15   3  22   -1.73    1.64   0
  -1  -3 -14   51.17    2.75   0
  -1  -3 -13   53.47    2.88   0
  -1  -3 -12    1.16    1.89   0
  -1  -3 -11   24.36    2.67   0
  -1  -1 -17    7.84    2.55   0
  -1   3 -17   11.55    2.87   0
  -1   5 -10    1.23    5.31   0
   0  -6 -19    0.35    2.50   0
   0  -6  -6   11.18    3.45   0
   0   2 -25    5.37    2.22   0
   0   4 -24    0.34    2.33   0
   0   6  -2  359.20    6.44   0
   0   8  -5    1.79    2.64   0
   1  -9 -19   10.06    2.53   0
   1  -9  -6    7.98    2.96   0
   1  -9  -5   12.25    2.21   0
   1  -7 -24    1.71    1.65   0
   1  -7  -1    2.72    2.73   0
   1  -3 -28   -0.35    1.76   0
   1   1   4  491.01    9.57   0
   1   5 -28    0.47    1.91   0
   1   5   3   29.25    3.07   0
   1  11 -21    0.47    2.63   0
   1  11  -4   -0.70    2.38   0
   2 -12 -17   10.90    1.89   0
   2 -12 -16   -0.93    1.69   0
   2 -12 -15    4.78    2.24   0
   2 -12 -14    7.71    2.36   0
   2 -12 -13    3.76    2.32   0
   2 -12 -12   -1.39    2.30   0
   2 -12 -11    0.93    2.46   0
   2 -12  -9   65.50    2.32   0
   2 -10 -23    3.33    2.28   0
   2 -10  -2  120.97    3.73   0
   2  -8 -27    1.53    1.64   0
   2  -6 -29    1.36    1.92   0
   2  -6   4   67.10    4.19   0
   2   0 -32    0.83    2.53   0
   2   0   7    5.59    3.40   0
   2   2 -32   -0.78    2.16   0
   2   2   7   12.72    2.67   0
   2  10   2   16.59    2.07   0
   2  12  -1    0.93    2.40   0
   2  14 -18    1.80    1.99   0
   2  14  -8   29.29    2.05   0
   2  14  -7   26.49    2.58   0
   3 -13 -21   -0.98    1.68   0
   3 -13 -20   -0.76    1.89   0
   3 -13  -6    2.51    2.56   0
   3 -13  -5    1.88    1.80   0
   3 -11 -26    1.21    1.77   0
   3 -11 -25   -0.23    2.14   0
   3 -11   0   74.10    3.17   0
   3  -9 -29    0.02    1.63   0
   3  -7 -31    1.60    2.38   0
   3  -5 -33   -1.30    1.70   0
   3  -3 -34    0.79    1.16   0
   3  -3 -34   -0.23    1.07   0
   3   5 -34   -0.20    1.80   0
   3   5 -34    0.02    0.96   0
   3   9   6    4.84    1.93   0
   3  11   4   -0.20    1.76   0
   3  13   1   11.39    1.82   0
   4 -14 -23    2.94    1.62   0
   4 -14 -22    2.01    1.96   0
   4 -14  -3   46.53    2.34   0
   4 -12 -27    2.39    2.20   0
   4 -12   2    1.49    1.85   0
   4 -10   5   17.81    2.64   0
   4  10   8    4.88    2.21   0
   4  16  -2    4.62    2.26   0
   5 -15 -24    1.40    1.67   0
   5 -15  -2    1.24    1.71   0
   5 -13 -28    2.01    2.20   0
   5 -13   3    8.95    1.87   0
   5 -11   6   39.54    2.85   0
   5   7  12   -0.56    2.37   0
   5  11   9    9.63    2.28   0
   5  13   7    4.90    2.08   0
   5  17  -1    0.88    2.01   0
   5  19 -15    1.61    1.97   0
   5  19 -14   -0.81    1.77   0
   5  19 -13    5.84    2.14   0
   5  19 -12    3.45    1.94   0
   5  19 -11   -0.68    1.91   0
   6 -16 -24    1.21    2.08   0
   6 -16  -2    2.88    2.21   0
   6 -12   7   -0.44    2.27   0
   6   2  15   16.36    2.20   0
   6   6  14    0.82    2.40   0
   6   8  13   20.42    1.88   0
   6  12  10    6.68    2.12   0
   6  16   4   -0.36    1.49   0
   6  18  -1    0.19    1.40   0
   6  18   0    2.90    1.71   0
   6  20 -16   -1.54    1.64   0
   6  20 -15    0.99    1.82   0
   6  20 -14   -1.78    1.90   0
   6  20 -13    0.57    1.98   0
   6  20 -12   -0.35    2.05   0
   6  20 -11    2.30    1.98   0
   6  20 -10    1.66    1.88   0
   6  20  -9    0.49    1.70   0
   7 -17  -2   18.69    2.57   0
   7 -17  -1    1.84    1.64   0
   7 -15   4    3.42    1.77   0
   7 -11  10    6.53    2.28   0
   7  -9  12    6.34    2.91   0
   7   3  16   -0.97    1.46   0
   7   7  15   20.02    2.49   0
   7   9  14    0.69    2.39   0
   7  15   8   -0.15    2.07   0
   7  17   5   -1.44    1.93   0
   7  19   0    1.58    1.86   0
   7  21 -11    0.41    1.93   0
   7  21 -10    0.98    1.70   0
   8 -18  -2    0.85    2.29   0
   8  12  13   -0.62    2.05   0
   8  14  11    4.58    2.06   0
   8  16   8    3.26    1.56   0
   8  18   5    0.97    1.74   0
   8  20  -1    0.58    1.32   0
   9 -19  -3    4.33    2.62   0
   9 -19  -2   -0.24    1.76   0
   9  -3  18   27.01    3.11   0
   9   5  18    4.24    2.06   0
   9  11  15   -2.15    2.14   0
   9  13  13   18.41    1.68   0
   9  15  11    1.90    1.47   0
   9  17   8    2.99    1.47   0
   9  19   4    8.51    1.47   0
   9  21  -2    0.52    1.16   0
   9  21  -1    2.48    1.72   0
  10 -20  -4    1.70    2.10   0
  10   4  19    4.44    1.44   0
  10   8  18   13.66    2.23   0
  10  12  15    0.79    1.39   0
  10  14  13    0.12    1.39   0
  10  16  11    5.86    2.11   0
  10  18   8   -2.46    1.75   0
  10  20   4    2.15    1.90   0
  11 -19   2    1.90    1.65   0
  11 -19   2   -0.12    1.14   0
  11 -15  10    0.64    2.30   0
  11  -5  19    1.56    2.69   0
  11  -1  20    1.32    2.27   0
  11   3  20    0.53    1.63   0
  11   7  19    1.28    1.41   0
  11   9  18   -0.33    1.49   0
  11  11  17    4.59    2.12   0
  11  13  15    1.52    1.45   0
  11  15  13   -1.03    1.42   0
  11  17  11   -0.86    1.72   0
  11  19   7    0.73    1.30   0
  12 -18   6    0.29    2.26   0
  12   0  21    0.60    1.94   0
  12   2  21    0.28    1.75   0
  12   6  20    0.90    1.38   0
  12  12  17    1.27    2.07   0
  12  14  15    2.54    1.35   0
  12  16  13   -0.36    1.94   0
  13 -17   9    4.67    1.78   0
  13 -17   9    1.08    1.17   0
  13 -15  12    1.32    1.97   0
  13 -15  12    1.01    1.13   0
  13  -3  21    0.41    2.16   0
  13   5  21    2.33    1.77   0
  13  13  17   -0.06    1.56   0
  14   0  22    1.53    2.01   0
  14   2  22    1.97    1.98   0
  15  -3  22    0.24    2.31   0
  -1  -1 -16   22.06    2.78   0
  -1  -1 -15  247.39    4.95   0
  -1  -1  -8  350.50    6.67   0
  -1   1  -7 1568.82   20.10   0
   0  -6 -18    4.09    1.79   0
   0  -6 -17   40.38    2.86   0
   0  -6  -7   21.42    3.43   0
   0  -4 -21    3.87    2.45   0
   0  -4  -3    0.52    4.42   0
   0  -2 -23    3.35    2.43   0
   0   0 -24  139.08    3.89   0
   0   8  -4    6.14    2.98   0
   0  10 -14    1.26    2.11   0
   0  10 -13   -0.21    1.88   0
   0  10 -12   23.07    2.37   0
   0  10 -11    4.04    2.02   0
   1  -9 -18   10.10    1.90   0
   1  -9 -17   -1.21    2.39   0
   1  -9  -7   81.20    2.80   0
   1  -7 -23    3.90    1.68   0
   1  -5 -25    5.61    2.28   0
   1  -5   1    5.09    4.01   0
   1  -3 -27    3.48    2.30   0
   1  -1 -28    2.17    2.52   0
   1   3   4   29.00    3.70   0
   1   7   2  208.22    4.06   0
   1   9   0    3.65    2.08   0
   2 -10 -21   -2.47    2.29   0
   2 -10  -3    5.02    2.89   0
   2  -8 -26   -0.39    1.74   0
   2  -8   1   24.15    3.32   0
   2  -6 -28   -0.03    2.16   0
   2  -4 -30   -0.71    2.17   0
   2  -2 -31   -0.81    2.18   0
   2   4   7   58.34    4.07   0
   2   6   6    7.17    2.54   0
   2   8 -29    0.11    2.88   0
   2   8   5  230.73    4.21   0
   2  10   3   -2.19    2.64   0
   2  14 -19    0.40    1.91   0
   3 -13 -18   10.74    1.86   0
   3 -13 -17   -3.52    2.17   0
   3 -13 -16   13.42    2.52   0
   3 -13  -8   23.59    2.45   0
   3 -13  -7    0.93    1.63   0
   3 -11 -24    2.68    2.09   0
   3  -9 -28   -0.35    1.66   0
   3  -7 -30   -0.22    2.45   0
   3  -5 -32    2.13    2.34   0
   3  -3 -33   -2.17    2.29   0
   3  -1 -34   -0.89    2.19   0
   3   3 -34    1.46    2.14   0
   3   5   9   78.73    2.98   0
   3   7   8    1.74    2.08   0
   3   9   7  114.54    3.28   0
   3  11   5   -0.15    2.39   0
   3  13   2    6.96    2.30   0
   3  15 -22    3.45    1.98   0
   4 -14 -21    0.91    1.87   0
   4 -14 -20    1.75    2.14   0
   4 -14 -19   -3.74    2.36   0
   4 -14  -5   -0.20    2.57   0
   4 -12 -26    1.35    2.06   0
   4 -12   1   11.34    2.60   0
   4 -10 -30    0.35    1.62   0
   4  -6   9    0.53    3.64   0
   4   6  11    2.55    2.63   0
   4   8  10    0.21    2.66   0
   4  12   6   12.43    1.76   0
   4  14   3  105.14    2.57   0
   4  16 -24    0.40    1.83   0
   4  16  -1    4.86    1.58   0
   4  18 -15   -2.11    1.92   0
   4  18 -14    1.12    2.22   0
   4  18 -13    0.35    2.37   0
   4  18 -12    1.35    2.27   0
   4  18 -10   -0.22    1.90   0
   5 -15 -22    3.21    2.00   0
   5 -15 -21   -2.68    2.59   0
   5 -15  -4   45.70    2.89   0
   5 -15  -3   10.70    1.98   0
   5 -13 -27   -0.48    1.89   0
   5 -13   2   21.42    2.62   0
   5   5  13    7.71    1.94   0
   5   9  11    2.30    1.69   0
   5  15   4    6.55    1.69   0
   5  17   0   12.69    1.71   0
   5  19 -17   -0.74    2.16   0
   5  19 -16   -0.50    1.05   0
   5  19 -16   -0.70    1.09   0
   5  19 -10   -0.14    1.45   0
   5  19  -9   -1.33    1.37   0
   5  19  -8    0.85    1.87   0
   5  19  -7   -0.18    1.72   0
   6 -16 -23   -0.13    1.83   0
   6 -16 -22    1.40    2.22   0
   6 -16  -3   12.85    2.45   0
   6 -14   3   25.83    2.70   0
   6  -4  14    2.48    3.08   0
   6   0  15    0.36    1.82   0
   6   4  15   -0.94    2.14   0
   6  10  12   21.20    1.90   0
   6  14   8   14.88    1.66   0
   6  16   5   13.91    1.69   0
   6  18   1    1.13    1.98   0
   6  20  -8    0.16    1.46   0
   6  20  -7   -0.40    2.09   0
   7 -17  -3    2.85    2.36   0
   7 -15   3   -1.45    2.33   0
   7 -13   7   12.86    2.55   0
   7   5  16   29.72    2.07   0
   7  11  13   -2.43    2.09   0
   7  13  11    0.91    1.53   0
   7  15   9    2.67    2.07   0
   7  19   1    0.36    1.30   0
   7  21  -9    1.17    0.95   0
   7  21  -9    0.67    0.96   0
   7  21  -8   -0.88    1.46   0
   7  21  -7    1.21    1.96   0
   8 -18  -3    1.36    1.74   0
   8 -16   3    3.36    2.38   0
   8 -14   7    2.53    2.57   0
   8 -12  10    6.07    2.71   0
   8   6  17    2.69    2.29   0
   8   8  16    2.11    1.67   0
   8  10  15   14.18    1.80   0
   8  16   9    3.15    2.18   0
   8  18   6    3.00    1.88   0
   8  20   1    2.77    1.82   0
   9 -19  -5    1.80    2.29   0
   9 -19  -4   -1.58    1.75   0
   9 -17   3    1.14    1.90   0
   9 -15   7    1.48    2.34   0
   9   9  17    2.55    2.02   0
   9  13  14    0.94    2.08   0
   9  15  12    1.90    1.81   0
   9  17   9    3.24    1.58   0
   9  19   5    3.67    1.50   0
   9  21   0    0.16    1.30   0
  10 -20  -7    1.81    2.48   0
  10 -20  -6    1.83    1.80   0
  10 -20  -6    0.25    1.15   0
  10 -20  -5   -1.99    1.80   0
  10 -18   2   -0.37    2.44   0
  10 -16   7   -0.37    2.06   0
  10   6  19    1.32    1.92   0
  10  10  17   -0.05    1.38   0
  10  12  16    3.97    1.85   0
  10  14  14    2.22    1.39   0
  10  16  12    5.92    1.97   0
  10  18   9    4.22    1.77   0
  10  20   5    0.88    1.82   0
  11 -19   1    1.86    2.14   0
  11 -17   6   -0.50    2.62   0
  11   5  20   -0.53    1.42   0
  11  13  16   -0.99    1.88   0
  11  15  14    5.85    1.93   0
  11  19   8    0.23    1.27   0
  12 -18   5    1.46    2.53   0
  12   4  21    1.45    1.91   0
  12   8  20    0.33    1.83   0
  12  10  19    0.92    1.80   0
  12  14  16    2.27    1.79   0
  12  16  14    1.91    1.59   0
  13   7  21    3.55    1.93   0
  13   9  20   -0.28    2.06   0
  13  11  19   -1.41    1.94   0
  14 -12  16    0.42    3.00   0
  14  -2  22    2.32    1.98   0
  14   4  22    1.19    0.86   0
  14   4  22    0.32    0.81   0
  14   8  21    1.15    2.14   0
  -1  -1 -14   20.67    2.87   0
  -1  -1 -13   73.50    3.60   0
  -1  -1 -12   17.14    2.98   0
  -1  -1 -11   12.39    3.18   0
  -1  -1 -10    2.32    2.99   0
  -1  -1  -9    1.75    2.32   0
  -1   3 -16    2.16    2.68   0
   0  -6 -16    1.69    1.90   0
   0  -6 -15    0.00    2.32   0
   0  -6 -14    4.19    2.62   0
   0  -6 -13    2.35    2.83   0
   0  -6 -10  101.78    3.91   0
   0  -6  -9   12.21    3.27   0
   0  -6  -8    8.59    2.41   0
   0  -4 -20    6.67    2.62   0
   0  -2 -22    6.94    2.55   0
   0   2 -24   25.19    2.52   0
   0   4   0  636.02    9.58   0
   0  10 -15    4.00    2.28   0
   0  10 -10   26.01    2.53   0
   0  10  -9    0.33    2.20   0
   1  -9 -16    0.48    1.64   0
   1  -9 -15    2.25    1.68   0
   1  -9 -14   46.79    2.25   0
   1  -9 -13   25.84    2.70   0
   1  -9 -12   -2.90    2.60   0
   1  -9 -11   28.01    2.83   0
   1  -9 -10   52.15    2.94   0
   1  -9  -9    4.02    1.97   0
   1  -9  -8   32.86    2.35   0
   1  -7 -22   -0.58    1.79   0
   1  -7 -21    3.30    2.46   0
   1  -7  -2    6.42    2.74   0
   1  -3 -26    0.84    2.22   0
   1   3 -28    0.44    2.03   0
   1   7 -26   -0.27    2.78   0
   1  11  -3    0.79    1.91   0
   1  13 -14    2.48    1.94   0
   1  13 -13    1.82    2.12   0
   1  13 -12    8.96    2.22   0
   1  13 -11    7.97    2.41   0
   1  13 -10   68.39    3.29   0
   2 -10 -20    2.24    2.18   0
   2 -10  -4    9.94    2.84   0
   2  -8 -25    3.05    1.75   0
   2  -6 -27    1.99    2.31   0
   2  -4 -29    0.99    2.36   0
   2   0 -31   -0.70    2.53   0
   2   4 -31   -0.64    1.97   0
   2  14 -20   -1.20    2.01   0
   2  14  -4   75.15    3.02   0
   3 -13 -15   18.55    1.90   0
   3 -13 -14    1.23    1.72   0
   3 -13 -13   -1.68    1.70   0
   3 -13 -12    8.96    1.84   0
   3 -13 -11    7.27    1.78   0
   3 -13 -10    0.43    1.73   0
   3 -13  -9   12.47    1.93   0
   3 -11 -23    7.08    1.70   0
   3 -11  -1    0.67    1.92   0
   3  -9 -27    1.81    1.71   0
   3  -9   3    2.07    2.12   0
   3   1  10  111.81    3.82   0
   3   3  10   16.43    3.05   0
   3  13   3   12.79    2.18   0
   3  15  -2   41.06    2.18   0
   3  15  -1   -0.37    2.07   0
   3  17 -12    3.84    2.13   0
   4 -14 -18    0.77    1.67   0
   4 -14 -17   13.32    2.68   0
   4 -14  -8    0.86    2.32   0
   4 -14  -7    6.58    2.37   0
   4 -14  -6    1.58    1.76   0
   4 -12 -25   -2.29    1.62   0
   4  -8 -31    0.47    2.43   0
   4  -8   7   22.66    2.89   0
   4  -6 -33   -1.17    2.44   0
   4   2  12  119.69    3.28   0
   4   4  12    1.69    2.59   0
   4  10   9    4.81    2.38   0
   4  12   7   -3.35    2.20   0
   4  14   4    1.56    1.63   0
   4  16   0   -0.33    1.65   0
   4  18 -17   -0.01    2.19   0
   4  18 -16    0.76    2.26   0
   4  18  -9    0.27    1.56   0
   4  18  -8    2.24    1.40   0
   4  18  -7   -0.66    2.04   0
   5 -15 -20    5.18    1.91   0
   5 -15 -19    0.35    2.23   0
   5 -15  -5    6.16    2.37   0
   5 -13 -26    0.29    1.55   0
   5 -11 -30    0.62    1.12   0
   5 -11 -30    0.69    1.12   0
   5  11  10   20.89    1.89   0
   5  13   8   -0.60    1.62   0
   5  15   5    0.96    1.60   0
   5  17   1   -1.48    1.43   0
   5  19 -19    0.28    2.06   0
   5  19 -18    0.27    1.65   0
   5  19  -6    2.28    1.53   0
   5  19  -5   -1.07    1.74   0
   6 -16 -21    0.63    1.65   0
   6 -16  -5    8.79    2.46   0
   6 -16  -4    4.97    1.76   0
   6 -14   2   33.97    2.95   0
   6 -12   6   73.13    3.48   0
   6 -10   9   21.32    2.46   0
   6   8  14   -2.65    2.30   0
   6  12  11    3.83    1.66   0
   6  14   9   13.40    2.25   0
   6  16   6    8.69    1.65   0
   6  18   2    1.26    1.91   0
   6  20  -6    1.15    1.42   0
   6  20  -5    2.03    2.07   0
   6  20  -4    2.69    1.72   0
   7 -17 -21    1.88    1.76   0
   7 -17 -20   -0.86    2.15   0
   7 -17  -5    3.25    2.40   0
   7 -17  -4   13.76    1.86   0
   7  -5  15   92.98    5.98   0
   7   7  16   -0.66    2.08   0
   7   9  15   18.34    2.54   0
   7  13  12    1.11    1.92   0
   7  17   6   -1.38    1.45   0
   7  19   2    1.09    1.33   0
   7  21  -6   -0.12    1.46   0
   7  21  -5    1.50    1.90   0
   7  21  -4   -0.93    1.79   0
   8 -18  -5   -1.38    2.09   0
   8 -18  -4    5.12    1.69   0
   8   0  18    8.20    2.02   0
   8   2  18   22.14    2.40   0
   8   4  18    5.37    1.89   0
   8  12  14   37.78    1.91   0
   8  14  12    1.51    1.60   0
   8  16  10    2.81    2.14   0
   8  18   7   -1.09    1.80   0
   8  20   2   -1.52    1.25   0
   9 -19  -6    1.27    1.73   0
   9 -13  10    4.15    2.53   0
   9   1  19    1.80    2.00   0
   9   3  19   55.10    2.70   0
   9   7  18    2.19    1.58   0
   9  11  16    8.35    1.62   0
   9  17  10    0.72    1.98   0
   9  19   6   -0.83    1.52   0
   9  21   1    1.02    0.95   0
   9  21   1    0.34    0.81   0
   9  21   2    1.42    1.75   0
  10 -20  -9   -0.01    1.08   0
  10 -20  -8    1.11    1.60   0
  10 -18   1    0.86    2.43   0
  10   0  20    7.64    2.15   0
  10   2  20    1.24    1.96   0
  10   4  20   -0.46    1.71   0
  10  18  10   -0.52    1.60   0
  10  20   6    4.39    1.37   0
  11 -19   0   -1.48    2.00   0
  11  -3  20    1.06    2.17   0
  11   7  20    0.26    1.99   0
  11   9  19    0.82    1.51   0
  11  11  18    0.66    2.07   0
  11  17  12    2.11    1.46   0
  11  19   9    1.12    0.89   0
  12 -16   9    1.32    2.18   0
  12 -14  12    2.24    2.32   0
  12  -2  21    1.20    2.28   0
  12   6  21   -0.12    1.79   0
  12  12  18    2.30    1.46   0
  13 -17   8    1.47    2.26   0
  13   1  22    5.34    2.21   0
  13   3  22   -0.37    1.74   0
  14   6  22   -0.16    0.77   0
  14   6  22    0.61    0.83   0
  -1   3 -15    8.79    3.22   0
  -1   5  -9   -0.01    4.57   0
   0  -6 -12    3.17    2.03   0
   0  -6 -11   -1.50    2.11   0
   0  -4 -19    1.29    2.35   0
   0  -4  -4  114.46    5.11   0
   0   0 -23    0.95    2.08   0
   0   4 -23    4.32    2.48   0
   0   6  -1   61.31    3.38   0
   0   8  -3  211.96    4.35   0
   0  10 -16    0.86    2.24   0
   0  10  -8    6.23    1.73   0
   0  10  -7    3.76    2.49   0
   1  -7 -20    4.20    2.38   0
   1  -7  -3    0.30    2.62   0
   1  -5 -24    1.79    1.58   0
   1  -1 -27    0.25    2.20   0
   1   5 -27    1.17    2.20   0
   1   5   4   18.21    3.35   0
   1   7   3   11.71    2.60   0
   1   9 -24    1.21    4.41   0
   1   9   1  216.66    3.91   0
   1  11  -2   -0.29    1.95   0
   1  13 -16    0.67    2.22   0
   1  13 -15    1.98    1.94   0
   1  13  -9   10.77    1.88   0
   1  13  -8    9.35    2.59   0
   1  13  -7    8.84    2.27   0
   2 -10 -19   -1.00    1.63   0
   2 -10 -18    1.23    2.31   0
   2 -10  -5   -0.77    1.89   0
   2  -8 -23   -0.45    2.27   0
   2  -8   0  149.10    4.34   0
   2  -2 -30    1.69    1.91   0
   2   6 -30    0.08    2.18   0
   2   6   7   12.61    3.33   0
   2   8   6    1.73    2.68   0
   2  10   4   49.00    2.40   0
   2  12   1   35.00    2.05   0
   2  14  -3   49.40    2.22   0
   3 -11 -22    0.40    1.45   0
   3 -11 -21   -0.87    2.30   0
   3 -11  -2    6.64    2.05   0
   3  -9 -26    0.43    1.72   0
   3  -7 -29    1.01    1.59   0
   3  -5 -31   -1.81    1.66   0
   3  -3 -32    1.15    2.45   0
   3  -1 -33    0.00    1.68   0
   3  -1 -33   -0.51    1.22   0
   3   5 -33    0.63    2.26   0
   3   5  10    5.01    2.93   0
   3   7   9   12.92    2.11   0
   3   9 -31    0.39    2.84   0
   3   9   8   25.43    2.82   0
   3  11   6   22.30    1.99   0
   3  13 -27    0.59    3.23   0
   3  15 -23    0.29    1.92   0
   3  15   0   30.78    2.62   0
   3  17 -16    9.47    2.27   0
   3  17 -15    6.29    2.50   0
   3  17 -14   -1.73    2.26   0
   3  17 -13    8.47    1.80   0
   3  17 -11    2.36    1.64   0
   3  17 -10    7.20    1.74   0
   3  17  -9    1.02    1.97   0
   3  17  -8   -0.53    2.13   0
   4 -14 -15   -1.17    1.71   0
   4 -14 -14   23.56    2.04   0
   4 -14 -13   10.66    1.84   0
   4 -14 -12    0.75    1.72   0
   4 -14 -11   18.43    1.99   0
   4 -14 -10   55.24    2.33   0
   4 -14  -9  101.62    2.81   0
   4 -12 -24    1.22    1.50   0
   4 -12 -23    0.64    2.17   0
   4 -12   0   35.27    2.25   0
   4 -10 -28   -3.06    1.64   0
   4 -10 -27   -0.95    2.27   0
   4 -10   4  185.62    4.26   0
   4  -8 -30    1.46    2.08   0
   4  -4 -34    0.22    1.12   0
   4  -4 -34   -0.44    1.12   0
   4   0  12   62.96    2.75   0
   4   8  11   73.94    2.90   0
   4  14   5    0.97    1.65   0
   4  16 -25    0.88    2.17   0
   4  16   1    9.62    1.75   0
   4  18 -19    0.81    1.77   0
   4  18 -18   -1.93    2.09   0
   4  18  -6    0.64    1.48   0
   4  18  -5   -1.25    2.07   0
   5 -15 -18    0.52    1.87   0
   5 -15 -17   -1.46    2.00   0
   5 -15 -16    8.75    2.28   0
   5 -15 -15    2.52    2.43   0
   5 -15  -7    7.99    1.83   0
   5 -15  -6   28.83    2.15   0
   5 -13 -24    2.97    2.17   0
   5 -13   1    1.75    1.74   0
   5 -11 -29   -0.26    1.55   0
   5 -11   5    6.68    2.70   0
   5  -9   8   18.66    2.59   0
   5  -3  13   15.50    3.20   0
   5   1  14   17.88    2.20   0
   5   3  14   15.54    1.90   0
   5   7  13   -1.25    1.78   0
   5   9  12    6.86    1.66   0
   5  13   9   29.00    2.34   0
   5  15   6    0.86    1.57   0
   5  17   2   12.39    1.61   0
   5  19  -4    0.75    1.50   0
   5  19  -3   -0.55    1.84   0
   6 -16 -19    1.33    1.79   0
   6 -16 -18    0.93    1.73   0
   6 -16 -17    1.87    2.20   0
   6 -16 -16   -3.55    2.49   0
   6 -16  -7    0.25    2.36   0
   6 -16  -6    3.70    1.78   0
   6 -14 -26    0.84    1.70   0
   6 -14 -25    0.90    2.26   0
   6  -8  11   21.16    3.30   0
   6  -2  15   17.34    2.53   0
   6   6  15    8.81    1.82   0
   6  10  13   39.68    2.07   0
   6  16   7    1.16    2.06   0
   6  18   3   -0.71    1.46   0
   7 -17 -19    2.25    1.79   0
   7 -17 -18    2.23    1.94   0
   7 -17 -17   -1.76    2.32   0
   7 -17 -16    3.61    2.75   0
   7 -17  -7   -0.65    2.26   0
   7 -17  -6    0.21    1.69   0
   7 -13   6    4.62    2.47   0
   7  -3  16   -0.19    2.21   0
   7   1  17   19.70    2.41   0
   7   3  17    2.13    1.57   0
   7  11  14   27.36    1.96   0
   7  15  10    1.20    1.67   0
   7  17   7    2.69    1.49   0
   7  19   3    0.31    1.39   0
   8 -18 -18    0.36    1.77   0
   8 -18 -17   -0.98    1.81   0
   8 -18 -15   -0.56    2.45   0
   8 -18  -9    0.06    2.37   0
   8 -18  -8   -0.51    2.18   0
   8 -18  -7    0.43    1.78   0
   8 -18  -6    1.13    1.78   0
   8 -16   2    6.33    1.73   0
   8   8  17    4.37    1.72   0
   8  10  16    2.45    1.65   0
   8  14  13    0.70    2.17   0
   8  20   3    2.91    1.38   0
   9 -19 -15   -0.08    1.21   0
   9 -19 -14   -0.03    1.61   0
   9 -19 -13   -1.69    1.14   0
   9 -19 -13   -0.14    1.17   0
   9 -19 -12    0.48    1.95   0
   9 -19 -11   -1.26    1.63   0
   9 -19 -10    0.59    1.65   0
   9 -19  -9    1.20    1.69   0
   9 -19  -8   -0.93    1.70   0
   9 -17   1    6.31    2.55   0
   9 -15   6    4.21    2.51   0
   9  -1  19    1.69    2.35   0
   9   5  19   38.35    2.11   0
   9  13  15    1.53    1.44   0
   9  15  13   -1.43    1.44   0
   9  17  11   -0.75    1.75   0
   9  19   7    2.62    1.59   0
   9  21   3    1.45    1.71   0
  10 -18   0    0.92    2.35   0
  10 -16   6    1.96    1.88   0
  10  -6  18    0.92    3.43   0
  10  -4  19    2.80    2.86   0
  10   6  20   -1.47    1.81   0
  10   8  19    0.92    1.65   0
  10  10  18    3.66    1.64   0
  10  12  17   -1.70    2.13   0
  10  14  15    0.10    1.38   0
  10  16  13   -0.05    1.43   0
  10  20   7   -0.47    0.90   0
  11 -19  -1   -1.81    1.82   0
  11 -17   5    0.41    2.16   0
  11 -15   9    2.74    2.42   0
  11   1  21    1.12    2.11   0
  11   3  21   11.33    1.78   0
  11   5  21    0.28    1.90   0
  11  13  17   -0.97    1.40   0
  11  15  15    0.84    1.42   0
  11  17  13   -0.35    1.41   0
  12 -18   4    0.17    1.65   0
  12 -18   4    1.19    1.17   0
  12  10  20    4.90    1.76   0
  12  14  17    0.29    1.24   0
  12  16  15    0.22    0.96   0
  13 -15  11   -0.58    2.61   0
  13 -13  14   -0.33    1.95   0
  13 -13  14    0.02    1.13   0
  13  -1  22    1.63    2.23   0
  13   5  22    0.38    1.35   0
  13   9  21    0.13    2.15   0
  13  11  20    2.41    1.99   0
  14   2  23    3.16    1.82   0
  14   4  23    1.71    1.46   0
  -1   1  -8  357.44    9.12   0
   0  -4 -18   -0.29    1.83   0
   0  -4 -17    2.59    2.67   0
   0  -2 -21   34.83    2.37   0
   0   0 -22    9.43    2.57   0
   0   2 -23    1.00    2.00   0
   0   8  -2   34.95    3.19   0
   0  10  -6    1.44    2.62   0
   1  -7 -19   48.05    2.48   0
   1  -7 -18   15.15    2.43   0
   1  -7  -4   16.11    3.37   0
   1  -5 -23    8.19    2.03   0
   1  -5   0  430.70    7.37   0
   1  -3 -25    0.80    1.75   0
   1  -1 -26    4.12    2.57   0
   1   3 -27    1.78    2.45   0
   1   9   2   71.94    3.53   0
   1  11  -1    1.85    1.93   0
   1  13 -17    3.76    2.34   0
   1  13  -6   28.98    2.72   0
   2 -10 -17    2.32    1.83   0
   2 -10 -16   20.17    1.99   0
   2 -10 -15    8.76    2.55   0
   2 -10  -8    1.04    2.66   0
   2 -10  -7    2.24    2.59   0
   2 -10  -6   16.03    2.19   0
   2  -8 -22    1.71    2.43   0
   2  -6 -26    0.99    1.62   0
   2  -6   3   30.14    3.67   0
   2  -4 -28    2.27    1.78   0
   2  -2 -29    0.01    2.59   0
   2   0 -30    7.46    2.68   0
   2   2   8   38.12    3.65   0
   2   4   8   45.68    3.47   0
   2  12 -25    0.07    3.34   0
   2  12   2   28.19    1.97   0
   2  14 -21    0.62    1.84   0
   2  14  -2    0.12    1.64   0
   3 -11 -19    3.20    2.41   0
   3 -11  -3   35.90    2.28   0
   3  -9 -25    1.05    1.60   0
   3  -9   2    0.24    2.70   0
   3  -7 -28    0.55    1.66   0
   3  -7   5    4.06    2.82   0
   3  -5 -30   -0.66    1.98   0
   3   1 -33    0.36    1.84   0
   3   3 -33    0.04    2.11   0
   3   7 -32    0.11    2.23   0
   3  13   4   54.40    2.10   0
   3  15   1    0.36    2.38   0
   3  17 -17    2.33    2.19   0
   3  17  -7    2.31    1.56   0
   3  17  -6    4.71    2.00   0
   3  17  -5    7.00    1.94   0
   4 -12 -22   -0.30    1.65   0
   4 -12 -21    7.54    2.30   0
   4 -12  -1   36.07    2.20   0
   4 -10 -26    1.52    2.32   0
   4  -6 -32   -0.27    1.71   0
   4  -4 -33   -0.92    2.30   0
   4   6  12   20.91    2.22   0
   4  10  10   -1.42    1.59   0
   4  12   8   16.30    1.73   0
   4  14   6    3.83    2.18   0
   4  16   2    6.08    1.62   0
   4  18 -20    0.17    1.70   0
   4  18  -4    1.18    1.47   0
   4  18  -3    1.48    2.07   0
   5 -15 -14   -0.08    1.76   0
   5 -15 -13    4.34    1.76   0
   5 -15 -12    8.56    1.76   0
   5 -15 -11    4.54    1.71   0
   5 -15 -10    0.87    1.59   0
   5 -13 -23    0.40    1.89   0
   5 -13   0   34.20    2.87   0
   5 -11 -28    0.78    1.65   0
   5  -9 -31   -0.11    1.15   0
   5  -9 -31    1.09    1.19   0
   5  -7  10    9.61    3.29   0
   5   5  14   31.55    2.26   0
   5  11  11   11.54    1.76   0
   5  15   7    9.08    2.22   0
   5  17   3    5.66    1.54   0
   5  19  -2    9.94    2.15   0
   6 -16 -15    2.44    1.89   0
   6 -16 -14    3.21    1.81   0
   6 -16 -13    4.62    1.75   0
   6 -16 -12    4.13    1.82   0
   6 -16 -11    1.40    1.66   0
   6 -16 -10   -0.67    1.51   0
   6 -16  -9    4.12    1.77   0
   6 -16  -8    0.44    1.78   0
   6 -14 -24   -2.26    1.74   0
   6 -14   1    0.98    1.78   0
   6 -12 -29    0.68    1.02   0
   6   2  16    0.17    2.18   0
   6   4  16    7.22    2.30   0
   6   8  15   39.18    2.63   0
   6  10  14    5.35    2.21   0
   6  12  12   11.53    1.79   0
   6  14  10    7.74    1.63   0
   6  16   8    4.38    1.96   0
   6  18   4    2.26    1.46   0
   6  20  -2    0.71    1.51   0
   6  20  -1   -1.99    1.96   0
   7 -17 -14   -0.15    1.60   0
   7 -17 -13    1.80    1.71   0
   7 -17 -12    3.06    1.73   0
   7 -17 -10   -0.71    1.61   0
   7 -17  -9   -0.01    1.65   0
   7 -15 -24   -2.80    2.27   0
   7 -15   1   14.67    2.43   0
   7 -11   9    2.94    2.10   0
   7   5  17    1.37    1.70   0
   7   9  16   24.80    2.38   0
   7  13  13    0.40    1.65   0
   7  15  11   18.12    2.29   0
   7  17   8   -0.37    1.48   0
   7  19   4    0.51    1.41   0
   7  19   5   -1.61    1.66   0
   7  21  -2   -1.49    1.38   0
   7  21  -1    0.83    1.88   0
   8 -18 -13   -1.30    1.72   0
   8 -18 -12    3.32    1.70   0
   8 -18 -11    4.85    1.78   0
   8 -18 -10   -0.47    1.65   0
   8 -16   1    4.03    1.81   0
   8 -14   6    4.97    2.01   0
   8 -10  12   77.02    4.52   0
   8  -8  14    1.08    3.78   0
   8  -4  17    2.51    2.70   0
   8   6  18    0.41    1.74   0
   8  12  15    1.84    1.56   0
   8  16  11   -1.04    1.48   0
   8  18   8    1.38    1.57   0
   8  20   4   -0.99    1.45   0
   8  20   5    1.25    1.70   0
   9 -17   0   -0.14    2.31   0
   9   7  19   17.58    2.36   0
   9   9  18   -0.41    1.67   0
   9  11  17   22.51    1.87   0
   9  15  14    0.86    1.95   0
   9  19   8    1.97    1.54   0
   9  21   4    0.48    1.36   0
  10 -18  -1    2.46    2.03   0
  10 -16   5    0.42    2.61   0
  10 -14   9    0.81    2.44   0
  10  14  16   -2.66    2.01   0
  10  16  14    2.29    2.04   0
  10  18  11    0.45    1.41   0
  11 -19  -2    2.60    1.94   0
  11 -17   4    3.46    2.63   0
  11 -13  12    2.35    2.32   0
  11  -1  21    1.61    2.30   0
  11   9  20    3.06    1.65   0
  11  11  19   -2.00    1.47   0
  11  15  16    0.92    1.95   0
  11  17  14   -0.18    2.00   0
  12 -18   3    2.10    2.07   0
  12 -18   3    0.40    1.14   0
  12 -16   8    0.06    2.10   0
  12   0  22    1.08    1.85   0
  12   2  22   -0.58    1.47   0
  12   4  22    1.84    1.84   0
  12   8  21    0.85    1.47   0
  12  12  19    0.68    1.46   0
  12  14  18    4.81    1.73   0
  13 -17   7    0.86    1.69   0
  13 -17   7    1.33    1.30   0
  13   7  22   -0.31    1.46   0
  14 -14  13    0.38    2.66   0
  14   0  23   -0.26    2.15   0
  -1   3 -14   47.53    4.27   0
  -1   5  -8  100.69    6.48   0
   0  -4 -16    2.86    2.67   0
   0  -4  -5   23.56    3.08   0
   0  -2 -20   12.35    1.99   0
   0   6   0  326.28    5.60   0
   0  10 -17    0.61    2.60   0
   0  10  -5   -0.56    2.73   0
   1  -7 -17   36.25    2.18   0
   1  -7 -16    7.35    2.63   0
   1  -7  -5   66.61    3.66   0
   1  -5 -22    4.48    1.84   0
   1  -3 -24    5.29    2.54   0
   1   3   5   -1.61    3.14   0
   1   5   5   -0.43    3.50   0
   1   7   4   21.08    2.66   0
   1  11 -22   -0.13    3.21   0
   1  11   0   10.40    2.73   0
   1  13  -5    0.81    1.71   0
   1  13  -4    1.80    2.41   0
   2 -10 -14    4.19    1.70   0
   2 -10 -13   10.59    1.77   0
   2 -10 -12   19.90    2.05   0
   2 -10 -11   20.93    2.02   0
   2 -10 -10    0.77    1.90   0
   2 -10  -9   27.90    2.13   0
   2  -8 -21   -2.24    2.23   0
   2  -8  -1   12.22    3.13   0
   2  -6 -25    5.81    1.70   0
   2  -4 -27    1.05    2.00   0
   2   4 -30    0.98    2.14   0
   2   8   7   28.04    2.95   0
   2  10   5   39.13    2.28   0
   2  12   3    4.35    2.38   0
   2  14  -1   -0.56    1.43   0
   2  16 -14   26.11    2.81   0
   2  16 -13    9.63    2.46   0
   2  16 -12    0.42    2.47   0
   2  16 -11    0.18    1.69   0
   2  16 -10    3.89    2.19   0
   2  16  -9    9.47    2.29   0
   2  16  -8   16.69    2.36   0
   3 -11 -18   -0.96    1.66   0
   3 -11 -17    6.79    2.51   0
   3 -11  -5    5.20    2.55   0
   3 -11  -4   65.46    2.42   0
   3  -9 -24   -1.07    1.64   0
   3  -9 -23   -0.26    2.32   0
   3  -7 -27    0.35    1.76   0
   3  -5 -29    0.77    2.15   0
   3  -3 -31   -0.59    1.78   0
   3  -1 -32   -1.48    2.08   0
   3  -1  10  114.45    5.23   0
   3   7  10    9.97    2.85   0
   3   9   9    0.09    2.60   0
   3  11   7   12.74    1.85   0
   3  13   5   27.81    1.90   0
   3  15 -24    0.42    2.28   0
   3  15   2   13.40    2.31   0
   3  17 -18    4.02    2.11   0
   3  17  -4    8.73    1.57   0
   4 -12 -20   -0.81    2.06   0
   4 -12  -2  229.25    3.64   0
   4 -10 -25    0.83    2.20   0
   4 -10   3   22.15    3.02   0
   4  -8 -29   -0.15    1.69   0
   4  -6 -31   -1.42    1.92   0
   4  -2 -34   -0.22    1.04   0
   4  -2 -34   -0.24    1.02   0
   4  12   9    4.74    2.33   0
   4  16   3   -0.51    1.54   0
   4  18 -21   -0.05    2.14   0
   4  18  -2    1.75    1.38   0
   4  18  -1    1.92    1.80   0
   5 -13 -22    3.10    1.63   0
   5 -13 -21   -0.86    2.31   0
   5 -13  -1  130.37    3.54   0
   5 -11 -27    0.68    1.58   0
   5 -11   4    5.64    2.71   0
   5  -9 -30   -0.51    1.69   0
   5  -7 -32    2.04    2.36   0
   5  -1  14   15.48    2.50   0
   5   7  14   15.93    1.90   0
   5   9  13    2.23    1.74   0
   5  11  12   21.35    2.40   0
   5  13  10   16.15    1.74   0
   5  15   8   -1.04    2.17   0
   5  17   4    8.56    1.44   0
   5  19  -1    1.66    1.50   0
   5  19   0    6.86    1.99   0
   6 -14 -23    2.95    1.80   0
   6 -14 -22    0.35    2.63   0
   6 -14   0   38.38    2.25   0
   6 -12 -28   -1.84    1.47   0
   6 -12 -27   -0.89    2.09   0
   6 -12   5   20.31    2.64   0
   6   0  16   42.88    2.61   0
   6   6  16   17.13    2.57   0
   6  12  13    5.40    2.32   0
   6  14  11    0.44    1.52   0
   6  18   5    2.37    1.48   0
   6  20   0    0.41    1.52   0
   7 -15 -23   -0.33    1.86   0
   7 -15 -22   -0.03    2.56   0
   7 -15   0    0.74    2.17   0
   7  -1  17   18.14    2.39   0
   7   7  17   38.21    2.14   0
   7  11  15    8.20    1.67   0
   7  15  12   -1.55    1.86   0
   7  17   9    2.03    1.62   0
   7  19   6    1.25    1.79   0
   7  21   0    0.32    1.31   0
   7  21   1    1.17    1.60   0
   8 -16 -22   -2.55    2.57   0
   8 -16   0   -0.15    1.62   0
   8 -12   9    3.89    2.40   0
   8  -2  18   20.03    2.58   0
   8   2  19    2.45    1.73   0
   8   4  19    1.46    1.83   0
   8   8  18    1.66    2.21   0
   8  10  17    1.20    1.53   0
   8  12  16   -2.55    1.99   0
   8  14  14    2.35    1.51   0
   8  16  12   -3.10    1.64   0
   8  18   9    1.60    1.47   0
   8  20   6    1.54    1.74   0
   9 -17  -1   -2.07    1.93   0
   9 -15   5    0.19    2.59   0
   9 -13   9   -0.62    2.27   0
   9   3  20    5.55    2.22   0
   9   5  20    1.03    1.86   0
   9  13  16   10.05    1.55   0
   9  17  12    1.27    1.52   0
   9  19   9   -0.74    1.37   0
  10 -18  -3    8.27    2.69   0
  10 -18  -2   -3.01    1.78   0
  10 -12  12   33.17    3.23   0
  10  -2  20   -0.35    2.09   0
  10   2  21    1.23    1.72   0
  10   4  21    1.19    1.85   0
  10   8  20    0.98    1.62   0
  10  10  19    2.92    1.58   0
  10  12  18    0.13    1.64   0
  10  18  12    2.16    1.48   0
  11 -19  -5    4.99    2.53   0
  11 -19  -4   -1.57    1.74   0
  11   7  21    1.98    1.51   0
  11  13  18    0.78    1.49   0
  12 -18   2   -0.04    2.38   0
  12   6  22    2.31    1.61   0
  12  10  21    1.55    2.02   0
  12  12  20    0.65    1.69   0
  13 -11  16    0.53    3.50   0
  13  -5  21    1.25    2.72   0
  13  -3  22    0.11    2.50   0
  13   1  23    1.12    1.75   0
  13   3  23    2.50    2.01   0
  13   5  23    0.53    1.77   0
  13   9  22   -1.67    2.02   0
  14  -6  21    2.81    3.15   0
  14  -4  22    0.68    2.07   0
  -1   3 -13   47.78    4.51   0
   0  -4 -15    4.92    2.06   0
   0  -4 -14    7.62    2.98   0
   0  -4  -7   32.98    3.74   0
   0  -4  -6    7.93    2.66   0
   0  -2 -19    1.25    2.32   0
   0   0 -21   -1.22    2.21   0
   0   2 -22    4.93    2.05   0
   0   2   1  268.15    8.78   0
   0   4 -22    2.69    2.17   0
   0   4   1  240.01    5.96   0
   0   8  -1   78.80    3.61   0
   0  10  -4   22.59    2.96   0
   1  -7 -15   53.00    2.37   0
   1  -7 -14   14.76    2.80   0
   1  -7  -7   61.17    3.53   0
   1  -7  -6    6.91    2.38   0
   1  -5 -21    2.60    1.88   0
   1  -5 -20    1.07    2.48   0
   1  -3 -23    0.24    2.41   0
   1  -1 -25    3.08    2.42   0
   1  -1   4  467.51   17.83   0
   1   1   5   85.97    5.67   0
   1   9   3   16.97    2.34   0
   1  11   1   17.83    2.64   0
   1  13 -18   -0.17    1.95   0
   1  13  -3    1.56    2.39   0
   2  -8 -20    0.77    1.80   0
   2  -8 -19    3.24    2.41   0
   2  -6 -24   -2.22    1.64   0
   2  -4 -26    0.58    2.29   0
   2  -4   5    2.55    4.59   0
   2  -2 -28    1.65    2.19   0
   2   0 -29   -0.72    2.25   0
   2   6   8    5.82    2.27   0
   2  10   6    3.46    2.65   0
   2  12   4   10.89    2.44   0
   2  14 -22    5.10    2.28   0
   2  14   0    0.12    1.63   0
   2  16 -16    7.59    2.06   0
   2  16 -15    3.32    2.37   0
   2  16  -7   21.90    1.99   0
   2  16  -6   -0.76    2.15   0
   2  16  -5   16.42    2.31   0
   3 -11 -16   -1.24    1.70   0
   3 -11 -15    1.93    1.83   0
   3 -11 -14   22.65    2.40   0
   3 -11  -7   11.49    2.56   0
   3 -11  -6    0.43    1.80   0
   3  -9 -22    2.34    2.40   0
   3  -9   1    4.25    2.22   0
   3  -7 -26    2.25    2.06   0
   3  -3 -30    1.23    2.38   0
   3   1 -32   -0.64    2.50   0
   3   3  11   27.62    2.52   0
   3   5  11   10.04    3.00   0
   3  11   8   -1.12    2.38   0
   3  13   6   32.27    2.44   0
   3  15   3    6.41    2.23   0
   3  17 -19   -0.37    1.85   0
   3  17  -3    8.99    1.64   0
   3  17  -2   16.39    2.38   0
   4 -12 -19    1.84    1.70   0
   4 -12 -18   20.58    2.33   0
   4 -12  -4    5.68    2.53   0
   4 -12  -3   83.96    2.60   0
   4 -10 -24    0.07    1.91   0
   4  -8 -28    1.95    1.72   0
   4  -6 -30   -0.53    2.48   0
   4  -4 -32   -1.32    2.10   0
   4  -2 -33    1.81    2.37   0
   4   0 -34   -0.49    2.62   0
   4   2  13  108.24    3.11   0
   4   4  13   30.83    2.34   0
   4   6  13   19.44    2.76   0
   4   8  12    1.47    1.62   0
   4  10  11   20.82    1.83   0
   4  14   7    1.46    1.61   0
   4  16   4    4.46    1.54   0
   4  18   0   -0.95    1.95   0
   5 -13 -20    0.31    1.70   0
   5 -13 -19    2.05    2.37   0
   5 -13  -2   23.48    2.43   0
   5 -11 -26    3.04    1.69   0
   5 -11 -25   -1.06    2.10   0
   5  -9 -29   -2.04    1.96   0
   5   3  15    1.82    2.28   0
   5   5  15   -1.15    2.46   0
   5  13  11   10.90    2.17   0
   5  17   5    3.31    1.48   0
   5  19   1   11.42    2.07   0
   5  21 -13    3.54    1.82   0
   5  21 -12    2.80    2.07   0
   5  21 -11    0.59    2.11   0
   5  21  -9    7.27    1.98   0
   6 -14 -21    4.60    1.78   0
   6 -14 -20    1.33    2.40   0
   6 -14  -1    4.34    1.84   0
   6 -12 -26   -1.49    2.17   0
   6 -10 -30    0.13    1.52   0
   6 -10   8    2.74    2.12   0
   6  10  15    4.75    2.19   0
   6  14  12    8.91    2.01   0
   6  16   9    6.85    1.68   0
   6  18   6    3.22    1.47   0
   6  20   1    8.44    1.62   0
   6  20   2   -3.36    2.01   0
   6  22  -8    0.43    2.00   0
   6  22  -7    2.40    1.74   0
   7 -15 -21   -0.14    1.73   0
   7 -15 -20    0.78    2.36   0
   7 -15  -1    2.20    2.14   0
   7 -13 -27   -2.05    1.50   0
   7 -13   5   41.40    2.39   0
   7   3  18   -1.61    2.08   0
   7   5  18   70.71    3.09   0
   7   9  17    3.05    2.14   0
   7  13  14    3.03    1.55   0
   7  17  10    8.40    2.36   0
   7  19   7   -1.94    1.93   0
   7  21   2    2.10    1.84   0
   8 -16 -20   -1.51    2.37   0
   8 -16  -2    9.31    2.40   0
   8 -16  -1   13.94    1.84   0
   8   6  19   10.64    2.26   0
   8  14  15   -0.69    2.12   0
   8  16  13    1.14    2.32   0
   8  18  10   -0.04    1.44   0
   8  20   7   -1.98    1.86   0
   9 -17 -20    0.13    1.24   0
   9 -17 -19    0.33    2.59   0
   9 -17  -3    4.87    2.47   0
   9 -17  -2    2.34    1.71   0
   9   1  20   30.58    2.24   0
   9   7  20    0.24    1.85   0
   9   9  19    2.95    1.69   0
   9  11  18    0.18    1.63   0
   9  13  17   -0.03    1.97   0
   9  15  15   -1.04    1.39   0
   9  17  13   -0.76    1.65   0
   9  19  10    1.14    1.39   0
  10 -18  -5   -0.39    2.32   0
  10 -18  -4    2.78    1.74   0
  10 -16   4    1.89    1.91   0
  10   6  21    1.50    2.15   0
  10  14  17    1.94    1.43   0
  10  16  15    0.64    1.47   0
  10  18  13   -0.96    1.42   0
  11 -19 -10   -0.43    2.32   0
  11 -19  -9    2.96    2.34   0
  11 -19  -8    0.15    1.96   0
  11 -19  -7    1.55    1.60   0
  11 -19  -6   -0.36    1.73   0
  11 -17   3    2.30    1.91   0
  11 -15   8   -0.28    2.41   0
  11   1  22    3.00    1.99   0
  11   3  22    4.56    2.06   0
  11   5  22    0.30    1.95   0
  11   9  21   -2.21    2.27   0
  11  11  20    6.28    1.66   0
  11  13  19    2.89    2.08   0
  11  15  17   -0.29    1.27   0
  12 -18   1   -1.34    2.50   0
  12 -16   7    4.57    2.75   0
  12 -14  11    0.44    2.00   0
  12  -4  21    2.27    2.42   0
  12   8  22    0.42    1.48   0
  13 -17   6    1.30    1.92   0
  13 -15  10    0.07    2.41   0
  13   7  23    1.82    1.77   0
  14  -2  23    3.52    2.21   0
  -1   5  -7  284.72    8.88   0
   0  -4 -13   37.20    2.52   0
   0  -4 -12   22.68    2.38   0
   0  -4 -11    4.58    2.75   0
   0  -4 -10   -0.69    3.19   0
   0  -4  -9   50.24    3.79   0
   0  -4  -8   20.23    2.54   0
   0  -2 -18    1.98    2.45   0
   0   0 -20  198.94    4.83   0
   0   6 -21    0.33    2.67   0
   0   6   1   61.96    4.21   0
   0  10  -3   20.41    2.99   0
   1  -7 -13   30.16    2.30   0
   1  -7 -12    1.81    1.97   0
   1  -7 -11   93.64    2.93   0
   1  -7 -10    6.65    2.12   0
   1  -7  -9   31.54    2.40   0
   1  -7  -8   -0.18    2.15   0
   1  -5 -19    1.00    2.48   0
   1  -5  -1  475.06    7.00   0
   1   3 -26   -0.24    2.38   0
   1   5 -26   10.14    2.44   0
   1   7   5   57.18    3.69   0
   1   9   4  454.86    5.25   0
   1  11   2   34.17    2.63   0
   1  13 -19    0.31    2.37   0
   1  13  -2    0.56    1.70   0
   2  -8  -2  788.11    6.88   0
   2  -6 -23    3.08    1.78   0
   2  -6   2  179.46    5.18   0
   2  -2 -27    1.58    2.34   0
   2   0   8  233.11    6.28   0
   2   6 -29    0.16    1.95   0
   2   8   8   -0.67    2.71   0
   2  14   1    8.09    1.69   0
   2  16 -17    3.36    2.26   0
   2  16  -4   36.48    2.10   0
   2  16  -3   11.20    2.15   0
   3 -11 -13   14.78    1.98   0
   3 -11 -12    5.78    1.69   0
   3 -11 -11   17.81    1.88   0
   3 -11 -10   16.64    1.85   0
   3 -11  -9   50.45    2.27   0
   3 -11  -8    1.58    1.75   0
   3  -9 -21    0.50    2.16   0
   3  -9   0   25.51    3.14   0
   3  -7 -25    7.91    2.14   0
   3  -5 -28   -0.18    1.51   0
   3  -5   7   19.97    4.48   0
   3  -1 -31   -2.23    1.87   0
   3   1  11   10.03    2.34   0
   3   3 -32    0.45    1.83   0
   3   5 -32    0.60    1.83   0
   3   7  11    9.71    2.76   0
   3   9  10   44.19    2.88   0
   3  15   4  110.53    3.01   0
   3  17 -20    0.36    1.85   0
   3  17  -1   -0.04    1.56   0
   4 -12 -17    2.06    1.62   0
   4 -12 -16    0.76    1.72   0
   4 -12 -15   -2.33    2.24   0
   4 -12  -5   29.38    2.15   0
   4 -10 -23    4.10    1.66   0
   4 -10   2   -1.46    2.87   0
   4  -8 -27    1.00    1.68   0
   4  -8   6    7.03    2.42   0
   4  -4 -31   -2.55    2.22   0
   4  -2  12  125.64    5.29   0
   4  12  10   11.95    1.81   0
   4  14   8   59.58    2.19   0
   4  16   5    0.97    1.60   0
   4  18 -22   -0.25    1.85   0
   4  18   1    0.50    1.45   0
   4  20 -14    0.32    1.94   0
   4  20 -13    1.41    2.18   0
   4  20 -12   -0.30    2.20   0
   4  20 -11   -1.06    2.18   0
   4  20 -10    0.08    2.11   0
   4  20  -9    1.02    2.05   0
   4  20  -8   -0.10    1.96   0
   4  20  -7   -0.30    1.84   0
   5 -13 -18    0.92    1.79   0
   5 -13 -17   20.56    2.65   0
   5 -13  -4    4.71    2.43   0
   5 -13  -3   30.48    2.00   0
   5 -11   3   66.58    3.32   0
   5  -9 -28    1.26    2.07   0
   5  -9   7    6.08    2.29   0
   5  -7 -31    0.02    1.71   0
   5  -5 -33   -0.21    1.16   0
   5  -5 -33   -0.09    1.17   0
   5  -3 -34   -2.17    2.29   0
   5   1  15    2.94    1.90   0
   5   7  15    1.79    2.36   0
   5   9  14    0.72    1.60   0
   5  11  13    8.15    1.81   0
   5  15   9    1.66    1.61   0
   5  17   6   -0.18    1.46   0
   5  19   2    0.78    1.41   0
   5  21 -14    0.68    1.34   0
   5  21  -7   -0.61    1.50   0
   5  21  -6    1.46    1.62   0
   5  21  -5   -2.04    2.20   0
   6 -14 -19   -1.42    1.80   0
   6 -14 -18   -1.14    2.64   0
   6 -14  -3   30.08    2.82   0
   6 -14  -2   17.12    2.01   0
   6 -12 -25   -0.25    1.95   0
   6 -12   4   88.97    3.27   0
   6  -8 -32    0.46    1.09   0
   6   4  17    9.13    2.28   0
   6   8  16    0.38    1.81   0
   6  12  14    3.81    1.64   0
   6  16  10    7.33    1.73   0
   6  18   7   -1.91    1.47   0
   6  20   3    2.93    1.99   0
   6  22  -6   -0.32    1.43   0
   6  22  -5    0.58    1.51   0
   6  22  -4    0.96    1.97   0
   7 -15 -19    0.58    1.81   0
   7 -15 -18    1.33    2.43   0
   7 -15  -3   42.64    2.82   0
   7 -15  -2   46.41    2.19   0
   7 -13 -26    0.57    1.78   0
   7 -13 -25   -2.53    2.49   0
   7 -13   4   15.88    2.62   0
   7   7  18    1.06    2.37   0
   7  11  16   35.41    2.04   0
   7  13  15    7.03    2.01   0
   7  15  13   -0.65    1.57   0
   7  17  11    0.13    2.13   0
   7  19   8   -0.69    2.00   0
   7  21   3    1.55    1.38   0
   8 -16 -18   -0.19    2.16   0
   8 -16  -3   17.52    2.37   0
   8 -14 -25   -0.97    2.42   0
   8 -14   4   -1.62    2.38   0
   8   0  19    0.25    2.17   0
   8   8  19    2.22    2.31   0
   8  10  18   11.10    1.65   0
   8  12  17    0.73    2.09   0
   8  18  11   -1.62    1.40   0
   8  20   8   -0.77    2.10   0
   9 -17 -18   -1.04    1.87   0
   9 -17 -17    0.65    2.11   0
   9 -17 -16    2.97    2.44   0
   9 -17  -5    3.00    2.37   0
   9 -17  -4    1.54    1.75   0
   9 -15   4    0.13    1.85   0
   9  -3  19   48.62    3.59   0
   9  11  19    0.27    1.89   0
   9  15  16    4.30    2.04   0
   9  17  14    0.64    2.16   0
   9  19  11    2.07    1.37   0
  10 -18 -15    4.43    1.80   0
  10 -18 -13    1.44    2.35   0
  10 -18 -12    1.95    2.31   0
  10 -18 -11   -2.81    2.22   0
  10 -18 -10    2.92    2.28   0
  10 -18  -8    0.29    2.31   0
  10 -18  -7    4.82    2.23   0
  10 -18  -6    0.05    1.73   0
  10 -16   3   -2.19    2.60   0
  10 -14   8    3.84    2.55   0
  10   0  21   -1.07    2.18   0
  10   8  21   -0.01    2.20   0
  10  10  20    0.95    1.59   0
  10  12  19    0.82    1.58   0
  10  14  18   -2.56    1.99   0
  10  16  16   -0.52    1.38   0
  10  18  14    1.93    1.97   0
  11 -17   2    2.21    2.15   0
  11 -11  14    0.40    2.84   0
  11   7  22    0.98    2.01   0
  11  15  18   -2.29    1.95   0
  12 -18   0   -0.83    2.39   0
  12  -2  22    0.09    2.18   0
  12   2  23    1.54    2.10   0
  12   4  23    0.26    1.50   0
  12   6  23   -0.49    1.88   0
  12  10  22    1.38    1.86   0
  12  12  21    1.90    2.11   0
  13 -17   5   -1.33    2.43   0
  13  -1  23    1.59    2.14   0
  14   2  24    0.35    0.97   0
  14   2  24   -0.40    1.00   0
  -1   3 -12    1.37    3.66   0
   0  -2 -17   -0.72    2.55   0
   0   2 -21   34.35    2.59   0
   0   8   0    7.29    2.44   0
   0  10 -18    2.56    3.09   0
   0  10  -2    3.04    2.85   0
   0  12 -12   13.03    2.09   0
   0  12 -11   11.93    2.39   0
   0  12 -10   18.03    2.51   0
   0  12  -9    1.64    2.42   0
   0  12  -8    3.51    2.52   0
   0  12  -7    1.56    2.22   0
   1  -5 -18    0.07    2.46   0
   1  -3 -22   13.56    1.97   0
   1  -3   2    6.37    3.51   0
   1  -1 -24    0.48    1.81   0
   1   3   6  463.49    7.33   0
   1   5   6    5.49    3.65   0
   1   7 -25    9.36    3.20   0
   1  13  -1   19.49    1.93   0
   1  15 -12   27.41    2.54   0
   1  15 -11    1.33    2.21   0
   1  15 -10    1.63    2.31   0
   1  15  -9    9.71    2.57   0
   1  15  -8   84.03    3.28   0
   1  15  -7    4.19    2.25   0
   2  -8 -17   21.26    2.19   0
   2  -8 -16   -1.66    2.32   0
   2  -8  -4   26.03    3.40   0
   2  -8  -3  234.55    4.18   0
   2  -6 -22    1.52    1.80   0
   2  -4 -25    5.00    1.80   0
   2   0 -28    8.85    2.28   0
   2   2   9    8.02    3.02   0
   2   4 -29    0.34    2.09   0
   2   4   9   38.37    2.84   0
   2   6   9    3.85    3.17   0
   2   8 -28    0.80    2.42   0
   2  10   7   24.49    2.06   0
   2  12   5    0.28    1.70   0
   2  14   2   12.09    1.78   0
   2  16 -18   -0.19    1.93   0
   2  16  -2   30.78    2.57   0
   3  -9 -20    7.16    1.77   0
   3  -9 -19    9.15    2.33   0
   3  -7 -24    0.30    2.13   0
   3  -7   4   14.08    3.20   0
   3  -5 -27   -0.06    2.01   0
   3  -3 -29   -2.62    2.17   0
   3  -3   9   32.61    6.78   0
   3  -1 -30   -0.19    2.50   0
   3   1 -31   -2.28    2.56   0
   3  11 -29   -0.13    3.45   0
   3  11   9   12.67    1.84   0
   3  13   7    2.87    1.74   0
   3  15 -25   -0.12    2.59   0
   3  15   5   23.62    2.39   0
   3  17 -21    1.77    2.22   0
   3  17   0    0.44    1.54   0
   3  17   1    8.44    2.22   0
   3  19 -12    1.58    2.03   0
   3  19 -11    2.41    2.08   0
   3  19 -10    1.52    2.33   0
   3  19  -9    2.49    2.03   0
   3  19  -8    2.54    1.99   0
   4 -12 -14   34.45    2.08   0
   4 -12 -13    1.87    1.76   0
   4 -12 -12   21.13    2.03   0
   4 -12 -11   41.57    2.63   0
   4 -12 -10    0.30    2.33   0
   4 -12  -9   27.30    2.40   0
   4 -12  -8    0.53    1.63   0
   4 -12  -7    2.65    1.96   0
   4 -10 -22    7.45    1.62   0
   4  -8 -26    0.96    1.68   0
   4  -6 -29    2.53    1.58   0
   4  -2 -32   -1.81    2.41   0
   4   0 -33   -0.77    2.61   0
   4   0  13    0.93    1.99   0
   4   4 -34    0.24    1.53   0
   4   4 -34    0.67    1.08   0
   4   8  13    2.13    1.90   0
   4  10  12    4.55    1.62   0
   4  12  11    2.92    2.26   0
   4  14   9   17.98    2.31   0
   4  16   6    2.44    1.56   0
   4  18   2    5.29    1.47   0
   4  20 -16    2.02    2.18   0
   4  20 -15    2.03    2.24   0
   4  20  -6    1.22    1.53   0
   4  20  -5    0.39    1.93   0
   4  20  -4    4.67    1.80   0
   5 -13 -16    2.27    1.94   0
   5 -13 -15   44.11    2.30   0
   5 -13 -14    0.49    2.47   0
   5 -13  -6    5.55    2.39   0
   5 -13  -5   10.46    1.82   0
   5 -11 -23   13.40    1.75   0
   5  -9 -27   -0.49    2.12   0
   5  -7 -30    0.80    1.94   0
   5  -5 -32    0.53    1.72   0
   5  -5 -32    0.31    1.14   0
   5  13  12   -1.96    1.67   0
   5  15  10    7.15    1.79   0
   5  17   7    2.10    1.57   0
   5  19   3    0.63    1.44   0
   5  19   4    3.03    1.75   0
   5  21  -4    2.75    1.40   0
   5  21  -3    1.14    2.02   0
   6 -14 -16    6.23    2.26   0
   6 -14  -5    6.20    2.57   0
   6 -12 -24   -0.93    1.60   0
   6 -12   3   15.50    2.73   0
   6 -10 -28   -1.87    1.94   0
   6   2  17   50.85    2.41   0
   6   6  17   -0.03    1.79   0
   6  10  16    0.58    2.43   0
   6  14  13   12.63    1.75   0
   6  16  11   10.82    2.31   0
   6  18   8    2.47    1.48   0
   6  20   4   -0.08    1.42   0
   6  22  -3   -0.52    1.38   0
   6  22  -2    1.78    2.08   0
   7 -15 -17    1.30    1.81   0
   7 -15 -16    2.14    2.31   0
   7 -15 -15    4.83    2.48   0
   7 -15  -5    1.72    2.47   0
   7 -15  -4   14.73    1.94   0
   7 -13 -24   -0.56    2.24   0
   7 -11 -29    0.65    1.62   0
   7 -11   8    3.52    2.39   0
   7  -9  11    0.49    2.58   0
   7  11  17    7.52    2.26   0
   7  15  14    8.27    2.29   0
   7  19   9    1.06    1.87   0
   7  21   4    1.02    1.42   0
   7  21   5   -0.69    1.66   0
   8 -16 -17   -0.33    1.86   0
   8 -16 -16    2.64    1.96   0
   8 -16 -15    1.84    2.33   0
   8 -16 -14    1.90    2.22   0
   8 -16  -6    2.56    2.24   0
   8 -16  -5    2.37    1.76   0
   8 -16  -4    5.38    1.80   0
   8 -14 -24   -0.46    2.59   0
   8 -12   8   31.48    2.90   0
   8   4  20    3.14    1.91   0
   8  14  16    1.44    1.52   0
   8  16  14    2.11    1.73   0
   8  18  12    0.90    2.00   0
   9 -17 -15   -0.49    1.80   0
   9 -17 -14   -0.09    1.70   0
   9 -17 -13    0.17    2.00   0
   9 -17 -12   -2.59    2.13   0
   9 -17 -11   -3.62    2.46   0
   9 -17 -10    8.50    2.47   0
   9 -17  -9   -2.20    2.40   0
   9 -17  -8    1.58    2.05   0
   9 -17  -7    2.46    1.78   0
   9 -17  -6    4.69    1.91   0
   9 -13   8    4.84    2.38   0
   9  -5  18    4.23    3.77   0
   9  -1  20   33.42    2.97   0
   9   3  21    2.66    2.00   0
   9   5  21    2.50    2.01   0
   9   9  20    5.68    1.67   0
   9  13  18   -0.35    1.57   0
   9  19  12   -1.20    1.47   0
  10 -16   2    3.13    2.61   0
  10   4  22    1.93    1.98   0
  10  12  20   16.60    2.26   0
  10  16  17   -3.17    1.75   0
  11 -17   1    0.09    1.88   0
  11 -15   7   -1.53    2.33   0
  11 -13  11    5.49    2.12   0
  11  -3  21   11.91    2.50   0
  11   9  22   -0.53    2.27   0
  11  11  21   -0.81    1.50   0
  11  13  20    0.18    1.48   0
  12 -18  -2   -0.69    2.54   0
  12 -18  -1    0.42    1.83   0
  12 -16   6    2.01    2.19   0
  12  -6  20    0.58    2.85   0
  12   0  23   -0.30    1.89   0
  12   8  23   -1.70    2.25   0
  13 -17   4   -0.27    2.38   0
  13 -13  13    0.44    2.18   0
  13   3  24   -0.31    2.11   0
  13   5  24    0.76    1.78   0
  14 -16   8    3.11    2.56   0
  14 -14  12    5.68    2.80   0
  14   0  24    0.41    2.15   0
  -1   3 -11   20.60    4.54   0
  -1   5  -6    2.93    3.33   0
  -1   7 -11   36.86    4.44   0
  -1   7 -10    0.75    3.22   0
  -1   7  -9  171.92    6.10   0
  -1   7  -8    7.17    3.43   0
   0  -2 -16   15.58    2.31   0
   0   0 -19    0.48    2.07   0
   0   4 -21    2.58    2.09   0
   0   4   2    4.24    3.43   0
   0   6   2  376.26    6.11   0
   0   8   1   87.69    3.75   0
   0  10  -1   23.24    3.06   0
   0  12 -14    1.22    2.26   0
   0  12 -13    3.51    1.97   0
   0  12  -6    0.71    1.80   0
   0  12  -5    2.33    2.64   0
   1  -5 -17    1.88    1.82   0
   1  -5  -2  232.84    5.14   0
   1  -3 -21   11.32    1.85   0
   1  -1 -23    8.05    2.62   0
   1   3 -25    0.81    2.55   0
   1   7   6    1.30    3.22   0
   1   9   5   21.11    3.03   0
   1  11   3   72.36    2.55   0
   1  13   0   -1.29    1.78   0
   1  15 -14    0.42    2.11   0
   1  15 -13    3.38    2.16   0
   1  15  -6    0.00    1.69   0
   1  15  -5   -1.02    2.35   0
   2  -8 -15   25.85    1.94   0
   2  -8 -14   42.37    2.85   0
   2  -8  -5  122.79    4.06   0
   2  -6 -21    4.37    1.85   0
   2  -4 -24    1.95    2.13   0
   2  -2 -26    3.36    2.26   0
   2   8   9   13.76    2.91   0
   2  10   8    3.24    2.38   0
   2  12   6   45.49    2.08   0
   2  14 -23    2.13    2.66   0
   2  14   3    5.98    1.73   0
   2  16 -19    0.01    2.09   0
   2  16  -1    7.64    1.76   0
   2  16   0    7.69    2.21   0
   3  -9 -18    7.11    2.32   0
   3  -9  -1  238.95    4.08   0
   3  -7 -23    1.75    2.23   0
   3  -3 -28   -1.40    2.43   0
   3   3  12    4.51    2.65   0
   3   5  12   19.18    2.43   0
   3   7 -31    0.43    1.94   0
   3   9  11   11.87    1.93   0
   3  11  10   10.18    2.37   0
   3  13   8    2.39    1.73   0
   3  15   6   27.50    2.30   0
   3  17   2   -1.12    2.23   0
   3  19 -15   -0.04    2.00   0
   3  19 -14   -0.31    2.24   0
   3  19 -13    0.29    1.62   0
   3  19  -7   -0.02    1.39   0
   3  19  -6    3.72    1.45   0
   3  19  -5    3.50    2.14   0
   4 -10 -21    3.57    1.61   0
   4 -10 -20    0.82    2.33   0
   4 -10   1   24.90    2.33   0
   4  -8 -25    1.56    1.54   0
   4  -6 -28    1.84    1.64   0
   4  -4 -30    2.26    2.01   0
   4   2  14    1.68    2.00   0
   4   4  14   25.45    2.22   0
   4   6  14   23.83    2.16   0
   4  10  13    5.38    2.11   0
   4  14  10   90.67    2.76   0
   4  16   7   28.49    1.88   0
   4  18   3   -1.27    1.33   0
   4  18   4   -1.36    1.79   0
   4  20 -17    0.59    2.25   0
   4  20  -3    3.13    1.54   0
   4  20  -2    2.22    2.09   0
   5 -13 -12    2.11    1.76   0
   5 -13 -11    9.80    1.97   0
   5 -13 -10   13.32    1.98   0
   5 -13  -9   12.48    2.04   0
   5 -13  -8    1.78    1.89   0
   5 -13  -7   31.96    2.11   0
   5 -11 -22    0.51    1.68   0
   5 -11 -21    0.05    2.06   0
   5 -11   2    2.19    2.39   0
   5  -9 -26    2.48    1.99   0
   5  -7 -29    0.24    2.26   0
   5  -3 -33    1.03    2.04   0
   5  -1 -34   -0.68    2.15   0
   5   3  16   -0.48    2.21   0
   5   5  16   26.38    2.80   0
   5   9  15   15.68    1.86   0
   5  11  14    1.80    1.66   0
   5  13  13    5.93    2.29   0
   5  15  11    0.68    2.17   0
   5  17   8    0.87    1.57   0
   5  19   5    0.30    1.98   0
   5  21  -2    1.74    1.47   0
   5  21  -1    1.62    1.99   0
   6 -14 -14    5.82    1.72   0
   6 -14 -13    4.92    1.86   0
   6 -14 -12   -0.70    2.14   0
   6 -14 -11    4.78    2.43   0
   6 -14 -10    1.42    2.39   0
   6 -14  -9   13.02    2.43   0
   6 -14  -8   10.55    2.31   0
   6 -14  -6    4.11    1.91   0
   6 -12 -23   -0.79    1.60   0
   6 -12 -22    2.96    2.39   0
   6 -10 -27    1.01    1.96   0
   6  -8 -30   -2.28    2.32   0
   6   8  17   15.05    1.99   0
   6  12  15   -1.58    1.58   0
   6  14  14   13.56    2.22   0
   6  16  12   21.05    2.38   0
   6  18   9    2.16    1.61   0
   6  20   5   -0.57    1.41   0
   6  22  -1   -0.62    1.38   0
   6  22   0    1.95    2.01   0
   7 -15 -14   13.73    1.95   0
   7 -15 -13    2.13    1.91   0
   7 -15 -12    4.91    2.07   0
   7 -15 -11   -2.07    2.07   0
   7 -15 -10    2.20    2.38   0
   7 -15  -9   12.60    2.36   0
   7 -15  -8    6.04    2.17   0
   7 -15  -7   -0.12    1.67   0
   7 -15  -6   -1.81    1.69   0
   7 -13 -23    3.36    1.89   0
   7 -13   3   11.40    2.32   0
   7 -11 -28   -2.06    1.48   0
   7   3  19    1.07    2.13   0
   7   5  19   10.90    2.35   0
   7   9  18    4.90    1.61   0
   7  13  16    7.90    1.58   0
   7  17  12    6.97    1.70   0
   7  19  10    5.56    1.83   0
   7  21   6   -0.97    2.14   0
   8 -16 -13    0.66    1.65   0
   8 -16 -12    1.75    1.77   0
   8 -16 -11    2.83    1.68   0
   8 -16 -10    8.14    1.79   0
   8 -16  -9    3.10    1.63   0
   8 -16  -8    1.93    1.68   0
   8 -16  -7    1.92    1.71   0
   8 -14 -23    2.41    1.85   0
   8 -14   3    3.30    1.85   0
   8   2  20    4.54    2.06   0
   8   6  20    6.23    1.73   0
   8   8  20    0.96    2.08   0
   8  10  19    5.69    1.71   0
   8  12  18    8.90    1.71   0
   8  14  17   -1.31    1.86   0
   8  16  15   -1.38    1.61   0
   8  18  13   -2.08    2.03   0
   8  20  10    1.89    2.13   0
   9 -15 -23   -2.93    1.68   0
   9 -15 -22   -0.37    2.45   0
   9 -15   2    9.11    2.38   0
   9  -9  14    6.98    3.31   0
   9   1  21    6.69    1.99   0
   9   7  21    0.32    1.58   0
   9  11  20    3.29    1.94   0
   9  15  17   -0.54    1.52   0
   9  17  15    0.07    1.54   0
   9  19  13   -1.24    2.09   0
  10 -16   1    1.21    2.53   0
  10 -14   7    3.97    2.45   0
  10 -12  11    5.56    2.23   0
  10 -10  14    0.21    2.85   0
  10   2  22    2.49    2.05   0
  10   6  22   -0.92    1.72   0
  10   8  22    1.62    1.80   0
  10  10  21    8.68    1.83   0
  10  14  19   -0.91    1.46   0
  11 -17  -1   -1.41    2.29   0
  11  -5  20    0.62    2.53   0
  11  -1  22    4.80    2.35   0
  11   3  23   -0.49    2.04   0
  11   5  23    0.04    1.38   0
  11   7  23   -0.20    1.80   0
  11  15  19   -0.21    0.97   0
  12 -18  -4    0.89    2.52   0
  12 -18  -3    0.37    2.27   0
  12 -16   5    3.35    2.51   0
  12 -14  10   -0.83    2.06   0
  12 -10  16    1.84    3.00   0
  12  10  23    0.89    1.82   0
  13 -15   9   -1.00    2.19   0
  13   1  24   -0.20    2.13   0
  13   7  24    0.34    0.87   0
  14 -12  15    1.14    2.66   0
  -1   3 -10   13.95    5.03   0
  -1   3  -8    7.21    6.94   0
  -1   7  -7    5.32    3.09   0
   0  -2 -15    5.01    2.15   0
   0   0 -18   54.28    3.06   0
   0   2 -20    8.63    2.04   0
   0  10   0   51.06    3.16   0
   0  12 -15   -0.57    2.22   0
   0  12  -4    0.33    2.64   0
   1  -5 -16   21.73    2.14   0
   1  -5 -15   47.60    3.13   0
   1  -5  -3   24.83    4.01   0
   1  -3 -20   19.96    2.60   0
   1   5 -25    3.95    2.20   0
   1  11   4   51.86    3.01   0
   1  13 -20    2.36    2.33   0
   1  13   1    3.05    1.73   0
   1  15 -15   -1.93    2.05   0
   1  15  -4    9.76    1.84   0
   1  15  -3    1.85    2.40   0
   2  -8 -13    9.77    1.98   0
   2  -8 -12   41.94    2.34   0
   2  -8 -11    1.99    1.94   0
   2  -8 -10  103.58    3.51   0
   2  -8  -9   13.53    3.00   0
   2  -8  -8    1.60    3.01   0
   2  -8  -7   10.40    2.21   0
   2  -8  -6   -0.54    2.23   0
   2  -6 -20    8.93    1.94   0
   2  -6   1    2.20    3.27   0
   2  -4 -23    1.17    2.53   0
   2  -2   7   11.31    5.65   0
   2   0 -27   -3.03    2.24   0
   2   4  10   37.94    3.41   0
   2   6  10   33.42    3.07   0
   2  12   7   14.47    2.44   0
   2  14   4    3.89    1.49   0
   2  16   1   -1.11    2.34   0
   2  18 -11   -0.68    2.21   0
   2  18 -10   -0.42    2.52   0
   2  18  -9    2.80    2.43   0
   2  18  -8    3.63    2.18   0
   2  18  -7    0.97    1.87   0
   3  -9 -17   18.63    1.95   0
   3  -9 -16   25.08    2.60   0
   3  -9  -2    0.16    2.09   0
   3  -7 -22   -1.12    2.15   0
   3  -5 -25    2.13    2.11   0
   3  -1 -29   -0.31    2.63   0
   3   1 -30    0.31    2.50   0
   3   5 -31   -0.92    2.00   0
   3   7  12   58.16    2.39   0
   3   9 -30    0.45    2.68   0
   3  13   9   24.09    2.44   0
   3  17 -22    0.91    2.11   0
   3  17   3    7.16    1.66   0
   3  19 -16    2.03    2.28   0
   3  19  -4    1.93    1.55   0
   3  19  -3    3.15    2.20   0
   3  19  -2   -0.52    1.94   0
   4 -10 -19   -2.81    1.71   0
   4 -10   0   69.62    3.10   0
   4  -8 -24   10.27    1.70   0
   4  -8   5    1.81    2.53   0
   4  -6 -27   -1.23    2.05   0
   4  -2 -31    3.42    2.03   0
   4   0 -32    2.19    2.29   0
   4   2 -33   -0.31    2.11   0
   4   6 -33   -0.51    2.33   0
   4   8  14    3.05    1.89   0
   4  12  12   42.65    2.03   0
   4  16   8   13.03    1.66   0
   4  18   5   -0.65    2.05   0
   4  20  -1    0.36    1.55   0
   4  20   0    2.16    1.90   0
   5 -11 -20    2.12    2.19   0
   5 -11   1   23.96    2.82   0
   5  -9 -25    2.88    1.95   0
   5  -9   6   19.23    2.53   0
   5  -7 -28   -0.78    2.18   0
   5  -5 -31    1.88    1.68   0
   5   7  16    1.37    1.68   0
   5  11  15   -0.15    2.02   0
   5  17   9    2.72    1.53   0
   5  19   6    3.31    2.01   0
   5  21   0    2.28    1.55   0
   5  21   1    3.70    2.06   0
   6 -12 -21    0.49    2.22   0
   6 -12   2   31.02    2.65   0
   6 -10 -26   -1.18    1.99   0
   6 -10   7   91.42    3.26   0
   6  -8 -29   -1.60    2.32   0
   6  -6 -32   -1.31    1.67   0
   6  -2  16    0.87    2.05   0
   6   0  17    1.78    1.93   0
   6   4  18    3.39    2.23   0
   6   6  18    0.73    2.53   0
   6  10  17    0.51    2.38   0
   6  12  16   20.38    2.32   0
   6  18  10    0.27    1.65   0
   6  20   6    0.77    1.43   0
   6  20   7    2.14    1.89   0
   6  22   1    1.80    1.46   0
   6  22   2   -1.12    1.65   0
   7 -13 -22    0.62    1.99   0
   7 -13 -21   -0.94    2.48   0
   7 -13   2    2.36    2.48   0
   7 -11 -27    0.01    1.54   0
   7  -9 -30    2.78    1.86   0
   7  -3  17    3.54    2.63   0
   7  -1  18   19.20    2.44   0
   7   7  19    0.20    1.62   0
   7  11  18    1.14    2.15   0
   7  13  17    1.95    1.93   0
   7  15  15    2.33    1.44   0
   7  17  13    7.32    1.66   0
   7  21   7    2.87    2.13   0
   8 -14 -22   -0.20    1.87   0
   8 -14 -21   -1.05    2.37   0
   8 -14   2   24.07    2.45   0
   8 -12 -27    3.21    1.66   0
   8 -10  11    1.05    2.29   0
   8  16  16    1.72    1.90   0
   8  20  11    3.05    2.05   0
   9 -15 -21    0.20    1.64   0
   9 -13   7    0.83    2.67   0
   9 -11  11    0.46    2.29   0
   9   9  21   -0.28    1.60   0
   9  13  19   -0.45    1.70   0
   9  15  18   -0.35    2.05   0
   9  17  16    0.39    1.53   0
  10 -16 -20   -0.28    1.18   0
  10 -16 -20    0.50    1.22   0
  10 -16 -19   -0.39    2.56   0
  10 -16   0    2.27    2.04   0
  10  -2  21    0.84    2.22   0
  10  12  21    1.57    2.21   0
  10  16  18   -1.80    1.38   0
  11 -17  -3    2.37    2.50   0
  11 -17  -2    5.41    2.21   0
  11 -15   6    0.25    1.93   0
  11   1  23   -0.98    2.13   0
  11   9  23    1.61    2.00   0
  11  11  22    1.07    1.61   0
  11  13  21   -0.64    1.46   0
  12 -18 -10    0.82    2.17   0
  12 -18  -9    4.69    2.30   0
  12 -18  -8   -1.24    2.32   0
  12 -18  -7   -1.07    2.33   0
  12 -18  -6   -0.19    2.16   0
  12 -18  -5    5.30    1.92   0
  12   2  24    1.08    1.67   0
  12   4  24   -0.01    1.42   0
  12   6  24   -0.55    1.31   0
  12   8  24   -0.11    1.91   0
  13 -17   3    0.63    1.19   0
  13 -17   3   -0.66    1.17   0
  14 -16   7    1.21    2.19   0
  14 -16   7    0.11    1.16   0
  -1   3  -9    5.12    5.37   0
  -1   5  -5    0.12    3.45   0
  -1   7 -12    6.24    3.70   0
  -1   7  -6    3.73    3.00   0
   0  -2 -14   13.21    2.33   0
   0  -2 -13   16.22    2.78   0
   0  -2  -4   18.46    3.43   0
   0   2   2   29.58    5.64   0
   0   6   3    9.75    3.55   0
   0   8   2   28.40    2.32   0
   0  10   1   24.30    3.00   0
   0  12  -3   85.44    2.78   0
   0  12  -2   34.11    2.92   0
   1  -5 -14    5.75    1.98   0
   1  -5 -13   15.43    3.00   0
   1  -5  -4    6.31    3.78   0
   1  -3 -19    1.71    2.48   0
   1  -1 -22    3.85    1.76   0
   1   5   7  290.48    4.87   0
   1   7   7    4.77    3.09   0
   1   9   6    9.82    2.11   0
   1  11   5   73.19    3.06   0
   1  13   2   -0.83    1.75   0
   1  15 -16    0.08    1.89   0
   1  15  -2    6.84    1.70   0
   1  15  -1    1.88    2.07   0
   2  -6 -19   10.91    1.86   0
   2  -6 -18   27.97    2.64   0
   2  -4 -22    0.26    2.42   0
   2  -2 -25    2.87    1.73   0
   2   4 -28    4.12    2.06   0
   2   6 -28    0.42    1.93   0
   2   8  10   71.86    3.34   0
   2  10   9    2.04    2.55   0
   2  14   5   41.20    2.15   0
   2  16 -20    1.31    2.22   0
   2  16   2    1.48    2.33   0
   2  18 -14    1.09    2.12   0
   2  18 -13    0.72    2.42   0
   2  18 -12   -0.31    1.86   0
   2  18  -6    0.91    1.58   0
   2  18  -5   10.12    2.04   0
   2  18  -4   -2.38    1.97   0
   3  -9 -15   -1.12    1.65   0
   3  -9 -14   38.77    2.74   0
   3  -9  -4    1.03    2.85   0
   3  -9  -3   10.00    2.22   0
   3  -7 -21   14.62    2.44   0
   3  -7   3  125.18    4.21   0
   3  -3 -27    0.91    2.10   0
   3   1  12   63.60    3.03   0
   3   9  12   30.32    2.00   0
   3  11  11   -0.17    1.60   0
   3  15   7    5.54    1.73   0
   3  17   4    0.70    1.57   0
   3  19 -17    1.77    2.33   0
   3  19  -1    2.82    1.60   0
   4 -10 -18    1.97    1.78   0
   4 -10 -17    1.82    2.13   0
   4 -10  -1   89.90    3.41   0
   4  -8 -23    0.58    1.62   0
   4  -6 -26    0.65    2.22   0
   4  -4 -29    0.93    1.66   0
   4   4 -33   -0.41    1.61   0
   4   4 -33   -0.43    1.11   0
   4   4  15    1.83    2.28   0
   4   6  15    1.96    2.51   0
   4  10  14   38.11    2.66   0
   4  12  13    3.98    2.12   0
   4  14  11   32.72    1.91   0
   4  16   9    3.59    2.20   0
   4  18   6   -0.29    2.12   0
   4  20   1    3.57    1.58   0
   5 -11 -19    0.54    1.71   0
   5 -11   0    3.59    2.65   0
   5  -9 -24    0.93    2.02   0
   5  -5 -30    0.59    2.10   0
   5  -3 -32    0.23    1.68   0
   5  -1 -33   -1.73    2.42   0
   5  -1  15    4.98    2.13   0
   5   1 -34    1.06    2.54   0
   5   1  16    2.47    1.99   0
   5   9  16   15.87    2.01   0
   5  13  14   -1.98    1.63   0
   5  15  12    1.24    1.56   0
   5  17  10    2.87    1.62   0
   5  19   7    1.49    2.00   0
   5  21   2    2.24    1.44   0
   5  21   3    2.92    1.79   0
   6 -12 -20    2.23    1.82   0
   6 -12 -19    1.22    2.30   0
   6 -12   1    4.02    2.58   0
   6 -10 -25    0.01    1.69   0
   6  -8  10    4.23    2.84   0
   6  -6 -31    1.26    2.07   0
   6  -4 -33   -0.18    1.65   0
   6  -4 -33    0.09    1.13   0
   6   2  18   49.59    2.87   0
   6   8  18   24.64    2.07   0
   6  14  15   -0.67    1.58   0
   6  16  13    2.93    1.59   0
   6  18  11    4.66    2.32   0
   6  22   3    0.34    1.78   0
   7 -13 -20    1.62    1.95   0
   7 -13   1    0.55    2.56   0
   7 -11 -26   -0.71    1.54   0
   7 -11 -25    0.96    2.15   0
   7 -11   7  136.05    4.07   0
   7  -9 -29    2.15    1.90   0
   7   1  19    4.66    2.07   0
   7   9  19    1.25    1.57   0
   7  15  16   -1.13    2.03   0
   7  17  14   -2.02    2.23   0
   7  19  11   11.85    1.60   0
   7  21   8    1.46    1.45   0
   8 -14 -20    0.15    1.79   0
   8 -14 -19    3.88    2.60   0
   8 -14   1    5.26    2.32   0
   8 -12 -26   -0.11    1.77   0
   8 -12   7    3.67    2.22   0
   8  -2  19   -0.87    2.04   0
   8   0  20    3.36    2.19   0
   8   4  21    0.27    2.01   0
   8   6  21    4.02    2.18   0
   8  10  20    3.12    1.73   0
   8  12  19    1.36    1.62   0
   8  14  18    2.37    1.57   0
   8  18  14    0.31    1.55   0
   8  20  12    1.64    1.84   0
   9 -15 -19    0.31    1.72   0
   9 -15 -18   -2.10    2.43   0
   9 -13 -25   -0.22    2.39   0
   9   3  22    7.72    1.89   0
   9   5  22    4.41    2.25   0
   9   7  22    0.23    2.17   0
   9  11  21    1.56    2.20   0
   9  13  20    2.91    2.13   0
   9  17  17    1.24    2.14   0
  10 -16 -18   -0.14    1.96   0
  10 -16 -17    1.20    2.51   0
  10 -16  -2    3.95    2.49   0
  10 -16  -1    1.39    1.55   0
  10 -14   6    2.98    2.58   0
  10  -4  20    0.59    2.59   0
  10   0  22    0.11    2.16   0
  10   4  23    5.33    2.19   0
  10   6  23    4.71    2.25   0
  10  10  22   -0.67    1.58   0
  10  14  20   -0.26    1.48   0
  11 -17 -16   -1.11    1.78   0
  11 -17 -15   -1.73    1.79   0
  11 -17 -14   -0.95    2.34   0
  11 -17 -13   -0.46    2.15   0
  11 -17  -5    0.79    2.17   0
  11 -17  -4   -1.45    1.78   0
  11 -15   5    0.18    2.61   0
  11 -13  10    8.94    2.40   0
  12 -14   9    0.65    2.50   0
  12 -12  13    0.20    2.21   0
  13 -17   1    4.17    2.45   0
  13 -15   8   -0.15    2.21   0
  13 -13  12    0.79    2.57   0
  13  -3  23    0.42    2.52   0
  13  -1  24    0.41    2.36   0
  13   3  25    5.83    2.35   0
  13   5  25    1.33    0.97   0
  14 -14  11    0.86    2.34   0
  14  -4  23   -0.41    2.80   0
  14  -2  24   -0.33    1.85   0
  -1   5  -4   18.75    3.94   0
  -1   7  -5   56.48    3.82   0
   0  -2 -12    1.57    3.32   0
   0  -2  -5   13.39    4.50   0
   0   0 -17    0.06    1.69   0
   0   4 -20    6.75    2.19   0
   0   4   3    2.26    3.24   0
   0   6 -20    6.16    2.97   0
   0   8   3  218.93    4.65   0
   0  12 -16    2.02    2.43   0
   0  12  -1   -0.67    2.53   0
   1  -5 -12    3.89    2.19   0
   1  -5 -11    0.62    3.17   0
   1  -5  -6   28.41    3.94   0
   1  -5  -5    9.98    2.65   0
   1  -3 -18    3.43    2.66   0
   1  -1 -21   13.64    2.76   0
   1   1   6 1635.80   14.91   0
   1   3 -24    3.83    2.23   0
   1   3   7   52.39    3.36   0
   1   9   7    5.80    2.92   0
   1  13   3    1.36    1.65   0
   1  15 -17    1.39    1.91   0
   1  15   0   14.35    2.55   0
   2  -6 -17   -1.06    2.43   0
   2  -6   0  112.13    4.60   0
   2  -2 -24   -2.26    2.40   0
   2   0 -26    7.32    2.08   0
   2   2  10   85.01    3.82   0
   2  12   8    3.38    1.67   0
   2  14   6   17.97    1.88   0
   2  16   3    3.69    1.71   0
   2  18 -15   -0.48    2.45   0
   2  18  -3    3.28    1.62   0
   2  18  -2    1.75    2.16   0
   3  -9 -13   17.58    1.88   0
   3  -9 -12   -0.12    1.79   0
   3  -9 -11   23.29    2.74   0
   3  -9 -10    1.75    2.62   0
   3  -9  -9   -2.61    2.73   0
   3  -9  -8   22.92    2.97   0
   3  -9  -7   44.70    3.15   0
   3  -9  -6   11.63    2.87   0
   3  -9  -5  114.84    3.02   0
   3  -7 -20    5.32    1.88   0
   3  -5 -24    0.06    1.62   0
   3  -3 -26    1.74    2.31   0
   3  -1 -28    2.23    2.56   0
   3   3  13    0.18    2.47   0
   3   5  13   81.66    2.90   0
   3   7  13   67.10    2.55   0
   3  11  12   11.12    2.16   0
   3  13  10   34.70    2.04   0
   3  15   8   17.43    1.78   0
   3  17 -23    0.32    2.09   0
   3  17   5    9.09    1.70   0
   3  19 -18    0.57    1.93   0
   3  19   0    1.98    1.60   0
   3  19   1    5.23    1.97   0
   4 -10 -16    5.41    1.78   0
   4 -10 -15    0.24    2.37   0
   4 -10  -2  104.30    3.01   0
   4  -8 -22   -0.64    1.69   0
   4  -6   8   72.54    4.86   0
   4  -4 -28    1.21    1.94   0
   4  -2 -30    0.74    1.76   0
   4   0 -31    0.52    2.37   0
   4   2 -32    2.46    2.58   0
   4   8  15   17.60    2.01   0
   4  14  12    1.85    2.32   0
   4  16  10    7.21    2.19   0
   4  18   7    1.57    2.14   0
   4  20   2    0.45    1.62   0
   4  20   3    0.43    2.08   0
   4  22 -11   -0.23    1.88   0
   4  22 -10    0.79    2.12   0
   4  22  -9    2.72    2.03   0
   4  22  -8   -2.04    2.12   0
   4  22  -7    0.72    2.10   0
   4  22  -6    1.05    1.94   0
   5 -11 -17    1.55    1.78   0
   5 -11  -1   -1.31    2.63   0
   5  -9 -23   -1.92    1.92   0
   5  -7 -27    4.11    1.72   0
   5  -5 -29   -0.89    2.04   0
   5  -3 -31    2.15    2.13   0
   5   3  17   14.23    2.20   0
   5   5  17    1.16    1.75   0
   5   7  17   39.17    2.10   0
   5  11  16    7.55    2.46   0
   5  13  15   13.32    2.07   0
   5  15  13   -0.75    1.59   0
   5  17  11   -2.89    2.26   0
   5  19   8    2.48    1.58   0
   5  21   4    2.44    2.01   0
   6 -12 -18   16.91    2.04   0
   6 -12 -17   -1.09    2.38   0
   6 -12   0    1.55    2.56   0
   6 -10 -24   -0.18    1.55   0
   6 -10   6   45.61    2.99   0
   6  -8 -28   -0.78    1.65   0
   6  -6 -30    1.04    2.22   0
   6  10  18   12.01    2.35   0
   6  12  17    0.23    1.53   0
   6  14  16    6.22    2.24   0
   6  16  14    0.11    1.56   0
   6  18  12    2.45    2.30   0
   6  20   9   -0.29    2.28   0
   6  22   4   -0.45    1.33   0
   6  22   5    1.75    1.61   0
   7 -13 -19    3.01    1.79   0
   7 -13 -18    3.67    2.36   0
   7 -13   0    1.03    2.60   0
   7  -9 -28    3.28    2.22   0
   7  -7 -31    0.46    1.99   0
   7   3  20   12.82    2.03   0
   7   5  20    8.65    1.88   0
   7   7  20    0.18    1.67   0
   7  11  19   14.67    2.24   0
   7  13  18    6.98    2.17   0
   7  17  15   -0.44    1.96   0
   7  19  12    1.32    1.35   0
   7  21   9    0.09    1.50   0
   8 -14 -18    0.39    1.86   0
   8 -14 -17   11.01    2.65   0
   8 -14   0    8.78    1.98   0
   8 -12 -25    0.17    1.91   0
   8 -12 -24   -0.78    2.50   0
   8 -10 -29    0.44    1.57   0
   8   2  21    1.45    1.98   0
   8   8  21    2.96    1.66   0
   8  12  20   -0.56    2.04   0
   8  16  17    1.29    1.53   0
   8  18  15    2.10    1.63   0
   9 -15 -17   -0.03    1.83   0
   9 -15  -2    1.92    2.18   0
   9 -15  -1    2.42    1.68   0
   9 -13 -24    2.34    2.17   0
   9 -13   6   -1.28    2.72   0
   9   9  22   -0.61    2.07   0
   9  15  19   -1.03    1.47   0
  10 -16 -16   -0.18    1.83   0
  10 -16 -15    1.30    1.79   0
  10 -16 -14    0.54    2.33   0
  10 -16 -13   -0.01    2.29   0
  10 -16  -4    1.46    2.35   0
  10 -16  -3   -1.15    1.78   0
  10 -14 -23    3.32    2.50   0
  10 -12  10    0.19    2.69   0
  10   2  23    0.56    1.81   0
  10   8  23    6.95    1.76   0
  10  12  22   -1.40    2.23   0
  10  14  21    0.17    2.01   0
  11 -17 -12    0.12    1.59   0
  11 -17 -11    2.38    1.61   0
  11 -17 -10    2.75    1.77   0
  11 -17  -9    1.54    1.68   0
  11 -17  -8    4.03    1.85   0
  11 -17  -7   -0.26    1.76   0
  11 -17  -6    3.17    1.76   0
  11 -15   4    1.50    2.70   0
  11   3  24    4.88    2.04   0
  11   5  24   -0.49    1.46   0
  11   7  24   -0.02    1.51   0
  11   9  24   -2.17    2.02   0
  11  11  23    1.07    1.65   0
  12 -16   3   -0.05    1.85   0
  12  -2  23    0.59    2.01   0
  12   0  24    0.36    2.38   0
  12   6  25    0.39    1.59   0
  13 -17   0   -1.10    2.36   0
  14 -16   6    0.63    2.00   0
  -1   7  -4   21.45    2.64   0
  -1   9 -10   40.30    3.16   0
  -1   9  -9    4.74    2.47   0
  -1   9  -8   58.30    3.28   0
  -1   9  -7   10.57    2.60   0
  -1   9  -6    7.85    2.60   0
   0  -2 -11   15.62    2.74   0
   0  -2 -10   46.83    3.77   0
   0  -2  -9   27.17    3.77   0
   0  -2  -8   89.11    4.63   0
   0  -2  -7  123.53    5.20   0
   0  -2  -6   41.14    3.51   0
   0   0 -16   27.17    2.85   0
   0   6   4    1.42    3.70   0
   0  10   2    1.81    2.00   0
   0  12   0    1.06    1.87   0
   0  14 -11    6.45    2.26   0
   0  14 -10    0.95    2.36   0
   0  14  -9   37.29    2.37   0
   0  14  -8    9.42    1.98   0
   0  14  -7   15.17    1.90   0
   0  14  -6    7.47    2.49   0
   0  14  -5    5.66    2.42   0
   1  -5 -10  102.65    3.24   0
   1  -5  -9   27.06    2.41   0
   1  -5  -8    2.70    2.58   0
   1  -5  -7   88.74    3.52   0
   1  -3 -17   13.86    2.86   0
   1  -3   1   44.42    5.50   0
   1   5 -24    0.50    2.39   0
   1   5   8  105.41    4.04   0
   1   7 -24    1.25    2.67   0
   1   7   8    6.10    3.02   0
   1  11   6   13.46    1.91   0
   1  13   4   55.25    2.17   0
   1  15   1    0.10    1.69   0
   1  17 -11    1.29    2.27   0
   1  17 -10   -0.03    2.30   0
   1  17  -9   -2.63    2.36   0
   1  17  -8    3.81    2.08   0
   1  17  -7   24.73    2.45   0
   1  17  -6    0.58    2.28   0
   1  17  -5    2.20    2.10   0
   2  -6 -16    9.20    1.90   0
   2  -4 -21   23.91    2.19   0
   2   0   9    0.14    2.47   0
   2   4 -27   -0.71    2.51   0
   2   4  11   -0.30    2.82   0
   2   6  11   16.28    2.21   0
   2   8  11    9.46    2.79   0
   2  10  10   12.77    1.90   0
   2  12   9    7.11    2.31   0
   2  14   7   29.37    2.02   0
   2  16 -21    0.66    2.18   0
   2  16   4   13.03    1.78   0
   2  18 -16   -0.73    2.11   0
   2  18  -1    0.10    1.50   0
   2  18   0    3.49    2.23   0
   3  -7 -19   24.13    2.12   0
   3  -7   2    1.36    2.92   0
   3  -5 -23    1.53    1.72   0
   3  -1  11   10.95    2.88   0
   3   1 -29   -2.38    1.86   0
   3   5 -30   -0.92    2.11   0
   3   7 -30   -0.54    1.94   0
   3   9  13   24.21    1.96   0
   3  13  11   16.65    1.78   0
   3  15   9   -0.03    1.71   0
   3  17   6    3.12    1.55   0
   3  19 -19    0.36    1.97   0
   3  19   2    6.78    1.55   0
   3  19   3    4.07    1.88   0
   3  21 -10    1.02    2.02   0
   3  21  -9   -1.72    1.95   0
   3  21  -8   -1.27    1.74   0
   3  21  -7    9.38    1.99   0
   4 -10 -14    4.64    1.85   0
   4 -10 -13    0.79    1.68   0
   4 -10 -12    0.58    2.33   0
   4 -10  -4    1.74    2.58   0
   4 -10  -3   25.46    2.25   0
   4  -8 -21   11.90    1.97   0
   4  -8   4   97.06    3.71   0
   4  -6 -25    2.41    1.77   0
   4  -2 -29    1.26    2.51   0
   4   0  14  221.60    4.74   0
   4   2  15    6.78    2.29   0
   4   4 -32   -0.33    2.16   0
   4   8 -32    0.14    2.17   0
   4  10  15   33.26    2.55   0
   4  12  14   -1.61    1.68   0
   4  16  11    4.06    2.04   0
   4  18   8    2.15    2.30   0
   4  20   4   -1.07    1.57   0
   4  22 -12    0.87    1.10   0
   4  22  -5   -0.20    1.64   0
   4  22  -4    1.83    1.53   0
   4  22  -3   -1.26    2.25   0
   5 -11 -16   16.94    1.94   0
   5 -11 -15   13.21    1.91   0
   5 -11 -14    0.84    2.36   0
   5 -11  -2    4.41    2.57   0
   5  -9 -22    0.45    1.63   0
   5  -9   5    3.74    2.38   0
   5  -7 -26   -0.34    1.63   0
   5  -7   9   62.12    3.86   0
   5  -3  14   14.38    3.54   0
   5  -1 -32   -0.45    2.38   0
   5   1 -33   -0.31    2.53   0
   5   3 -34   -0.86    1.58   0
   5   3 -34    0.40    1.10   0
   5   9  17   -0.67    1.77   0
   5  15  14    0.55    2.12   0
   5  17  12    3.86    2.38   0
   5  19   9   -0.45    1.65   0
   5  21   5    0.21    1.42   0
   5  23  -3   -0.07    1.05   0
   5  23  -2    2.88    1.52   0
   5  23  -1   -0.37    1.70   0
   6 -12 -16    8.31    1.86   0
   6 -12  -1    2.09    2.25   0
   6 -10 -23    2.25    1.56   0
   6  -8 -27   -0.73    1.62   0
   6  -4 -32   -0.65    1.82   0
   6   4  19   22.97    2.50   0
   6   6  19   22.62    2.19   0
   6   8  19    4.23    2.41   0
   6  16  15    1.35    2.31   0
   6  18  13   -0.45    1.91   0
   6  20  10   -1.89    2.27   0
   6  22   6   -0.18    1.96   0
   7 -13 -17    1.22    1.85   0
   7 -13 -16    9.26    2.49   0
   7 -13 -15   15.39    2.47   0
   7 -13  -1   70.49    2.98   0
   7 -11 -23    1.49    2.02   0
   7 -11   6    0.40    2.62   0
   7  -9 -27    0.80    2.17   0
   7  -7 -30    1.65    2.30   0
   7   9  20    0.84    1.65   0
   7  15  17   -2.04    1.53   0
   7  19  13    0.54    1.50   0
   7  21  10    0.68    1.43   0
   8 -14 -16   -0.15    1.73   0
   8 -14  -2   -1.04    2.22   0
   8 -14  -1   10.25    1.90   0
   8 -12 -23   -0.77    2.51   0
   8 -12   6   66.88    3.11   0
   8 -10 -28   -1.15    1.46   0
   8  -4  18    4.01    3.06   0
   8  10  21    0.16    1.66   0
   8  14  19    2.36    1.50   0
   8  16  18    2.80    2.19   0
   8  18  16   -2.94    2.11   0
   9 -15 -15    0.14    1.93   0
   9 -15 -14   -1.52    2.09   0
   9 -15  -4    6.74    2.48   0
   9 -15  -3   -0.68    1.70   0
   9 -13 -23   -1.96    1.80   0
   9  -1  21    5.68    2.29   0
   9   1  22    0.75    1.83   0
   9  11  22   12.69    2.36   0
   9  13  21    6.36    1.66   0
   9  15  20    3.61    1.96   0
   9  17  18    0.99    1.56   0
  10 -16 -12   -0.65    1.60   0
  10 -16 -11    0.65    1.81   0
  10 -16 -10    0.65    1.84   0
  10 -16  -8    1.42    1.69   0
  10 -16  -7    3.21    1.78   0
  10 -16  -6    6.13    1.93   0
  10 -16  -5   -2.17    1.69   0
  10 -14   5    0.16    1.93   0
  10  10  23    2.97    1.79   0
  11 -15   3   -1.17    2.60   0
  11 -13   9    0.46    2.44   0
  11 -11  13    0.41    2.47   0
  11  -9  16    0.63    2.95   0
  11  -1  23    0.64    2.54   0
  12 -16   1   -0.66    2.47   0
  12 -16   2    2.01    1.80   0
  12 -14   8    0.56    2.69   0
  12  -4  22    0.80    3.14   0
  12   4  25    0.26    1.04   0
  12   4  25    0.16    1.02   0
  12   8  25    0.87    0.92   0
  13 -17  -2    2.10    2.57   0
  13 -17  -1    0.90    1.83   0
  13 -15   7    0.87    1.21   0
  13 -15   7    0.35    1.16   0
  13 -11  15    1.69    2.67   0
  13   1  25   -0.02    2.02   0
  14 -16   5   -0.45    1.63   0
  14 -16   5    1.26    1.16   0
  -1   5  -3   26.55    4.16   0
  -1   7  -3   11.04    2.25   0
  -1   9 -11    1.12    2.15   0
  -1   9  -5   18.42    2.15   0
  -1   9  -4  442.92    6.01   0
   0   0 -15   -0.86    2.55   0
   0   4   4  107.46    5.14   0
   0   8   4    5.69    2.32   0
   0  10   3   23.78    2.17   0
   0  12 -17    0.57    2.66   0
   0  12   1    0.53    1.89   0
   0  14 -13    9.71    2.17   0
   0  14 -12   79.71    3.45   0
   0  14  -4    8.26    1.85   0
   0  14  -3    2.35    2.40   0
   1  -3 -16    1.93    2.73   0
   1  -1 -20   19.00    2.24   0
   1   3 -23    0.83    2.27   0
   1   9   8   58.08    2.49   0
   1  11   7    1.50    1.76   0
   1  13 -21   12.23    3.39   0
   1  13   5    9.51    1.69   0
   1  15 -18    2.18    1.96   0
   1  15   2    1.34    1.79   0
   1  17 -13   -0.35    2.06   0
   1  17 -12   22.20    2.70   0
   1  17  -4   21.07    1.89   0
   1  17  -3    0.67    2.06   0
   2  -6 -15   -1.39    1.70   0
   2  -6 -14    5.82    2.62   0
   2  -6  -1   11.44    2.63   0
   2  -4 -20    4.57    1.82   0
   2  -4   4    3.27    4.82   0
   2  -2 -23    3.75    1.88   0
   2   0 -25   -0.25    1.75   0
   2   6 -27    2.28    2.29   0
   2   8 -27   -0.36    2.13   0
   2  10  11   26.47    2.58   0
   2  12  10   -0.51    2.04   0
   2  14   8   61.79    2.75   0
   2  16   5   13.94    1.75   0
   2  18 -17    1.38    2.11   0
   2  18   1    2.63    1.50   0
   3  -7 -18    0.57    1.65   0
   3  -7 -17   17.47    2.57   0
   3  -5 -22    1.20    2.21   0
   3  -3 -25    3.06    2.14   0
   3  -1 -27    1.24    2.18   0
   3   5  14   11.58    2.80   0
   3   7  14    6.90    1.90   0
   3  11  13   -2.61    2.27   0
   3  13  12   15.29    2.25   0
   3  15 -26    2.30    3.73   0
   3  15  10   -0.85    1.62   0
   3  17   7    4.62    1.69   0
   3  19 -20   -0.21    2.17   0
   3  19   4    1.59    1.99   0
   3  21 -13    1.00    1.84   0
   3  21 -12    3.13    2.43   0
   3  21 -11   -0.12    1.07   0
   3  21 -11   -0.21    1.06   0
   3  21  -6   -0.37    1.46   0
   3  21  -5    0.12    1.58   0
   3  21  -4   -0.56    2.21   0
   3  21  -3    3.31    2.15   0
   4 -10 -11    1.89    1.72   0
   4 -10 -10   33.43    2.15   0
   4 -10  -9   24.02    2.09   0
   4 -10  -8   17.20    2.04   0
   4 -10  -7   39.30    2.29   0
   4 -10  -6   34.50    2.25   0
   4 -10  -5   10.61    1.93   0
   4  -8 -20   14.55    1.94   0
   4  -8 -19   31.06    2.55   0
   4  -6 -24    2.17    1.74   0
   4   0 -30    2.20    2.62   0
   4   2 -31    1.72    2.53   0
   4   4  16    7.48    2.58   0
   4   6 -32    1.62    2.08   0
   4   6  16   16.56    1.96   0
   4   8  16    1.75    1.69   0
   4  14  13   10.51    1.78   0
   4  18   9   -0.74    2.11   0
   4  20   5    0.51    1.52   0
   4  22  -2   -0.68    1.42   0
   4  22  -1    2.01    1.52   0
   4  22   0    1.45    1.85   0
   5 -11 -13    2.10    1.80   0
   5 -11 -11    9.65    2.57   0
   5 -11  -5   12.35    2.65   0
   5 -11  -4   36.72    2.77   0
   5 -11  -3  115.50    2.89   0
   5  -9 -21   15.05    1.89   0
   5  -5 -28    1.13    1.63   0
   5  -3 -30    1.39    1.96   0
   5   5  18   -1.21    2.45   0
   5   7  18    4.15    2.36   0
   5  11  17    9.06    1.78   0
   5  13  16    1.68    1.58   0
   5  17  13    1.26    2.01   0
   5  19  10    2.54    1.68   0
   5  21   6    0.61    1.48   0
   5  21   7    3.20    1.82   0
   5  23   0    0.52    1.33   0
   6 -12 -14    2.08    1.79   0
   6 -12 -13   11.30    2.46   0
   6 -12  -3   38.07    2.78   0
   6 -12  -2   14.90    2.04   0
   6 -10 -22    2.11    1.58   0
   6 -10 -21    1.06    2.28   0
   6  -6 -29   -1.47    1.64   0
   6  -4 -31    0.61    2.27   0
   6  -4  15    0.96    2.89   0
   6  -2 -33   -0.68    1.70   0
   6   0  18   17.97    2.24   0
   6  10  19   -0.91    2.25   0
   6  12  18    3.65    1.70   0
   6  14  17   -1.23    1.56   0
   6  20  11   -0.85    2.21   0
   6  22   7   -1.11    1.00   0
   6  22   7   -0.32    1.01   0
   7 -13 -14   -1.59    1.69   0
   7 -13 -13    2.20    2.37   0
   7 -13  -4    7.78    2.65   0
   7 -13  -3    4.25    2.43   0
   7 -13  -2    0.28    1.67   0
   7 -11 -22    2.68    1.80   0
   7  -9 -26   -2.97    2.29   0
   7  -9  10    0.21    2.00   0
   7  -5 -32   -0.03    1.63   0
   7   5  21    1.59    2.00   0
   7   7  21   -0.16    2.22   0
   7  11  20    5.66    1.72   0
   7  13  19   19.09    1.88   0
   7  15  18    2.91    2.18   0
   7  17  16   -0.97    1.57   0
   7  19  14   -0.12    1.50   0
   8 -14 -14    0.77    1.71   0
   8 -14 -13    3.70    1.84   0
   8 -14 -12    0.98    2.22   0
   8 -14 -11    3.56    2.28   0
   8 -14  -5    7.16    2.53   0
   8 -14  -4    5.45    2.28   0
   8 -14  -3   10.95    1.97   0
   8 -12 -22    2.49    2.10   0
   8 -10 -27    0.42    1.56   0
   8 -10  10    1.34    2.24   0
   8  -8 -30    1.01    1.58   0
   8   4  22    1.48    2.08   0
   8   6  22    2.54    1.59   0
   8   8  22    0.33    2.15   0
   8  12  21    1.36    2.23   0
   8  14  20    3.96    2.18   0
   8  18  17   -1.49    1.88   0
   9 -15 -12   -1.69    1.70   0
   9 -15 -11    2.66    1.66   0
   9 -15 -10   12.31    1.85   0
   9 -15  -9    2.85    1.71   0
   9 -15  -8    3.03    1.74   0
   9 -15  -7    0.53    1.69   0
   9 -15  -6    0.52    1.61   0
   9 -15  -5    2.43    1.67   0
   9 -13 -22   -0.36    1.96   0
   9 -13   5   43.21    2.74   0
   9 -11 -27   -0.13    1.63   0
   9 -11  10   91.05    3.63   0
   9  -3  20    4.15    2.57   0
   9   5  23    3.85    1.68   0
   9   7  23    2.36    1.64   0
   9   9  23   -1.35    2.25   0
  10 -14 -21    0.51    1.69   0
  10 -14   4    2.01    2.17   0
  10   4  24    0.51    2.08   0
  10   6  24    0.52    1.53   0
  10   8  24   -0.28    2.11   0
  10  12  23    1.30    2.28   0
  10  14  22    0.58    1.07   0
  11 -15 -20    0.81    1.81   0
  11 -15 -19   -0.69    2.56   0
  11 -15   2    1.35    2.54   0
  11  -3  22    5.10    2.60   0
  11   1  24    2.81    2.32   0
  11   5  25    0.52    1.84   0
  11   7  25    2.60    2.12   0
  12 -16 -17   -0.41    1.71   0
  12 -16   0   -0.47    2.28   0
  12 -12  12   -0.77    2.58   0
  12   2  25    1.10    2.10   0
  13 -17  -5   -1.47    2.54   0
  13 -17  -4    2.85    2.16   0
  13 -17  -3    2.51    1.91   0
  13 -15   6    1.45    2.47   0
  13 -13  11    1.03    2.55   0
  13  -5  22    3.34    3.50   0
  14 -16   4   -0.55    1.62   0
  14 -16   4    0.13    1.20   0
  14 -14  10    0.53    1.95   0
  14 -12  14   -0.02    2.13   0
  14 -10  17    0.19    3.20   0
  -1   7 -13    7.59    4.54   0
  -1   7  -2  207.30    4.65   0
  -1   9 -12   21.18    3.21   0
  -1   9  -3   17.01    3.02   0
   0   4 -19    0.58    1.96   0
   0   6   5   12.60    3.65   0
   0   8   5   -0.06    3.16   0
   0  10   4   25.90    2.19   0
   0  12   2   30.33    2.20   0
   0  14 -14    1.21    1.76   0
   0  14  -2    2.38    1.78   0
   0  14  -1   10.17    2.52   0
   1  -3 -15    2.05    2.84   0
   1  -1 -19    0.59    2.71   0
   1   3   8    7.03    2.60   0
   1   5   9    0.29    2.83   0
   1   7   9  162.19    3.49   0
   1  11   8   24.14    2.67   0
   1  13   6   14.12    1.67   0
   1  15   3    6.74    1.81   0
   1  15   4   59.06    2.71   0
   1  17 -14    0.66    2.20   0
   1  17  -2   13.86    1.72   0
   1  17  -1    4.03    2.20   0
   2  -6 -13   18.84    2.15   0
   2  -6 -12    5.86    2.86   0
   2  -6  -2    6.01    2.48   0
   2  -4 -19    3.12    1.75   0
   2  -2 -22    3.60    2.54   0
   2   0 -24    0.18    2.44   0
   2   6  12   96.30    2.90   0
   2   8  12    2.91    2.67   0
   2  14 -24    1.55    3.29   0
   2  14   9    4.61    2.40   0
   2  16   6    3.31    1.61   0
   2  18 -18    1.95    1.81   0
   2  18   2    0.84    1.60   0
   2  18   3    6.02    2.17   0
   2  20 -10    2.90    2.10   0
   2  20  -9    0.24    2.26   0
   2  20  -8   -1.07    2.26   0
   2  20  -7    5.42    2.32   0
   2  20  -6    0.32    2.05   0
   2  20  -5    3.15    2.13   0
   2  20  -4    0.07    1.81   0
   3  -7 -16    4.55    2.39   0
   3  -7   1   51.13    3.48   0
   3  -5 -21   19.45    2.50   0
   3  -5   6   13.70    4.07   0
   3  -3 -24   -1.07    2.34   0
   3   1 -28    1.57    1.87   0
   3   3  14   44.65    2.86   0
   3   9  14   27.94    2.00   0
   3  15  11   12.54    2.32   0
   3  17   8    5.83    1.59   0
   3  19   5    2.72    1.48   0
   3  21 -15    2.41    1.99   0
   3  21 -14    1.20    2.40   0
   3  21  -2    0.69    1.65   0
   3  21  -1   -0.49    2.00   0
   3  21   0    0.57    1.88   0
   4  -8 -18    5.84    2.47   0
   4  -8   3   23.28    3.03   0
   4  -6 -23    0.08    1.69   0
   4  -4 -26   -2.14    1.60   0
   4  -2 -28   -0.18    2.36   0
   4  -2  13  102.11    4.76   0
   4  10  16    3.27    1.78   0
   4  12  15   -0.13    1.69   0
   4  14  14    5.74    1.69   0
   4  16  12    4.12    1.73   0
   4  18  10    4.25    2.18   0
   4  20   6    1.06    1.37   0
   4  20   7   -1.35    2.03   0
   4  22   1    4.48    1.53   0
   4  22   2    0.57    1.80   0
   5 -11 -10    4.06    1.73   0
   5 -11  -9    2.52    1.72   0
   5 -11  -8    0.69    1.71   0
   5 -11  -7   12.52    1.87   0
   5 -11  -6    0.40    1.76   0
   5  -9 -19   -1.18    2.20   0
   5  -9   4   12.83    2.79   0
   5  -7 -24   -0.87    2.04   0
   5  -5 -27    1.58    2.30   0
   5  -1 -31    0.77    2.30   0
   5   1  17    0.62    1.89   0
   5   3 -33   -0.02    2.61   0
   5   9  18   -0.17    1.74   0
   5  15  15    3.09    1.70   0
   5  19  11   -0.04    1.61   0
   5  21   8    1.83    2.10   0
   6 -12 -12    3.21    1.77   0
   6 -12 -11    5.80    1.83   0
   6 -12 -10    3.92    1.79   0
   6 -12  -9    5.57    2.36   0
   6 -12  -8  222.94    3.89   0
   6 -12  -7    0.75    2.51   0
   6 -12  -6   79.16    2.85   0
   6 -12  -5    1.35    1.76   0
   6 -12  -4   24.18    1.98   0
   6 -10 -20    2.97    2.43   0
   6 -10   5    0.10    1.81   0
   6  -8 -25    2.37    1.60   0
   6  -6 -28    0.03    1.96   0
   6  -2 -32    0.73    2.19   0
   6   2  19    9.10    1.75   0
   6   6  20   11.12    2.48   0
   6   8  20   -2.21    2.22   0
   6  12  19    1.21    2.14   0
   6  14  18   -1.51    1.81   0
   6  16  16    4.41    1.67   0
   6  18  14    0.25    1.54   0
   6  20  12   -2.24    2.08   0
   7 -13 -12    0.47    1.75   0
   7 -13 -11   10.47    1.92   0
   7 -13 -10   -0.06    1.65   0
   7 -13  -8   17.97    2.35   0
   7 -13  -7   25.57    2.53   0
   7 -13  -6   -1.20    1.81   0
   7 -13  -5   24.18    2.14   0
   7 -11 -21    3.18    1.88   0
   7 -11   5   12.26    2.82   0
   7  -9 -25   -2.68    2.16   0
   7  -7 -29   -1.34    1.64   0
   7  -7  13   26.18    3.99   0
   7  -5 -31   -1.18    2.36   0
   7  -3 -33    0.93    2.31   0
   7  -1  19    3.00    2.18   0
   7   1  20    4.62    1.98   0
   7   9  21   -1.27    1.65   0
   7  13  20    1.31    2.09   0
   7  17  17    0.59    1.64   0
   7  19  15    1.60    1.67   0
   8 -14 -10    1.84    1.79   0
   8 -14  -9   -0.21    1.80   0
   8 -14  -8   11.67    1.89   0
   8 -14  -7    1.32    1.76   0
   8 -14  -6    2.83    1.78   0
   8 -12 -21    3.22    1.93   0
   8 -12 -20    1.18    2.53   0
   8 -12   5   15.80    2.19   0
   8 -10 -26    2.64    1.75   0
   8  -8 -29   -0.20    1.97   0
   8   0  21    0.49    1.78   0
   8  10  22    0.08    1.66   0
   8  16  19    0.46    1.55   0
   9 -13 -20   -0.77    2.20   0
   9 -13   4    4.06    2.39   0
   9 -11 -26    0.46    1.73   0
   9  -9 -29    1.91    2.19   0
   9   3  23   -0.32    1.50   0
   9  11  23    0.41    2.06   0
   9  13  22    1.25    1.62   0
   9  15  21   -0.13    1.38   0
  10 -14 -20    1.18    1.69   0
  10 -14   3   -0.49    2.18   0
  10 -12 -25    2.24    2.22   0
  10 -12   9    2.48    2.43   0
  10 -10  13   10.61    3.01   0
  10  -2  22    2.16    2.54   0
  10   0  23    1.69    2.14   0
  10  10  24    0.00    1.75   0
  11 -15 -18   -0.01    1.82   0
  11 -15 -17    2.71    2.56   0
  11 -15   1    3.01    2.49   0
  11 -13   8    2.17    2.56   0
  11   3  25    5.02    2.02   0
  11   9  25   -0.50    1.14   0
  12 -16 -16   -1.18    1.85   0
  12 -16 -15    0.40    1.70   0
  12 -16 -14    1.10    2.34   0
  12 -16  -2   -1.84    2.41   0
  12 -16  -1   -0.29    1.63   0
  12 -14   7    7.49    2.72   0
  13 -17 -10    0.00    1.09   0
  13 -17 -10   -0.70    1.06   0
  13 -17  -9   -0.19    1.66   0
  13 -17  -8    2.78    1.74   0
  13 -17  -7   -0.03    1.71   0
  13 -17  -6    2.97    1.69   0
  13 -15   5    4.75    2.74   0
  14 -16   3    3.73    2.15   0
  15 -11  16    0.14    2.62   0
  -1   5  -2   46.39    3.50   0
  -1   7  -1    0.48    3.19   0
  -1   9  -2   78.10    3.11   0
  -1  11 -10    1.02    2.34   0
  -1  11  -9    2.72    2.10   0
  -1  11  -8   20.78    2.63   0
  -1  11  -7    1.10    2.38   0
  -1  11  -6   12.40    2.74   0
  -1  11  -5   74.63    3.49   0
  -1  11  -4   55.00    3.05   0
   0   2   3  172.77    6.10   0
   0  10   5    2.67    2.70   0
   0  12   3   83.92    2.48   0
   0  14   0  103.37    2.64   0
   0  14   1    7.96    2.19   0
   1  -3 -14   20.85    3.17   0
   1   1   7 1606.68   14.26   0
   1   9   9    5.17    2.00   0
   1  13   7   10.06    1.68   0
   1  15 -19    0.82    2.36   0
   1  15   5    2.79    2.20   0
   1  17 -15    3.64    2.27   0
   1  17   0    0.14    1.58   0
   1  17   1   27.19    2.47   0
   2  -6 -11   36.33    2.44   0
   2  -6 -10   27.50    3.30   0
   2  -6  -4   78.65    4.17   0
   2  -6  -3    1.12    2.82   0
   2  -4 -18    2.57    2.27   0
   2   2  11   63.90    3.03   0
   2   4 -26    0.33    2.29   0
   2   4  12    3.23    2.96   0
   2  10  12    5.83    1.81   0
   2  12  11   11.24    1.87   0
   2  14  10   20.47    2.30   0
   2  16 -22    1.60    2.47   0
   2  16   7   75.44    2.36   0
   2  18   4    3.92    1.60   0
   2  20 -13    1.11    2.14   0
   2  20 -12    1.26    2.37   0
   2  20 -11   -0.62    1.65   0
   2  20  -3   -0.57    1.58   0
   2  20  -2    0.72    2.25   0
   2  20  -1   -2.22    1.89   0
   3  -7 -15   -2.51    1.74   0
   3  -1 -26    0.77    1.63   0
   3   1  13   42.11    2.30   0
   3   5 -29   -0.28    2.21   0
   3   7  15   50.96    2.82   0
   3   9 -29    0.10    2.28   0
   3   9  15   -0.59    2.37   0
   3  11  14   21.11    1.89   0
   3  15  12    3.09    2.00   0
   3  17 -24   -0.04    2.14   0
   3  17   9    1.69    1.51   0
   3  19   6    1.04    1.42   0
   3  21   1    2.88    1.56   0
   3  21   2    4.27    2.01   0
   4  -8 -17    1.99    1.83   0
   4  -6 -22    3.38    2.27   0
   4  -4 -25   -1.37    2.15   0
   4   0 -29    3.89    2.58   0
   4   2  16   18.11    2.56   0
   4   6  17   22.13    2.78   0
   4   8  17   17.81    2.68   0
   4  10 -31    0.08    2.28   0
   4  12  16    5.19    2.33   0
   4  14  15    2.04    2.28   0
   4  16  13    1.30    1.72   0
   4  18  11   -2.12    2.17   0
   4  20   8    3.18    2.09   0
   4  22   3    1.79    1.43   0
   5  -9 -18    1.65    2.27   0
   5  -7 -23   -2.45    2.27   0
   5  -3 -29    0.72    1.69   0
   5  -1  16    1.72    1.87   0
   5   1 -32   -0.68    1.81   0
   5   3  18    5.44    1.64   0
   5   7  19   33.88    2.60   0
   5  11  18   12.40    1.79   0
   5  13  17   38.79    1.99   0
   5  15  16    0.47    1.67   0
   5  17  14    2.14    1.74   0
   5  19  12   -1.01    1.57   0
   5  21   9    0.81    2.03   0
   6 -10 -19   -0.33    2.13   0
   6 -10   4   41.81    3.09   0
   6  -8 -24    1.23    1.53   0
   6  -6 -27    3.29    2.28   0
   6  -4 -30    0.31    1.66   0
   6  -2  17   56.38    3.52   0
   6   0 -33   -1.04    1.89   0
   6   0 -33    0.24    1.09   0
   6   4  20    9.59    2.35   0
   6  10  20    1.69    1.57   0
   6  16  17    1.69    1.50   0
   6  18  15    3.15    1.69   0
   6  20  13    0.64    2.03   0
   7 -11 -20   -0.96    1.81   0
   7 -11 -19   -1.36    2.40   0
   7 -11   4    0.43    2.55   0
   7  -9 -24    1.32    2.05   0
   7  -7 -28    3.25    1.73   0
   7   3  21    7.36    1.62   0
   7  11  21    0.25    1.75   0
   7  15  19   -0.10    1.55   0
   7  17  18   -1.96    2.07   0
   7  19  16    1.02    2.18   0
   8 -12 -19   -1.89    2.14   0
   8 -12   4    4.61    2.61   0
   8 -10 -25    1.22    1.75   0
   8  -8 -28   -1.24    2.22   0
   8  -6 -31    0.52    1.54   0
   8  -6 -31   -0.11    1.07   0
   8   2  22   -1.21    2.14   0
   8   6  23   -1.55    2.26   0
   8   8  23   -0.59    2.14   0
   8  12  22    2.41    1.60   0
   8  14  21   -0.08    1.61   0
   8  16  20    1.84    2.08   0
   9 -13 -19   -0.68    1.80   0
   9 -13 -18   -0.31    2.59   0
   9 -13   3    1.57    2.42   0
   9 -11 -25   -2.83    1.77   0
   9 -11 -24    2.02    2.52   0
   9  -9 -28    0.55    2.15   0
   9   5  24    0.50    1.90   0
   9   7  24    1.00    2.35   0
   9   9  24   -0.54    1.96   0
   9  13  23   -2.54    1.90   0
  10 -14 -18   -2.75    1.83   0
  10 -14 -17    1.64    2.12   0
  10 -12 -24    2.01    2.27   0
  10  -8  16    0.37    3.60   0
  10   2  24    1.85    2.27   0
  10   6  25    0.43    1.89   0
  10   8  25    3.02    2.23   0
  10  12  24    0.39    1.74   0
  11 -15 -16    2.50    1.99   0
  11 -15 -15    2.11    2.16   0
  11 -15  -1    0.42    2.17   0
  11 -13 -23   -0.70    1.18   0
  12 -16 -13   -0.08    1.61   0
  12 -16 -12    0.22    1.72   0
  12 -16 -11    0.54    1.72   0
  12 -16 -10    0.13    2.05   0
  12 -16  -9    7.18    2.40   0
  12 -16  -8    0.33    2.45   0
  12 -16  -7    1.07    2.49   0
  12 -16  -6    2.00    2.30   0
  12 -16  -5   -0.02    2.09   0
  12 -16  -4    2.29    1.82   0
  12 -16  -3    2.02    1.86   0
  12 -14   6    0.17    2.61   0
  12  -8  18    0.81    3.85   0
  12   4  26    0.12    1.57   0
  13 -15   4    2.86    2.46   0
  13  -1  25    0.64    2.25   0
  14 -16   1    0.25    2.35   0
  14 -16   2    0.83    1.74   0
  14 -14   9    0.61    2.24   0
  15 -15   7    0.07    1.82   0
  15 -15   7    1.38    1.31   0
  15 -13  12   -0.20    2.56   0
  -1   5  -1    5.81    3.97   0
  -1   7   0   27.83    3.48   0
  -1   9 -13   19.34    3.45   0
  -1   9  -1  227.29    4.23   0
  -1   9   0    4.62    2.83   0
  -1  11 -11   46.22    2.79   0
  -1  11  -3   80.35    2.88   0
  -1  11  -2   34.67    3.10   0
   0   4   5   22.45    3.14   0
   0   6 -19    0.35    2.53   0
   0   6   6    8.36    2.75   0
   0   8   6    0.37    2.04   0
   0  10   6    2.07    2.52   0
   0  12   4   -0.49    1.74   0
   0  14 -15   -0.67    1.95   0
   0  14   2    4.69    2.30   0
   0  16 -10    1.19    2.51   0
   0  16  -9   10.32    2.53   0
   0  16  -8    6.21    1.74   0
   0  16  -7    2.58    1.80   0
   0  16  -6    5.40    1.79   0
   0  16  -5    0.44    1.60   0
   0  16  -4    0.34    2.39   0
   0  16  -3    0.66    2.51   0
   1  -3 -13   -0.53    2.96   0
   1  -3   0   29.93    3.96   0
   1  -1 -18   71.63    2.87   0
   1   5 -23    4.29    2.08   0
   1   7  10    1.57    2.03   0
   1   9  10   32.93    3.03   0
   1  11   9    6.39    1.79   0
   1  13   8    2.05    2.23   0
   1  15   6   10.66    2.47   0
   1  17   2    8.34    1.77   0
   1  17   3    1.44    2.13   0
   1  19  -8   -2.24    2.12   0
   1  19  -7    0.58    2.06   0
   1  19  -6   -2.73    2.11   0
   1  19  -5   -1.18    1.80   0
   2  -6  -9    2.48    2.16   0
   2  -6  -8   35.35    2.61   0
   2  -6  -6   -0.14    2.54   0
   2  -6  -5    8.41    2.34   0
   2  -4 -17   -2.50    2.49   0
   2  -2 -21    8.35    1.92   0
   2   0 -23    0.12    2.39   0
   2   6  13   -0.94    2.62   0
   2   8  13   43.94    2.25   0
   2  10 -26    1.31    3.04   0
   2  12  12    4.39    2.17   0
   2  16   8   13.56    1.78   0
   2  18 -19   -0.74    2.02   0
   2  18   5    0.63    1.42   0
   2  18   6    0.13    1.78   0
   2  20 -14   -0.24    2.36   0
   2  20   0    2.64    1.60   0
   2  20   1   -0.17    1.99   0
   3  -7 -14    7.01    1.86   0
   3  -7 -13   19.06    2.87   0
   3  -7   0   32.99    2.80   0
   3  -5 -19    1.87    2.25   0
   3  -3 -23   13.61    2.18   0
   3  -1 -25   -3.72    2.36   0
   3   1 -27    1.69    2.16   0
   3   5  15   25.42    2.25   0
   3   7 -29    0.46    1.93   0
   3  11  15    0.67    2.33   0
   3  13  14   13.14    2.37   0
   3  17  10    2.81    1.69   0
   3  19   7    3.34    1.56   0
   3  19   8   -2.39    1.83   0
   3  21   3    4.28    2.20   0
   4  -8 -16   -0.53    1.57   0
   4  -8 -15    0.57    2.34   0
   4  -8   2   -0.43    2.26   0
   4  -6 -21    1.57    2.47   0
   4  -2 -27   -1.23    1.58   0
   4   0  15   -0.16    1.80   0
   4   2 -30    0.98    1.84   0
   4   4  17    0.44    2.51   0
   4   6 -31    0.48    2.17   0
   4  10  17    9.98    1.89   0
   4  16  14    2.09    1.66   0
   4  18  12   -0.63    2.27   0
   4  20   9   -3.49    2.23   0
   4  22   4    0.93    1.42   0
   4  22   5   -0.45    1.96   0
   5  -9 -17    2.93    1.78   0
   5  -9   3   28.18    2.97   0
   5  -7 -22   -0.66    2.35   0
   5  -5 -26    1.33    1.69   0
   5  -3 -28   -1.93    2.12   0
   5  -1 -30   -1.66    2.11   0
   5   5 -33   -0.48    1.62   0
   5   5 -33   -0.82    1.17   0
   5   5  19   62.43    3.29   0
   5   9  19    0.19    1.68   0
   5  11  19   -2.52    2.10   0
   5  13  18   13.12    2.32   0
   5  15  17   -1.16    2.08   0
   5  19  13    0.39    2.02   0
   5  21  10    0.65    1.47   0
   6 -10 -18   19.99    1.99   0
   6 -10 -17   -2.71    2.34   0
   6  -8 -23    1.49    1.97   0
   6  -8   9   40.26    3.02   0
   6  -4 -29   -2.02    2.13   0
   6  -2 -31   -1.13    2.14   0
   6   8  21    3.42    1.98   0
   6  12  20    0.74    2.17   0
   6  14  19   -1.50    1.55   0
   6  16  18    2.70    2.03   0
   6  18  16   -0.46    1.68   0
   6  20  14    1.12    2.05   0
   7 -11 -18   -0.39    1.76   0
   7  -7 -27   -3.07    2.20   0
   7  -5 -30   -0.60    1.61   0
   7  -3 -32    3.59    2.24   0
   7   5  22    0.44    2.10   0
   7   7  22    1.30    1.59   0
   7   9  22    1.04    1.75   0
   7  13  21   -3.46    2.25   0
   7  15  20    1.01    2.15   0
   8 -12 -18    2.86    1.87   0
   8 -12   3   12.25    2.72   0
   8 -10 -24   10.42    1.84   0
   8 -10   9    2.26    2.72   0
   8  -8  13    4.42    3.30   0
   8  -6 -30    0.10    2.19   0
   8  -2  20    1.79    2.39   0
   8   4  23   -1.87    2.09   0
   8  10  23    2.37    1.76   0
   8  14  22   -1.05    1.91   0
   9 -13 -17   -2.70    1.82   0
   9 -13 -16    1.32    2.46   0
   9 -11 -23    0.75    2.62   0
   9 -11   9    0.82    2.16   0
   9  -9  13    2.67    2.91   0
   9  -7  16    7.46    4.68   0
   9  -1  22    1.54    2.41   0
   9   1  23   -0.07    2.04   0
   9  11  24    0.84    2.48   0
  10 -14 -16    7.50    2.00   0
  10 -14 -15    1.66    2.22   0
  10 -14   0    1.33    2.22   0
  10 -14   1    1.31    1.77   0
  10 -12 -23   -2.24    1.89   0
  10 -10 -27   -1.08    2.29   0
  10   4  25    1.15    2.09   0
  10  10  25    1.64    1.76   0
  11 -15 -14    0.06    1.65   0
  11 -15 -13    2.32    1.69   0
  11 -15 -12   -2.08    2.06   0
  11 -15 -11    0.36    2.26   0
  11 -15  -4   -0.89    2.37   0
  11 -15  -3    2.82    2.43   0
  11 -15  -2   -0.78    1.73   0
  11 -13 -22    0.31    1.82   0
  11 -13   7    1.25    2.43   0
  11   5  26    0.05    2.05   0
  11   7  26   -0.70    1.05   0
  11   7  26   -0.54    1.07   0
  12 -14 -20    2.93    2.57   0
  12 -12  11   -0.54    2.67   0
  12 -10  15    0.90    2.42   0
  12  -2  24   -0.66    2.43   0
  12   0  25   -0.45    2.11   0
  12   2  26   -0.10    1.82   0
  13 -15   3   -0.54    2.45   0
  13 -13  10    0.56    2.42   0
  13   1  26    0.47    0.96   0
  14 -16   0    0.73    2.11   0
  14 -12  13   -1.19    2.75   0
  15 -15   6    2.15    2.77   0
  -1   7   1    3.82    3.24   0
  -1   9   1   48.66    3.37   0
  -1  11 -12    4.24    2.37   0
  -1  11  -1   12.81    2.79   0
   0   4 -18    1.03    2.06   0
   0   8   7   29.93    3.11   0
   0  12 -18    1.39    2.88   0
   0  12   5    0.38    1.75   0
   0  14 -16    2.17    2.44   0
   0  14   3    1.74    1.66   0
   0  16 -12    4.94    2.21   0
   0  16 -11   -0.76    2.49   0
   0  16  -2   -6.08    1.89   0
   0  16  -1   10.57    2.85   0
   1  -3 -12   33.50    3.21   0
   1  -1 -17   70.45    3.55   0
   1   3   9    5.26    2.43   0
   1   5  10    2.40    2.20   0
   1   7 -23    4.06    2.78   0
   1   9 -23    0.06    3.02   0
   1  11  10   -0.22    2.36   0
   1  13   9    0.07    2.30   0
   1  15   7    4.90    2.54   0
   1  17 -17    0.89    2.42   0
   1  17   4    0.43    2.52   0
   1  19 -11    2.81    2.21   0
   1  19 -10    0.93    2.43   0
   1  19  -9   -1.83    1.84   0
   1  19  -4   -0.64    1.45   0
   1  19  -3   -1.64    1.58   0
   1  19  -2    1.79    2.28   0
   1  19  -1    3.28    1.99   0
   2  -4 -16    2.42    2.63   0
   2  -2 -20    0.39    2.57   0
   2   0  10  414.15    7.23   0
   2   6 -26    0.36    2.22   0
   2  10  13    2.02    1.62   0
   2  14  11    3.50    1.67   0
   2  16   9    0.07    1.69   0
   2  18   7    0.03    2.00   0
   2  20 -15   -0.37    2.31   0
   2  20   2    0.74    1.50   0
   2  20   3    1.63    1.92   0
   3  -7 -12    2.74    1.94   0
   3  -7 -11    2.62    2.80   0
   3  -7  -2   72.34    3.72   0
   3  -7  -1   54.49    3.03   0
   3  -3 -22    8.29    2.71   0
   3   3  15   19.35    2.60   0
   3   7  16    2.27    2.47   0
   3   9  16   12.55    2.45   0
   3  17  11   -2.55    1.60   0
   3  19   9    1.46    2.07   0
   3  21   4   -1.69    1.44   0
   3  21   5    1.19    2.10   0
   3  23  -6   -1.82    2.11   0
   3  23  -5    1.99    2.32   0
   3  23  -4    2.17    2.12   0
   3  23  -3   -0.24    1.96   0
   4  -8 -14    3.17    2.19   0
   4  -8   1   63.06    3.42   0
   4  -6 -20   -1.01    2.51   0
   4  -6   7    3.92    3.54   0
   4  -4 -24   -1.37    1.61   0
   4  -2 -26   -1.57    2.21   0
   4   0 -28    1.41    2.59   0
   4   6  18   -0.47    2.45   0
   4   8 -31    0.39    1.64   0
   4   8 -31    0.00    0.93   0
   4   8  18    1.81    2.48   0
   4  10  18    2.09    2.21   0
   4  12  17   -7.48    1.80   0
   4  14  16   -5.57    1.80   0
   4  16  15    3.21    2.34   0
   4  18  13    2.23    2.32   0
   4  20  10   -3.70    1.73   0
   4  22   6   -0.04    1.38   0
   5  -9 -15   -0.08    2.46   0
   5  -9   2   11.47    3.06   0
   5  -7   8    3.25    2.94   0
   5   1 -31    0.25    1.74   0
   5   3 -32    1.10    2.19   0
   5  17  16    0.43    2.37   0
   5  21  11    0.79    1.59   0
   6 -10 -16    2.34    2.38   0
   6 -10   3    2.20    2.11   0
   6  -8 -22   -0.91    1.86   0
   6  -6 -26   -0.24    1.67   0
   6   0 -32    2.70    2.27   0
   6   2 -33    1.44    2.41   0
   6   2  20    1.74    2.06   0
   6   6  21   -0.13    1.60   0
   6  10  21   -1.00    1.83   0
   6  14  20    1.58    2.11   0
   6  18  17   -0.24    2.28   0
   6  20  15    3.26    1.81   0
   7 -11 -16   -0.79    2.50   0
   7 -11   3    0.85    1.82   0
   7  -9 -22    1.95    2.35   0
   7  -9   9    3.36    2.50   0
   7  -7 -26    0.80    2.22   0
   7  -5 -29    3.31    2.13   0
   7  -3  18    0.63    2.77   0
   7  -1 -33    2.01    1.86   0
   7   1  21    6.86    1.87   0
   7  11  22   -0.57    1.72   0
   7  17  19    1.01    1.60   0
   8 -12 -16   -0.33    1.73   0
   8 -10 -23   -0.81    1.63   0
   8 -10 -22    0.55    2.34   0
   8  -8 -27   -0.78    1.58   0
   8  -4 -32    1.46    1.62   0
   8   8  24    1.52    1.99   0
   8  12  23   -1.28    1.62   0
   8  16  21   -0.69    1.46   0
   9 -13 -15   -1.37    1.73   0
   9 -13 -14    1.86    2.49   0
   9 -13   1    0.07    2.50   0
   9 -11 -22    3.18    2.65   0
   9  -9 -27    0.19    1.65   0
   9  -7 -30    0.63    1.08   0
   9  -7 -30   -0.22    1.01   0
   9   3  24   -1.78    2.08   0
   9   7  25    2.27    1.97   0
   9   9  25    0.80    1.97   0
   9  13  24    1.04    2.16   0
  10 -14 -13    0.99    1.76   0
  10 -14 -12    0.82    2.31   0
  10 -14  -2    5.16    2.31   0
  10 -14  -1    0.03    2.09   0
  10 -12 -22    0.71    2.01   0
  10 -12 -21    2.61    2.41   0
  10 -10 -26   -1.53    2.46   0
  11 -15 -10    0.47    1.84   0
  11 -15  -9   -0.43    1.81   0
  11 -15  -7   -2.52    1.75   0
  11 -15  -6    2.10    1.77   0
  11 -15  -5    1.83    1.77   0
  11 -13 -20   -0.88    2.25   0
  11  -1  24    3.30    1.93   0
  11   1  25    0.17    1.97   0
  12 -14 -19    1.64    1.78   0
  13 -15 -16   -0.20    2.47   0
  13 -15   2   -2.36    2.49   0
  13 -11  14   -0.17    2.17   0
  13  -3  24    0.76    2.72   0
  14 -16  -3   -1.24    2.48   0
  14 -16  -2    1.40    2.20   0
  14 -16  -1   -1.40    1.90   0
  14 -14   8   -0.26    1.18   0
  14 -14   8    0.26    1.20   0
  15 -15   5    0.84    2.29   0
  -1   3  -5    0.40    5.88   0
  -1   5   0  435.97    6.89   0
  -1   9   2   46.53    3.48   0
  -1  11   0    9.75    2.16   0
  -1  11   1    1.84    2.59   0
  -1  13  -9   -0.13    2.33   0
  -1  13  -8    1.27    2.53   0
  -1  13  -7   10.40    1.98   0
  -1  13  -6    9.71    2.01   0
  -1  13  -5   10.00    1.98   0
  -1  13  -4   66.14    2.54   0
  -1  13  -3    2.45    2.46   0
  -1  13  -2    1.34    2.21   0
   0   2   4   14.58    5.08   0
   0   4   6    7.10    2.71   0
   0   6   7   18.15    2.68   0
   0  10   7    5.04    1.92   0
   0  12   6   -1.69    1.73   0
   0  14   4   11.31    1.83   0
   0  16 -13   12.04    2.36   0
   0  16   0    3.86    1.79   0
   0  16   1   60.82    2.96   0
   1  -3 -11    2.99    2.43   0
   1  -3  -1   62.70    5.48   0
   1   7  11   36.49    2.38   0
   1   9  11    0.98    1.80   0
   1  11  11   44.69    2.60   0
   1  13  10    4.73    2.21   0
   1  15 -20   13.61    2.96   0
   1  15   8    2.26    2.22   0
   1  17   5   -2.15    1.56   0
   1  19 -13    3.42    2.27   0
   1  19 -12    0.96    2.39   0
   1  19   0    0.35    1.65   0
   1  19   1    3.22    2.11   0
   2  -4 -15   30.33    2.88   0
   2  -4   3   84.24    5.42   0
   2   0 -22   -0.22    2.39   0
   2   2  12    0.35    2.55   0
   2   4 -25    1.99    2.26   0
   2   4  13    2.33    2.20   0
   2   6  14    5.95    2.51   0
   2   8 -26   -0.27    2.33   0
   2   8  14    4.73    1.76   0
   2  10  14    5.21    2.26   0
   2  12  13    5.10    1.74   0
   2  14  12   24.78    1.94   0
   2  16  10    8.18    1.66   0
   2  18 -20    2.63    2.20   0
   2  18   8    8.87    2.27   0
   2  20 -16   -0.63    2.13   0
   2  20   4    1.60    2.12   0
   2  22  -7    5.45    2.08   0
   2  22  -6    2.65    1.97   0
   2  22  -5    1.98    1.85   0
   3  -7 -10   -1.34    2.04   0
   3  -7  -9    2.59    2.78   0
   3  -7  -8   18.37    3.17   0
   3  -7  -4   58.13    3.49   0
   3  -7  -3   -0.29    3.14   0
   3  -5 -18    1.15    1.78   0
   3  -1 -24   10.79    2.56   0
   3  -1  12   60.69    3.54   0
   3   1  14    1.14    1.92   0
   3   5 -28   -0.12    2.24   0
   3   5  16   17.50    2.74   0
   3  11  16    4.94    1.72   0
   3  13  15   17.32    1.84   0
   3  15  14    3.08    1.65   0
   3  17  12    4.82    1.64   0
   3  19  10   -0.41    2.35   0
   3  21   6   -0.69    1.54   0
   3  23  -2    0.14    1.56   0
   3  23  -1    2.46    1.62   0
   3  23   0   -1.49    2.17   0
   4  -8 -13   11.55    1.90   0
   4  -8 -12    1.83    2.59   0
   4  -8   0   34.60    3.21   0
   4  -6 -19    7.59    2.43   0
   4  -4 -23    0.16    2.09   0
   4   2 -29    1.09    2.54   0
   4  12  18    3.18    2.24   0
   4  14  17    7.01    2.32   0
   4  20  11    0.70    1.67   0
   4  22   7    1.51    1.46   0
   4  22   8    2.03    2.01   0
   5  -9 -14   -1.00    1.89   0
   5  -9   1    8.49    3.07   0
   5  -7 -20    3.04    2.49   0
   5  -5 -24   -0.41    2.19   0
   5  -3 -27    0.30    1.61   0
   5  -1 -29    0.49    1.87   0
   5   1  18    4.83    2.09   0
   5   3  19   27.65    2.05   0
   5   5  20   12.92    2.40   0
   5   7  20    6.76    1.83   0
   5   9  20   26.92    2.03   0
   5  11  20    9.13    2.38   0
   5  13  19    1.71    1.51   0
   5  15  18    2.65    1.51   0
   5  17  17    2.05    2.49   0
   5  19  15   -0.86    2.07   0
   5  21  12    1.42    1.57   0
   6 -10 -15    3.08    1.84   0
   6 -10   2   73.40    3.40   0
   6  -8 -21   -0.42    1.98   0
   6  -6 -25   -0.67    2.03   0
   6  -4 -28    1.31    1.67   0
   6  -2 -30   -1.47    1.97   0
   6   0  19   -1.18    1.88   0
   6   4  21    2.39    1.68   0
   6  12  21    1.22    1.71   0
   6  16  19   -0.67    1.50   0
   6  18  18   -1.18    1.90   0
   7 -11 -14    3.20    2.40   0
   7 -11   2   47.28    2.91   0
   7  -9 -21    2.21    2.21   0
   7  -3 -31   -1.07    1.77   0
   7   3  22   15.13    1.96   0
   7   7  23    1.07    2.12   0
   7   9  23    1.86    1.72   0
   7  11  23    1.44    2.16   0
   7  13  22    4.68    1.73   0
   7  15  21    0.32    1.58   0
   7  17  20    0.95    1.51   0
   8 -12 -15    2.43    1.80   0
   8 -12 -14   18.75    2.05   0
   8 -12 -13    7.47    2.48   0
   8 -12   1    2.47    2.61   0
   8 -10 -21   -2.09    2.47   0
   8  -8 -26    1.60    1.55   0
   8  -6 -29   -1.34    1.56   0
   8  -4 -31   -2.77    2.40   0
   8   2  23    2.01    1.87   0
   8   6  24   -0.29    1.69   0
   8  10  24   -0.69    1.74   0
   8  14  23   -1.48    2.26   0
   9 -13 -12   13.67    2.49   0
   9 -13  -1    4.85    2.38   0
   9 -13   0   34.54    2.26   0
   9 -11 -21   -0.25    1.94   0
   9 -11   8    6.81    2.49   0
   9  -9 -26    3.18    1.74   0
   9  -7 -29   -1.82    1.92   0
   9   5  25    0.88    2.08   0
   9  11  25    2.57    2.48   0
  10 -14 -11    0.69    1.72   0
  10 -14 -10    0.59    1.69   0
  10 -14  -9    2.37    1.51   0
  10 -14  -8   11.73    2.16   0
  10 -14  -7    5.01    2.12   0
  10 -14  -6    0.68    2.05   0
  10 -14  -5    1.02    2.09   0
  10 -14  -4    2.89    1.79   0
  10 -14  -3   11.82    1.95   0
  10 -12 -20    2.22    2.42   0
  10 -12   7    1.50    2.62   0
  10 -10 -25   -1.72    2.39   0
  10  -8 -29   -0.34    1.14   0
  10   0  24   -1.09    1.88   0
  10   2  25    1.75    1.99   0
  10   6  26    0.01    2.10   0
  10   8  26   -1.03    1.54   0
  10  10  26    0.62    1.68   0
  11 -13 -19   -1.89    2.08   0
  11 -13   6    1.34    1.90   0
  11 -11 -25    1.09    1.78   0
  11   3  26    0.78    1.40   0
  12 -14 -17    1.00    2.15   0
  12 -14   4    4.03    2.10   0
  13 -15 -15    1.01    1.75   0
  13 -15 -14   -1.26    2.06   0
  13 -15   0    7.68    2.42   0
  13 -15   1    1.43    1.73   0
  13 -13   9    7.25    2.51   0
  14 -16 -10    0.30    1.64   0
  14 -16  -9    2.89    1.72   0
  14 -16  -8    0.37    1.70   0
  14 -16  -7    0.86    1.67   0
  14 -16  -6   -2.15    1.78   0
  14 -16  -5    1.53    1.86   0
  14 -16  -4    3.34    1.85   0
  14 -14   7   -1.04    2.11   0
  15 -15   4    3.44    2.37   0
  15 -13  11    0.10    1.72   0
  15 -13  11    1.07    1.24   0
  -1   3  -4   31.13    6.36   0
  -1   5   1  445.25    7.47   0
  -1   7   2    7.52    2.72   0
  -1   9   3   10.00    3.16   0
  -1  11 -13   10.57    2.68   0
  -1  11   2   -1.61    2.63   0
  -1  13 -11    3.87    2.40   0
  -1  13 -10    4.13    2.22   0
  -1  13  -1    1.30    1.79   0
  -1  13   0    0.95    2.49   0
   0   8 -19    0.27    3.17   0
   0   8   8   57.52    2.65   0
   0  10   8    5.56    1.98   0
   0  12   7   -0.19    1.69   0
   0  14   5    5.35    1.80   0
   0  14   6    4.82    2.28   0
   0  16 -14    1.19    1.91   0
   0  16   2   25.31    2.03   0
   0  16   3   15.75    2.55   0
   0  18  -7    2.13    2.10   0
   0  18  -6    2.51    2.02   0
   0  18  -5    4.26    1.96   0
   0  18  -4    2.69    2.00   0
   1  -3 -10  119.10    3.73   0
   1  -3  -2   23.77    4.86   0
   1  -1 -16   42.42    2.57   0
   1   1 -19    3.66    2.21   0
   1   3  10   13.83    3.23   0
   1   5 -22    5.10    2.32   0
   1   5  11    2.31    2.27   0
   1   9  12   24.49    2.71   0
   1  15   9   32.84    2.52   0
   1  17 -18   -0.11    2.17   0
   1  17   6    4.59    1.62   0
   1  17   7   -0.78    2.00   0
   1  19 -14    0.33    2.12   0
   1  19   2    5.69    1.65   0
   1  19   3    8.43    2.24   0
   2  -4 -14    7.56    2.79   0
   2  -2 -19    3.20    1.85   0
   2  12  14    1.09    1.62   0
   2  14  13    9.18    2.43   0
   2  16  11   -0.80    1.61   0
   2  18   9   -1.90    1.72   0
   2  20 -17   -0.75    2.03   0
   2  20   5    0.98    1.56   0
   2  20   6   -1.61    2.03   0
   2  22 -11    0.82    1.84   0
   2  22 -10   -0.12    2.27   0
   2  22  -9    1.83    1.62   0
   2  22  -8    0.42    1.57   0
   2  22  -4   -0.10    1.59   0
   2  22  -3    2.92    1.73   0
   2  22  -2    6.24    1.76   0
   2  22  -1    4.93    2.07   0
   2  22   0    4.06    1.97   0
   3  -7  -7   21.15    2.36   0
   3  -7  -6   19.88    2.40   0
   3  -7  -5   39.60    2.64   0
   3  -5 -17    2.69    1.81   0
   3  -3 -21   23.87    2.15   0
   3   7  17   -0.02    2.39   0
   3   9  17   10.84    2.64   0
   3  11 -28   -0.46    2.84   0
   3  11  17    2.17    2.14   0
   3  13  16   34.11    2.08   0
   3  15  15    3.35    2.29   0
   3  19  11    0.00    2.41   0
   3  21   7    1.90    1.52   0
   3  21   8    2.81    1.85   0
   3  23   1    1.41    1.46   0
   3  23   2    1.55    2.15   0
   3  23   3    0.09    1.76   0
   4  -8 -11   -0.27    1.89   0
   4  -8 -10   36.84    3.02   0
   4  -8  -1  439.22    5.36   0
   4  -6 -18    3.04    2.40   0
   4  -4 -22    3.86    2.32   0
   4  -2 -25    3.97    2.34   0
   4   0 -27   -2.70    2.40   0
   4   2  17    3.79    1.66   0
   4   4  18    1.35    1.79   0
   4   8  19   -0.20    2.46   0
   4  10  19    4.00    2.43   0
   4  16  16    2.56    1.65   0
   4  18  15   -1.37    2.01   0
   4  20  12    3.09    1.74   0
   4  22   9    1.74    2.08   0
   5  -9 -13    4.38    1.72   0
   5  -9 -12    4.39    2.30   0
   5  -9   0    3.74    2.89   0
   5  -7 -19    6.26    2.36   0
   5  -3 -26    3.75    2.15   0
   5   1 -30    0.76    2.11   0
   5   3 -31    2.45    2.55   0
   5  13  20    0.65    2.14   0
   5  15  19    5.57    2.14   0
   5  19  16   -1.05    1.85   0
   5  21  13    1.53    1.56   0
   6 -10 -13   23.07    2.06   0
   6 -10 -12    2.67    2.45   0
   6 -10   1   59.05    2.95   0
   6  -8 -20    1.29    2.19   0
   6  -8   8   32.45    3.13   0
   6  -6 -24    1.95    2.24   0
   6  -4 -27   -1.05    2.25   0
   6   0 -31    1.47    2.32   0
   6   4 -33   -1.31    2.33   0
   6   6  22    1.93    2.35   0
   6   8  22    0.58    1.61   0
   6  10  22    0.75    1.78   0
   6  12  22   -0.37    2.06   0
   6  14  21    2.24    2.27   0
   6  16  20    2.71    2.23   0
   7 -11 -13   35.70    2.17   0
   7 -11 -12   38.91    2.84   0
   7 -11   0    1.40    2.58   0
   7 -11   1    0.41    1.81   0
   7  -9 -20   -1.29    2.40   0
   7  -5 -28   -0.69    1.60   0
   7  -3 -30    2.09    2.30   0
   7  -1 -32    2.18    2.18   0
   7  -1  20    5.12    2.16   0
   7   5  23    7.34    1.79   0
   7  13  23    0.26    1.94   0
   7  15  22    0.83    2.13   0
   8 -12 -12   17.82    1.89   0
   8 -12 -11    0.63    2.34   0
   8 -12  -1   -1.95    2.56   0
   8 -12   0  112.64    3.01   0
   8 -10 -20   -2.88    2.50   0
   8 -10   8   29.00    2.71   0
   8  -8 -25   -1.27    1.77   0
   8   0  22    1.78    1.97   0
   8   4  24   -0.36    2.13   0
   8  12  24    1.05    1.61   0
   9 -13 -11    1.01    1.76   0
   9 -13 -10    0.71    1.64   0
   9 -13  -9    3.33    2.14   0
   9 -13  -8    8.19    2.55   0
   9 -13  -7   16.94    2.63   0
   9 -13  -6    7.40    2.66   0
   9 -13  -4   -0.48    2.53   0
   9 -13  -3    1.90    1.81   0
   9 -13  -2   48.18    2.38   0
   9 -11 -20    2.04    1.82   0
   9  -9 -25   -0.99    1.72   0
   9  -7 -28    2.63    2.14   0
   9  -5 -31   -0.25    1.20   0
   9  -5 -31    1.14    1.06   0
  10 -10 -24    1.22    2.42   0
  10 -10  12   -1.35    2.38   0
  10  -8 -28    2.05    2.18   0
  10  -4  21    3.37    2.98   0
  10   4  26    4.18    2.14   0
  11 -13 -18    1.77    1.71   0
  11 -13 -17    1.15    2.46   0
  11 -13   5    9.73    2.49   0
  11 -11  11    5.11    2.44   0
  11  -5  21    0.15    3.51   0
  11   5  27   -1.05    2.09   0
  12 -14 -16    1.02    1.86   0
  12 -14 -15   -3.36    2.20   0
  12 -14   2   10.42    2.60   0
  12 -14   3    3.47    1.91   0
  12 -12 -23    1.22    1.21   0
  13 -15 -13    1.39    1.68   0
  13 -15 -12    2.13    1.73   0
  13 -15 -10    3.35    2.39   0
  13 -15  -3    0.66    2.38   0
  13 -15  -2    2.87    2.51   0
  13 -15  -1    2.73    1.63   0
  14 -12  12    1.32    2.41   0
  15 -15   3   -0.91    1.96   0
  15 -15   3    1.45    1.17   0
  15 -11  15    0.04    2.32   0
  15 -11  15   -0.43    1.10   0
  -1   7   3    0.40    2.56   0
  -1   9 -14    1.16    2.77   0
  -1   9   4    3.22    3.04   0
  -1  11   3   -0.09    1.79   0
  -1  13   1   23.47    1.94   0
  -1  15  -7   24.16    2.59   0
  -1  15  -6   18.34    2.63   0
  -1  15  -5    1.62    2.57   0
  -1  15  -4   53.86    3.01   0
  -1  15  -3   11.53    2.28   0
   0   4 -17   -0.02    2.50   0
   0   4   7   33.96    4.10   0
   0   6   8    6.84    2.41   0
   0   8   9  149.97    3.89   0
   0  10   9   -1.17    2.60   0
   0  12   8    2.53    1.67   0
   0  14 -17    1.36    2.23   0
   0  14   7   11.87    2.42   0
   0  16   4    4.84    1.79   0
   0  18 -10    0.46    2.14   0
   0  18  -9    2.36    2.39   0
   0  18  -8    2.16    1.76   0
   0  18  -3    6.81    1.66   0
   0  18  -2    3.28    1.62   0
   0  18  -1    5.38    2.30   0
   0  18   0    0.74    1.97   0
   1  -3  -8   18.76    2.70   0
   1  -3  -7    5.40    4.12   0
   1  -3  -3  227.28    6.86   0
   1  -1 -15    0.34    2.92   0
   1   7  12    5.69    1.97   0
   1  11  12    5.72    1.68   0
   1  13  11    3.06    1.75   0
   1  15  10   54.28    2.68   0
   1  17   8   -0.14    2.22   0
   1  19 -15   -0.01    1.88   0
   1  19   4   -0.74    1.50   0
   1  21  -7    5.58    2.09   0
   1  21  -6    3.35    1.96   0
   1  21  -5    0.54    1.84   0
   1  21  -4    1.11    1.88   0
   1  21  -3    0.60    1.84   0
   2  -2 -18   11.72    2.75   0
   2   0 -21   -1.02    2.54   0
   2   4  14   33.75    3.12   0
   2   6  15    0.34    2.42   0
   2   8  15    2.61    1.82   0
   2  10  15   12.15    1.70   0
   2  12  15    2.90    2.15   0
   2  14  14   10.62    2.42   0
   2  16 -23   -0.90    2.86   0
   2  16  12   19.19    1.98   0
   2  18 -21   -0.26    2.20   0
   2  18  10    2.78    1.72   0
   2  20 -18    1.92    2.26   0
   2  20   7   -1.10    2.11   0
   2  22 -12    2.52    2.47   0
   2  22   1    1.92    1.65   0
   2  22   2    2.83    2.19   0
   3  -5 -16   12.17    1.97   0
   3  -5   5    4.57    3.42   0
   3  -3 -20   12.27    2.58   0
   3  -1 -23    5.06    2.27   0
   3   1 -25    1.64    2.39   0
   3   3  16    1.63    2.60   0
   3   5  17    0.29    2.52   0
   3   7 -28    1.73    2.03   0
   3   9 -28    1.08    2.43   0
   3  13  17    1.52    2.00   0
   3  15  16   52.36    2.62   0
   3  17  14    0.06    1.79   0
   3  19  12    0.05    2.25   0
   3  21   9    1.32    2.13   0
   3  23   4    1.67    0.98   0
   3  23   4    0.99    0.98   0
   4  -8  -9   64.96    2.60   0
   4  -8  -8  126.40    3.10   0
   4  -8  -7   -0.81    2.92   0
   4  -8  -6   -0.84    2.83   0
   4  -8  -5    1.17    3.01   0
   4  -8  -4    3.33    3.01   0
   4  -8  -3    0.88    2.15   0
   4  -8  -2    7.61    2.26   0
   4  -6 -17   -2.84    2.43   0
   4   0  16   32.72    2.32   0
   4   2 -28    0.90    2.34   0
   4   6 -30    1.76    1.77   0
   4   6  19   -0.75    1.80   0
   4  12  19   -0.86    1.57   0
   4  14  18    1.37    1.62   0
   4  16  17    1.64    1.75   0
   4  20  13    0.92    1.61   0
   4  22  10    1.02    1.55   0
   5  -9 -11    1.45    1.76   0
   5  -9 -10    3.41    1.83   0
   5  -9  -9    2.57    2.67   0
   5  -9  -2   86.97    3.48   0
   5  -9  -1   16.40    2.75   0
   5  -7 -18    5.19    2.44   0
   5  -5 -23   -1.01    1.65   0
   5  -1 -28   -0.30    1.77   0
   5  -1  17    0.15    1.71   0
   5   7 -32   -0.63    1.46   0
   5   7 -32    0.25    1.06   0
   5   7  21   33.53    2.16   0
   5   9  21   10.80    1.85   0
   5  11  21    0.50    1.76   0
   5  17  18    4.86    1.81   0
   5  19  17    2.71    1.97   0
   5  21  14   -0.10    1.11   0
   6 -10 -11    1.45    1.63   0
   6 -10  -1   19.75    2.88   0
   6 -10   0   75.03    2.68   0
   6  -8 -19    2.84    1.77   0
   6  -6 -23    1.05    2.26   0
   6  -2 -29    0.64    1.63   0
   6   2 -32    0.31    1.73   0
   6   2  21    5.26    2.00   0
   6  18  19   -0.93    1.70   0
   7 -11 -11   -0.17    1.82   0
   7 -11 -10    3.71    2.28   0
   7 -11  -9    5.38    2.47   0
   7 -11  -1  100.55    3.23   0
   7  -9 -19   11.07    2.53   0
   7  -9   8    0.32    2.08   0
   7  -7 -24    2.87    1.54   0
   7  -5 -27   -0.38    2.00   0
   7   1 -33    2.02    1.18   0
   7   1 -33    0.56    1.00   0
   7   7  24    0.60    2.41   0
   7   9  24   -0.81    2.24   0
   7  11  24    2.23    2.10   0
   8 -12 -10   42.58    2.26   0
   8 -12  -9   25.24    2.02   0
   8 -12  -8    0.34    2.14   0
   8 -12  -7    8.73    2.57   0
   8 -12  -6   35.20    2.88   0
   8 -12  -5    6.05    2.61   0
   8 -12  -4   -0.68    2.64   0
   8 -12  -3    1.49    1.67   0
   8 -12  -2   42.02    2.22   0
   8 -10 -19   -0.38    2.20   0
   8  -8 -24    3.43    1.84   0
   8  -4 -30    0.49    2.13   0
   8  -2 -32   -0.21    1.67   0
   8  -2 -32    1.58    1.22   0
   8   6  25    1.69    2.01   0
   8   8  25    1.71    1.65   0
   8  10  25    1.63    1.86   0
   8  12  25    1.87    2.12   0
   8  14  24   -0.91    1.50   0
   9 -11 -19    0.17    1.78   0
   9 -11   7   -2.12    2.23   0
   9  -9 -24    1.04    1.69   0
   9  -5 -30   -0.03    2.07   0
   9  -3  21    0.97    2.96   0
   9   1  24    0.71    2.12   0
   9   3  25    1.59    2.24   0
   9   7  26    0.49    2.27   0
   9   9  26   -0.43    1.76   0
   9  11  26    2.29    2.43   0
  10 -12 -18   -0.46    1.92   0
  10 -12 -17    1.01    2.56   0
  10 -12   6    7.88    2.11   0
  10 -10 -23    4.00    2.61   0
  10  -8 -27    2.32    2.25   0
  10  -2  23    0.17    2.33   0
  10   8  27   -1.16    2.20   0
  11 -13 -16   -1.16    1.93   0
  11 -13 -15    0.28    2.63   0
  11 -13   4    4.70    2.39   0
  11 -11 -23    0.32    1.77   0
  11  -9 -27    0.59    1.67   0
  11  -9  15   -0.89    2.75   0
  11  -3  23    0.70    2.40   0
  12 -14 -14    0.32    1.68   0
  12 -14 -13   -0.63    2.03   0
  12 -14 -12    6.49    2.30   0
  12 -14   1    7.32    2.27   0
  12 -12 -22   -2.17    1.84   0
  12 -12 -21    4.19    2.39   0
  12   0  26    0.45    1.80   0
  12   2  27    0.68    1.95   0
  13 -15  -9    0.81    1.75   0
  13 -15  -8    2.72    1.76   0
  13 -15  -7   -1.41    1.77   0
  13 -15  -6   -1.08    1.69   0
  13 -15  -5    0.91    1.68   0
  13 -15  -4    2.64    1.78   0
  13 -13 -20   -2.72    1.38   0
  13 -13   8    1.45    2.00   0
  13 -11  13   -1.61    2.54   0
  13  -9  17    3.05    2.94   0
  14 -14   5    2.66    2.43   0
  14 -10  16   -0.81    2.64   0
  15 -15   1    1.32    2.34   0
  15 -15   2    1.97    1.75   0
  15 -13  10    2.96    2.46   0
  -1   3  -3    0.81    4.60   0
  -1   5   2  235.08    5.22   0
  -1   7   4   14.77    3.12   0
  -1   9   5    8.32    2.80   0
  -1  11   4    1.52    1.79   0
  -1  13 -12    1.16    2.13   0
  -1  13   2   -0.01    1.78   0
  -1  13   3    1.08    2.44   0
  -1  15  -9   30.57    2.68   0
  -1  15  -8    4.09    2.37   0
  -1  15  -2    0.90    1.72   0
  -1  15  -1   -1.50    2.44   0
  -1  15   0   12.57    2.28   0
   0   2   5   10.09    4.73   0
   0   6   9   14.81    3.35   0
   0  12   9    0.56    2.35   0
   0  14   8    5.59    2.40   0
   0  16 -15    2.56    2.06   0
   0  16   5    4.26    1.77   0
   0  16   6    0.65    2.16   0
   0  18 -11   -0.72    2.32   0
   0  18   1    3.12    1.56   0
   0  18   2    6.71    2.26   0
   1  -3  -6   54.08    3.91   0
   1  -3  -5  209.56    5.32   0
   1  -3  -4   74.83    4.29   0
   1  -1   5   80.57    7.74   0
   1   1 -18   70.35    3.14   0
   1   5  12   41.54    3.33   0
   1   7  13    9.84    2.66   0
   1   9  13   18.48    1.96   0
   1  11  13    7.29    2.39   0
   1  13  12    1.53    1.71   0
   1  15  11   -0.17    2.42   0
   1  17   9    2.75    2.33   0
   1  19   5    1.82    1.56   0
   1  19   6    2.32    2.20   0
   1  21 -10    0.31    2.03   0
   1  21  -9    1.58    2.27   0
   1  21  -8   -1.24    1.61   0
   1  21  -2   -0.52    1.42   0
   1  21  -1    1.35    1.67   0
   1  21   0    2.36    2.23   0
   2  -4 -12   16.90    2.98   0
   2   2  13   19.68    2.82   0
   2   4 -24    0.75    2.37   0
   2   6 -25    5.88    2.29   0
   2   8  16   -2.26    2.30   0
   2  10  16    7.49    2.46   0
   2  12 -25    0.16    3.52   0
   2  16  13    5.07    1.89   0
   2  18  11    3.94    1.72   0
   2  20   8   -0.28    1.58   0
   2  22 -13    0.53    1.67   0
   2  22   3    0.97    1.50   0
   2  22   4   -1.32    2.16   0
   3  -5 -15    1.92    1.81   0
   3   5 -27    0.65    2.36   0
   3   7  18    2.06    2.40   0
   3   9  18    4.31    1.86   0
   3  11  18   12.94    2.52   0
   3  17  15    3.26    1.78   0
   3  19  13    9.56    2.31   0
   3  21  10    0.19    1.57   0
   3  23   5    0.00    1.39   0
   3  23   6   -0.76    2.08   0
   4  -6 -16   12.22    2.48   0
   4  -4 -21   12.64    1.83   0
   4  -2 -24    7.93    1.94   0
   4  -2  14    0.62    2.51   0
   4   0 -26    0.55    2.22   0
   4   4  19   -0.41    2.45   0
   4   8 -30   -0.38    2.23   0
   4   8  20    1.93    2.51   0
   4  10 -30    0.72    1.92   0
   4  10 -30    0.13    0.95   0
   4  10  20    3.31    1.73   0
   4  14  19    4.85    1.73   0
   4  16  18    4.01    2.23   0
   4  18  16    0.90    1.61   0
   4  22  11   -0.32    1.51   0
   5  -9  -8    0.38    1.83   0
   5  -9  -7   31.90    2.25   0
   5  -9  -6    0.51    1.96   0
   5  -9  -5    2.58    2.48   0
   5  -9  -4   28.34    2.17   0
   5  -9  -3   23.53    2.16   0
   5  -7 -17   23.56    2.42   0
   5  -7   7  111.11    4.17   0
   5  -5 -22    8.04    1.84   0
   5  -3 -25    1.86    2.02   0
   5   1 -29    2.26    2.55   0
   5   1  19    4.90    1.90   0
   5   3  20   14.07    1.94   0
   5   5  21   40.19    2.94   0
   5  13  21    2.82    1.65   0
   5  15  20   -0.68    1.56   0
   5  17  19    1.18    1.71   0
   6 -10  -9   21.11    1.90   0
   6 -10  -8    1.50    1.64   0
   6 -10  -5   65.11    3.10   0
   6 -10  -4    4.25    2.51   0
   6 -10  -3    2.99    1.88   0
   6  -8 -18    8.84    1.92   0
   6  -4 -26   -1.50    1.71   0
   6  -2 -28    4.51    2.24   0
   6  -2  18   46.04    3.43   0
   6   0 -30    1.40    2.34   0
   6   4  22    7.95    1.74   0
   6   6  23    5.68    2.20   0
   6   8  23    3.58    1.70   0
   6  10  23    6.43    1.81   0
   6  12  23    0.99    2.21   0
   6  14  22    2.27    1.67   0
   6  16  21    0.14    1.55   0
   6  18  20    0.25    1.54   0
   7 -11  -8    1.39    1.91   0
   7 -11  -6    3.79    1.84   0
   7 -11  -5   25.72    2.09   0
   7 -11  -4   -0.17    1.80   0
   7 -11  -3    1.14    1.75   0
   7  -9 -18    2.02    2.18   0
   7  -7 -23   -1.64    1.53   0
   7  -5 -26    0.76    2.22   0
   7  -3 -29    1.84    1.68   0
   7  -1 -31    0.80    1.72   0
   7   1  22    1.75    1.92   0
   7   3  23    0.63    2.18   0
   7   5  24    2.09    2.09   0
   7  13  24    1.55    2.41   0
   7  15  23    2.29    1.52   0
   8 -10 -18   -0.11    1.77   0
   8 -10   7   84.47    3.54   0
   8  -8 -23   -1.07    2.09   0
   8  -6 -27   -0.96    1.61   0
   8  -2  21    1.58    2.62   0
   9 -11   6   24.83    2.71   0
   9  -9 -23    0.45    1.68   0
   9  -9  12   -0.30    2.20   0
   9  -7 -27    1.38    1.71   0
   9  -1  23    0.08    2.26   0
   9   5  26   -0.91    2.13   0
  10 -12 -16    8.25    2.04   0
  10 -12   5    7.97    2.34   0
  10 -10 -22   -1.16    2.59   0
  10   6  27    0.17    1.06   0
  10   6  27   -0.12    1.03   0
  11 -13 -14    0.88    1.74   0
  11 -13 -13    1.86    2.23   0
  11 -13   3    2.24    1.81   0
  11 -11 -22   -1.45    1.86   0
  11 -11 -21    2.12    2.42   0
  11  -9 -26   -2.32    2.05   0
  11   1  26    1.22    2.04   0
  11   3  27    0.28    2.25   0
  12 -14 -11    0.28    1.73   0
  12 -14 -10   -0.86    2.19   0
  12 -14  -9    2.44    2.40   0
  12 -14  -8    2.41    2.22   0
  12 -14  -3    2.07    2.41   0
  12 -14  -2    0.69    2.47   0
  12 -14  -1    0.37    2.00   0
  12 -14   0    0.70    1.58   0
  12 -12 -20   -0.61    1.92   0
  12 -12   9    1.48    2.33   0
  12 -10 -25    0.90    2.54   0
  12 -10  14    0.67    2.56   0
  12  -4  23    1.80    3.05   0
  13 -13 -19    2.12    1.79   0
  13 -13 -18    0.23    2.63   0
  13 -13   7    1.01    2.32   0
  14 -14 -15    1.73    2.56   0
  14 -14   4    0.90    2.40   0
  15 -15  -2    1.43    2.53   0
  15 -15  -1    0.85    2.56   0
  15 -15   0    2.03    1.86   0
  15 -13   9   -0.08    2.60   0
  -1   3  -2    7.23    4.83   0
  -1   5   3   25.64    4.08   0
  -1   7   5   58.71    3.62   0
  -1  11 -14   12.58    2.68   0
  -1  11   5   19.19    2.08   0
  -1  13 -13    7.79    2.11   0
  -1  13   4    4.45    1.84   0
  -1  15 -10   51.64    3.11   0
  -1  15   1    1.09    1.59   0
  -1  15   2    6.97    2.54   0
   0   4   8   21.44    3.77   0
   0   6 -18    1.74    2.36   0
   0   8  10    7.57    2.12   0
   0  10  10   25.46    2.10   0
   0  12  10   14.52    2.49   0
   0  14   9   34.33    2.56   0
   0  16 -16    5.12    2.35   0
   0  16   7    3.45    2.20   0
   0  18 -12    2.02    2.36   0
   0  18   3    7.30    1.71   0
   0  18   4    0.72    1.97   0
   1  -1 -14  861.62    7.75   0
   1   3  11   21.77    3.11   0
   1   9  14    0.17    2.27   0
   1  15 -21    0.93    2.57   0
   1  15  12   28.98    2.61   0
   1  17 -19    0.42    1.88   0
   1  17  10    2.69    1.69   0
   1  19 -16   -0.98    1.96   0
   1  19   7    3.36    1.65   0
   1  21 -12   -0.09    2.07   0
   1  21 -11    0.75    2.41   0
   1  21   1   -1.74    1.51   0
   1  21   2   -0.73    1.64   0
   1  21   3    2.00    2.00   0
   2  -4 -11    5.74    2.24   0
   2  -4   2    2.24    2.90   0
   2  -2 -17   26.26    2.26   0
   2   0 -20    3.01    2.65   0
   2   0  11   -0.17    2.40   0
   2   4  15    0.33    2.55   0
   2   6  16    8.13    2.39   0
   2  12  16    0.93    1.74   0
   2  14  15    0.60    1.66   0
   2  16  14    0.64    1.77   0
   2  18  12    0.56    1.67   0
   2  20   9    3.49    1.59   0
   2  20  10    2.23    1.92   0
   2  22   5    0.85    1.58   0
   2  22   6   -0.04    1.74   0
   3  -5 -14   12.82    1.97   0
   3  -3 -19    0.69    1.71   0
   3  -1 -22    1.37    1.75   0
   3   1 -24    8.33    2.46   0
   3   1  15    0.44    1.97   0
   3  13  18    0.90    1.61   0
   3  15  17    7.18    1.88   0
   3  17  16   -0.29    2.27   0
   3  19  14    0.07    1.57   0
   3  21  11    1.90    1.63   0
   3  23   7    2.83    1.63   0
   4  -6 -15    0.93    2.47   0
   4  -6   6   19.71    3.29   0
   4  -4 -20    0.94    2.35   0
   4  -2 -23    6.95    2.62   0
   4   2  18    7.65    2.43   0
   4   6  20    1.37    1.80   0
   4  12  20   -1.75    1.53   0
   4  14  20    5.14    2.04   0
   4  16  19    0.49    1.91   0
   4  18  17    3.08    1.80   0
   4  20  15   -0.29    1.49   0
   5  -7 -16   -0.09    2.28   0
   5  -5 -21    1.14    2.40   0
   5  -3  15    0.47    2.77   0
   5  -1 -27   -0.06    1.61   0
   5   3 -30    0.48    1.79   0
   5   7  22    2.17    2.22   0
   5   9  22    4.31    1.80   0
   5  11  22   17.62    1.92   0
   5  13  22    4.50    2.07   0
   5  15  21    2.46    1.60   0
   5  17  20   -0.15    2.27   0
   5  19  18    1.28    1.66   0
   6  -8 -17   19.43    2.10   0
   6  -8   7    2.29    2.19   0
   6  -6  12    7.62    3.72   0
   6  -4 -25   -1.80    2.23   0
   6   0  20   17.31    2.29   0
   6   2 -31    1.43    2.10   0
   6   4 -32    1.62    2.47   0
   6  14  23    1.90    2.32   0
   6  16  22    1.72    1.49   0
   7  -9 -17   -0.48    1.77   0
   7  -9   7    4.71    2.17   0
   7  -7 -22    0.17    2.11   0
   7  -3 -28    4.24    2.11   0
   7   1 -32    0.18    1.21   0
   7   1 -32   -0.34    1.10   0
   7   3 -33    2.06    2.06   0
   7   3 -33    0.90    1.06   0
   7   9  25    3.59    2.49   0
   7  11  25    1.26    2.29   0
   8 -10 -17    0.61    1.81   0
   8 -10 -16    6.81    2.55   0
   8  -8 -22    1.83    2.13   0
   8  -6 -26    0.05    1.61   0
   8  -4 -29    1.97    1.51   0
   8  -4  19    1.20    3.41   0
   8  -2 -31    0.22    1.74   0
   8   2  24   -0.56    2.11   0
   8   4  25    2.34    2.18   0
   8   8  26   -0.95    2.13   0
   8  10  26   -0.07    1.87   0
   8  12  26    1.63    2.52   0
   9 -11 -16    1.97    1.81   0
   9 -11 -15   13.65    2.57   0
   9  -7 -26   -0.87    1.79   0
   9  -5 -29   -0.64    1.66   0
   9  -5  19   32.69    7.22   0
   9  -3 -31   -1.94    2.25   0
   9   7  27   -0.17    1.98   0
   9   9  27    0.32    1.67   0
  10 -12 -14    3.45    2.23   0
  10 -12   4    7.14    2.27   0
  10 -10 -21    5.53    2.66   0
  10 -10  11   -0.85    2.36   0
  10  -8 -26    1.71    1.73   0
  10  -6 -29    0.04    1.57   0
  10   2  26    2.61    2.36   0
  10   4  27    2.34    2.29   0
  11 -13 -12   -0.21    1.74   0
  11 -13   1    0.12    2.36   0
  11 -13   2    0.12    1.67   0
  11 -11 -20   -1.31    2.41   0
  11 -11  10    1.77    2.12   0
  11  -9 -25    1.24    2.06   0
  11  -1  25    0.27    2.08   0
  12 -14  -6   14.99    2.00   0
  12 -14  -4    1.83    1.80   0
  12 -12 -19   -0.76    1.64   0
  12 -12   8   -1.21    2.45   0
  12 -10 -24   -2.24    2.42   0
  12  -2  25    0.58    2.44   0
  13 -13 -17    1.75    1.74   0
  13 -13 -16    4.36    2.48   0
  13 -13   6    1.28    2.57   0
  14 -14 -14   -0.53    1.70   0
  14 -14 -13    1.27    2.34   0
  14 -14   3    2.20    2.16   0
  14 -12  11   -0.68    2.05   0
  15 -15  -9    1.13    1.58   0
  15 -15  -8    0.57    1.62   0
  15 -15  -7   -0.27    1.60   0
  15 -15  -6    1.51    1.80   0
  15 -15  -5   -1.18    1.77   0
  15 -15  -4   -1.52    1.78   0
  15 -15  -3    1.17    1.74   0
  15 -11  14    2.57    2.65   0
  15  -9  18    0.49    3.06   0
  -1   9   6    9.91    2.10   0
  -1  11   6   43.51    2.27   0
  -1  13   5    1.78    1.65   0
  -1  15 -11   -0.64    2.19   0
  -1  15   3   -1.07    1.79   0
  -1  15   4   15.38    2.34   0
  -1  17  -6   -0.39    2.25   0
  -1  17  -5    2.71    2.30   0
  -1  17  -4   25.36    2.55   0
  -1  17  -3    0.33    2.17   0
  -1  17  -2    9.72    2.14   0
  -1  17  -1   24.30    2.24   0
   0   6  10  102.60    3.88   0
   0   8  11  138.35    3.73   0
   0  10  11    2.72    1.78   0
   0  12 -19   24.86    5.14   0
   0  12  11   14.53    2.53   0
   0  14 -18   15.29    2.97   0
   0  14  10    0.29    2.43   0
   0  16   8    6.17    1.75   0
   0  18 -13   -1.27    2.31   0
   0  18   5    1.35    1.60   0
   0  20  -8    0.14    2.19   0
   0  20  -7    7.36    2.48   0
   0  20  -6   -1.31    2.51   0
   0  20  -5    0.03    1.69   0
   0  20  -4    0.04    1.59   0
   0  20  -3    0.53    1.51   0
   0  20  -2    2.70    2.20   0
   0  20  -1    1.92    2.37   0
   0  20   0    1.49    2.04   0
   1  -1 -13   -0.13    2.59   0
   1   1   9    1.06    3.24   0
   1   5 -21    2.35    2.06   0
   1   5  13   59.87    3.30   0
   1   7 -22    0.95    2.28   0
   1   7  14    7.55    2.59   0
   1  11  14   10.19    1.91   0
   1  13  14    0.94    2.21   0
   1  15  13    3.88    2.28   0
   1  17  11    0.68    1.62   0
   1  19 -17   -0.01    1.80   0
   1  19   8    4.00    1.67   0
   1  19   9   -1.07    1.90   0
   1  21 -13    1.45    2.21   0
   1  21   4   -2.02    1.68   0
   1  21   5    5.29    2.11   0
   2  -4 -10    0.25    1.96   0
   2  -2 -16   23.14    2.93   0
   2   2 -22    4.15    1.79   0
   2   8 -25    3.80    2.38   0
   2   8  17   25.46    2.63   0
   2  10  17    7.13    1.87   0
   2  12  17   -4.06    2.13   0
   2  14  16   11.68    1.71   0
   2  18  13    7.35    1.82   0
   2  20  11    0.62    2.28   0
   2  22   7    3.27    1.56   0
   3  -5 -13   84.57    2.75   0
   3  -5   4    2.70    3.25   0
   3  -3 -18   25.26    2.54   0
   3  -1  13   39.39    2.97   0
   3   3  17   11.77    2.77   0
   3   5  18    0.13    1.81   0
   3   7  19   -2.47    2.32   0
   3   9  19   19.23    2.04   0
   3  11  19    5.15    1.72   0
   3  13 -27    0.98    3.54   0
   3  13  19    6.92    2.23   0
   3  15  18    1.76    2.21   0
   3  17  17   -0.21    2.27   0
   3  19  15    0.54    2.11   0
   3  21  12    4.11    1.64   0
   3  21  13    1.87    2.03   0
   4  -6 -14    0.12    2.61   0
   4   0 -25   -3.02    2.26   0
   4   2 -27   -1.00    1.84   0
   4   6 -29    1.27    2.19   0
   4   8  21    2.71    2.35   0
   4  10  21    1.84    1.79   0
   4  12  21    5.74    2.42   0
   4  18  18   -0.72    1.78   0
   4  20  16    1.11    1.49   0
   5  -7 -15   43.24    2.75   0
   5  -5 -20    0.89    2.51   0
   5  -3 -24    9.40    1.71   0
   5  -1 -26    1.95    2.19   0
   5   1 -28   -0.85    2.47   0
   5   3  21   20.27    2.36   0
   5   5  22    6.59    2.31   0
   5   7 -31   -1.38    2.14   0
   5   9  23    2.69    2.21   0
   5  11  23    2.02    2.10   0
   5  15  22    3.88    2.11   0
   5  17  21    2.94    1.96   0
   6  -8 -16    1.54    1.82   0
   6  -6 -21   -1.68    1.66   0
   6  -2 -27   -2.73    1.90   0
   6   0 -29    0.41    2.15   0
   6   4  23    4.08    2.27   0
   6   8  24    1.24    1.54   0
   6  10  24    8.20    1.87   0
   6  12  24   -0.74    1.67   0
   6  16  23    2.33    1.87   0
   7  -9 -16    0.80    1.75   0
   7  -7 -21    9.55    2.54   0
   7  -5 -25    0.54    1.61   0
   7  -1 -30   -1.65    1.57   0
   7  -1  21    8.70    2.46   0
   7   7  25   10.14    1.98   0
   7  13  25    1.65    1.61   0
   8 -10 -15   23.23    2.48   0
   8 -10   6  109.39    3.69   0
   8  -8 -21   -1.36    2.26   0
   8  -8  12   27.30    3.05   0
   8  -6 -25    0.67    1.93   0
   8  -4 -28    1.65    1.89   0
   8   0 -32    0.74    1.92   0
   8   0  23   -1.28    1.89   0
   8   6  26   -1.57    1.70   0
   9 -11 -14    2.40    2.21   0
   9 -11   5   85.35    3.00   0
   9  -9 -21    3.82    1.73   0
   9  -7 -25    1.66    2.05   0
   9  -5 -28   -1.49    2.19   0
   9   3  26   -0.84    2.18   0
  10 -12 -13    7.11    1.85   0
  10 -12 -12    8.67    2.16   0
  10 -12   2    0.23    2.47   0
  10 -12   3   14.83    2.02   0
  10 -10 -20    0.37    2.10   0
  10  -8 -25    2.00    1.79   0
  10  -6 -28    1.73    2.04   0
  10   0  25   -0.56    2.07   0
  10   6  28   -1.85    1.96   0
  11 -13 -10   -0.29    1.66   0
  11 -13  -9    1.39    1.67   0
  11 -13  -8   -0.07    1.95   0
  11 -13  -7    3.07    2.31   0
  11 -13  -6    4.52    2.34   0
  11 -13  -5    1.86    2.31   0
  11 -13  -3    7.83    2.37   0
  11 -13  -2    3.16    2.36   0
  11 -13  -1    1.01    2.02   0
  11 -13   0    1.30    1.66   0
  11 -11 -19    0.53    1.83   0
  11  -9 -24   -1.08    2.18   0
  11  -7 -28   -1.37    1.60   0
  12 -12 -18    1.42    1.69   0
  12 -12 -17    2.80    2.37   0
  12 -10 -23    3.36    2.42   0
  13 -13 -15   -1.04    2.21   0
  13 -13   5    0.19    2.69   0
  13 -11 -22    1.59    2.12   0
  13 -11  12   -1.16    2.48   0
  14 -14 -12   -0.07    1.61   0
  14 -14 -11   -0.92    1.99   0
  14 -14   0    1.56    2.30   0
  14 -14   1    1.04    2.04   0
  14 -14   2    1.14    1.87   0
  14 -12  10    1.99    2.61   0
  14  -8  19    0.60    3.37   0
  15 -13   8    0.10    2.19   0
  16 -14   4    1.22    2.45   0
  16 -14   5   -0.24    1.05   0
  16 -14   5    0.33    1.10   0
  -2  10  -5   46.31    3.03   0
  -2  10  -4   57.62    3.34   0
  -2  10  -3    1.60    2.83   0
  -2  10  -2   19.68    2.90   0
  -1   3  -1   47.97    4.47   0
  -1   5   4    8.81    2.82   0
  -1   7   6    2.55    2.33   0
  -1   9   7   90.63    2.89   0
  -1  11   7    3.28    1.85   0
  -1  13 -14    0.24    2.27   0
  -1  13   6   32.68    1.96   0
  -1  15 -12   25.98    2.66   0
  -1  15   5   -1.79    2.33   0
  -1  17  -9    3.35    2.42   0
  -1  17  -8    2.65    2.47   0
  -1  17  -7   -1.40    1.66   0
  -1  17   0    0.05    1.75   0
  -1  17   1    0.76    2.39   0
  -1  17   2   19.03    2.30   0
   0   2   6   41.05    3.64   0
   0   4 -16    0.41    2.23   0
   0   4   9   46.25    3.53   0
   0  10  12   23.67    2.60   0
   0  14  11    3.61    2.29   0
   0  16   9   17.29    1.87   0
   0  18 -14    0.69    2.25   0
   0  18   6    0.17    1.49   0
   0  18   7    0.41    2.08   0
   0  20 -10    1.05    2.13   0
   0  20  -9   -1.20    2.31   0
   0  20   1    0.28    1.65   0
   0  20   2    1.84    2.33   0
   0  20   3    4.17    2.02   0
   1   3  12    0.38    3.10   0
   1   9  15    3.40    2.37   0
   1  11  15    6.32    1.81   0
   1  15  14   12.22    2.24   0
   1  17  12   -0.46    1.64   0
   1  19  10    2.78    2.12   0
   1  21 -14   -0.14    2.07   0
   1  21   6    1.11    1.58   0
   1  21   7   -1.60    1.85   0
   1  23  -7    1.17    1.82   0
   1  23  -6    1.29    1.90   0
   1  23  -5    0.42    2.24   0
   1  23  -4    1.28    2.30   0
   1  23  -3   -4.75    2.35   0
   1  23  -2    0.87    2.29   0
   1  23  -1    0.44    2.08   0
   2  -4  -9   -0.20    2.49   0
   2  -4  -8   68.48    4.03   0
   2  -4   1  173.67    5.36   0
   2  -2   8   37.27    5.87   0
   2   0 -19    0.29    2.58   0
   2   2  14    2.66    2.67   0
   2   6  17   12.47    2.35   0
   2  10 -25    0.39    2.55   0
   2  14  17   -3.44    2.19   0
   2  16  16    8.43    2.43   0
   2  18 -22    0.29    2.24   0
   2  18  14    2.05    1.77   0
   2  20  12   -1.27    1.87   0
   2  22   8    0.34    1.48   0
   2  22   9   -1.20    2.06   0
   3  -5 -12    1.96    2.01   0
   3  -5 -11    0.31    2.95   0
   3  -3 -17   10.92    2.62   0
   3  -1 -21    3.24    1.80   0
   3   1 -23    9.26    2.63   0
   3   3 -25    3.30    2.04   0
   3   5 -26    0.64    2.62   0
   3   7 -27   -0.72    1.84   0
   3   9  20   -3.39    2.22   0
   3  11  20    3.00    2.45   0
   3  15  19    1.82    1.96   0
   3  19  16    1.49    2.08   0
   3  21  14   -2.65    1.97   0
   4  -6 -13   86.99    3.27   0
   4  -4 -19    2.94    1.70   0
   4  -2 -22    3.49    2.52   0
   4   0  17   -0.50    1.55   0
   4   4  20   10.97    2.61   0
   4   6  21    2.58    2.42   0
   4  14  21    3.90    1.69   0
   4  16  20    1.99    1.58   0
   4  18  19    2.41    2.17   0
   4  20  17    0.20    1.52   0
   5  -7 -14   -1.19    2.29   0
   5  -7   6    2.57    2.57   0
   5  -3 -23   -1.88    2.29   0
   5   3 -29   -0.15    2.47   0
   5   7  23    0.25    2.32   0
   5   9 -31    0.23    2.42   0
   5  13  23    0.12    2.47   0
   6  -8 -14    4.96    2.43   0
   6  -8   6   53.55    3.03   0
   6  -6 -20   -1.52    2.17   0
   6  -4 -24    3.08    1.62   0
   6   2 -30    0.81    2.40   0
   6   2  22    5.93    1.68   0
   6   6  24   -0.20    1.75   0
   6  14  24    1.00    1.67   0
   7  -9 -15    1.63    1.77   0
   7  -9 -14    6.42    2.43   0
   7  -9   6   19.48    2.71   0
   7  -7  12    1.76    2.45   0
   7  -5 -24    3.20    2.28   0
   7  -3 -27    2.99    1.94   0
   7  -3  19    1.46    3.00   0
   7  -1 -29   -1.92    2.17   0
   7   1 -31   -1.54    2.10   0
   7   3 -32    0.84    2.20   0
   7   3  24    0.73    2.14   0
   7   5  25    5.82    2.67   0
   7   9  26    4.23    2.37   0
   7  11  26   -0.80    2.62   0
   8 -10 -14    1.70    1.74   0
   8 -10 -13    0.25    2.35   0
   8 -10   5    1.87    2.65   0
   8  -8 -20    5.56    2.51   0
   8  -6 -24   -2.71    2.33   0
   8  -2 -30   -0.64    1.68   0
   8   8  27   -1.05    2.31   0
   8  10  27    2.10    1.86   0
   9 -11 -13    4.62    1.81   0
   9 -11 -12    4.46    2.49   0
   9 -11   4   25.60    2.25   0
   9  -9  11   12.40    2.75   0
   9  -7 -24    2.17    2.34   0
   9  -3 -30    1.83    2.05   0
   9  -1 -32    3.27    2.03   0
   9   1  25    0.48    2.03   0
   9   5  27    1.21    1.63   0
  10 -12 -11   -2.29    1.74   0
  10 -12 -10    0.39    1.73   0
  10 -12  -9    2.97    2.39   0
  10 -12   0   91.73    3.42   0
  10 -12   1    6.46    2.36   0
  10 -10 -19    0.32    1.82   0
  10 -10  10    2.08    2.80   0
  10  -8 -24    2.75    1.73   0
  10  -8  15    4.16    3.28   0
  10  -4 -30   -0.55    1.92   0
  11 -11 -18    3.41    2.00   0
  11 -11   9    0.59    2.22   0
  11  -9 -23    1.88    2.24   0
  11  -7 -27    3.22    1.61   0
  11   3  28    0.25    1.97   0
  12 -12 -16    1.94    1.94   0
  12 -12   7    0.95    2.25   0
  12 -10 -22   -2.34    2.20   0
  12 -10  13    5.23    2.64   0
  12  -8 -26    2.73    2.41   0
  13 -13 -14   -2.24    1.70   0
  13 -13 -13   -0.16    2.00   0
  13 -13   4    6.04    2.42   0
  13 -11 -21    1.66    1.69   0
  13  -3  25    7.76    3.50   0
  14 -14  -9    2.66    1.76   0
  14 -14  -8    0.79    1.71   0
  14 -14  -7    4.16    2.11   0
  14 -14  -6   -0.14    2.03   0
  14 -14  -4    2.60    2.43   0
  14 -14  -3    0.68    2.01   0
  14 -14  -2    1.56    2.20   0
  14 -14  -1   -1.33    1.76   0
  14 -12 -19   -0.66    1.84   0
  14 -10  15    1.53    2.52   0
  15 -13   7    1.44    2.33   0
  16 -14   2    0.67    2.23   0
  16 -14   3    0.29    1.61   0
  16 -14   3   -1.24    1.25   0
  -2   8  -4   10.55    2.80   0
  -2   8  -3  333.75    5.54   0
  -2   8  -2   -0.01    3.08   0
  -2  10  -7   24.89    2.55   0
  -2  10  -6    3.05    2.55   0
  -2  10  -1    0.03    2.18   0
  -2  10   0   99.21    3.57   0
  -2  12  -6   48.43    3.15   0
  -2  12  -5    1.73    2.69   0
  -2  12  -4    9.60    2.03   0
  -2  12  -3    5.68    2.01   0
  -2  12  -2   32.61    2.27   0
  -2  12  -1   38.62    2.97   0
  -2  12   0   14.06    2.82   0
  -1   3   0   30.76    5.30   0
  -1   5   5   10.65    2.67   0
  -1   7   7   66.72    2.83   0
  -1   9   8   33.80    2.35   0
  -1  11 -15    3.43    2.79   0
  -1  11   8    0.09    1.77   0
  -1  13   8   11.22    2.39   0
  -1  15 -13    0.87    1.76   0
  -1  15   6    0.67    1.64   0
  -1  17 -10    6.78    2.47   0
  -1  17   3   -1.21    1.62   0
  -1  17   4   19.62    2.49   0
   0   6  11   -0.64    2.15   0
   0   8  12    7.59    2.03   0
   0  14  12   82.47    2.91   0
   0  16 -17    1.56    1.99   0
   0  16  10   -1.77    1.64   0
   0  18 -15    0.31    1.84   0
   0  18   8    0.66    1.57   0
   0  20 -11    1.61    2.24   0
   0  20   4    0.24    1.61   0
   0  20   5    0.93    1.94   0
   1   5  14   15.98    2.92   0
   1   7  15    7.83    1.98   0
   1  11  16    2.12    2.20   0
   1  13  15   29.89    2.05   0
   1  17 -20    3.07    2.51   0
   1  17  13    3.17    1.70   0
   1  19 -18    0.44    1.74   0
   1  19  11    0.65    1.68   0
   1  21 -15    0.38    1.86   0
   1  21   8   -0.41    2.14   0
   1  23  -8    0.70    1.10   0
   1  23  -8   -0.32    1.07   0
   1  23   0    1.61    1.63   0
   1  23   1   -0.01    1.67   0
   1  23   2    2.34    2.16   0
   1  23   3    5.45    1.97   0
   2  -4  -7  106.06    3.74   0
   2  -4  -6   26.44    3.78   0
   2  -4   0  341.16    7.30   0
   2  -2 -15    0.36    2.12   0
   2   2 -21    7.33    2.41   0
   2   4  16    0.37    1.89   0
   2   6 -24   -0.24    2.03   0
   2   8  18    5.85    2.62   0
   2  10  18    2.90    1.87   0
   2  12  18   15.96    1.86   0
   2  14  18    2.76    2.00   0
   2  16  17    4.15    2.27   0
   2  18  15    2.04    1.76   0
   2  20  13   -0.90    1.79   0
   2  22  10    3.07    1.71   0
   3  -5 -10    3.59    3.12   0
   3  -1 -20   17.26    2.69   0
   3   1  16    1.06    2.04   0
   3   5  19   -1.46    2.46   0
   3   7  20   16.81    2.54   0
   3  13  20   -1.06    1.61   0
   3  17  18    0.88    1.79   0
   3  19  17    0.15    2.07   0
   3  21  15    2.42    2.22   0
   4  -6 -12    0.51    1.99   0
   4  -6   5    5.49    2.95   0
   4  -4 -18   -0.66    1.75   0
   4   0 -24    1.40    2.33   0
   4   2 -26    0.62    2.43   0
   4   2  19    6.44    2.26   0
   4   8 -29   -0.35    1.99   0
   4   8  22    2.90    2.20   0
   4  10  22   18.90    2.07   0
   4  12  22    1.75    1.63   0
   4  14  22    3.42    2.19   0
   4  16  21    0.14    2.26   0
   4  18  20   -1.23    2.28   0
   5  -5 -19    1.24    1.76   0
   5  -1 -25    1.02    2.28   0
   5  -1  18    3.92    1.74   0
   5   1 -27    1.76    2.34   0
   5   1  20   22.27    2.38   0
   5   9  24    6.79    2.11   0
   5  11  24    1.72    2.34   0
   5  15  23   -2.13    1.60   0
   5  17  22    3.01    1.51   0
   6  -6 -19    1.86    2.41   0
   6  -4 -23    2.55    2.20   0
   6  -2 -26    2.10    1.59   0
   6   0 -28    0.71    2.37   0
   6   4 -31    0.51    2.14   0
   6   8  25   -1.35    2.30   0
   6  10  25    1.72    1.81   0
   6  12  25    1.56    1.61   0
   6  14  25   -0.49    1.94   0
   7  -9 -13    4.32    1.89   0
   7  -9   5   14.75    2.91   0
   7  -7 -19   -0.68    2.33   0
   7   1  23    1.24    1.98   0
   7   7  26   -2.36    2.46   0
   7  13  26    1.13    1.64   0
   8 -10 -12   65.72    2.83   0
   8 -10   4   24.57    2.84   0
   8  -8 -19    1.49    2.55   0
   8  -4 -27    0.49    1.65   0
   8  -2 -29    1.90    2.47   0
   8   0 -31    2.60    2.00   0
   8   2  25    0.87    2.17   0
   8   4  26   -0.77    2.25   0
   8   6  27    0.37    2.02   0
   9 -11 -11    3.81    1.83   0
   9 -11 -10   25.97    2.52   0
   9 -11   2   23.06    2.81   0
   9 -11   3    8.70    1.92   0
   9  -9 -19    2.15    1.75   0
   9  -7 -23   -0.12    2.28   0
   9  -5 -27    0.20    1.65   0
   9   7  28    0.11    1.50   0
  10 -12  -8    3.70    1.83   0
  10 -12  -7    0.91    1.81   0
  10 -12  -6   -0.80    1.78   0
  10 -12  -5    0.34    2.26   0
  10 -12  -4   61.11    3.17   0
  10 -12  -3   32.10    2.92   0
  10 -12  -2    1.92    2.22   0
  10 -12  -1   15.29    1.93   0
  10  -8 -23    0.27    1.62   0
  10   2  27    0.55    1.86   0
  10   4  28   -0.89    2.24   0
  11 -11 -17    0.13    1.89   0
  11 -11   8    2.71    2.81   0
  11  -9 -22   -2.55    2.54   0
  11  -9  14    3.50    2.69   0
  11  -7 -26    2.32    2.29   0
  11  -7  18    1.14    3.69   0
  11  -5 -29    2.59    2.02   0
  11  -5 -29    1.40    1.11   0
  11   1  27   -0.02    2.10   0
  12 -12 -15    0.51    1.99   0
  12 -12 -14   -3.40    2.04   0
  12 -12   6   18.27    2.80   0
  12 -10 -21   -1.07    2.22   0
  12   0  27   -0.05    2.19   0
  13 -13 -12    2.96    1.71   0
  13 -13 -11    0.68    1.73   0
  13 -13 -10    0.86    2.32   0
  13 -13   2    2.58    2.48   0
  13 -13   3    3.29    1.86   0
  13 -11 -20   -0.44    1.64   0
  13 -11  11   -0.58    2.42   0
  14 -12 -18   -0.16    1.79   0
  14 -12 -17    1.37    2.71   0
  14 -12   9    2.43    2.54   0
  15 -13 -15    0.11    1.72   0
  15 -13 -14    0.35    2.42   0
  15 -13   6   -0.22    2.20   0
  15 -11  13    1.28    2.49   0
  16 -14  -1   -0.61    2.44   0
  16 -14   0    3.25    2.54   0
  16 -14   1   -1.77    2.04   0
  16 -12  11    0.23    1.81   0
  16 -12  11    0.33    1.18   0
  -2   8  -6    0.75    2.59   0
  -2   8  -5  246.37    5.28   0
  -2   8  -1   23.05    2.66   0
  -2   8   0  140.17    4.24   0
  -2  10  -8    2.85    2.14   0
  -2  10   2  117.96    3.62   0
  -2  12  -8   -0.66    2.03   0
  -2  12  -7   17.79    1.98   0
  -2  12   1    3.06    1.96   0
  -2  14  -6   17.16    2.45   0
  -2  14  -5   37.59    2.87   0
  -2  14  -4    4.79    2.53   0
  -2  14  -3    7.43    1.81   0
  -2  14  -2   11.16    1.90   0
  -2  14  -1   11.48    2.54   0
  -2  14   0   -0.09    2.46   0
  -1   3   1   55.42    5.55   0
  -1   5   6   31.50    3.72   0
  -1   7   8    1.78    3.03   0
  -1   9   9    1.14    1.97   0
  -1  13   9   11.93    2.54   0
  -1  15   7    2.86    1.76   0
  -1  15   8   83.11    2.99   0
  -1  17 -11   -0.13    2.36   0
  -1  17   5    7.18    1.74   0
  -1  17   6    0.58    1.95   0
  -1  19  -6    3.23    2.41   0
  -1  19  -5    1.42    2.37   0
  -1  19  -4    2.63    2.24   0
  -1  19  -3    8.47    1.59   0
  -1  19  -2    5.78    1.64   0
  -1  19  -1    1.18    2.34   0
  -1  19   0    1.40    2.30   0
  -1  19   1   -0.59    2.07   0
   0   2   7  122.72    5.26   0
   0   4  10   -2.45    3.17   0
   0   6  12    2.41    2.71   0
   0   8  13   -0.45    2.65   0
   0  10  13    2.00    1.70   0
   0  12  13    4.59    1.80   0
   0  14  13   12.51    2.33   0
   0  16  11    7.88    1.70   0
   0  16  12   -2.94    2.11   0
   0  18   9   -1.74    1.61   0
   0  18  10    3.18    2.05   0
   0  20 -12   -0.71    2.45   0
   0  20   6   -0.23    1.61   0
   0  20   7    5.94    2.07   0
   0  22  -6    0.56    1.99   0
   0  22  -5   -0.03    1.93   0
   0  22  -4    0.35    2.14   0
   0  22  -3    3.00    2.11   0
   0  22  -2    0.94    2.26   0
   0  22  -1    1.93    2.31   0
   0  22   0    4.79    1.98   0
   1  -1 -11   39.03    3.51   0
   1   1  10    0.60    2.90   0
   1   9 -22   -0.37    2.78   0
   1   9  16   54.30    2.44   0
   1  13  16   12.77    1.89   0
   1  15  15    4.69    1.62   0
   1  17  14   -0.28    1.73   0
   1  19  12    0.90    1.79   0
   1  21   9    1.92    1.65   0
   1  21  10   -2.19    1.84   0
   1  23   4    4.48    1.65   0
   1  23   5   -0.30    2.08   0
   2  -4  -5   75.93    3.52   0
   2  -4  -4  139.92    5.07   0
   2  -4  -3   54.44    5.21   0
   2  -4  -2   15.08    4.66   0
   2  -4  -1  493.18    7.45   0
   2  -2 -14   92.52    3.68   0
   2   0 -18  107.46    3.82   0
   2   0  12  105.11    3.91   0
   2   6  18    3.31    2.31   0
   2  10  19   -1.85    2.52   0
   2  12  19    0.03    2.25   0
   2  18  16    1.76    1.71   0
   2  20  14   -0.85    1.72   0
   2  22  11    3.12    1.74   0
   2  22  12    3.50    1.92   0
   3  -5  -9   55.94    2.77   0
   3  -5   3   17.49    2.76   0
   3  -3 -16    7.71    2.02   0
   3   3 -24    0.07    2.18   0
   3   3  18    1.25    1.92   0
   3   9 -27    0.40    1.91   0
   3   9  21    0.96    2.31   0
   3  11 -27   -0.85    2.63   0
   3  11  21    2.52    1.75   0
   3  13  21    8.82    2.18   0
   3  15  20   -0.42    1.62   0
   3  17  19   -1.77    1.69   0
   3  19  18   -1.25    2.38   0
   4  -6 -11    0.07    2.04   0
   4  -4 -17    1.05    2.35   0
   4  -2 -21    0.05    1.80   0
   4   4 -27    5.42    2.30   0
   4   4  21    0.04    2.16   0
   4   6 -28   -0.54    2.31   0
   4   6  22    2.04    2.50   0
   4  10 -29   -1.07    2.09   0
   4  10  23    3.10    2.17   0
   4  12 -29    0.40    2.01   0
   4  12 -29    0.24    1.05   0
   4  12  23    5.00    2.19   0
   4  16  22    2.32    1.90   0
   5  -7 -12    3.25    1.91   0
   5  -7 -11    3.21    2.69   0
   5  -7   5    8.71    2.69   0
   5  -5 -18   -0.36    1.66   0
   5  -3 -22   15.55    1.86   0
   5   3  22   -0.24    2.19   0
   5   5  23   -3.56    2.28   0
   5   7  24   -1.61    1.94   0
   5  13  24    6.56    1.80   0
   5  15  24   -0.11    1.88   0
   6  -8 -12   -0.93    1.76   0
   6  -8   5   10.52    2.48   0
   6  -6 -18    0.21    2.56   0
   6   0  21   -0.74    1.97   0
   6   2 -29    0.98    2.44   0
   6   4  24    0.85    2.39   0
   6   6  25    2.90    2.50   0
   6  10  26   -0.46    2.28   0
   6  12  26    2.27    1.99   0
   7  -9 -12   17.77    1.99   0
   7  -9 -11    6.70    2.41   0
   7  -5 -23    0.80    1.55   0
   7  -3 -26   -0.07    1.70   0
   7  -1 -28    2.47    2.13   0
   7   1 -30   -2.14    2.11   0
   7   9  27    0.05    2.19   0
   7  11  27    3.11    2.49   0
   8 -10 -11   20.02    2.06   0
   8 -10 -10   20.74    2.49   0
   8  -8 -18   15.57    2.67   0
   8  -4 -26    0.81    1.97   0
   8   2 -32   -0.62    1.62   0
   8   2 -32   -0.16    1.17   0
   8   8  28   -0.91    2.06   0
   9 -11  -9   -0.88    1.76   0
   9 -11  -8   68.73    2.52   0
   9 -11  -7   88.03    3.33   0
   9 -11  -6    8.13    2.69   0
   9 -11  -1    5.68    2.68   0
   9 -11   1   82.65    2.90   0
   9  -9 -18    4.27    1.85   0
   9  -5 -26   -1.89    2.18   0
   9  -3 -29   -2.54    1.47   0
   9  -1 -31    0.48    1.74   0
   9  -1  24    0.77    2.15   0
   9   3  27    0.43    2.02   0
   9   5  28    0.14    1.83   0
  10 -10 -17    3.44    1.86   0
  10 -10 -16    5.93    2.62   0
  10 -10   9   61.16    3.28   0
  10  -8 -22   -1.43    1.73   0
  10  -6 -26    1.29    1.66   0
  10  -4 -29    0.14    1.64   0
  10  -2 -31   -0.11    1.04   0
  10  -2  24    1.12    2.43   0
  11 -11 -15    0.09    1.77   0
  11  -9 -21    6.54    2.65   0
  11  -7 -25    2.78    2.34   0
  12 -12   5   -1.36    2.41   0
  12 -10 -20   -0.53    1.69   0
  12  -8 -25    1.19    1.74   0
  12  -6 -28    0.92    1.59   0
  13 -13  -9   -0.16    1.82   0
  13 -13  -8   -0.21    1.85   0
  13 -13  -7   -1.21    2.05   0
  13 -13  -6   -0.24    2.40   0
  13 -13  -5    3.30    2.33   0
  13 -13  -3   -0.25    2.39   0
  13 -13  -2   -1.58    2.32   0
  13 -13  -1    2.39    2.38   0
  13 -13   0    0.49    1.87   0
  13 -13   1   -0.32    1.73   0
  13 -11 -19    0.31    1.61   0
  13 -11 -18   -2.51    2.38   0
  13  -9 -24   -0.16    1.67   0
  13  -9  16    1.03    2.53   0
  14 -12   8    1.13    2.60   0
  15 -13 -13    0.11    1.62   0
  15 -13 -12    0.23    2.22   0
  15 -13   5    0.80    2.17   0
  16 -14  -7   -1.41    1.53   0
  16 -14  -6    0.26    1.74   0
  16 -14  -5    0.74    1.63   0
  16 -14  -4    0.62    1.75   0
  16 -14  -3    1.74    1.66   0
  16 -14  -2   -1.38    1.77   0
  16 -12  10    1.95    2.68   0
  -2   8  -7   23.51    3.51   0
  -2   8   1   11.18    2.47   0
  -2   8   2  749.77    7.08   0
  -2  10   3    7.96    2.03   0
  -2  10   4    8.44    2.82   0
  -2  12  -9    6.73    2.06   0
  -2  12   3   62.67    2.43   0
  -2  12   4   25.58    2.68   0
  -2  14  -7   29.83    2.94   0
  -2  14   1    0.84    1.76   0
  -2  14   2    2.64    1.61   0
  -2  14   3   48.99    2.79   0
  -2  16  -2   -0.61    2.12   0
  -1   7   9   31.65    3.07   0
  -1   9  10   47.32    3.04   0
  -1  11  10   -0.21    1.72   0
  -1  13 -15   27.85    3.23   0
  -1  13  10   71.42    2.93   0
  -1  15 -14   15.92    2.49   0
  -1  15   9    7.27    2.31   0
  -1  17 -12    0.82    2.25   0
  -1  17   7   31.12    2.47   0
  -1  19  -8    4.97    2.61   0
  -1  19  -7    1.31    1.87   0
  -1  19   2    2.42    1.67   0
  -1  19   3   -0.28    2.26   0
  -1  19   4   -3.16    1.90   0
   0  10  14   -2.51    1.65   0
   0  14  14    0.78    2.06   0
   0  16  13    9.98    2.24   0
   0  18  11    2.12    2.47   0
   0  20 -13   -0.74    2.43   0
   0  20   8   -0.31    2.18   0
   0  22  -8    0.93    2.29   0
   0  22  -7    1.06    1.73   0
   0  22   1    0.55    1.53   0
   0  22   2    0.04    1.55   0
   0  22   3    4.06    2.25   0
   1   3  13   47.30    2.83   0
   1   5 -20   -0.18    1.93   0
   1   5  15    2.73    2.69   0
   1   7  16   -1.75    1.76   0
   1   9  17    5.58    2.30   0
   1  11  17    5.59    1.78   0
   1  13  17    1.78    2.33   0
   1  15  16   16.19    1.88   0
   1  17  15   -0.65    1.78   0
   1  19  13   -1.01    1.73   0
   1  21 -16   -0.58    2.14   0
   1  21  11   -1.48    2.26   0
   1  23   6    2.24    1.46   0
   1  23   7   -0.52    2.11   0
   2   2  15   84.82    3.51   0
   2   4  17    4.04    2.65   0
   2   8  19    4.41    1.82   0
   2  14  19    1.19    1.72   0
   2  16  18    0.22    1.81   0
   2  18  17    0.85    1.66   0
   2  20  15    1.23    1.58   0
   3  -5  -8    0.62    2.41   0
   3  -5  -7  120.01    4.13   0
   3  -5   2   19.27    3.65   0
   3  -3 -15    4.99    2.75   0
   3  -1 -19   11.36    2.61   0
   3   1 -22    1.30    1.91   0
   3   5  20    0.69    2.55   0
   3   7  21   19.70    2.59   0
   3  15  21    4.21    2.26   0
   3  17  20    0.24    1.68   0
   3  19  19   -0.59    2.02   0
   4  -6 -10    6.47    2.13   0
   4  -6  -9   49.32    3.46   0
   4  -6   4    1.26    2.31   0
   4  -4 -16   -0.16    2.33   0
   4   0 -23   -1.22    2.38   0
   4   2 -25    4.64    2.40   0
   4   8  23    7.88    2.36   0
   4  14  23    7.41    1.81   0
   4  18  21    1.74    1.68   0
   5  -7 -10    8.55    2.82   0
   5  -5 -17    1.36    2.44   0
   5  -3 -21    5.18    2.23   0
   5  -1 -24    0.05    2.20   0
   5   1 -26    2.84    2.29   0
   5   3 -28    0.16    1.87   0
   5   5 -29    2.50    2.26   0
   5   7 -30    1.02    1.95   0
   5   9  25   -0.57    2.02   0
   5  11  25    0.77    2.30   0
   5  13  25   -0.55    2.29   0
   6  -8 -11    5.10    1.85   0
   6  -8 -10    2.29    2.64   0
   6  -8   4    5.33    2.78   0
   6  -4 -22   12.98    1.88   0
   6  -4  16    9.41    3.87   0
   6  -2 -25    5.59    1.65   0
   6  -2  19    8.12    2.71   0
   6   0 -27    0.37    2.02   0
   6   2  23    6.43    2.40   0
   6   4 -30    1.12    2.39   0
   6   8  26   -0.49    2.31   0
   7  -9 -10    8.39    1.78   0
   7  -9  -9   15.59    2.61   0
   7  -9   3   12.57    2.89   0
   7  -9   4   28.90    2.33   0
   7  -7 -18    0.94    1.82   0
   7  -5 -22    3.88    1.71   0
   7  -3 -25    1.58    2.20   0
   7   3 -31    1.04    2.06   0
   7   3  25   22.00    2.55   0
   7   5 -32    0.22    2.25   0
   7   5 -32    0.35    1.03   0
   7   5  26    1.13    1.87   0
   7   7  27    3.59    2.40   0
   8 -10  -8   -0.23    1.65   0
   8 -10  -7    6.06    2.51   0
   8 -10   1   48.79    3.04   0
   8 -10   2    1.04    1.90   0
   8  -8  11   49.79    3.22   0
   8  -6 -22    0.13    1.76   0
   8  -2 -28   -1.03    1.52   0
   8  -2  22    0.57    2.49   0
   8   0 -30    1.45    1.94   0
   8   0  24    5.26    2.08   0
   9 -11  -4   39.29    2.27   0
   9 -11  -3   56.48    2.50   0
   9 -11  -2    0.67    1.68   0
   9  -9 -17    3.29    1.96   0
   9  -9 -16    5.61    2.57   0
   9  -9  10   70.84    3.40   0
   9  -7 -22    2.74    1.79   0
   9  -5 -25    5.56    2.43   0
   9  -3 -28    2.03    2.11   0
   9  -3  22    5.96    2.73   0
   9   1 -32    2.76    1.53   0
   9   1 -32   -0.16    1.15   0
   9   1  26   -0.51    2.15   0
   9   7  29    0.22    2.07   0
  10 -10 -15    5.16    2.49   0
  10  -8 -21    1.54    2.11   0
  10  -6 -25   -0.73    2.17   0
  10  -4 -28   -1.69    1.88   0
  10   0  26    1.44    1.93   0
  11 -11 -14    5.57    1.89   0
  11 -11 -13    4.62    2.43   0
  11 -11   7    2.62    1.96   0
  11  -9 -20   -2.26    2.27   0
  11  -5 -28    1.04    1.70   0
  11  -3  24    3.04    3.04   0
  11  -1  26    0.48    2.26   0
  12 -12 -11    2.39    1.69   0
  12 -12 -10   -1.60    2.13   0
  12 -12   3   26.93    2.76   0
  12 -12   4   -1.51    1.81   0
  12 -10 -19    0.06    1.79   0
  12 -10  12   -1.11    2.30   0
  12  -8 -24   -0.97    1.72   0
  12  -8  17    1.98    2.57   0
  12  -6 -27    1.14    2.30   0
  13 -11 -17    0.18    2.13   0
  13 -11  10    0.92    2.67   0
  13  -9 -23    4.34    1.81   0
  14 -12 -15    1.16    1.79   0
  14 -12   7    0.55    2.56   0
  14 -10 -21   -1.18    2.04   0
  14 -10  14   -0.90    2.68   0
  15 -13 -11   -0.71    1.63   0
  15 -13 -10    0.46    1.99   0
  15 -13  -9    2.90    2.23   0
  15 -13   4    1.33    1.82   0
  15 -11  12    1.02    2.38   0
  15  -9  17    0.54    2.45   0
  16 -12   9    1.73    2.69   0
  -2   8   3  239.12    4.18   0
  -2  10  -9   -0.06    2.16   0
  -2  10   5    2.58    1.93   0
  -2  12   5    1.49    1.68   0
  -2  12   6    8.12    2.31   0
  -2  14  -9    4.46    2.14   0
  -2  14  -8   61.61    2.82   0
  -2  14   4   80.14    2.50   0
  -2  14   5    3.50    2.30   0
  -2  16  -6    2.08    2.40   0
  -2  16  -5   13.67    2.67   0
  -2  16  -4   14.36    2.00   0
  -2  16  -3    1.41    1.72   0
  -2  16  -1    1.54    1.71   0
  -2  16   0    6.24    1.78   0
  -2  16   1    7.65    1.72   0
  -2  16   2   30.23    2.75   0
  -1   3   2   23.76    3.82   0
  -1   5 -11    1.76    6.14   0
  -1   5   7   80.27    3.20   0
  -1   9 -15    5.24    4.52   0
  -1   9  11   24.93    2.89   0
  -1  11  11   14.57    1.86   0
  -1  13  11    9.08    1.85   0
  -1  15  10    0.23    1.75   0
  -1  17 -13    1.98    2.46   0
  -1  17   8    3.21    1.58   0
  -1  17   9    2.40    2.07   0
  -1  19 -10    0.21    2.23   0
  -1  19  -9   -0.82    1.89   0
  -1  19   5    1.38    1.63   0
  -1  19   6    7.52    2.03   0
   0   4 -15    3.48    2.87   0
   0   4  11    3.03    3.02   0
   0   6 -17   40.50    3.83   0
   0   6  13    5.47    2.83   0
   0   8  14    0.37    1.76   0
   0  10  15    3.53    2.33   0
   0  12  15    1.15    2.23   0
   0  14 -19    0.40    2.70   0
   0  14  15    1.95    2.07   0
   0  16 -18    8.43    2.68   0
   0  16  14    0.04    2.20   0
   0  18  12    2.67    1.69   0
   0  20 -14   -0.13    2.08   0
   0  20   9   -0.10    1.56   0
   0  20  10    3.20    1.98   0
   0  22  -9    1.77    1.65   0
   0  22   4    1.17    1.63   0
   0  22   5    1.84    1.59   0
   0  22   6    0.09    1.87   0
   1  -1 -10    4.56    3.37   0
   1   7 -21    2.28    2.35   0
   1   7  17   40.62    2.67   0
   1  11  18    2.92    2.51   0
   1  13  18    4.13    2.27   0
   1  15  17   22.18    1.97   0
   1  17  16    1.90    1.85   0
   1  19 -19    0.56    1.95   0
   1  19  14   -0.15    1.69   0
   1  19  15    1.39    2.05   0
   1  21  12    0.79    1.61   0
   1  23   8    4.66    1.63   0
   2  -2 -13    5.19    2.15   0
   2   0 -17    1.41    2.85   0
   2   2 -20   -0.51    1.71   0
   2   6  19    3.46    2.27   0
   2   8 -24    0.14    2.41   0
   2  10  20    0.85    1.74   0
   2  12  20    8.69    1.76   0
   2  14  20   27.09    2.47   0
   2  16  19   12.71    1.81   0
   2  18  18   -1.04    1.75   0
   2  20  16   -0.12    1.52   0
   3  -5  -6    1.07    2.61   0
   3  -5  -5   78.81    4.10   0
   3  -5   1  327.58    6.34   0
   3  -1  14    0.20    1.93   0
   3   3  19   -0.08    2.51   0
   3   7 -26    1.08    1.89   0
   3   9  22    0.20    2.33   0
   3  11  22    1.75    1.80   0
   3  13  22    0.61    1.64   0
   3  15  22    0.71    1.96   0
   3  17  21    2.14    2.35   0
   3  19  20   -0.74    1.95   0
   4  -6  -8   11.64    2.21   0
   4  -6   3    6.60    3.04   0
   4  -2 -20    4.36    1.78   0
   4  -2  15    4.79    2.06   0
   4   0  18    0.37    1.60   0
   4   2  20    1.36    2.24   0
   4  10  24   -1.96    2.48   0
   4  12  24    2.06    2.30   0
   4  14  24    5.91    2.01   0
   4  16  23    0.66    1.53   0
   5  -7  -9   88.74    2.82   0
   5  -7  -8    3.55    2.87   0
   5  -7   4    6.39    2.01   0
   5  -5 -16   -0.33    2.50   0
   5   1  21    1.86    1.98   0
   5   5  24    9.13    2.29   0
   5   9 -30   -0.37    2.40   0
   5  15  25    0.50    1.53   0
   6  -8  -9   34.40    2.22   0
   6  -8  -8   19.42    2.82   0
   6  -8   3    4.81    2.80   0
   6  -6 -17    7.19    1.72   0
   6  -4 -21   -1.82    2.17   0
   6  -2 -24    2.90    2.16   0
   6  10  27    0.56    2.15   0
   6  12  27    1.10    2.33   0
   7  -9  -8   -0.34    1.75   0
   7  -9  -7    3.63    2.56   0
   7  -9   2    2.41    2.81   0
   7  -7 -17    2.78    1.83   0
   7  -5 -21    1.14    2.57   0
   7  -1 -27   -0.02    1.92   0
   7  -1  22   -1.19    2.13   0
   7   1 -29   -1.44    2.11   0
   7   1  24    2.02    1.83   0
   7   9  28   -1.49    2.10   0
   7  11  28    4.27    2.36   0
   8 -10  -6   21.58    2.08   0
   8 -10  -4   41.50    2.71   0
   8 -10  -2   12.30    2.36   0
   8 -10  -1    7.93    2.33   0
   8 -10   0   51.63    2.44   0
   8  -8 -16    1.17    2.24   0
   8  -4 -25    3.11    1.62   0
   8   2 -31    1.38    2.41   0
   8   2  26   -0.12    1.93   0
   8   4  27   -0.13    1.67   0
   8   6  28   -1.66    2.32   0
   9  -9 -15    0.16    2.44   0
   9  -7 -21    2.27    1.68   0
   9  -1 -30    1.18    1.71   0
  10 -10 -14    3.84    1.66   0
  10 -10   8   10.38    2.77   0
  10  -8 -20    3.16    2.28   0
  10  -6 -24   -1.65    2.29   0
  10  -2 -30    1.96    1.61   0
  10   4  29    0.77    1.86   0
  11 -11 -12   -1.10    1.73   0
  11 -11 -11    3.40    2.31   0
  11 -11   6    6.45    2.51   0
  11  -9 -19    2.07    2.17   0
  11  -7 -24    0.84    1.64   0
  11  -5 -27   -2.35    2.01   0
  11  -3 -30    0.83    1.07   0
  12 -12  -9   -1.18    1.69   0
  12 -12  -8   -0.31    1.59   0
  12 -12  -7   -2.84    2.25   0
  12 -12  -6    8.23    2.51   0
  12 -12   0   12.75    2.35   0
  12 -12   1    3.18    2.34   0
  12 -12   2    0.24    1.70   0
  12 -10 -18    1.08    1.93   0
  12  -8 -23    0.30    1.77   0
  13 -11 -15    2.15    2.56   0
  13  -9 -22    4.53    1.88   0
  14 -12 -12    2.39    2.25   0
  14 -12   6   11.14    2.64   0
  14 -10 -20    3.41    1.99   0
  15 -13  -8   -0.60    1.68   0
  15 -13  -7    0.67    2.03   0
  15 -13  -6    2.79    2.34   0
  15 -13  -3    1.18    2.23   0
  15 -13  -2    3.32    2.49   0
  15 -13  -1    3.25    2.48   0
  15 -13   0   -1.68    2.20   0
  15 -13   1   -0.22    2.02   0
  15 -13   2    3.50    1.78   0
  15 -11 -18   -1.20    1.75   0
  16 -10  15    1.83    2.07   0
  -2   6  -2  176.60    5.20   0
  -2   6  -1    1.53    3.33   0
  -2   8  -8   -0.09    2.64   0
  -2   8   4   29.58    2.50   0
  -2   8   5  121.10    3.99   0
  -2  10   6   14.74    2.17   0
  -2  12 -10   -0.69    1.94   0
  -2  12   7    1.10    2.41   0
  -2  14   6   31.49    2.05   0
  -2  16  -8    7.89    2.45   0
  -2  16  -7   68.14    2.69   0
  -2  16   3   12.00    1.91   0
  -2  16   4   38.50    2.29   0
  -2  16   5   15.61    2.40   0
  -2  18  -2   -1.33    1.98   0
  -2  18  -1    0.40    1.94   0
  -1   3   3  236.25    6.21   0
  -1   5   8    2.01    3.02   0
  -1   7  10    5.11    2.16   0
  -1  11  12    4.33    1.61   0
  -1  13  12   10.87    1.83   0
  -1  15 -15    3.94    2.39   0
  -1  15  11    1.27    1.75   0
  -1  17  10   -2.02    2.26   0
  -1  19 -11    0.79    2.28   0
  -1  19   7    3.01    1.52   0
  -1  19   8    0.63    1.90   0
  -1  21  -6   -1.58    2.09   0
  -1  21  -5    3.13    2.51   0
  -1  21  -4    0.43    1.64   0
  -1  21  -3    2.08    1.62   0
  -1  21  -2    0.12    1.58   0
  -1  21  -1    0.80    1.70   0
  -1  21   0    0.77    1.66   0
  -1  21   1    1.48    2.29   0
  -1  21   2   -3.25    2.25   0
  -1  21   3   -2.88    1.90   0
   0   2   8   88.52    3.90   0
   0   8  15   24.73    2.71   0
   0  12  16    4.11    2.35   0
   0  16  15    2.70    2.12   0
   0  18 -17    2.37    2.19   0
   0  18  13   -0.35    1.68   0
   0  20  11    0.98    2.13   0
   0  22 -11    3.49    2.51   0
   0  22   7    3.81    1.61   0
   0  22   8   -1.11    1.80   0
   1  -1   6 1726.89   23.38   0
   1   1  11   13.74    3.09   0
   1   3  14   50.70    3.50   0
   1   5  16   25.96    2.79   0
   1   9  18    7.65    1.87   0
   1  11 -22    0.30    3.25   0
   1  15  18    0.95    1.63   0
   1  19  16    1.68    2.04   0
   1  21  13   -2.01    1.51   0
   1  21  14   -2.00    2.11   0
   2  -2 -12   51.89    3.36   0
   2   0  13    0.84    2.05   0
   2   4  18    0.90    2.26   0
   2   6 -23    1.48    1.85   0
   2   8  20    2.49    1.88   0
   2  10  21    5.56    2.19   0
   2  12  21   -1.50    2.11   0
   2  14  21    0.42    1.93   0
   2  16  20    1.28    1.63   0
   2  18  19    0.02    1.89   0
   2  20  17    1.75    1.56   0
   3  -5  -4   -0.64    2.87   0
   3  -5  -3  160.95    4.73   0
   3  -5  -2    8.87    3.60   0
   3  -5  -1    1.08    3.60   0
   3  -5   0  175.05    4.59   0
   3  -3 -14    7.59    2.03   0
   3  -3  10   14.76    6.32   0
   3  -1 -18    3.20    2.57   0
   3   1 -21    3.98    2.25   0
   3   1  17   14.50    1.85   0
   3   3 -23   18.17    2.50   0
   3   5  21   -0.59    2.23   0
   3   7  22    2.18    2.30   0
   3  11  23   -0.11    2.10   0
   3  13  23    1.39    2.49   0
   3  17  22   -1.67    2.05   0
   4  -6  -7    2.53    2.21   0
   4  -6  -6    7.86    3.33   0
   4  -6   2   70.72    3.77   0
   4  -4 -15   15.25    1.91   0
   4  -2 -19   15.86    2.62   0
   4   0 -22   21.67    2.79   0
   4   4 -26   -0.68    2.20   0
   4   4  22    6.09    2.64   0
   4   6  23   10.42    1.95   0
   4   8 -28    2.28    2.05   0
   4   8  24    3.80    2.37   0
   4  16  24    1.89    2.13   0
   5  -7   3  103.69    3.25   0
   5  -3 -20    4.86    1.61   0
   5  -1 -23    2.01    1.87   0
   5  -1  19    3.59    2.07   0
   5   3 -27    1.94    2.48   0
   5   3  23    4.09    2.31   0
   5   7  25    0.04    1.78   0
   5   9  26   -1.24    2.15   0
   5  11  26   -1.09    1.59   0
   5  13  26    0.87    1.73   0
   6  -8  -7   22.79    2.25   0
   6  -8  -6    1.83    2.81   0
   6  -8   2    8.71    2.97   0
   6  -6 -16    0.27    1.70   0
   6  -4 -20   17.29    2.56   0
   6   0 -26    0.47    1.97   0
   6   2 -28    1.57    1.82   0
   6   4  25    3.55    1.79   0
   6   6  26    1.94    1.86   0
   6   8 -31    0.57    2.39   0
   6   8  27    0.16    2.28   0
   7  -9  -6    0.80    1.79   0
   7  -9  -5   27.62    2.09   0
   7  -9  -4    1.84    2.56   0
   7  -9  -3    8.93    2.61   0
   7  -9  -2    2.75    2.76   0
   7  -9  -1   64.84    3.26   0
   7  -9   0   14.80    2.57   0
   7  -9   1    0.90    1.93   0
   7  -7 -16    9.56    1.91   0
   7  -7  11   22.02    3.12   0
   7  -3 -24   -1.55    1.54   0
   7   3 -30    1.60    2.36   0
   7   5  27    2.10    2.44   0
   8  -6 -20    8.55    2.56   0
   8  -4 -24   -0.41    1.47   0
   8  -2 -27   -1.68    1.59   0
   8   0 -29   -0.12    1.57   0
   8   4 -32    1.52    1.67   0
   8   4 -32    0.27    1.13   0
   8   8  29    0.40    1.17   0
   8   8  29    0.28    1.16   0
   9  -9 -14    4.74    1.82   0
   9  -9   9    9.25    2.49   0
   9  -7 -20    0.15    1.56   0
   9  -7  15    0.39    3.13   0
   9  -5 -24    2.78    1.77   0
   9  -3 -27    1.94    1.63   0
   9  -1 -29   -0.34    2.33   0
   9   1 -31   -1.35    2.05   0
   9   5  29   -1.26    2.05   0
  10 -10 -13    2.68    1.72   0
  10 -10 -12    3.83    2.50   0
  10 -10   7    5.12    2.47   0
  10  -8 -19   13.67    2.33   0
  10  -4 -27   -0.89    1.80   0
  10  -4  22    2.02    3.93   0
  10  -2 -29    3.45    2.17   0
  10   0 -31    1.76    2.29   0
  10   2  28   -1.42    1.93   0
  11 -11  -9    4.34    2.32   0
  11 -11   4   35.68    2.78   0
  11 -11   5    3.46    1.77   0
  11  -9  13   13.31    2.74   0
  11  -7 -23    3.25    1.74   0
  11  -5 -26    0.31    2.26   0
  11  -3 -29   -0.34    1.83   0
  11   1  28    2.05    2.10   0
  12 -12  -5    0.06    1.60   0
  12 -12  -4    0.50    1.71   0
  12 -12  -3    0.29    1.77   0
  12 -12  -2    0.82    1.81   0
  12 -12  -1    1.87    1.63   0
  12 -10 -17    1.63    1.90   0
  12 -10  11   -1.06    2.47   0
  12  -8 -22    0.19    1.80   0
  12  -6 -26   -1.48    1.54   0
  12  -2  26    0.42    2.36   0
  13 -11 -14   -0.08    2.26   0
  13 -11   9    0.20    2.19   0
  13  -9 -21   -0.58    1.88   0
  13  -7 -25    1.31    1.70   0
  14 -12 -11    2.53    1.74   0
  14 -12   5    0.89    2.66   0
  14 -10 -19    3.42    1.65   0
  15 -11  11   -0.21    2.17   0
  16 -12 -14    1.98    1.24   0
  16 -12 -13    0.83    1.58   0
  16 -12 -13    0.32    1.20   0
  16 -12   7    3.65    2.48   0
  16 -12   8   -0.36    1.20   0
  16 -12   8    0.19    1.29   0
  17 -13   1    2.00    2.19   0
  17 -13   2    1.79    1.21   0
  -2   6  -4   70.61    4.21   0
  -2   6  -3   33.71    2.97   0
  -2   6   0  115.80    3.89   0
  -2   6   1   12.17    2.61   0
  -2   6   2    7.80    3.82   0
  -2   8   6    1.74    3.11   0
  -2  10 -10    9.75    2.42   0
  -2  10   7   -1.81    1.90   0
  -2  10   8    3.41    2.67   0
  -2  12   8    7.00    1.80   0
  -2  14 -10   23.34    2.79   0
  -2  14   7   34.08    2.06   0
  -2  14   8    9.82    2.61   0
  -2  16  -9   -0.79    2.67   0
  -2  16   6   -0.30    1.80   0
  -2  16   7   -6.75    2.31   0
  -2  18  -6   -1.89    2.25   0
  -2  18  -5    1.50    2.32   0
  -2  18  -4    8.72    1.75   0
  -2  18  -3    4.91    1.71   0
  -2  18   0    1.59    1.72   0
  -2  18   1    1.67    1.76   0
  -2  18   2    4.77    1.62   0
  -2  18   3   -4.43    2.26   0
  -1   3   4   66.95    5.56   0
  -1   7  11   97.44    3.53   0
  -1   9  12    1.97    1.84   0
  -1  11  13    3.57    1.70   0
  -1  13  13   -0.50    1.75   0
  -1  15  12   24.06    1.99   0
  -1  15  13    1.29    2.16   0
  -1  17 -14   -1.11    1.72   0
  -1  17  11    0.83    1.72   0
  -1  19 -12   -0.21    2.24   0
  -1  19   9    1.53    2.11   0
  -1  21  -8   -0.73    2.03   0
  -1  21  -7    0.23    1.68   0
  -1  21   4    0.83    1.58   0
  -1  21   5    2.69    2.26   0
   0   4  12   19.00    3.26   0
   0   6  14    4.24    1.89   0
   0  10  16   -0.30    1.84   0
   0  14  16    3.35    1.68   0
   0  16  16    2.97    2.20   0
   0  18  14    3.06    1.78   0
   0  20 -15    1.23    2.04   0
   0  20  12   -1.03    1.73   0
   0  22 -12    0.55    2.33   0
   0  22   9    0.77    1.51   0
   1  -1  -9  210.71    4.97   0
   1   7  18    2.93    2.24   0
   1   9  19    1.24    2.64   0
   1  11  19    3.26    1.70   0
   1  13  19   -0.91    1.50   0
   1  15  19    7.91    2.49   0
   1  17 -21    0.14    2.90   0
   1  17  18   -0.92    1.78   0
   1  19  17   -0.88    1.95   0
   1  21  15    1.08    2.35   0
   2   0 -16    0.09    2.77   0
   2   2 -19    1.96    2.39   0
   2   2  16    0.14    1.89   0
   2   6  20   -0.64    2.34   0
   2   8  21    0.60    2.31   0
   2  16  21    0.14    2.28   0
   2  18  20   -2.93    2.32   0
   2  20  18    1.43    1.48   0
   3  -3 -13   11.60    2.75   0
   3   9 -26    0.60    2.31   0
   3   9  23    0.33    1.73   0
   3  15  23    0.15    1.64   0
   4  -6  -5  260.23    4.39   0
   4  -6  -4   10.04    2.57   0
   4  -6  -3   71.66    3.56   0
   4  -6  -2  139.68    4.32   0
   4  -6  -1  301.51    5.44   0
   4  -6   0    4.69    3.11   0
   4  -6   1    0.70    2.15   0
   4  -4 -14   13.34    2.48   0
   4   2 -24    8.81    1.86   0
   4  10  25   -0.51    1.72   0
   4  12  25    1.14    1.70   0
   4  14  25    0.15    1.67   0
   5  -7  -6    6.76    2.16   0
   5  -7  -5   31.60    2.45   0
   5  -7  -4    0.96    3.09   0
   5  -7  -3   98.91    3.93   0
   5  -7   0    4.38    2.97   0
   5  -7   1   40.68    3.34   0
   5  -7   2   80.56    3.23   0
   5  -5 -15    8.32    1.83   0
   5  -3  16    0.05    2.65   0
   5   1 -25    0.34    1.62   0
   5   5 -28   -0.47    2.27   0
   5   7 -29    0.56    1.90   0
   5  11 -30    0.23    1.45   0
   5  11 -30   -0.15    1.03   0
   6  -8  -5   15.01    2.08   0
   6  -8  -4   16.13    2.05   0
   6  -8  -3   11.14    2.81   0
   6  -8  -2    0.09    2.75   0
   6  -8  -1    4.44    2.87   0
   6  -8   0   27.13    2.95   0
   6  -8   1    2.20    2.23   0
   6  -2 -23    3.20    1.58   0
   6   0  22    3.09    2.13   0
   6   2  24    3.67    2.35   0
   6   4 -29   -0.45    2.16   0
   6   6 -30   -2.04    2.37   0
   6  10  28   -0.66    2.39   0
   7  -7 -15   19.80    2.07   0
   7  -5 -20   -1.46    1.86   0
   7  -3 -23   -1.03    2.14   0
   7  -1 -26    0.58    1.52   0
   7   1 -28    2.81    2.13   0
   7   3  26    2.95    2.22   0
   7   5 -31    0.28    1.82   0
   7   7  28   -0.13    1.82   0
   7   9  29    2.59    2.10   0
   8  -8 -14    9.21    1.90   0
   8  -8  10    3.24    2.27   0
   8  -2 -26    2.46    2.14   0
   8   2 -30    0.71    2.47   0
   8   6  29    0.71    1.99   0
   9  -9 -13    3.93    1.83   0
   9  -7 -19   -1.81    1.68   0
   9  -5 -23   -1.06    2.00   0
   9  -3 -26   -0.53    2.20   0
   9   3  28   -0.10    1.50   0
  10 -10 -11   21.54    2.00   0
  10 -10 -10    0.95    2.43   0
  10  -8 -18    0.24    2.16   0
  10  -8  14    0.65    2.45   0
  10  -6 -23    0.45    1.63   0
  10  -4 -26    1.53    2.18   0
  11 -11  -8    2.56    1.82   0
  11 -11   2   -1.33    2.48   0
  11 -11   3    0.03    2.25   0
  11  -7 -22    2.18    1.73   0
  12 -10 -15    0.70    2.24   0
  12  -8 -21    1.40    1.97   0
  12  -6 -25   -2.25    1.68   0
  12  -4 -28    1.07    1.50   0
  13 -11 -13    1.79    1.73   0
  13 -11 -12   -0.40    2.22   0
  13 -11   8    8.26    2.47   0
  13  -9 -20   -0.20    1.69   0
  13  -9  15    0.38    2.27   0
  13  -7 -24   -1.46    1.81   0
  14 -12  -9    2.57    1.85   0
  14 -12  -8    1.91    2.18   0
  14 -12  -7    2.63    2.41   0
  14 -12   3    3.86    2.65   0
  14 -12   4    0.32    1.85   0
  14 -10 -18    5.14    1.69   0
  14 -10  13    2.43    2.42   0
  14  -8 -23   -1.78    1.69   0
  14  -8  18    0.43    2.69   0
  15 -11 -15    4.31    2.07   0
  15 -11  10    2.36    2.69   0
  16 -12 -11    1.09    1.90   0
  16 -12   6    2.84    2.47   0
  16 -10  14   -1.40    2.27   0
  17 -13  -4    1.13    1.03   0
  17 -13  -3    0.19    1.77   0
  17 -13  -2    2.21    1.23   0
  17 -13  -2    0.62    1.17   0
  -2   6  -5   35.87    3.93   0
  -2   6   3    0.07    3.29   0
  -2   8  -9   16.00    3.38   0
  -2   8   7    6.57    2.17   0
  -2  10   9   20.12    2.77   0
  -2  12 -11    3.41    2.22   0
  -2  14 -11    1.86    2.07   0
  -2  14   9    3.79    1.75   0
  -2  16 -10    9.39    2.28   0
  -2  16   8   -0.05    2.48   0
  -2  18  -7   -1.56    2.48   0
  -2  18   4   -0.78    1.57   0
  -2  18   5   -3.34    1.76   0
  -2  18   6   -1.56    2.21   0
  -1   5   9   24.53    2.34   0
  -1  13 -16   12.68    3.04   0
  -1  13  14    1.30    1.75   0
  -1  15  14    0.55    2.14   0
  -1  17  13    0.14    2.13   0
  -1  19  10   -1.44    1.65   0
  -1  19  11    2.41    1.88   0
  -1  21  -9    1.95    2.42   0
  -1  21   6   -0.32    1.66   0
  -1  21   7   -0.52    1.62   0
  -1  21   8    0.55    1.97   0
   0   2   9   27.19    2.91   0
   0   6  15   -0.64    2.54   0
   0   8  16    1.66    1.89   0
   0  10  17    0.47    1.85   0
   0  12  17   -2.40    1.69   0
   0  16  17    3.87    2.17   0
   0  18  15   -1.31    1.76   0
   0  20  13    0.13    1.77   0
   0  22 -13    0.16    2.16   0
   0  22  10    0.88    1.55   0
   0  22  11    1.88    2.13   0
   1  -1  -8   84.82    4.51   0
   1   3  15   10.81    2.97   0
   1   5 -19    0.67    1.93   0
   1   5  17    5.23    2.62   0
   1  11  20    2.96    2.52   0
   1  13  20   -3.04    1.64   0
   1  15  20   -1.43    1.90   0
   1  17  19    1.31    2.47   0
   1  19 -20    0.02    2.30   0
   1  19  18    3.56    2.20   0
   1  21  16   -0.28    2.37   0
   2  -2 -11    7.20    2.48   0
   2  10  22   -2.00    2.43   0
   2  12  22    1.09    1.70   0
   2  14  22    0.78    1.72   0
   2  16  22   -1.83    1.94   0
   2  18  21    0.23    2.33   0
   3  -3 -12    7.14    3.10   0
   3  -1 -17    1.64    2.35   0
   3   1 -20   12.95    2.78   0
   3   3  20   -0.63    2.50   0
   3   7 -25    6.15    2.49   0
   3   7  23   -1.22    2.20   0
   3  11  24   -0.87    1.79   0
   3  13  24   -1.49    1.81   0
   3  15  24    1.53    2.23   0
   3  17  23   -0.48    1.59   0
   4  -4 -13   35.20    3.19   0
   4  -2 -18   -0.41    1.69   0
   4   0 -21   -0.17    2.36   0
   4   2  21   -0.36    2.31   0
   4   4  23   -1.47    2.16   0
   4   6  24   -0.38    1.68   0
   4   8  25    2.17    2.21   0
   4  12  26   -2.69    1.95   0
   4  14  26    1.26    2.06   0
   5  -7  -2    1.48    2.20   0
   5  -7  -1   26.87    2.40   0
   5  -5 -14   -1.89    1.89   0
   5  -5  11    2.08    3.93   0
   5  -1 -22   -0.25    1.70   0
   5   5  25    1.20    1.80   0
   5   7  26   -1.68    1.77   0
   5   9  27   -0.80    2.04   0
   5  11  27    0.37    1.83   0
   5  13  27    0.81    1.70   0
   6  -6 -14   -0.24    1.77   0
   6  -6  11   14.12    3.54   0
   6   0 -25    1.03    2.06   0
   6   2 -27    3.07    2.19   0
   6   4  26    2.92    2.38   0
   6   6  27   -0.09    2.46   0
   6   8  28    1.20    2.01   0
   7  -7 -14   -2.36    1.82   0
   7  -7 -13    1.20    2.44   0
   7   3 -29    0.99    2.40   0
   8  -8 -13    1.30    1.92   0
   8  -6 -19    2.06    1.68   0
   8   0 -28   -0.74    1.53   0
   8   0  25   -0.71    1.65   0
   8   4 -31   -0.33    2.24   0
   8   4  28   -0.55    1.66   0
   9  -9   8    1.25    2.52   0
   9  -5 -22    2.63    2.23   0
   9  -1 -28    2.04    2.01   0
   9  -1  25    0.51    2.05   0
   9   1 -30    0.88    2.04   0
   9   1  27    0.41    1.73   0
  10 -10  -8    1.96    2.30   0
  10 -10   5   -1.42    2.60   0
  10  -8 -17    0.19    2.25   0
  10  -6 -22    0.13    1.72   0
  10  -4 -25   -1.49    2.55   0
  10  -2 -28    0.82    1.55   0
  10   0 -30    0.13    2.37   0
  10   0  27   -0.23    2.37   0
  11 -11  -5    0.37    1.79   0
  11 -11  -4   -0.85    1.77   0
  11 -11  -3    0.34    1.84   0
  11 -11   0    0.29    1.64   0
  11 -11   1   -1.55    1.74   0
  11  -9 -16    2.12    1.85   0
  11  -7 -21    0.45    2.03   0
  11  -5 -25   -0.72    1.67   0
  11  -3 -28    0.95    1.71   0
  11  -1 -30    2.06    1.57   0
  11  -1 -30   -0.08    1.10   0
  12 -10 -14    0.12    1.70   0
  12  -8 -20   -1.09    1.72   0
  12  -6 -24    0.96    2.00   0
  12  -4 -27    2.21    2.16   0
  13 -11 -10    2.42    2.24   0
  13 -11   7   -1.59    2.23   0
  13  -9 -19   -1.54    1.69   0
  13  -9 -18    2.16    2.48   0
  13  -7 -23    1.96    2.14   0
  14 -12  -5    1.14    1.77   0
  14 -12  -4   -0.52    2.12   0
  14 -12  -3   -2.90    2.37   0
  14 -12   1    0.76    1.69   0
  14 -12   2   -0.19    1.82   0
  14 -10 -17    0.20    1.65   0
  14 -10 -16   -2.23    2.62   0
  14  -8 -22    1.66    1.83   0
  15 -11 -14   -1.50    1.72   0
  15 -11 -13    0.57    2.34   0
  15  -9 -20   -1.70    2.04   0
  15  -9  16   -0.02    2.30   0
  16 -12 -10   -0.18    1.56   0
  16 -12  -8   -2.71    2.23   0
  16 -12   5   -0.31    2.13   0
  -3  11   0   72.63    3.16   0
  -3  13  -3   18.73    2.56   0
  -3  13  -2   10.49    2.71   0
  -3  13  -1   10.15    2.70   0
  -3  13   0    2.65    2.53   0
  -3  13   1    8.20    2.59   0
  -2   6   4   79.71    3.18   0
  -2   8   8    4.99    2.19   0
  -2  10 -11   27.34    3.08   0
  -2  10  10   -2.51    2.60   0
  -2  12  10    2.43    1.67   0
  -2  12  11    3.22    2.27   0
  -2  14  10   -2.54    1.63   0
  -2  16   9    8.94    1.69   0
  -2  16  10    8.54    2.43   0
  -2  18  -9   -0.78    2.18   0
  -2  18  -8    4.14    1.98   0
  -2  18   7   -1.35    1.60   0
  -2  18   8    4.34    2.17   0
  -2  20  -5    1.27    2.24   0
  -2  20  -4    0.54    2.40   0
  -2  20  -3    3.09    2.19   0
  -2  20  -2    0.41    1.68   0
  -2  20  -1   -0.82    1.55   0
  -2  20   0   -0.33    1.72   0
  -2  20   1   -0.51    1.67   0
  -2  20   2    2.93    1.63   0
  -2  20   3    1.16    2.25   0
  -2  20   4   -1.26    2.06   0
  -1   3   5  209.18    5.38   0
  -1   5  10  104.26    3.99   0
  -1   9  14   48.33    2.84   0
  -1  11 -16    1.19    2.99   0
  -1  11  15    1.06    2.36   0
  -1  15  15   -1.43    2.35   0
  -1  17 -15    0.65    2.08   0
  -1  17  14   -0.33    2.42   0
  -1  19 -13   -1.05    2.15   0
  -1  19  12   -1.44    2.18   0
  -1  21 -10    0.22    2.17   0
  -1  21 -10   -0.15    1.23   0
  -1  21   9   -1.05    1.63   0
  -1  21  10   -1.44    1.93   0
  -1  23  -5    1.43    2.41   0
  -1  23  -4    2.45    2.31   0
  -1  23  -3    4.03    1.90   0
  -1  23  -2    2.19    1.92   0
  -1  23  -1    0.43    1.76   0
  -1  23   0   -0.83    1.72   0
  -1  23   1   -0.50    1.69   0
  -1  23   2    0.48    1.24   0
  -1  23   2    0.86    1.24   0
  -1  23   3   -1.76    2.15   0
  -1  23   4   -0.26    2.22   0
   0   4  13   37.64    2.54   0
   0  10  18    4.19    2.37   0
   0  12  18    0.41    1.63   0
   0  14  18   17.49    1.97   0
   0  16 -19    1.85    2.75   0
   0  16  18    7.89    2.20   0
   0  18 -18   -0.62    2.32   0
   0  18  16    0.69    1.74   0
   0  18  17    0.98    2.06   0
   0  20 -16    1.01    2.12   0
   0  20  15   -0.56    2.39   0
   0  22  12    1.10    1.67   0
   0  22  13   -1.20    1.99   0
   1   1  12   17.35    2.96   0
   1   7  19   10.92    1.81   0
   1   9  20   12.85    1.98   0
   1  13  21    5.63    2.29   0
   1  17  20    4.31    2.62   0
   1  19  19   -0.70    2.39   0
   2  -2 -10   27.91    3.37   0
   2   0 -15    1.32    2.91   0
   2   2  17   -0.75    2.69   0
   2   4  19   14.67    2.05   0
   2   6 -22    4.09    2.42   0
   2   6  21    3.42    2.39   0
   2   8  22    9.22    2.46   0
   2  10 -24    0.56    2.10   0
   2  12  23   -0.68    2.29   0
   2  14  23   -0.67    2.34   0
   2  18  22   -0.73    2.07   0
   3  -1  15    1.18    1.90   0
   3   1  18    0.04    1.45   0
   3   3 -22   13.22    2.34   0
   3   5  22    0.71    1.71   0
   3   9  24    1.43    1.83   0
   3  11  25    0.34    2.18   0
   3  13  25    1.48    2.37   0
   3  15 -26    2.87    4.02   0
   4   0  19   -0.09    1.72   0
   4   2 -23    6.15    2.59   0
   4   4 -25   -1.08    1.74   0
   4  10  26   -1.29    1.74   0
   4  12 -28    0.08    2.28   0
   5  -5 -13    6.94    2.03   0
   5  -3 -18    1.09    1.70   0
   5   1 -24    0.97    1.70   0
   5   1  22    0.53    2.03   0
   5   3 -26    5.61    1.90   0
   5   3  24   -1.29    2.46   0
   5   9 -29   -0.28    2.40   0
   5  11  28    3.71    2.23   0
   6  -4 -18    0.63    2.37   0
   6  -2 -22    7.98    1.77   0
   6  -2  20    0.13    2.28   0
   6   4 -28    0.31    2.52   0
   6  10  29    0.08    2.21   0
   7  -7 -12   -0.05    2.49   0
   7  -7  10   -1.02    2.63   0
   7  -5 -18    4.47    2.40   0
   7  -3 -22    1.62    1.59   0
   7  -3  20   10.41    3.20   0
   7   1 -27    1.71    2.37   0
   7   1  25    0.30    2.03   0
   7   5 -30   -1.21    2.51   0
   7   5  28    0.40    2.41   0
   7   7 -31    2.32    2.63   0
   7   7  29   -0.26    2.33   0
   8  -8 -11   10.14    2.62   0
   8  -8   9   33.86    2.75   0
   8  -6 -18    3.33    1.85   0
   8  -4 -22   19.56    2.09   0
   8  -2 -25    0.47    1.68   0
   8   2 -29   -0.40    2.31   0
   8   2  27    0.13    2.09   0
   9  -9 -10   15.11    1.95   0
   9  -9  -9    5.63    2.41   0
   9  -9   7    2.62    2.62   0
   9  -7 -17    0.36    2.21   0
   9  -3 -25    1.10    1.75   0
   9   3 -31    0.32    2.07   0
   9   3 -31    1.40    1.07   0
  10 -10  -7    1.95    1.89   0
  10 -10  -6   10.89    2.69   0
  10 -10   4   71.55    3.39   0
  10  -8 -16   -0.99    2.11   0
  10  -6 -21    1.97    2.15   0
  10  -2  25    0.58    2.30   0
  11  -7 -20   -2.14    2.39   0
  11  -5 -24    0.55    2.02   0
  11  -3 -27    0.47    2.02   0
  12 -10 -13   -1.58    1.84   0
  12 -10 -12   -1.63    2.42   0
  12 -10   9    2.19    2.68   0
  12  -8 -19   -0.97    1.83   0
  12  -8  16    0.91    2.53   0
  12  -6 -23    2.62    2.37   0
  13 -11  -9    0.23    1.58   0
  13 -11   6   -0.28    1.88   0
  13  -9 -17    0.77    2.47   0
  13  -7 -22   -0.62    2.48   0
  13  -5 -26   -0.36    1.55   0
  14 -10 -15    2.89    2.26   0
  14 -10  12    0.78    2.18   0
  14  -8 -21    0.18    1.76   0
  15 -11 -12    1.40    1.72   0
  15 -11   8   -0.51    2.45   0
  15 -11   9   -0.20    1.87   0
  16 -12  -7    1.26    1.70   0
  16 -12  -6   -0.13    1.80   0
  16 -12  -5    0.21    2.42   0
  16 -12   0    1.22    2.40   0
  16 -12   1   -1.08    2.27   0
  16 -12   2   -0.15    2.07   0
  16 -12   3    0.22    1.84   0
  16 -10 -17   -0.15    1.62   0
  16 -10  13    0.93    2.56   0
  -3  11  -4    1.42    2.46   0
  -3  11  -3   -0.84    2.77   0
  -3  11  -2   18.23    2.20   0
  -3  11  -1   28.51    2.30   0
  -3  11   1   -1.42    1.95   0
  -3  11   2    7.34    2.03   0
  -3  11   3   33.89    2.89   0
  -3  11   4   64.06    2.93   0
  -3  13  -5   31.31    2.76   0
  -3  13  -4   52.27    3.14   0
  -3  13   3   15.74    1.93   0
  -3  13   4   14.70    1.99   0
  -3  13   5    2.03    2.53   0
  -3  15  -4  119.61    3.74   0
  -3  15  -3   10.32    2.61   0
  -3  15  -2   14.14    1.94   0
  -3  15  -1   -1.84    1.82   0
  -3  15   0   36.54    2.20   0
  -3  15   1    0.34    1.68   0
  -3  15   2   46.05    2.35   0
  -3  15   3   57.87    3.05   0
  -3  15   4   44.18    2.94   0
  -2   6  -6    7.36    3.38   0
  -2   6   5    9.45    2.72   0
  -2   6   6    0.23    3.37   0
  -2   8   9   15.80    2.22   0
  -2  10  11   19.95    2.70   0
  -2  12 -12    1.57    2.13   0
  -2  12  12   -3.69    2.37   0
  -2  14 -12   26.26    2.58   0
  -2  14  12    1.32    2.30   0
  -2  16 -11    0.01    2.18   0
  -2  16  11   -0.86    2.33   0
  -2  18 -10    2.92    2.23   0
  -2  18   9    1.52    1.57   0
  -2  18  10    5.63    2.07   0
  -2  20  -7    0.66    2.20   0
  -2  20  -6    2.23    2.48   0
  -2  20   5    1.33    1.63   0
  -2  20   6    0.40    2.25   0
  -2  20   7    3.50    2.07   0
  -1   3   6   54.14    4.13   0
  -1   5  11    3.05    3.27   0
  -1   7  13   33.13    2.33   0
  -1   9  15    0.62    2.32   0
  -1  11  16   18.53    2.44   0
  -1  13  16    0.79    2.33   0
  -1  15 -16   13.73    2.66   0
  -1  15  16    1.67    2.54   0
  -1  19 -14   -0.09    2.30   0
  -1  19  13    2.37    1.96   0
  -1  21 -11   -0.15    2.41   0
  -1  21  11    0.16    2.27   0
  -1  23  -7    0.04    2.19   0
  -1  23  -6    1.92    1.25   0
  -1  23  -6    1.61    1.27   0
  -1  23   5   -0.34    1.61   0
  -1  23   6   -0.41    1.57   0
  -1  23   7    0.12    2.08   0
   0   2  10   44.45    2.98   0
   0   4 -14    7.30    2.74   0
   0   6  16    3.14    2.57   0
   0  12  19   22.36    2.59   0
   0  14  19   -0.14    2.37   0
   0  18  18    2.21    2.06   0
   0  20  16   -1.09    1.77   0
   1  -1  -7  141.26    5.44   0
   1   3  16    3.49    2.62   0
   1   5  18    0.63    1.74   0
   1   7 -20    6.17    2.66   0
   1   9  21    2.50    2.18   0
   1  11  21   -0.59    1.66   0
   1  15  21    2.46    1.63   0
   1  17  21    1.59    2.42   0
   1  19  20    1.90    2.09   0
   2  -2   9    6.94    3.95   0
   2   0  14   14.91    2.43   0
   2   2 -18   10.29    2.32   0
   2   8 -23    1.50    2.33   0
   2  10  23   -1.91    1.62   0
   2  16  23   -0.65    1.66   0
   3  -3 -11   30.02    2.54   0
   3  -1 -16   -0.55    1.92   0
   3   1 -19   11.78    2.82   0
   3   3  21   -0.67    2.33   0
   3   7  24    2.08    2.31   0
   3   9  25    6.71    2.16   0
   3  11 -26    0.66    2.07   0
   3  15  25    0.42    1.57   0
   4  -4 -12   10.05    2.21   0
   4  -2 -17    3.90    1.79   0
   4  -2  16   17.04    2.59   0
   4   0 -20   10.23    2.58   0
   4   6  25    0.66    2.14   0
   4   8 -27    1.06    2.06   0
   4   8  26   -0.25    2.27   0
   4  12  27    4.45    2.27   0
   4  14  27   -0.09    2.22   0
   5  -5 -12    2.84    2.59   0
   5  -3 -17   -0.62    2.30   0
   5  -1 -21   -0.52    1.67   0
   5   5 -27    0.34    2.19   0
   5   5  26    2.17    2.73   0
   5   7  27   -1.36    2.48   0
   5   9  28    1.29    1.95   0
   6  -6 -12   15.62    2.07   0
   6  -2 -21    7.16    2.26   0
   6   0 -24   -0.47    2.05   0
   6   2 -26   -0.76    2.38   0
   6   2  25    0.10    2.20   0
   6   6 -29    1.02    2.48   0
   6   6  28    1.46    2.15   0
   7  -7 -11    5.66    2.57   0
   7  -5 -17    2.65    2.54   0
   7  -1  23    1.88    2.04   0
   7   3  27    1.19    2.42   0
   8  -8 -10   18.66    2.43   0
   8  -6 -17   -2.33    1.80   0
   8  -4 -21    1.73    2.49   0
   8  -2  23    0.67    2.39   0
   8   0 -27   -1.60    1.51   0
   8   4  29   -0.33    2.00   0
   8   6  30   -1.72    2.37   0
   9  -9  -8    3.58    2.34   0
   9  -9   6   16.79    2.83   0
   9  -7 -16    1.60    2.36   0
   9  -5 -21   -0.96    1.60   0
   9  -3 -24   -2.66    2.32   0
   9  -1 -27    2.05    1.56   0
   9   1 -29    0.02    1.85   0
   9   3  29    1.46    2.28   0
  10 -10  -4   42.82    2.39   0
  10 -10  -3  103.29    3.30   0
  10 -10  -2   31.88    2.68   0
  10 -10  -1   -1.82    2.38   0
  10 -10   0   18.51    2.79   0
  10 -10   1   33.78    2.99   0
  10 -10   3    0.86    1.83   0
  10  -8 -15    2.31    1.73   0
  10  -8  13    0.01    2.60   0
  10  -6 -20    4.00    2.29   0
  10  -4 -24    1.41    1.60   0
  10  -2 -27    0.36    1.54   0
  10   0 -29   -0.96    2.09   0
  10   2 -31   -0.33    1.12   0
  10   2 -31   -0.38    1.10   0
  10   2  29   -0.01    1.77   0
  10   2  29    0.37    1.03   0
  11  -9 -13   -1.93    2.45   0
  11  -9  11    0.19    2.37   0
  11  -7 -19    4.48    2.44   0
  11  -5 -23   -0.70    2.24   0
  11  -1 -29   -0.42    1.66   0
  11  -1  27    0.61    1.89   0
  12 -10 -11    0.51    1.63   0
  12 -10 -10    6.82    2.35   0
  12  -8 -18    2.32    1.93   0
  12  -4 -26    0.64    1.62   0
  13 -11  -7   -0.88    1.72   0
  13 -11  -6    1.28    1.93   0
  13 -11  -5   -0.20    2.30   0
  13 -11   3    3.92    2.60   0
  13 -11   4   -1.46    2.26   0
  13  -9 -16    0.15    2.20   0
  13  -9  14    3.99    2.18   0
  13  -7 -21    3.77    2.53   0
  13  -7  19    6.82    3.22   0
  13  -5 -25    0.27    1.96   0
  14 -10 -14    4.79    1.91   0
  14 -10 -13    1.72    2.30   0
  14 -10  11    2.01    2.76   0
  14  -8 -20   -0.90    1.70   0
  14  -6 -24   -0.38    2.03   0
  15 -11 -11    0.99    1.62   0
  15 -11 -10   -0.93    1.68   0
  15 -11   7    0.23    2.54   0
  15  -9 -18    2.82    1.74   0
  15  -7  20   -0.12    2.91   0
  16 -12  -3   -0.80    1.68   0
  16 -12  -2    3.27    1.87   0
  16 -12  -1    1.77    1.79   0
  16 -10 -16    0.39    1.87   0
  16 -10 -15    2.17    2.43   0
  17 -11 -11    0.50    2.36   0
  17 -11   9    0.89    1.60   0
  17 -11   9    0.19    1.30   0
  -3   9  -1    2.63    2.83   0
  -3   9   0   26.36    3.20   0
  -3   9   1  232.23    4.58   0
  -3   9   2    0.14    2.80   0
  -3  11  -5    1.04    2.62   0
  -3  11   5    0.76    1.89   0
  -3  11   6    0.35    2.65   0
  -3  13  -6   35.49    2.97   0
  -3  15  -6   28.27    2.67   0
  -3  15  -5   21.52    2.33   0
  -3  15   5   14.70    2.04   0
  -3  15   7   -2.08    2.09   0
  -3  17  -4    1.53    2.09   0
  -3  17  -3   10.82    2.45   0
  -3  17  -2    0.26    1.85   0
  -3  17  -1    8.94    1.78   0
  -3  17   0    0.26    1.57   0
  -3  17   1   -1.22    1.66   0
  -3  17   2   16.01    1.90   0
  -3  17   3    8.58    1.73   0
  -3  17   4    7.54    2.46   0
  -3  17   5    8.19    2.19   0
  -2   6   7  207.25    4.64   0
  -2   8  10  105.77    2.95   0
  -2  10  12   20.58    2.63   0
  -2  12  13    8.82    2.32   0
  -2  14  13   -1.47    2.35   0
  -2  16 -12   17.48    2.40   0
  -2  16  12   -1.10    1.70   0
  -2  18  11    1.13    2.18   0
  -2  20  -8    5.08    2.45   0
  -2  20   8    0.55    1.73   0
  -2  20   9    0.31    2.06   0
  -2  22  -3    1.73    2.10   0
  -2  22  -2   -0.32    2.07   0
  -2  22  -1   -2.17    2.39   0
  -2  22   0    3.40    2.40   0
  -2  22   1    3.48    2.47   0
  -2  22   2    0.83    2.27   0
  -2  22   3    1.90    2.27   0
  -2  22   4   -1.55    2.02   0
  -1   3   7    2.21    4.26   0
  -1   7  14   16.16    2.74   0
  -1  13  17    4.33    2.34   0
  -1  17  16    6.40    2.50   0
  -1  19  14    0.48    1.82   0
  -1  19  15   -0.40    2.29   0
  -1  21 -12   -0.06    2.47   0
  -1  21  12    1.35    1.70   0
  -1  21  13   -0.66    1.89   0
  -1  23  -8    4.39    1.39   0
  -1  23   8    2.13    1.52   0
   0   4  14    7.98    2.22   0
   0   8  18    8.53    1.89   0
   0  10  19   13.35    1.93   0
   0  12  20   12.43    2.37   0
   0  14  20    0.74    2.33   0
   0  16  19    3.15    1.97   0
   0  18  19    2.21    2.02   0
   0  20 -17    3.81    2.25   0
   0  20  17    5.04    1.74   0
   1  -1   7 1605.03   19.97   0
   1   7  20    5.02    1.78   0
   1   9 -21    0.85    2.68   0
   1  11  22    0.23    1.70   0
   1  13  22    0.64    1.61   0
   1  15  22    7.83    1.83   0
   1  17  22    6.07    2.10   0
   2  -2  -9   65.20    3.19   0
   2   0 -14  184.86    4.44   0
   2   4  20    7.68    1.87   0
   2   6  22    0.56    2.52   0
   2   8  23   12.96    1.90   0
   2  10  24   10.44    2.61   0
   2  12  24    2.95    1.74   0
   2  14  24    0.53    1.68   0
   2  16  24    1.83    1.58   0
   3  -3 -10   34.10    3.18   0
   3   1  19    0.31    1.93   0
   3   5  23   15.97    2.10   0
   3  11  26    3.09    2.40   0
   3  13  26   -0.16    1.74   0
   3  15  26   -2.25    1.53   0
   4  -4 -11  130.08    3.38   0
   4   2  22    4.82    1.72   0
   4   4 -24    0.71    2.52   0
   4   4  24    3.68    2.38   0
   4  10  27   -0.24    1.76   0
   5  -5 -11    8.30    2.99   0
   5  -1  20   17.94    2.24   0
   5   1 -23   -0.11    2.15   0
   5   3 -25    1.89    2.47   0
   5  11 -29   -0.48    2.21   0
   5  11  29   -1.38    2.06   0
   6  -6 -11   87.46    2.80   0
   6  -4 -17   26.96    2.21   0
   6   0  23   -0.16    1.85   0
   6   4  27    2.55    2.42   0
   6   8  29   -1.62    1.76   0
   7  -7 -10   -0.96    2.55   0
   7  -3 -21   24.96    2.16   0
   7  -1 -24    0.09    1.57   0
   7   1 -26    0.35    2.14   0
   7   3 -28    3.54    1.82   0
   7   5  29    2.00    2.11   0
   7   7  30   -0.90    1.81   0
   8  -8  -9    0.04    1.75   0
   8  -8   8    1.34    2.19   0
   8  -6 -16    0.80    2.26   0
   8  -2 -24    1.42    1.68   0
   8   4 -30    0.21    1.65   0
   8   6 -31   -0.90    2.40   0
   9  -9  -7   26.98    2.10   0
   9  -9  -6   16.56    2.43   0
   9  -9  -5    7.40    2.43   0
   9  -9   5    3.76    2.62   0
   9  -7 -15   15.57    2.49   0
   9  -5 -20    8.57    2.25   0
   9   3 -30    0.56    2.35   0
  10  -8 -14    1.44    1.83   0
  10  -6 -19   18.07    2.67   0
  10  -4 -23   -0.67    2.14   0
  10  -2 -26   -0.08    2.32   0
  11  -9 -12   -0.68    1.71   0
  11  -7 -18    0.03    2.33   0
  11  -7  17    1.99    2.84   0
  11  -3 -26    2.16    1.67   0
  11  -1 -28    3.28    2.22   0
  12 -10  -9   -0.34    1.61   0
  12 -10   7    9.32    2.72   0
  12 -10   8    4.44    1.92   0
  12  -8 -17    1.97    1.83   0
  12  -6 -22   -0.71    1.60   0
  12  -4 -25    8.24    2.32   0
  12  -2 -28    1.28    1.77   0
  13 -11  -4   -0.21    1.73   0
  13 -11  -3   -0.14    1.69   0
  13 -11  -2    2.46    1.76   0
  13 -11  -1   12.91    2.27   0
  13 -11   0    0.34    1.96   0
  13 -11   1   -1.14    1.62   0
  13 -11   2    1.36    1.66   0
  13  -9 -15   -0.52    1.71   0
  13  -7 -20   -2.86    2.55   0
  13  -5 -24   -0.81    2.27   0
  13  -3 -27    0.24    2.13   0
  14 -10 -12    0.67    2.09   0
  14  -8 -19   -2.09    1.70   0
  14  -8  17    1.06    2.61   0
  14  -6 -23    0.05    2.35   0
  15 -11  -9    2.25    1.67   0
  15 -11  -8   -0.50    1.79   0
  15 -11  -7   -1.06    2.48   0
  15 -11   6    0.33    2.08   0
  15  -9 -17    0.33    1.76   0
  15  -9  15    0.96    1.98   0
  15  -7 -22    0.35    1.70   0
  16 -10 -14   -0.52    1.68   0
  16 -10  12    3.63    2.32   0
  17 -11 -10    3.39    1.74   0
  17 -11  -9    3.91    2.17   0
  17 -11   7    1.07    2.46   0
  17 -11   8    1.56    1.78   0
  -3   9  -3    2.41    3.03   0
  -3   9  -2    1.07    2.23   0
  -3   9   3   10.12    2.20   0
  -3   9   4    0.26    2.04   0
  -3   9   5  117.39    3.73   0
  -3  11  -6   27.59    2.75   0
  -3  11   7    9.23    1.86   0
  -3  11   8    3.81    2.29   0
  -3  13  -7    1.08    2.51   0
  -3  13   8   23.46    1.89   0
  -3  13   9   14.48    2.37   0
  -3  15  -7    8.36    2.47   0
  -3  15   8   12.01    1.80   0
  -3  17  -5    7.66    2.33   0
  -3  17   6    3.62    1.67   0
  -3  17   7    1.32    2.27   0
  -3  19  -2    7.38    1.95   0
  -3  19  -1    3.34    2.19   0
  -3  19   0    2.54    2.34   0
  -3  19   1    2.35    2.34   0
  -3  19   2    2.32    2.35   0
  -3  19   3    0.05    2.37   0
  -2   6   8   38.23    3.46   0
  -2   8 -10   73.58    4.62   0
  -2   8  11    1.69    2.01   0
  -2  10  13    7.00    2.45   0
  -2  12  14    7.19    2.37   0
  -2  14 -13    7.50    2.60   0
  -2  14  14    3.23    1.67   0
  -2  16  13    9.18    1.83   0
  -2  16  14   24.45    2.63   0
  -2  18 -11    5.93    2.53   0
  -2  18  12   -0.09    1.62   0
  -2  18  13    0.71    2.05   0
  -2  20  -9    3.22    2.56   0
  -2  20  10    1.91    1.61   0
  -2  20  11   -1.31    1.90   0
  -2  22  -5    2.11    2.51   0
  -2  22  -4    1.37    1.69   0
  -2  22   5    1.83    1.73   0
  -2  22   6   -1.68    2.15   0
  -2  22   7    4.74    2.04   0
  -1   5  12    5.99    2.14   0
  -1   7  15   52.81    3.03   0
  -1  11  17    8.34    1.91   0
  -1  13  18    1.51    2.40   0
  -1  15  18    2.83    2.36   0
  -1  17 -16    5.49    2.45   0
  -1  17  17    1.05    1.88   0
  -1  19 -15    4.47    2.32   0
  -1  19  16    0.76    2.22   0
  -1  21  14   -0.62    2.28   0
   0   2  11   13.43    2.34   0
   0   4  15    4.94    2.89   0
   0   6 -16    2.29    2.71   0
   0   8  19   -0.87    2.54   0
   0  10  20    6.90    2.59   0
   0  14  21    6.46    2.08   0
   0  16  20    2.93    1.91   0
   0  18  20    3.75    2.11   0
   0  20  18   -0.43    1.68   0
   1  -1  -6 1509.50   13.51   0
   1   5 -18    1.02    1.93   0
   1   5  19   10.16    1.93   0
   1   7  21   20.18    2.58   0
   1   9  22    2.19    2.33   0
   1  11  23   -2.39    1.95   0
   1  13  23    0.94    1.70   0
   1  15  23   -0.93    2.26   0
   2  -2  -8    0.98    3.54   0
   2   2  18   31.06    2.34   0
   2  12 -24    1.21    2.69   0
   2  12  25    0.35    2.32   0
   2  14  25    2.69    1.75   0
   2  16  25   -0.21    2.17   0
   3  -1 -15   18.56    2.25   0
   3   3 -21   17.84    2.08   0
   3   7 -24    1.73    2.52   0
   3   7  25    2.75    2.26   0
   3   9 -25    2.47    2.20   0
   3   9  26    2.07    2.48   0
   3  13 -26    0.75    2.46   0
   3  13  27   -1.30    2.08   0
   4  -4 -10   25.91    3.48   0
   4   0 -19   -0.21    2.45   0
   4   0  20   41.16    2.59   0
   4   2 -22    4.65    1.89   0
   4   6  26    2.66    2.39   0
   4   8  27    0.04    1.68   0
   4  10  28    0.07    2.25   0
   4  12  28    1.49    1.85   0
   5  -5 -10   38.25    3.35   0
   5  -3 -16    9.71    2.47   0
   5  -1 -20   13.44    1.91   0
   5   1  23    5.61    2.16   0
   5   3  25    2.77    1.92   0
   5   7  28   -2.33    2.46   0
   5   9  29    0.95    2.18   0
   6  -6 -10   23.77    2.22   0
   6  -6  10   69.83    4.29   0
   6  -4 -16   13.63    2.38   0
   6  -2 -20   -1.41    2.08   0
   6   0 -23    0.88    2.13   0
   6   2 -25    4.82    2.24   0
   6   4 -27    1.98    2.28   0
   6  10 -30    0.00    1.81   0
   6  10 -30   -0.36    1.04   0
   7  -7  -9   -0.26    1.90   0
   7  -7   9    1.09    2.14   0
   7  -1 -23    2.09    2.24   0
   7   1  26   15.77    2.80   0
   7   5 -29    1.54    2.16   0
   7   7 -30   -1.20    2.51   0
   8  -8  -8   10.08    1.83   0
   8  -8  -7   -2.54    2.51   0
   8  -8   7   15.87    2.63   0
   8  -6 -15   34.23    2.75   0
   8  -4 -20   11.30    2.06   0
   8  -4  20    2.68    4.00   0
   8  -2 -23    2.65    2.42   0
   8   0 -26    3.44    1.74   0
   8   0  26    0.57    2.03   0
   8   2 -28   -1.36    1.66   0
   9  -9  -4   -2.60    1.73   0
   9  -9  -2    0.47    2.55   0
   9  -9   2   27.20    2.90   0
   9  -9   3    3.82    2.72   0
   9  -9   4   -0.68    1.88   0
   9  -7 -14    4.72    2.39   0
   9  -7  14    1.78    2.84   0
   9  -3 -23    0.32    1.73   0
   9  -3  23    0.18    2.69   0
   9  -1 -26    0.59    1.70   0
   9   1 -28    1.31    1.61   0
   9   1  28    1.62    1.85   0
   9   5 -31    0.56    1.94   0
   9   5 -31    0.39    1.06   0
  10  -8 -13    4.88    1.80   0
  10   0 -28    0.16    1.78   0
  10   2 -30   -0.52    1.17   0
  10   2 -30    0.94    1.14   0
  11  -9 -11   15.84    1.96   0
  11  -9 -10    5.08    2.51   0
  11  -9  10    3.33    2.43   0
  11  -7 -17    0.90    2.46   0
  11  -5 -22   -1.24    1.72   0
  11  -3 -25    3.20    2.17   0
  11   1 -30   -0.12    1.63   0
  12 -10  -8   -1.05    1.73   0
  12 -10  -7   24.16    2.06   0
  12 -10  -6    0.15    2.45   0
  12 -10   6    7.34    2.81   0
  12  -8  15    1.00    2.52   0
  12  -6 -21   -0.89    1.69   0
  12  -2 -27    0.85    2.40   0
  13  -9 -14    1.31    1.69   0
  13  -9  13    2.16    2.30   0
  14 -10 -11    2.60    1.64   0
  14 -10 -10   -1.55    2.29   0
  14 -10  10    4.80    2.14   0
  14  -6 -22   -1.41    2.45   0
  15 -11  -6    1.00    1.77   0
  15 -11  -5    5.92    1.81   0
  15 -11  -4   -0.62    2.48   0
  15 -11   2    3.51    2.43   0
  15 -11   3    1.43    2.51   0
  15 -11   5    1.60    1.90   0
  15  -9 -16    4.43    2.03   0
  15  -9 -15    0.95    2.56   0
  15  -7 -21    1.39    1.79   0
  16 -10 -12   -0.46    2.37   0
  16 -10  11   -0.90    2.67   0
  16  -8 -19   -0.75    1.23   0
  17 -11  -8   -1.29    1.61   0
  17 -11  -7   -0.14    2.08   0
  17 -11  -6    5.26    2.41   0
  17 -11   5    0.54    2.23   0
  17 -11   6    1.05    1.66   0
  17 -11   6   -1.12    1.10   0
  -3   9  -4  276.16    5.04   0
  -3   9   6   10.02    2.10   0
  -3   9   7   43.78    2.98   0
  -3  11  -7   12.03    2.24   0
  -3  11   9   52.27    2.84   0
  -3  13  -8    4.54    2.23   0
  -3  13  10    0.67    2.37   0
  -3  15  -8   13.66    2.34   0
  -3  15   9   14.83    1.94   0
  -3  15  10   47.00    2.82   0
  -3  17  -7    5.21    2.37   0
  -3  17  -6   -1.99    1.81   0
  -3  17   8    0.65    1.51   0
  -3  17   9    0.73    2.16   0
  -3  19  -4   -1.40    2.32   0
  -3  19  -3    4.87    1.76   0
  -3  19   4   -1.08    1.76   0
  -3  19   5    4.39    1.74   0
  -3  19   6    4.96    2.21   0
  -3  19   7    1.76    1.91   0
  -2   6  -7   15.62    4.00   0
  -2   6   9   -1.69    3.12   0
  -2   8  12   45.29    2.32   0
  -2  10 -12    7.23    2.59   0
  -2  10  14    4.87    2.32   0
  -2  12 -13    2.60    2.62   0
  -2  12  15    2.02    2.36   0
  -2  14  15    5.43    1.72   0
  -2  16 -13    3.81    2.34   0
  -2  16  15    3.83    2.40   0
  -2  18 -12    1.10    2.03   0
  -2  18  14   -0.59    2.33   0
  -2  20 -10   -0.32    2.52   0
  -2  20  12   -0.48    1.63   0
  -2  22  -7    1.99    2.38   0
  -2  22  -6    0.78    1.60   0
  -2  22   8    2.68    1.56   0
  -2  22   9   -1.46    2.15   0
  -1   3   8   20.38    2.77   0
  -1   5  13   17.17    3.05   0
  -1   9  17    2.27    1.92   0
  -1  11  18    2.20    1.72   0
  -1  13  19    0.30    2.15   0
  -1  15  19    2.96    2.01   0
  -1  19  17   -1.03    1.63   0
  -1  21  15    3.05    1.72   0
   0   6  18    0.47    2.45   0
   0  10  21    2.32    2.18   0
   0  12  21   -0.14    1.65   0
   0  16  21    0.34    1.75   0
   0  18 -19    1.56    2.70   0
   0  18  21    0.67    2.16   0
   1   3  17    9.89    2.02   0
   1  13  24    4.26    2.10   0
   1  15  24    3.69    2.00   0
   1  17  23    1.96    1.79   0
   1  19 -21    0.71    2.57   0
   2   0  15   -0.58    2.05   0
   2   2 -17   23.21    2.07   0
   2   4  21    7.43    2.54   0
   2   6  23   17.74    2.52   0
   2   8  24    7.97    1.89   0
   2  10  25   -0.30    1.72   0
   2  14 -24    1.74    3.28   0
   2  14  26    1.96    2.10   0
   3  -3  -9    2.53    2.22   0
   3  -1  16    1.45    1.90   0
   3   1 -18    4.34    2.38   0
   3   3  22   10.57    1.97   0
   3   5  24    1.82    2.35   0
   3  11  27   -1.17    1.68   0
   4  -4  -9    8.86    3.28   0
   4  -2 -15   -0.57    2.67   0
   4   2  23   -1.44    2.09   0
   4   4  25   -2.33    2.48   0
   4  10 -27   -0.12    1.64   0
   4  12  29   -1.12    2.11   0
   5  -5  -9   -1.27    3.11   0
   5  -1 -19   63.43    3.06   0
   5   1 -22   -1.15    2.37   0
   5   5 -26    0.94    2.15   0
   5   5  27    2.23    1.93   0
   5   9 -28    0.11    2.04   0
   6  -6  -9   17.46    2.17   0
   6   2  26    1.61    2.30   0
   6   6 -28    0.98    2.29   0
   6   6  29    1.22    1.73   0
   6   8  30   -1.01    1.25   0
   6   8  30   -0.95    1.23   0
   7  -7  -8    5.11    1.97   0
   7  -5 -15   16.30    2.35   0
   7   1 -25    0.44    2.15   0
   7   3 -27   -2.04    2.56   0
   7   3  28    0.46    2.32   0
   8  -8  -6    5.99    1.85   0
   8  -8  -5    1.93    2.50   0
   8  -8   6    7.33    2.72   0
   8  -6 -14    5.27    2.60   0
   8  -6  15    5.52    3.27   0
   8  -4 -19   -0.85    2.54   0
   8   0 -25   -0.08    2.27   0
   8   4 -29    0.22    2.07   0
   8   4  30    1.50    2.25   0
   9  -9  -1    5.75    1.91   0
   9  -9   1   21.65    2.11   0
   9  -7 -13    2.57    2.46   0
   9  -1 -25    1.91    2.29   0
   9  -1  26    0.01    2.14   0
   9   3  30    0.26    2.10   0
  10  -8 -12    3.76    1.76   0
  10  -8 -11    0.46    2.31   0
  10  -8  12    0.36    2.30   0
  10  -6 -18    2.12    1.63   0
  10  -6  18    2.04    3.60   0
  10  -4 -22    0.71    1.57   0
  10  -2 -25    1.50    1.74   0
  10   0  28    0.10    2.08   0
  11  -9  -9    6.05    2.16   0
  11  -9   9   24.63    2.93   0
  11  -7 -16    0.28    2.46   0
  11  -5 -21    1.55    1.75   0
  11  -1 -27    2.57    2.00   0
  11   1 -29   -2.27    2.31   0
  12 -10  -5   15.21    1.91   0
  12 -10  -4   14.28    2.61   0
  12 -10  -3    1.60    2.36   0
  12 -10   4    0.70    2.30   0
  12 -10   5   18.35    2.05   0
  12  -8 -15   -0.55    1.80   0
  12  -6 -20    0.08    1.82   0
  12  -6  20   -0.13    3.28   0
  12  -4 -24   -0.05    1.72   0
  12  -2  27    0.33    2.67   0
  12   0 -29   -0.82    1.25   0
  13  -9 -13    1.26    1.72   0
  13  -9 -12    6.68    2.65   0
  13  -7 -19    1.50    1.85   0
  13  -5 -23   -0.87    1.65   0
  13  -3 -26   -0.77    1.59   0
  14 -10  -9   -2.07    1.62   0
  14 -10  -8    4.01    2.17   0
  14 -10   9    0.30    2.34   0
  14  -8 -17   -2.45    1.72   0
  14  -4 -25    3.46    1.70   0
  15 -11  -2    0.39    1.62   0
  15 -11   0    1.03    1.80   0
  15 -11   1    4.04    1.75   0
  15  -9 -14   -0.09    2.42   0
  15  -9  14    0.58    2.13   0
  15  -7 -20    0.87    1.76   0
  16 -10 -11   -0.73    1.74   0
  16 -10 -10    1.87    2.33   0
  16 -10  10    2.68    2.63   0
  16  -8 -18   -0.16    1.78   0
  17 -11  -5   -1.12    1.66   0
  17 -11  -4    0.17    1.77   0
  17 -11  -3    0.92    2.07   0
  17 -11  -2   -1.50    2.48   0
  17 -11  -1    6.52    2.55   0
  17 -11   0    0.46    2.53   0
  17 -11   1    0.08    2.55   0
  17 -11   2   -0.03    2.45   0
  17 -11   3    0.09    2.08   0
  17 -11   4    0.37    1.18   0
  17 -11   4    2.18    1.27   0
  17  -9 -15   -3.28    1.99   0
  -3   9  -5   29.27    2.90   0
  -3   9   8   21.52    2.97   0
  -3  11  10   14.73    1.83   0
  -3  13  11    7.56    1.84   0
  -3  13  12    5.97    2.23   0
  -3  15  11    1.94    1.72   0
  -3  15  12    0.47    2.04   0
  -3  17  -8    4.72    2.31   0
  -3  17  10    9.86    1.63   0
  -3  19  -6   -1.11    2.59   0
  -3  19  -5    0.71    1.91   0
  -3  19   8    2.64    1.59   0
  -3  19   9    0.46    2.24   0
  -3  21  -2    2.98    2.01   0
  -3  21  -1    6.94    2.21   0
  -3  21   0   -0.96    2.31   0
  -3  21   1   -0.56    2.25   0
  -3  21   2    0.53    2.31   0
  -3  21   3    4.63    2.30   0
  -3  21   4    1.36    2.27   0
  -3  21   5    2.84    2.00   0
  -2   6  10   24.72    2.46   0
  -2   8  13   11.70    2.02   0
  -2  10  15    8.91    2.57   0
  -2  12  16   -1.53    2.29   0
  -2  14  16   -0.40    1.69   0
  -2  16  16    8.17    1.86   0
  -2  18  15    0.20    1.69   0
  -2  20 -11   -0.31    2.11   0
  -2  20  13   -0.64    1.67   0
  -2  20  14    2.98    2.41   0
  -2  22  -8    3.06    2.42   0
  -2  22  10    0.77    1.48   0
  -2  22  11   -0.79    2.11   0
  -1   3   9   32.87    2.77   0
  -1   7  16   10.01    2.07   0
  -1   9  18    9.87    2.49   0
  -1  11  19    2.86    1.67   0
  -1  13 -17    1.60    3.32   0
  -1  15 -17   18.96    3.53   0
  -1  15  20   17.38    2.32   0
  -1  17  19    2.25    1.70   0
  -1  19  18    1.37    1.57   0
  -1  21 -14    1.11    2.09   0
  -1  21  16    0.46    1.67   0
   0   0   3    0.67    5.15   0
   0   2  12    3.00    1.98   0
   0   4  16    2.22    2.68   0
   0   8  20    0.90    1.85   0
   0  12  22   -0.38    1.57   0
   0  14  22   -3.36    1.56   0
   0  16  22    0.74    1.76   0
   0  18  22   -1.66    2.04   0
   0  20 -18    0.87    2.43   0
   1  -1  -5  369.66    8.07   0
   1   1  14   21.18    2.86   0
   1   5  20   13.67    2.01   0
   1   7  22   -0.96    2.40   0
   1   9  23    2.23    1.69   0
   1  11  24    2.79    1.88   0
   1  17  24   -0.26    1.72   0
   2  -2  -7  755.87    8.46   0
   2   0 -13    1.00    2.32   0
   2   2  19   13.51    2.85   0
   2   6 -21    4.67    2.12   0
   2   8  25    0.20    2.25   0
   2  10  26    2.70    2.07   0
   2  12  26    0.38    1.78   0
   3  -3  -8  168.16    4.79   0
   3  -1 -14  100.07    3.16   0
   3   1  20    0.94    2.10   0
   3   7  26    0.42    2.27   0
   3   9  27    1.77    2.30   0
   3  11  28    5.88    2.23   0
   3  13  28    0.32    1.57   0
   4   2 -21    3.83    2.43   0
   4   4 -23   -1.49    2.15   0
   4   6  27   -1.02    2.63   0
   4   8 -26    3.08    2.01   0
   4   8  28    2.92    1.70   0
   4  10  29    0.93    2.53   0
   5  -5  -8   -1.26    3.00   0
   5  -3 -15   78.84    2.65   0
   5   3 -24    7.28    1.77   0
   5   3  26    3.79    2.29   0
   5   7  29   -0.18    2.43   0
   5   9  30   -0.63    2.14   0
   6  -6  -8   64.04    2.64   0
   6  -4 -15   -0.22    1.80   0
   6  -2 -19    0.49    1.61   0
   6   0 -22   38.66    2.34   0
   6   0  24    4.81    2.24   0
   6   4 -26   -0.84    2.34   0
   6   4  28    2.34    1.81   0
   7  -7  -7    1.31    1.95   0
   7  -7   8    7.51    2.37   0
   7  -5 -14    1.53    2.49   0
   7  -3 -19    5.17    1.96   0
   7  -1 -22   -1.32    2.35   0
   7  -1  24    3.01    2.23   0
   7   5 -28    1.14    2.39   0
   7   5  30    3.46    2.47   0
   8  -8  -4    2.69    1.94   0
   8  -8  -3    9.09    2.68   0
   8  -8   4    5.87    2.74   0
   8  -8   5    7.43    2.58   0
   8  -6 -13    7.01    2.46   0
   8  -2 -22    2.70    1.77   0
   8   2 -27   -0.27    1.62   0
   8   6 -30    0.68    1.25   0
   8   6 -30   -0.51    1.14   0
   9  -7 -12    8.88    2.49   0
   9  -5 -18   -2.41    1.79   0
   9   1 -27   -3.21    1.68   0
   9   3 -29   -0.40    1.66   0
  10  -8 -10    1.44    2.43   0
  10  -6 -17   -0.58    1.73   0
  10  -4 -21    0.94    2.02   0
  10  -2 -24   -0.99    2.41   0
  10   0 -27   -0.39    1.62   0
  10   2 -29    0.97    1.77   0
  11  -9  -8   -1.92    1.71   0
  11  -9  -7    1.13    2.53   0
  11  -9   8    6.61    2.61   0
  11  -5 -20    4.65    2.44   0
  11  -3 -24   -0.30    1.86   0
  11  -3  25    4.04    3.56   0
  12 -10  -2   14.85    1.88   0
  12 -10  -1    1.81    1.65   0
  12 -10   0   -0.25    1.79   0
  12 -10   1    0.67    1.76   0
  12 -10   2    5.61    1.91   0
  12 -10   3   47.29    2.41   0
  12  -8 -14    0.40    1.80   0
  12  -6 -19    2.42    2.09   0
  12  -4 -23    1.95    1.73   0
  12  -2 -26    1.35    1.70   0
  13  -9 -11   15.10    2.02   0
  13  -9  12    0.20    2.20   0
  13  -7 -18    0.73    1.81   0
  13  -5 -22    2.07    1.70   0
  13  -3 -25    4.70    2.26   0
  13  -1 -28   -0.00    1.02   0
  14 -10  -7    2.05    1.70   0
  14 -10  -6    4.38    2.30   0
  14 -10   7   -3.46    2.59   0
  14 -10   8    0.75    1.95   0
  14  -8 -16   -1.74    1.78   0
  14  -8  16   -1.02    2.43   0
  14  -6 -21   -0.44    2.03   0
  14  -4 -24   -0.91    2.21   0
  15  -9 -13   -0.73    1.87   0
  15  -7 -19   -0.43    1.63   0
  15  -5 -23   -0.90    1.77   0
  16 -10  -9    3.90    1.78   0
  16 -10  -8   -0.26    2.35   0
  16  -8 -17   -1.98    1.74   0
  16  -8  17   -0.07    2.04   0
  16  -8  17    0.45    1.08   0
  17  -9 -14   -0.27    1.72   0
  -4  14   0    6.64    2.70   0
  -4  14   1   66.36    3.15   0
  -4  14   2   42.22    2.76   0
  -4  14   3   43.31    2.96   0
  -4  14   4    7.54    2.69   0
  -4  14   5    0.47    2.30   0
  -4  16   0    2.61    2.11   0
  -4  16   1    7.63    2.38   0
  -4  16   2    5.41    2.47   0
  -4  16   4    0.87    2.17   0
  -3   7   0   26.26    3.29   0
  -3   7   1   51.34    3.78   0
  -3   7   2   78.75    3.83   0
  -3   7   3    0.84    2.87   0
  -3   7   4   55.67    3.50   0
  -3   9  -6    2.86    2.36   0
  -3   9   9    5.21    1.93   0
  -3   9  10    0.45    2.51   0
  -3  11  -8    1.26    2.10   0
  -3  11  11   15.73    1.89   0
  -3  11  12    4.61    2.30   0
  -3  13  -9   23.50    2.55   0
  -3  13  13    0.83    2.40   0
  -3  15  -9    0.52    2.25   0
  -3  15  13    1.62    2.34   0
  -3  17  -9    3.27    2.28   0
  -3  17  12    0.00    1.81   0
  -3  19  -7    3.75    2.60   0
  -3  19  10   -0.08    1.53   0
  -3  19  11    1.28    2.16   0
  -3  21  -4    3.62    2.34   0
  -3  21  -3    2.28    1.79   0
  -3  21   6    1.88    1.64   0
  -3  21   7   10.16    1.82   0
  -3  21   8   -3.75    2.26   0
  -2   4   0  323.87    7.26   0
  -2   4   1  505.70    8.27   0
  -2   4   2   17.56    3.52   0
  -2   4   3   56.42    5.00   0
  -2   4   4  132.05    5.21   0
  -2   6  11   41.08    3.31   0
  -2   8  14   42.04    2.23   0
  -2  10  16   17.58    2.49   0
  -2  12  17   12.26    2.51   0
  -2  16  17    4.06    1.88   0
  -2  18 -13    6.92    2.16   0
  -2  18  16    0.73    1.69   0
  -2  18  17    1.14    2.06   0
  -2  20  15    1.10    1.84   0
  -2  22  -9   -0.96    2.41   0
  -2  22  12    2.64    1.14   0
  -1   3  10  120.22    4.36   0
  -1   5  14    4.40    1.94   0
  -1   7  17   36.72    2.86   0
  -1   9  19    8.04    2.50   0
  -1  11  20    1.25    2.37   0
  -1  13  20    2.48    1.63   0
  -1  15  21    0.80    2.02   0
  -1  17  20    2.13    1.88   0
  -1  19 -16    1.80    2.28   0
  -1  19  19   -1.23    1.58   0
   0   4 -13   37.91    4.08   0
   0   6  19   -2.05    1.83   0
   0   8  21    5.67    2.60   0
   0  10  22    0.14    1.68   0
   0  12  23    0.19    2.17   0
   0  14  23   -0.02    1.58   0
   0  16  23    4.65    1.78   0
   1  -1   8  351.73    8.82   0
   1   3  18    4.36    1.90   0
   1   5  21   21.65    2.54   0
   1   9  24    3.80    2.24   0
   1  11  25    2.41    2.14   0
   1  13  25   -0.73    1.80   0
   1  15  25    1.11    1.57   0
   2   2 -16   22.68    2.63   0
   2   4  22   18.85    2.73   0
   2   6  24    2.87    2.36   0
   2   8 -22    0.16    2.35   0
   2  10 -23    4.39    2.67   0
   2  12  27    1.53    2.37   0
   2  14  27    0.10    1.63   0
   3   1 -17   -0.61    2.68   0
   3   3 -20   12.14    1.99   0
   3   3  23   -0.87    2.48   0
   3   5  25   12.49    2.41   0
   4  -4  -8    1.29    2.42   0
   4  -2 -14    1.69    2.02   0
   4  -2  17    4.06    2.21   0
   4   0 -18    0.26    1.73   0
   4  12 -27    1.12    2.09   0
   5  -5  10   32.92    4.29   0
   5  -3 -14  131.16    3.74   0
   5  -3  17   12.22    2.87   0
   5  -1 -18    1.57    2.41   0
   5  -1  21    0.80    1.79   0
   5   1 -21   -0.11    2.42   0
   5   1  24    1.13    2.09   0
   5   5  28   -2.63    2.56   0
   6  -6  -7   32.93    2.45   0
   6  -6   9    1.38    2.42   0
   6  -4 -14   19.76    2.20   0
   6  -2  21    4.41    2.48   0
   6   2 -24    3.46    1.70   0
   6   6  30    0.30    2.44   0
   7  -7  -5   11.94    2.08   0
   7  -7  -4   46.66    3.09   0
   7  -7   7    0.35    2.28   0
   7  -3 -18    3.11    2.49   0
   7   1 -24    1.06    1.93   0
   7   3 -26   -1.54    2.35   0
   7   7 -29   -1.92    2.53   0
   8  -8  -1   39.44    2.33   0
   8  -8   0    2.21    1.99   0
   8  -8   1    1.50    2.50   0
   8  -8   2   -1.03    2.44   0
   8  -8   3   30.53    2.37   0
   8  -4 -18    0.89    1.81   0
   8   0 -24   -0.79    2.27   0
   8   4 -28    2.12    2.38   0
   9  -7  13    2.34    2.74   0
   9  -5 -17    1.77    1.80   0
   9  -5  19   37.40    7.13   0
   9  -3 -21    0.50    1.73   0
   9  -1 -24    0.19    2.09   0
   9   5 -30    0.65    1.12   0
   9   5 -30   -0.31    1.10   0
  10  -8  -9   -0.25    1.77   0
  10  -8  11    4.34    2.32   0
  10  -6 -16   -2.02    1.70   0
  10  -4 -20    0.35    2.27   0
  10   0 -26    3.22    2.47   0
  10   4 -30   -0.12    1.05   0
  10   4 -30    0.66    1.20   0
  11  -9  -6   33.02    2.24   0
  11  -9  -5   38.64    3.02   0
  11  -9   7   -2.09    2.40   0
  11  -7 -14    0.67    2.32   0
  11  -3 -23    1.76    2.01   0
  11  -1  28    1.52    2.67   0
  11   1 -28   -0.57    2.34   0
  11   3 -30    1.20    1.12   0
  12  -8 -13   -0.92    1.81   0
  12  -8 -12    0.27    2.34   0
  12  -8  14    2.06    2.34   0
  12  -6 -18    7.84    2.49   0
  12  -4 -22   -2.79    2.20   0
  12   0 -28   -2.03    1.78   0
  13  -9 -10   10.15    1.74   0
  13  -9  11    1.77    2.46   0
  13  -7 -17   -0.70    1.78   0
  13  -7  18    0.23    2.45   0
  13  -5 -21    0.07    1.97   0
  13  -1 -27   -0.71    2.36   0
  14 -10  -5    0.20    1.55   0
  14 -10  -4    0.57    2.10   0
  14 -10  -3    3.55    2.49   0
  14 -10   5    0.93    2.54   0
  14 -10   6    0.09    2.41   0
  14  -8 -15   -0.30    1.87   0
  14  -8 -14    0.65    2.39   0
  14  -6 -20    0.69    1.91   0
  14  -6  21    1.76    3.34   0
  15  -9 -12   -0.41    1.61   0
  15  -9 -11   -1.64    2.18   0
  15  -9  13    1.97    2.01   0
  15  -7 -18    1.43    1.74   0
  15  -5 -22   -0.89    2.18   0
  16 -10  -7    0.56    1.76   0
  16 -10  -6    1.72    2.53   0
  16 -10   8    0.48    2.21   0
  16  -8 -16   -2.22    1.88   0
  16  -8 -15   -0.43    2.66   0
  17  -9 -13    1.84    1.79   0
  17  -9 -12    0.41    2.33   0
  18 -10  -8   -0.76    1.17   0
  18 -10  -8   -0.64    1.15   0
  18 -10  -7    3.27    1.56   0
  18 -10  -7    0.64    1.07   0
  -4  12  -1   12.01    2.67   0
  -4  12   0   36.00    2.85   0
  -4  12   1   36.21    2.27   0
  -4  12   2  225.84    3.63   0
  -4  12   3   78.87    2.62   0
  -4  12   4    9.44    1.91   0
  -4  12   5   24.36    2.77   0
  -4  12   6    8.19    2.25   0
  -4  14  -3  115.40    3.40   0
  -4  14  -2  153.98    3.77   0
  -4  14  -1   90.74    2.77   0
  -4  14   6    2.18    1.77   0
  -4  14   7    3.56    2.35   0
  -4  14   8    0.08    2.18   0
  -4  16  -3   -1.01    2.16   0
  -4  16  -2    7.81    2.49   0
  -4  16  -1   11.30    2.04   0
  -4  16   5    0.91    1.78   0
  -4  16   6    6.15    1.82   0
  -4  16   7   15.58    2.58   0
  -4  16   8    5.01    2.22   0
  -4  18  -1    5.21    1.96   0
  -4  18   0    0.02    2.17   0
  -4  18   1    2.25    2.30   0
  -4  18   2    2.75    2.34   0
  -4  18   3    3.71    2.36   0
  -4  18   4    4.81    2.26   0
  -4  18   5    1.13    2.25   0
  -4  18   6    1.22    2.04   0
  -3   7  -2    0.92    3.00   0
  -3   7  -1   53.05    2.87   0
  -3   7   5   40.95    2.73   0
  -3   7   6   19.41    3.26   0
  -3   9  11   22.45    2.76   0
  -3  11  13   15.91    2.58   0
  -3  13  14    1.26    1.68   0
  -3  15 -10    0.43    2.01   0
  -3  15  14   13.67    1.93   0
  -3  17  14   -0.36    2.31   0
  -3  19  -8    1.06    2.61   0
  -3  19  12    0.65    1.72   0
  -3  21  -6   -0.35    2.08   0
  -3  21  -5   -1.09    1.65   0
  -3  21   9    0.17    1.63   0
  -3  21  10    1.39    1.72   0
  -3  21  11    0.72    1.96   0
  -3  23  -1   -0.46    2.16   0
  -3  23   0    3.05    2.36   0
  -3  23   1    1.70    2.36   0
  -3  23   2   -3.38    2.44   0
  -3  23   3    4.23    2.59   0
  -3  23   4    0.28    2.40   0
  -3  23   5    1.51    2.19   0
  -3  23   6    1.42    1.85   0
  -2   4  -1  172.03    6.11   0
  -2   4   5   80.10    3.64   0
  -2   4   6   25.21    3.93   0
  -2   6  12    8.29    2.92   0
  -2   8  15   28.80    2.63   0
  -2  10  17    4.48    2.49   0
  -2  12  18   -1.67    2.44   0
  -2  14 -14   10.99    3.02   0
  -2  14  18    0.66    1.76   0
  -2  16 -14   -0.32    2.52   0
  -2  16  18    0.96    1.80   0
  -2  18  18   -0.56    2.29   0
  -2  20 -12   -1.28    2.19   0
  -2  20  16    0.52    1.76   0
  -2  22 -10    3.86    2.70   0
  -1   3  11    1.17    3.14   0
  -1   5  15   48.37    2.57   0
  -1   7  18   13.82    2.58   0
  -1  11  21    0.69    2.10   0
  -1  13  21   14.06    1.98   0
  -1  17 -17   -0.23    2.18   0
  -1  17  21   -0.50    1.91   0
  -1  19  20   -1.17    1.72   0
  -1  21 -15    0.79    1.80   0
   0   0   4   15.86    4.10   0
   0   2  -9   27.66    3.95   0
   0   2  13   16.79    2.08   0
   0   4  17    0.38    1.90   0
   0   6  20    5.51    2.36   0
   0  10  23    2.78    2.31   0
   0  14  24   -0.31    2.38   0
   0  16  24    0.68    2.30   0
   1   1  15  247.71    4.96   0
   1   7 -19   45.01    3.38   0
   1   7  23    3.85    1.77   0
   1  13  26    1.20    2.30   0
   1  15  26    1.00    1.58   0
   2  -2  -6   80.64    4.02   0
   2  -2  10   89.24    5.74   0
   2   0 -12   16.93    2.97   0
   2   0  16   13.92    2.30   0
   2   2  20    0.81    2.32   0
   2   8  26   -0.90    2.36   0
   2  10  27    3.32    2.48   0
   3  -3  -7   85.07    3.74   0
   3  -1 -13   20.66    2.39   0
   3   7 -23   -0.85    2.49   0
   3   7  27   12.51    2.48   0
   3   9  28    6.87    1.87   0
   3  11 -25    0.98    2.16   0
   3  11  29   -2.50    2.49   0
   4  -4  -7   60.43    3.08   0
   4   0  21    0.03    1.92   0
   4   2  24    3.01    2.67   0
   4   4  26    2.34    1.72   0
   4   6  28    0.42    2.25   0
   4   8  29    1.19    1.82   0
   4  10  30    0.17    2.49   0
   4  14 -27   -0.41    2.28   0
   5  -5  -7    4.51    2.24   0
   5   3 -23    0.53    2.37   0
   5   5 -25    4.95    1.88   0
   5   7  30   -0.20    2.16   0
   5  11 -28    0.46    1.85   0
   6  -6  -6    1.65    2.11   0
   6  -6  -5   19.92    3.20   0
   6  -4 -13   14.27    2.79   0
   6  -2 -18   25.49    2.08   0
   6   0 -21   -0.95    1.63   0
   6   2  27    2.96    2.04   0
   6   4  29    1.23    2.25   0
   6   6 -27    0.96    2.21   0
   6  10 -29    0.42    1.93   0
   7  -7  -3   25.83    2.72   0
   7  -7  -2   -0.27    2.74   0
   7  -7   6   -0.21    2.43   0
   7  -5 -13    4.24    1.75   0
   7  -1 -21    3.03    2.34   0
   7   1  27   -1.82    2.12   0
   7   3  29    0.26    2.48   0
   8  -6 -12    0.64    1.72   0
   8  -4 -17   -0.30    1.89   0
   8  -2 -21    2.50    1.84   0
   8  -2  24    0.43    2.07   0
   8   2 -26   -0.63    1.59   0
   8   2  29    0.83    2.13   0
   8   4  31    0.59    2.00   0
   8   6 -29   -0.41    2.32   0
   9  -7 -10   -0.18    2.16   0
   9  -5 -16   -1.00    2.34   0
   9   1 -26    0.73    1.58   0
   9   1  29   -0.71    1.70   0
   9   3 -28   -1.15    1.60   0
  10  -8  -8    4.97    1.84   0
  10  -8  -7   20.77    2.66   0
  10  -8  10    9.14    2.67   0
  10  -6 -15   -1.11    2.14   0
  10  -2 -23    0.92    2.13   0
  10  -2  26    2.83    2.74   0
  10   2 -28    0.30    1.63   0
  11  -9  -4   -2.61    1.82   0
  11  -9  -3   12.80    2.46   0
  11  -9   5   17.55    2.87   0
  11  -9   6   11.43    2.40   0
  11  -7 -13    0.65    2.44   0
  11  -7  16    6.58    2.95   0
  11  -5 -19    1.43    1.74   0
  11  -1 -25   -3.09    2.33   0
  12  -8 -11   14.54    2.56   0
  12  -6 -17    1.28    2.37   0
  12   0 -27   -1.33    2.41   0
  13  -9  -8    3.65    1.67   0
  13  -9  10    4.38    2.61   0
  13  -5 -20   -1.77    2.22   0
  13  -3 -24   -0.78    1.72   0
  14 -10  -2    1.71    1.79   0
  14 -10  -1    0.55    1.82   0
  14 -10   0    1.40    2.22   0
  14 -10   1    5.65    2.18   0
  14 -10   2    2.75    2.11   0
  14 -10   3   -0.12    1.83   0
  14 -10   4    5.25    1.89   0
  14  -8 -13   -2.96    2.42   0
  14  -6 -19    0.11    1.76   0
  14  -4 -23    2.08    1.79   0
  14  -2 -26    1.62    1.62   0
  15  -9 -10    1.34    1.65   0
  15  -9  12   -0.73    2.60   0
  15  -7 -17   -2.88    1.79   0
  16 -10  -5    0.73    1.78   0
  16 -10  -4   -0.67    2.10   0
  16 -10  -3    0.03    2.36   0
  16 -10   5    3.95    2.47   0
  16 -10   6   -0.51    2.12   0
  16 -10   7    0.85    1.79   0
  16  -8 -14    5.67    2.70   0
  16  -8  16    1.62    2.57   0
  16  -6 -20    1.17    1.79   0
  17  -9 -11   -2.75    1.78   0
  17  -7 -17    2.52    2.61   0
  18 -10  -6    3.08    1.69   0
  18 -10  -5   -0.44    1.15   0
  18 -10  -5    0.82    1.10   0
  18 -10  -4    2.24    2.28   0
  18 -10  -3    1.61    2.42   0
  18 -10   5    1.40    2.35   0
  18 -10   6    6.04    2.21   0
  -4  12  -3   18.22    2.55   0
  -4  12  -2    0.15    1.85   0
  -4  12   7   -0.52    1.65   0
  -4  12   8    2.94    2.27   0
  -4  14  -4    1.63    2.55   0
  -4  14   9  108.06    2.76   0
  -4  14  10   53.75    2.81   0
  -4  16  -4    3.28    2.45   0
  -4  16   9    0.64    1.78   0
  -4  16  10   15.82    2.42   0
  -4  18  -3    2.88    2.14   0
  -4  18  -2    3.89    1.73   0
  -4  18   7   -1.66    1.66   0
  -4  18   8    1.96    2.15   0
  -4  18   9    1.57    1.92   0
  -4  20   1    0.41    1.94   0
  -4  20   2   -0.81    2.23   0
  -4  20   3    3.59    2.36   0
  -4  20   4    2.61    2.45   0
  -4  20   5   -1.23    2.10   0
  -3   7   7   16.76    2.40   0
  -3   7   8   18.02    3.17   0
  -3   9  -7  128.26    4.47   0
  -3   9  12   -1.14    1.78   0
  -3  11  -9   12.66    2.26   0
  -3  11  14   20.80    2.04   0
  -3  13 -10   36.53    2.71   0
  -3  13  15   24.70    1.96   0
  -3  15  15    4.59    1.90   0
  -3  15  16    0.98    2.46   0
  -3  17 -10    7.32    2.36   0
  -3  17  15    5.10    1.79   0
  -3  19  -9    3.10    2.50   0
  -3  19  14    1.80    1.85   0
  -3  21  -7    2.79    2.49   0
  -3  21  12    5.23    1.78   0
  -3  21  13    1.16    2.06   0
  -3  23  -3   -0.44    2.27   0
  -3  23  -2    1.19    1.61   0
  -3  23   7    0.55    1.06   0
  -3  23   7    0.44    1.08   0
  -2   4  -2    1.77    4.10   0
  -2   4   7  108.18    4.54   0
  -2   6  13   20.18    2.89   0
  -2  10  18    4.20    2.46   0
  -2  12  19   -0.94    2.39   0
  -2  14  19    1.55    1.76   0
  -2  16  19    2.48    1.76   0
  -2  18  19   -2.13    2.23   0
  -2  22 -11    2.91    2.10   0
  -1   5  16   19.40    2.80   0
  -1   9  20   19.53    2.08   0
  -1  13  22   -0.43    1.67   0
  -1  15  22   -1.11    1.64   0
  -1  17  22   -2.99    1.69   0
  -1  19  21    3.17    1.72   0
   0   0   5    1.01    4.74   0
   0   2  14   14.25    2.90   0
   0   4  18    3.58    2.25   0
   0   8  22    4.75    1.89   0
   0  12  24   -0.22    1.72   0
   0  14  25    0.12    1.99   0
   0  16  25    1.34    2.21   0
   1   3  19   -0.32    1.87   0
   1   5 -17   -0.02    2.08   0
   1   5  22    0.47    2.53   0
   1   7  24    2.29    2.05   0
   1   9  25    0.05    1.79   0
   1  11  26    1.34    1.76   0
   1  13  27   -0.44    2.00   0
   1  15  27    0.94    2.33   0
   2  -2  -5  421.46    7.75   0
   2   4  23    1.73    2.42   0
   2   6  25   -1.77    2.32   0
   2  12  28    1.98    1.75   0
   3  -3  -6  152.77    4.15   0
   3  -1  17   17.73    2.31   0
   3   1  21   16.26    2.73   0
   3   3 -19   -2.32    2.57   0
   3   3  24    6.33    2.24   0
   3   5  26   -0.57    2.31   0
   3   9 -24   -0.39    1.99   0
   4  -4  -6   59.03    3.90   0
   4  -2 -13   27.91    2.46   0
   4   0 -17    0.46    1.83   0
   4   2 -20    4.19    1.93   0
   4   4 -22    4.75    2.43   0
   4   8 -25   -0.25    2.21   0
   4  10 -26   -0.57    2.04   0
   5  -5  -6    0.53    2.36   0
   5  -3 -13   35.75    2.39   0
   5  -1 -17   39.25    2.78   0
   5   3  27    2.78    2.67   0
   5   5  29    5.60    2.32   0
   5   9 -27   -0.15    2.12   0
   6  -6  -4   21.63    3.03   0
   6  -6   8   55.74    3.49   0
   6  -2 -17    8.08    2.57   0
   6   2 -23    4.86    2.17   0
   6   4 -25   -3.24    2.21   0
   6   6  31    2.24    1.91   0
   7  -7  -1   24.98    2.44   0
   7  -7   0    3.95    2.94   0
   7  -7   1    0.75    2.91   0
   7  -7   2   -1.37    3.05   0
   7  -7   4    6.07    2.77   0
   7  -7   5    0.61    2.36   0
   7  -5 -12   -0.23    1.91   0
   7  -3 -17    0.24    1.87   0
   7  -3  21    8.02    3.01   0
   7   1 -23    1.88    2.14   0
   7   5 -27    2.48    2.32   0
   7   5  31   -1.12    2.52   0
   8  -6 -11   24.80    2.10   0
   8  -4 -16   18.97    2.64   0
   8  -2 -20   13.25    2.74   0
   8   0 -23    0.61    2.21   0
   8   0  27    0.04    1.83   0
   8   8 -30   -0.76    1.83   0
   9  -3 -20    0.49    1.79   0
   9  -1 -23   -1.17    1.64   0
   9   5 -29   -0.45    2.07   0
   9   7 -30   -0.13    2.29   0
  10  -8  -6   -0.52    2.23   0
  10  -6 -14    3.74    2.41   0
  10  -4 -19   10.29    1.82   0
  10   0 -25    0.55    2.26   0
  10   4 -29   -2.07    1.97   0
  11  -9  -1    4.67    1.83   0
  11  -9   0    7.94    1.82   0
  11  -9   1    9.07    2.32   0
  11  -9   2    0.54    2.34   0
  11  -9   3    0.47    1.70   0
  11  -9   4    0.35    1.96   0
  11  -7 -12    1.16    2.44   0
  11  -5 -18    7.06    1.88   0
  11  -3 -22   -1.30    1.59   0
  11   1 -27   -0.17    1.88   0
  11   3 -29   -0.03    1.60   0
  12  -8 -10    6.12    1.78   0
  12  -8  13    0.57    2.39   0
  12  -6 -16    6.36    2.64   0
  12  -4 -21   -2.17    1.70   0
  12  -2 -24    1.94    1.71   0
  13  -9  -7    4.33    1.74   0
  13  -9  -6    9.35    2.29   0
  13  -9   9    2.86    2.44   0
  13  -7 -15    2.24    1.85   0
  13  -3 -23    2.32    2.05   0
  13  -1 -26    1.13    1.73   0
  14  -8 -12    0.60    2.26   0
  14  -8  15   -0.39    2.45   0
  14  -6 -18   -1.72    1.78   0
  14  -4 -22   -2.44    1.67   0
  14  -2 -25   -1.67    1.87   0
  15  -9  -9   -1.27    1.71   0
  15  -9  -8    2.00    2.30   0
  15  -9  11    7.29    2.82   0
  15  -7 -16    1.44    1.73   0
  15  -3 -24    0.61    1.56   0
  16 -10  -2    8.55    1.97   0
  16 -10  -1   -0.87    1.74   0
  16 -10   0   -0.21    1.76   0
  16 -10   1   -1.02    2.12   0
  16 -10   2    7.26    2.17   0
  16 -10   3    6.14    1.81   0
  16 -10   4    9.03    2.04   0
  16  -8 -13    4.37    2.30   0
  16  -6 -19   -0.10    1.73   0
  17  -9 -10    4.96    1.80   0
  17  -9  -9   -0.41    2.02   0
  17  -9  12    2.20    1.83   0
  17  -7 -16    1.23    2.54   0
  18 -10  -2   -1.00    1.78   0
  18 -10  -1    1.65    1.82   0
  18 -10   0   -0.02    1.68   0
  18 -10   0   -0.81    1.17   0
  18 -10   1   -0.21    2.13   0
  18 -10   2    0.91    2.19   0
  18 -10   3   -0.09    1.75   0
  18 -10   4   -0.11    1.58   0
  -4  10   0   66.99    3.35   0
  -4  10   1   90.49    2.96   0
  -4  10   2   97.77    2.96   0
  -4  10   3   26.07    2.17   0
  -4  10   4    4.09    1.87   0
  -4  10   5   10.04    1.89   0
  -4  10   6   30.46    2.95   0
  -4  10   7   44.30    2.98   0
  -4  12  -4    4.04    2.77   0
  -4  12   9   32.83    2.03   0
  -4  12  10    1.53    2.48   0
  -4  14  -5    1.46    2.60   0
  -4  14  11   16.37    1.96   0
  -4  14  12   -0.30    2.16   0
  -4  16  -5    3.13    2.35   0
  -4  16  11   10.75    1.80   0
  -4  16  12   -2.46    2.19   0
  -4  18  -5    3.05    2.25   0
  -4  18  -4    0.35    1.71   0
  -4  18  10   -1.48    1.61   0
  -4  18  11    9.33    2.36   0
  -4  20  -2   -0.89    2.29   0
  -4  20  -1    5.76    1.76   0
  -4  20   0   -1.36    1.71   0
  -4  20   6   -1.48    1.72   0
  -4  20   7   -0.76    1.70   0
  -4  20   8    0.25    2.31   0
  -4  20   9    3.31    2.12   0
  -3   7  -3  135.93    3.98   0
  -3   7   9    3.49    2.18   0
  -3   7  10    0.73    2.72   0
  -3   9  13   18.27    1.96   0
  -3  11  15    3.94    1.85   0
  -3  13  16    8.52    1.89   0
  -3  15 -11   11.10    2.18   0
  -3  17  16   11.69    1.90   0
  -3  17  17    0.38    2.43   0
  -3  19 -10    1.11    2.26   0
  -3  19  15    1.14    1.84   0
  -3  19  16   -0.61    2.56   0
  -3  21  -8    3.56    2.46   0
  -3  21  14   -2.83    1.67   0
  -3  23  -5    3.31    2.42   0
  -2   4   8   76.04    3.41   0
  -2   6  -8    3.26    4.31   0
  -2   6  14    6.68    2.68   0
  -2   8  17   21.27    2.76   0
  -2  12 -14    0.50    2.64   0
  -2  12  20    0.95    2.27   0
  -2  14  20    2.13    1.75   0
  -2  16  20   -1.60    1.85   0
  -2  18 -14   -0.42    1.94   0
  -2  20 -13   -0.18    2.09   0
  -2  20  19    0.43    1.12   0
  -1   3  12   35.63    2.64   0
  -1   9  21    0.98    1.75   0
  -1  11  22   -3.83    1.70   0
  -1  13  23    0.50    1.61   0
  -1  15  23   -1.51    1.56   0
  -1  17  23    0.64    1.73   0
   0   0   6   51.60    5.39   0
   0   6  21    2.93    2.34   0
   0   8  23    4.75    2.51   0
   0  10  24   -1.15    1.75   0
   0  12  25    2.65    1.81   0
   0  16 -20    0.33    3.50   0
   1  -1   9    2.03    2.93   0
   1   1  16   19.96    2.96   0
   1   9  26    4.46    2.43   0
   1  11 -21    0.55    3.06   0
   1  11  27   -0.45    2.11   0
   2   0  17   -0.70    1.92   0
   2   6 -20    5.85    2.08   0
   2   8  27   -1.48    1.54   0
   2  10  28   -0.85    1.66   0
   2  12  29    5.16    2.51   0
   3  -3  -5   37.78    4.20   0
   3   1 -16    0.87    2.47   0
   3   7  28   -0.33    2.46   0
   3   9  29    1.20    1.70   0
   3  11  30   -1.27    1.77   0
   4  -4  -5   66.91    3.85   0
   4  -2 -12   47.75    3.59   0
   4   4  27    1.44    2.52   0
   4   6  29    2.75    2.24   0
   4   8  30    0.69    1.76   0
   5  -5  -5    7.25    2.47   0
   5  -5  -4    1.14    3.19   0
   5  -3 -12  100.91    3.69   0
   5   1 -20   15.23    1.92   0
   5   1  25    1.05    2.21   0
   5   5 -24   -0.88    2.40   0
   5  13 -28    0.25    1.48   0
   5  13 -28    0.26    1.07   0
   6  -6  -3   15.70    2.44   0
   6  -6  -2   37.71    3.47   0
   6  -6   7   37.27    3.15   0
   6  -4 -12    8.77    2.05   0
   6   0 -20   13.07    2.37   0
   6   0  25    0.59    1.96   0
   6  12 -29    0.36    1.56   0
   7  -5 -11    0.35    1.92   0
   7  -3 -16   22.91    2.71   0
   7  -1 -20   16.14    2.20   0
   7   3 -25    0.29    1.70   0
   7   7 -28    0.39    2.22   0
   8  -6 -10    3.29    1.79   0
   8  -6  14   12.74    3.38   0
   8   2 -25   -2.33    2.06   0
   8   4 -27    1.76    1.81   0
   9  -7  -8    1.49    1.77   0
   9  -7  12   -0.60    2.06   0
   9  -5 -15   11.62    1.94   0
   9  -3 -19    3.49    2.32   0
   9  -1  27   -0.52    2.15   0
   9   1 -25    1.30    1.67   0
   9   3 -27    0.86    1.61   0
  10  -8  -5    6.89    1.82   0
  10  -8  -4   -1.60    2.33   0
  10  -8   8   -3.38    2.55   0
  10  -8   9    0.49    1.68   0
  10  -6 -13    3.86    2.44   0
  10  -4 -18    3.97    2.38   0
  10  -2 -22   -2.04    1.72   0
  10   0  29    0.31    2.36   0
  10   2 -27   -1.04    1.63   0
  10   6 -30    1.05    1.55   0
  11  -7 -11    9.30    2.69   0
  11  -5 -17    1.68    2.10   0
  11  -3 -21    2.81    1.51   0
  11  -1 -24   -1.13    2.04   0
  12  -8  -9    1.51    1.68   0
  12  -8  -8    7.11    2.38   0
  12  -4 -20   -1.03    1.68   0
  12  -2 -23   -1.71    2.27   0
  12   0 -26    0.49    1.67   0
  12   2 -28    2.31    2.11   0
  13  -9  -5    0.06    1.63   0
  13  -9  -4   -1.27    2.12   0
  13  -9  -3    0.98    2.37   0
  13  -9   7    6.66    2.54   0
  13  -9   8    3.49    2.28   0
  13  -7 -14   -0.53    1.82   0
  13  -7 -13    5.06    2.50   0
  13  -5 -19    3.84    1.82   0
  13  -3 -22    0.44    2.19   0
  13  -1 -25    4.65    2.33   0
  14  -8 -11    1.23    1.79   0
  14  -6 -17    1.80    1.94   0
  14  -4 -21    1.88    2.22   0
  15  -9  -7   -0.25    1.61   0
  15  -9  -6    8.21    2.33   0
  15  -9  10   -2.31    2.49   0
  15  -5 -20   -0.57    1.97   0
  15  -3 -23    2.80    2.30   0
  16  -8 -12    0.31    1.74   0
  16  -8  15    0.36    2.35   0
  16  -6 -18   -1.59    1.65   0
  17  -9  -8    1.70    1.76   0
  17  -9  -7   -0.82    2.04   0
  17  -9  10   -1.53    2.49   0
  17  -9  11    0.69    1.45   0
  17  -9  11    0.48    1.39   0
  17  -7 -15    2.17    2.24   0
  18  -8 -12   -2.86    1.84   0
  -4  10  -2   -2.71    2.99   0
  -4  10  -1   23.51    2.37   0
  -4  10   8   15.98    2.03   0
  -4  10   9   23.63    2.76   0
  -4  12  -5   11.72    2.87   0
  -4  12  11   44.45    2.30   0
  -4  12  12   19.73    2.58   0
  -4  14  -6    9.28    2.59   0
  -4  14  13   10.66    2.53   0
  -4  16  -6    0.83    1.82   0
  -4  16  13    1.59    1.71   0
  -4  18  -6    0.02    2.14   0
  -4  18  12    4.00    1.56   0
  -4  18  13    3.91    2.21   0
  -4  20  -4    0.81    2.43   0
  -4  20  -3    0.31    1.70   0
  -4  20  10   -1.30    1.65   0
  -4  20  11    3.34    2.28   0
  -4  22   0   -2.01    2.43   0
  -4  22   1    1.22    2.32   0
  -4  22   2    2.24    1.86   0
  -4  22   3   -0.57    1.78   0
  -4  22   4    0.25    1.54   0
  -4  22   5   -0.30    1.71   0
  -4  22   7    0.73    2.33   0
  -4  22   8   -2.33    1.96   0
  -3   7  -4   11.75    3.32   0
  -3   7  11    0.60    2.86   0
  -3   9  14   38.91    2.16   0
  -3  11  16    4.66    1.74   0
  -3  13  17   -0.24    1.79   0
  -3  15  18   15.36    1.99   0
  -3  17 -11   -0.58    2.30   0
  -3  17  18    1.19    2.42   0
  -3  19  17    2.31    1.88   0
  -3  21  -9    4.07    2.52   0
  -3  21  15    1.37    1.75   0
  -3  23  -6    0.26    1.20   0
  -3  23  -6    0.96    0.99   0
  -2   4   9   -0.27    2.60   0
  -2   6  15   -2.14    2.51   0
  -2   8 -11    8.10    3.46   0
  -2   8  18    4.47    2.21   0
  -2  12  21    0.65    2.15   0
  -2  14  21    0.80    1.58   0
  -2  16  21    1.45    1.94   0
  -2  18  21    0.57    1.76   0
  -2  22 -12    0.95    2.37   0
  -1   3  13    1.08    2.92   0
  -1   5  17    1.48    1.88   0
  -1   7  20    4.44    2.63   0
  -1   9  22    2.21    2.42   0
  -1  11  23   -0.62    1.51   0
  -1  13  24   -1.83    2.29   0
  -1  15  24   -0.31    1.65   0
  -1  17  24   -0.26    1.79   0
  -1  19 -17    0.79    2.02   0
  -1  21 -16    1.00    2.14   0
   0   2  15    5.52    2.67   0
   0   4  19   -0.13    2.53   0
   0   6 -15    0.91    3.04   0
   0   8 -17    2.00    2.50   0
   0  10  25    4.54    2.32   0
   0  12  26    0.83    2.46   0
   0  14  26   -1.82    1.65   0
   1   3  20   26.11    2.29   0
   1   5  23    0.17    2.35   0
   1   7  25   -0.85    2.30   0
   1   9 -20   17.89    3.03   0
   1  13  28   -0.86    1.68   0
   2  -2  -4  448.66    8.36   0
   2   0 -11   -0.35    2.06   0
   2   2 -15    0.14    1.59   0
   2   2  21    2.88    1.86   0
   2   4  24    2.50    2.61   0
   2   6  26    2.34    2.22   0
   2  10  29   -1.52    2.24   0
   3   5  27    1.40    2.33   0
   3   9  30   -0.35    2.28   0
   3  13 -25    0.84    2.45   0
   4  -4  -4    1.28    3.74   0
   4   0 -16   82.73    3.22   0
   4   0  22   13.74    2.40   0
   4   2 -19   16.08    2.76   0
   4   2  25    2.98    2.58   0
   5  -5  -3   14.26    3.37   0
   5  -5   9   38.19    3.98   0
   5  -1 -16   28.00    2.98   0
   5  -1  22    1.12    1.81   0
   5   3 -22   18.77    2.18   0
   5   7  31   -1.30    1.68   0
   6  -6  -1   14.63    2.35   0
   6  -6   0  203.01    4.44   0
   6  -6   6    9.06    2.70   0
   6  -4 -11   75.81    3.30   0
   6  -2 -16    1.77    2.42   0
   6   2 -22    7.54    2.36   0
   6   2  28   -0.51    2.01   0
   6   4  30    2.73    2.52   0
   6   6 -26    1.84    1.80   0
   6  10 -28   -1.59    2.23   0
   7  -1  25    2.62    2.32   0
   7   1 -22    0.47    2.18   0
   7   3  30    0.52    2.41   0
   8  -6  -9    7.20    1.95   0
   8  -4 -15   13.36    1.77   0
   8  -2 -19   37.45    2.31   0
   8   0 -22    1.30    2.42   0
   8   2  30   -0.36    2.10   0
   8   6 -28    1.72    2.07   0
   8   8 -29   -0.33    2.44   0
   9  -5 -14    2.76    1.88   0
   9  -1 -22    8.12    1.80   0
   9   5 -28    1.51    2.42   0
  10  -8  -3   -0.13    1.76   0
  10  -8  -2    8.43    2.63   0
  10  -8   7    5.29    2.58   0
  10  -6 -12    2.28    2.42   0
  10  -2 -21    4.33    2.51   0
  10   0 -24    3.68    2.20   0
  10   4 -28    0.26    2.24   0
  11  -7 -10   18.26    2.53   0
  11  -7  15   15.43    2.97   0
  11  -5 -16    1.45    2.44   0
  11  -5  21   -0.45    3.48   0
  11  -3 -20    4.06    2.25   0
  11   1 -26   -0.54    1.78   0
  11   3 -28    0.83    1.78   0
  12  -8  -7    6.16    2.24   0
  12  -8  12    4.88    2.28   0
  12  -6 -15    2.65    1.90   0
  12  -4 -19   -1.00    2.40   0
  13  -9  -2    2.31    1.68   0
  13  -9  -1    1.98    2.05   0
  13  -9   0    3.97    2.43   0
  13  -9   1   -0.27    2.19   0
  13  -9   2    7.58    2.55   0
  13  -9   3    7.29    2.52   0
  13  -9   4    1.69    2.28   0
  13  -9   5    8.41    2.35   0
  13  -9   6    6.46    2.21   0
  13  -7 -12    3.50    2.25   0
  13  -7  17   -0.20    2.30   0
  13  -5 -18    1.72    1.70   0
  13   1 -27   -1.01    1.89   0
  14  -8 -10    2.41    1.71   0
  14  -8  14   -0.09    2.11   0
  14  -6 -16   -2.32    1.94   0
  14  -4 -20   -0.92    2.48   0
  14  -2 -24   -0.13    1.62   0
  14   0 -26   -2.15    2.08   0
  15  -9  -5    5.50    1.76   0
  15  -9  -4    5.14    2.49   0
  15  -9   8    3.83    2.62   0
  15  -9   9   -0.04    2.23   0
  15  -7 -14    1.67    1.79   0
  15  -7  18   -0.21    1.58   0
  15  -7  18   -0.09    1.03   0
  15  -5 -19   -1.81    1.88   0
  16  -8 -11    0.21    1.64   0
  16  -8 -10   -0.17    2.33   0
  16  -6 -17   -0.66    1.64   0
  16  -4 -21    2.58    1.73   0
  17  -9  -6    0.10    1.67   0
  17  -9  -5    0.10    2.02   0
  17  -9  -4    3.24    2.42   0
  17  -9   9   -0.61    2.10   0
  17  -9   9   -0.21    1.17   0
  17  -7 -14   -0.27    1.83   0
  17  -5 -19   -0.52    2.13   0
  18  -8 -11   -0.25    1.69   0
  18  -8 -10    1.19    2.32   0
  -5  15   2    1.19    2.25   0
  -5  15   3   13.36    2.64   0
  -5  15   4   39.36    2.86   0
  -5  15   5    3.63    2.58   0
  -5  15   6   27.83    2.56   0
  -5  17   3   -0.28    2.37   0
  -5  17   4   -1.18    2.24   0
  -5  17   5   -2.79    2.32   0
  -4  10  -3   23.09    3.10   0
  -4  10  10   33.92    2.14   0
  -4  10  11    4.65    2.47   0
  -4  12  13    0.14    1.81   0
  -4  14  -7    1.24    2.19   0
  -4  14  14   23.69    2.03   0
  -4  16  -7   30.20    2.96   0
  -4  16  14    3.41    1.89   0
  -4  16  15   -0.09    2.36   0
  -4  18  -7    4.06    2.29   0
  -4  18  14   -0.86    1.68   0
  -4  20  -5    0.87    2.42   0
  -4  20  12    2.75    1.67   0
  -4  20  13   -0.02    2.35   0
  -4  22  -3    4.89    2.12   0
  -4  22  -2    1.29    2.28   0
  -4  22  -1    2.82    1.73   0
  -4  22   9    4.29    1.57   0
  -4  22  10    0.18    2.13   0
  -4  22  11    4.26    1.99   0
  -3   7  12    3.25    1.94   0
  -3   9  -8   25.31    2.94   0
  -3   9  15   -0.14    1.65   0
  -3   9  16   20.47    2.43   0
  -3  11 -10    6.27    2.08   0
  -3  11  17    8.22    1.87   0
  -3  11  18   -1.02    2.21   0
  -3  13 -11   16.45    2.39   0
  -3  13  19    6.91    2.40   0
  -3  15  19   -0.86    1.73   0
  -3  17  19   -1.16    1.68   0
  -3  19 -11    1.17    2.29   0
  -3  19  18    0.78    1.65   0
  -3  19  19    0.71    2.09   0
  -3  21 -10    0.66    1.95   0
  -3  23  -7    1.26    1.27   0
  -2   4  -3   85.27    5.40   0
  -2   4  10    1.13    2.07   0
  -2   4  11    6.19    2.99   0
  -2   6  16    4.30    2.47   0
  -2  10 -13    1.21    2.60   0
  -2  10  20    5.03    1.74   0
  -2  12  22   -0.30    2.01   0
  -2  14  22    3.86    1.75   0
  -2  16 -15    1.87    2.07   0
  -2  16  22    4.26    1.79   0
  -2  18  22    1.50    1.72   0
  -2  20 -14    2.48    2.19   0
  -1   3  14   22.28    2.83   0
  -1   5  18   -0.59    2.56   0
  -1   7  21    3.39    2.28   0
  -1  11  24   -0.21    2.35   0
  -1  13  25   -1.10    2.11   0
  -1  15  25   -0.81    1.65   0
   0   0   7    0.77    2.98   0
   0   6  22    5.66    1.67   0
   0   8  24    0.08    1.73   0
   0  14  27   -0.25    1.62   0
   1   1  17    6.17    2.67   0
   1   3  21    3.55    2.24   0
   1   9  27    0.81    1.59   0
   1  11  28   -0.08    1.75   0
   1  13  29    1.53    2.04   0
   2   8  28    1.55    1.62   0
   2  12 -23    1.25    2.53   0
   2  12  30   -1.44    1.24   0
   3  -3  -4   62.83    3.61   0
   3  -3  11   27.48    5.89   0
   3  -1 -11   11.66    3.29   0
   3  -1  18    0.19    1.79   0
   3   1 -15   15.65    3.01   0
   3   1  22    3.60    2.39   0
   3   3 -18   23.53    2.85   0
   3   3  25   10.55    2.70   0
   3   7 -22    0.27    2.50   0
   3   7  29    3.35    2.53   0
   4  -4  10    5.42    4.49   0
   4  -2 -11  274.79    5.03   0
   4  -2  18    8.53    2.47   0
   4   4 -21   15.78    2.61   0
   4   4  28    0.03    2.36   0
   4   8  31   -0.09    1.15   0
   4   8  31    0.85    1.22   0
   4  12 -26    1.87    2.40   0
   5  -5  -2   42.39    3.40   0
   5  -3 -11   59.04    2.75   0
   5   1 -19   65.76    2.92   0
   5   3  28   -0.30    1.88   0
   5   5  30    2.19    1.77   0
   5  11 -27    0.29    2.14   0
   6  -6   1   17.90    2.41   0
   6  -6   3   10.01    2.98   0
   6  -6   4   -0.10    2.67   0
   6  -6   5   61.95    3.26   0
   6  -2  22    5.46    2.62   0
   6   0 -19    0.56    2.35   0
   6   4 -24    1.78    1.69   0
   7  -5  -9    7.33    2.85   0
   7  -3 -15   14.20    1.96   0
   7  -1 -19   -0.42    1.96   0
   7   1  28    0.70    2.16   0
   7   3 -24    1.98    2.17   0
   7   5 -26   -0.39    1.87   0
   8  -6  -8    0.14    1.90   0
   8  -4 -14    6.67    2.41   0
   8   2 -24    1.98    1.94   0
   8   4 -26   -1.22    2.15   0
   9  -7  11   19.51    2.53   0
   9  -5 -13    2.30    1.86   0
   9  -1 -21    2.77    2.39   0
   9   1 -24    1.86    1.79   0
   9   1  30    0.81    2.26   0
   9   3 -26    2.19    2.06   0
   9   7 -29   -0.60    2.26   0
  10  -8  -1    1.49    1.83   0
  10  -8   0    4.70    1.90   0
  10  -8   1   -1.98    2.60   0
  10  -8   2    3.55    2.62   0
  10  -8   3    0.81    2.57   0
  10  -8   5   31.40    3.01   0
  10  -8   6    7.16    1.96   0
  10  -6 -11    4.33    2.48   0
  10  -6  17    3.28    3.39   0
  10  -4 -17    3.42    1.80   0
  10   2 -26   -0.34    1.54   0
  10   6 -29    0.68    2.53   0
  11  -7  -9   -1.21    2.33   0
  11  -1 -23    4.49    1.76   0
  11   5 -29    0.46    1.96   0
  11   5 -29    0.78    1.13   0
  12  -8  -6    8.79    1.90   0
  12  -8  -5   12.29    2.61   0
  12  -8  11    1.10    2.36   0
  12  -6 -14    5.17    2.01   0
  12  -6  19    6.77    3.18   0
  12  -2 -22   -0.52    1.58   0
  12   0 -25   -2.48    1.82   0
  12   2 -27   -0.84    2.09   0
  13  -7 -11    3.60    2.37   0
  13  -5 -17    2.15    1.82   0
  13  -3 -21    0.85    1.65   0
  13  -1 -24    1.49    1.61   0
  14  -8  -8    0.76    1.49   0
  14  -8  13    0.93    2.44   0
  14  -6 -15    3.18    1.96   0
  14  -6  20    2.21    3.27   0
  14  -2 -23   -0.95    1.68   0
  15  -9  -2    2.65    1.85   0
  15  -9  -1    1.58    2.39   0
  15  -9   0   -1.10    2.31   0
  15  -9   5   -0.79    2.57   0
  15  -9   6    0.33    2.60   0
  15  -9   7    1.26    2.33   0
  15  -7 -13    2.75    2.10   0
  15  -7 -12    0.78    2.42   0
  15  -5 -18   -1.74    1.77   0
  15  -3 -22    0.85    1.80   0
  16  -8  -9    1.03    1.81   0
  16  -8  14    2.46    2.07   0
  16  -6 -16    2.63    1.84   0
  16  -4 -20   -0.11    2.31   0
  17  -9  -3    0.56    1.73   0
  17  -9  -2    1.47    2.12   0
  17  -9  -1    0.71    2.37   0
  17  -9   6   -1.79    2.40   0
  17  -9   7    8.41    2.31   0
  17  -9   8    0.14    1.81   0
  17  -7 -13    0.52    1.82   0
  17  -5 -18    0.00    2.08   0
  18  -8  -9   -0.05    1.62   0
  18  -8  -8   -1.22    2.19   0
  -5  13   1  130.25    3.42   0
  -5  13   2   21.42    2.78   0
  -5  13   3   28.10    2.60   0
  -5  13   4    2.96    2.42   0
  -5  13   5   10.56    2.39   0
  -5  13   6    5.29    2.47   0
  -5  13   7   29.83    2.68   0
  -5  15  -1    0.25    2.27   0
  -5  15   0    0.81    2.53   0
  -5  15   1   -2.10    1.71   0
  -5  15   7    7.13    1.85   0
  -5  15   8   18.02    1.97   0
  -5  15   9   24.37    2.67   0
  -5  15  10   -0.36    2.05   0
  -5  17  -1    2.58    2.09   0
  -5  17   0   12.00    2.32   0
  -5  17   1    2.32    1.69   0
  -5  17   7    4.22    1.62   0
  -5  17   8    0.88    1.53   0
  -5  17   9    2.94    2.24   0
  -5  17  10    4.43    2.03   0
  -5  19   1    0.52    2.35   0
  -5  19   2   10.88    2.47   0
  -5  19   3    1.52    2.31   0
  -5  19   4    0.79    1.65   0
  -5  19   5   -1.15    1.74   0
  -5  19   6    1.85    2.23   0
  -5  19   7    2.31    2.30   0
  -5  19   8    0.70    2.06   0
  -4   8   2    9.02    3.17   0
  -4   8   3   -0.50    2.16   0
  -4   8   4    1.22    2.18   0
  -4   8   5    0.15    2.13   0
  -4   8   6    2.33    2.96   0
  -4   8   7   -0.48    2.93   0
  -4  10  -4  181.85    4.33   0
  -4  10  12   -1.50    1.70   0
  -4  12  -6   16.83    2.23   0
  -4  12  14   31.69    2.11   0
  -4  12  15   -0.61    2.34   0
  -4  14  16   -1.79    2.60   0
  -4  16  -8   12.22    2.63   0
  -4  16  16    0.18    1.79   0
  -4  18  16   -2.24    2.57   0
  -4  20  -6    1.54    1.78   0
  -4  20  14    0.96    1.65   0
  -4  20  15   -0.10    2.24   0
  -4  22  -4    2.54    2.37   0
  -3   5   4   -2.16    3.75   0
  -3   5   5   80.81    4.20   0
  -3   7  -5    3.63    2.91   0
  -3   9  17   12.23    2.38   0
  -3  11  19    5.68    2.20   0
  -3  13  20   -1.40    2.51   0
  -3  15 -12    0.30    2.18   0
  -3  15  20    3.65    1.82   0
  -3  17 -12    3.86    2.13   0
  -3  17  20    0.54    1.72   0
  -3  19  20    2.84    2.48   0
  -2   4  12   19.48    3.29   0
  -2   8  19    3.23    1.87   0
  -2  10  21   -1.30    1.72   0
  -2  14 -15   -0.52    2.57   0
  -2  14  23    2.78    1.69   0
  -2  16  23   -0.55    1.71   0
  -2  18 -15    1.30    2.05   0
  -1   9  23    0.70    1.63   0
  -1  11  25    1.07    2.13   0
  -1  15  26   -1.07    2.27   0
  -1  17 -18    2.01    2.83   0
   0   0   8 2783.96   19.13   0
   0   2  -8   84.33    5.92   0
   0   2  16   16.27    2.26   0
   0   4  20    8.97    1.90   0
   0   6  23    6.78    2.22   0
   0   8  25    0.92    2.33   0
   0  10  26    0.13    1.81   0
   0  12  27   -2.20    1.71   0
   0  14  28   -0.86    2.19   0
   0  18 -20    1.08    3.07   0
   1  -1  10    0.34    3.02   0
   1   5  24    1.56    1.84   0
   1   7  26    0.74    1.73   0
   1  11  29    0.81    2.11   0
   2  -2  11   66.13    4.80   0
   2   0 -10    0.54    3.12   0
   2   0  18   88.14    3.44   0
   2   2  22    1.99    2.69   0
   2   4  25   -1.96    2.28   0
   2   6  27    0.66    1.73   0
   2   8 -21   -0.14    1.94   0
   2   8  29   -0.32    2.02   0
   2  10  30    0.39    2.61   0
   3  -3  -3  553.47    8.19   0
   3   5  28   -0.53    2.28   0
   3   9  31   -3.18    2.42   0
   4  -4  -3   27.34    3.22   0
   4   0 -15   -0.95    2.81   0
   4   2  26    0.89    2.27   0
   4   6  30   -0.02    1.73   0
   4   8 -24    9.33    2.44   0
   5  -5  -1   15.12    2.77   0
   5  -5   8   24.11    3.35   0
   5  -1 -15   27.05    2.97   0
   5   1  26   -0.80    2.26   0
   5   3 -21    3.33    2.59   0
   5   5 -23   -0.76    2.30   0
   5   7  32    0.96    1.11   0
   5   9 -26    0.76    2.05   0
   6  -4 -10   47.80    2.54   0
   7   7 -27    0.22    2.16   0
   7   9 -28    0.48    2.55   0
   7  11 -29   -0.33    1.19   0
   8  -6  -7    1.34    1.89   0
   8  -2 -18   -0.24    1.84   0
   8   0 -21    0.06    2.21   0
   8   0  28    1.15    1.93   0
   8   6 -27    1.28    2.36   0
   9  -7  -4    3.28    1.97   0
   9  -7  -3   -2.05    2.54   0
   9  -7  10    7.76    2.38   0
   9  -5 -12    7.66    2.38   0
   9  -3 -17    0.26    2.29   0
   9  -3  24    0.19    2.98   0
  10  -6 -10   18.60    2.61   0
  10  -4 -16    1.85    1.81   0
  10  -2 -20   -1.32    1.74   0
  10   0 -23   -0.56    1.66   0
  10   4 -27    0.16    2.11   0
  11  -7  -8   -0.34    1.98   0
  11  -7  14   -0.72    2.75   0
  11  -3 -19    5.63    1.67   0
  11  -1 -22    2.08    2.31   0
  11   1 -25    0.39    1.69   0
  11   3 -27    0.28    1.66   0
  12  -8  -4   14.75    2.03   0
  12  -8  -3    3.05    2.58   0
  12  -8  10    6.14    2.60   0
  12  -6 -13    4.87    1.78   0
  12  -2 -21    2.29    2.24   0
  12   0 -24    5.14    2.63   0
  13  -7 -10   -0.10    2.25   0
  13  -7  16   -0.51    2.54   0
  13  -5 -16    0.77    2.17   0
  13  -3 -20    2.34    2.24   0
  13   1 -26   -1.27    1.68   0
  14  -8  -7   25.53    2.00   0
  14  -8  12    6.25    2.70   0
  14  -6 -14    2.20    1.78   0
  14  -4 -19   -0.31    2.02   0
  14   0 -25    1.48    1.91   0
  15  -9   1    0.54    1.57   0
  15  -9   2    0.77    1.56   0
  15  -9   3    2.10    1.67   0
  15  -9   4   -0.06    1.83   0
  15  -7 -11    3.57    2.28   0
  15  -7  17    0.68    2.37   0
  15  -5 -17    2.65    1.76   0
  15  -3 -21    1.36    1.77   0
  15  -1 -24   -0.76    1.57   0
  16  -8  -8   -2.36    1.80   0
  16  -8  -7   -0.53    2.36   0
  16  -8  13    0.62    2.25   0
  16  -6 -15    2.43    1.80   0
  16  -4 -19   -2.47    2.43   0
  17  -9   0    2.40    1.90   0
  17  -9   1   -1.24    1.78   0
  17  -9   2    2.16    1.66   0
  17  -9   3   -0.87    1.63   0
  17  -9   4    2.58    1.60   0
  17  -9   5    1.64    1.78   0
  17  -7 -12    1.25    1.86   0
  17  -5 -17    0.24    1.99   0
  18  -8  -7    3.33    2.00   0
  18  -6 -15    2.44    1.81   0
  -5  13  -1    1.03    2.28   0
  -5  13   0   38.45    2.22   0
  -5  13   8    1.16    1.94   0
  -5  13   9   11.58    2.06   0
  -5  13  10    9.29    2.48   0
  -5  15  -2    9.83    2.65   0
  -5  15  11    2.24    1.71   0
  -5  15  12    6.08    2.44   0
  -5  17  -3    1.78    2.07   0
  -5  17  -2   15.07    1.98   0
  -5  17  11   -0.52    1.71   0
  -5  17  12    4.62    2.31   0
  -5  19  -2   -0.08    2.16   0
  -5  19  -1   13.24    2.42   0
  -5  19   0    8.81    1.67   0
  -5  19   9   -0.35    1.72   0
  -5  19  10   -0.16    1.77   0
  -5  19  11    0.06    2.19   0
  -5  21   1    0.77    2.04   0
  -5  21   2   -0.42    2.54   0
  -5  21   3    2.16    2.32   0
  -5  21   4    4.12    2.33   0
  -5  21   5    0.35    2.27   0
  -5  21   6   -0.53    2.31   0
  -5  21   7   -1.81    2.28   0
  -5  21   8    3.63    2.26   0
  -4   8   0   36.28    3.34   0
  -4   8   1  465.56    5.46   0
  -4   8   8  131.25    3.14   0
  -4   8   9   61.88    2.52   0
  -4   8  10   35.83    2.85   0
  -4  10  13    3.88    1.63   0
  -4  10  14    2.76    2.46   0
  -4  12  -7   -0.96    2.39   0
  -4  12  16    1.52    1.83   0
  -4  14  -8   55.18    3.03   0
  -4  14  17   14.37    2.01   0
  -4  16  17    2.15    1.92   0
  -4  16  18    0.09    2.48   0
  -4  18  -8   -0.25    1.81   0
  -4  18  17   -1.44    1.72   0
  -4  18  18    2.67    2.15   0
  -4  20  -7   -0.32    1.79   0
  -4  20  16    2.37    1.77   0
  -4  20  17    2.38    2.09   0
  -4  22  -6   -0.51    1.97   0
  -4  22  -5    3.27    1.92   0
  -3   5   2    4.08    3.10   0
  -3   5   3  157.87    4.11   0
  -3   5   6    3.51    2.67   0
  -3   5   7  122.00    3.57   0
  -3   5   8    3.47    3.42   0
  -3   7  14    7.54    1.92   0
  -3   9  18    4.58    2.41   0
  -3  11  20    1.68    2.08   0
  -3  13  21    3.94    2.36   0
  -3  15  21    2.17    1.90   0
  -3  17  21    2.69    1.88   0
  -3  19 -12    1.43    2.15   0
  -3  21 -11    1.23    2.44   0
  -2   4  13    3.51    3.03   0
  -2   6  17    2.57    1.83   0
  -2   8  20    2.73    1.86   0
  -2  10  22    0.88    1.78   0
  -2  12  23    1.36    1.66   0
  -2  14  24    1.70    1.71   0
  -2  16  24    1.44    1.69   0
  -1   3  15    3.21    2.08   0
  -1   5  19    2.81    1.76   0
  -1   7  22    1.68    1.81   0
  -1   9  24    1.80    1.62   0
  -1  13  26   -0.20    1.71   0
  -1  15 -18    0.54    3.40   0
  -1  15  27    0.79    2.03   0
   0   0   9    3.09    3.53   0
   0   2  17   -1.58    2.83   0
   0   4 -12   20.62    3.38   0
   0   4  21    2.35    2.46   0
   0  10  27    3.79    2.39   0
   0  12  28   -1.55    2.40   0
   1   1  18   66.24    3.20   0
   1   3  22   -0.38    2.25   0
   1   5 -16   17.32    2.57   0
   1   7 -18   12.33    2.60   0
   1   7  27    3.52    2.05   0
   1   9  28    0.64    1.68   0
   2   2 -14   88.60    3.39   0
   2   6 -19    8.08    2.20   0
   2  10 -22    1.47    2.42   0
   3  -1 -10   59.64    3.90   0
   3   1  23    0.82    2.18   0
   3   3  26    1.61    2.63   0
   3   7  30    1.70    2.43   0
   3   9 -23    0.32    2.05   0
   3  11 -24    1.47    1.99   0
   3  15 -25   -0.51    2.16   0
   3  15 -25    0.26    1.07   0
   4  -4  -2   16.44    3.26   0
   4  -2 -10  129.20    4.19   0
   4   0  23   -0.79    2.09   0
   4   2 -18    1.20    1.81   0
   4   8  32   -0.11    1.15   0
   4  10 -25    1.32    1.89   0
   5  -5   0   54.71    3.22   0
   5  -5   1   84.28    3.91   0
   5  -5   7  178.93    5.45   0
   5  -3 -10  226.17    4.02   0
   5  -3  18    5.14    2.48   0
   5   1 -18    2.62    2.39   0
   5   3  29    0.82    2.34   0
   5   5  31   -1.12    2.64   0
   6  -4  -9   19.49    2.42   0
   6   0 -18  132.54    3.73   0
   6   0  26    0.99    1.95   0
   6   2 -21    2.99    1.77   0
   6   2  29    1.49    2.18   0
   6   4 -23   -0.62    2.30   0
   6   4  31    0.42    2.59   0
   6   6 -25    2.57    1.71   0
   6  12 -28   -0.45    1.86   0
   6  12 -28    0.17    1.10   0
   7  -5  -8   11.23    2.12   0
   7  -3 -14   32.20    2.16   0
   7  -1 -18    0.16    1.78   0
   7   1 -21    5.41    1.61   0
   7   3 -23    1.02    2.26   0
   7   3  31    0.56    2.42   0
   7   5 -25    0.69    2.48   0
   8  -6  13   10.01    2.72   0
   8  -4 -13   17.59    1.92   0
   8  -2 -17    4.26    2.39   0
   8  -2  25    0.85    2.17   0
   8   2  31    0.44    2.46   0
   8   4 -25    1.00    2.32   0
   8   8 -28    0.79    2.54   0
   8  10 -29    1.08    2.59   0
   9  -7  -2    5.70    2.45   0
   9  -7   9   45.18    3.08   0
   9  -5 -11   11.83    2.51   0
   9  -1 -20    0.22    2.30   0
   9   1 -23    0.08    1.76   0
   9   3 -25   -1.56    2.06   0
   9   5 -27    3.27    1.77   0
  10  -4 -15   26.98    2.69   0
  10  -2 -19    4.13    2.46   0
  10   2 -25   -1.94    1.73   0
  11  -7  -7   17.53    2.12   0
  11  -5 -14   -0.12    1.76   0
  11  -3 -18   -0.98    2.34   0
  11   1 -24   -1.38    2.27   0
  11   5 -28    0.42    2.50   0
  12  -8  -2    0.58    1.79   0
  12  -8   8    1.20    2.57   0
  12  -8   9   12.62    2.61   0
  12  -6 -12   -1.12    1.81   0
  12  -4 -17    0.33    1.67   0
  12   2 -26   -1.35    1.60   0
  12   4 -28    0.80    1.62   0
  13  -7  -9    1.36    1.60   0
  13  -5 -15   -3.10    2.51   0
  13  -5  22    3.35    3.54   0
  13  -1 -23    0.76    1.74   0
  13   1 -25    0.31    2.34   0
  14  -8  -5    0.27    1.78   0
  14  -8  -4    3.15    2.30   0
  14  -8  11    8.33    2.65   0
  14  -6 -13    2.47    1.83   0
  14  -4 -18   -0.08    1.71   0
  15  -7 -10    1.37    2.05   0
  15  -3 -20   -2.66    2.24   0
  15  -1 -23   -0.12    2.16   0
  16  -8  -6    1.18    1.83   0
  16  -8  -5   -0.09    2.40   0
  16  -8  12   -0.14    1.68   0
  16  -8  12   -0.34    1.18   0
  16  -6 -14   -0.60    1.91   0
  16  -6 -13   -0.84    2.68   0
  16  -4 -18    1.70    2.45   0
  16  -2 -22   -1.25    1.76   0
  17  -7 -10   -0.42    2.05   0
  17  -5 -16    1.81    2.04   0
  18  -8  -6    4.25    1.82   0
  18  -8  -5    3.48    2.09   0
  18  -8  -4    2.15    2.41   0
  -5  11   1    1.48    2.35   0
  -5  11   2    3.25    2.55   0
  -5  11   3  117.13    2.88   0
  -5  11   4   39.30    2.25   0
  -5  11   5   13.79    2.07   0
  -5  11   6   -0.09    1.75   0
  -5  11   7   12.93    1.89   0
  -5  11   8    4.16    2.41   0
  -5  11   9    0.77    2.38   0
  -5  13  -2   21.44    2.77   0
  -5  13  11   11.34    1.95   0
  -5  13  12    1.33    1.82   0
  -5  15  -3    0.53    1.80   0
  -5  15  13    4.48    1.76   0
  -5  15  14    1.97    2.37   0
  -5  17  -4    8.93    2.51   0
  -5  17  13   -0.75    1.64   0
  -5  17  14   -0.04    2.46   0
  -5  19  -3    0.77    2.45   0
  -5  19  12    0.59    1.71   0
  -5  19  13    0.70    1.67   0
  -5  19  14    2.64    2.11   0
  -5  21  -1    1.82    2.27   0
  -5  21   0    2.14    1.65   0
  -5  21   9    4.23    1.71   0
  -5  21  10   -2.53    1.55   0
  -5  21  11    1.01    2.12   0
  -5  21  12    1.07    2.03   0
  -4   8  -1   62.82    3.44   0
  -4   8  11    0.69    1.92   0
  -4  10  -5   22.09    2.76   0
  -4  10  15    0.56    1.87   0
  -4  12  17    0.34    1.74   0
  -4  14  18   -1.08    1.78   0
  -4  14  19    4.55    2.23   0
  -4  16  -9    4.35    2.35   0
  -4  16  19    0.49    1.72   0
  -4  18  -9   -0.97    2.49   0
  -4  18  19   -2.44    2.21   0
  -4  20  -8    4.53    2.52   0
  -4  20  18    1.54    1.18   0
  -4  22  -7    1.79    2.05   0
  -3   5   1   -0.39    2.56   0
  -3   5   9   58.92    2.89   0
  -3   5  10    1.99    3.21   0
  -3   7  15    1.57    1.79   0
  -3   7  16    2.64    2.33   0
  -3   9  19    6.82    2.28   0
  -3  11  21   -0.04    2.10   0
  -3  13 -12   14.15    2.45   0
  -3  13  22    2.31    2.30   0
  -3  15  22    1.97    1.94   0
  -3  17  23   -2.44    2.13   0
  -2   4  -4    4.04    4.65   0
  -2   4  14   12.21    2.90   0
  -2   6  18   28.71    2.12   0
  -2   8  21    0.08    1.83   0
  -2  10  23    0.01    2.41   0
  -2  12  24    4.61    1.62   0
  -2  14  25    0.71    1.69   0
  -2  16  25    0.92    1.70   0
  -2  20 -15    0.29    2.08   0
  -1   3  16    2.14    2.87   0
  -1   5  20   -1.16    1.76   0
  -1   7  23    5.74    2.45   0
  -1   9 -15    4.12    4.68   0
  -1   9  25    3.00    2.38   0
  -1  11  26    1.20    1.71   0
  -1  13  27   -0.12    1.64   0
  -1  19 -18    0.50    2.76   0
   0   8  26   -1.24    1.84   0
   0  10  28   -3.50    2.15   0
   0  12  29   -0.48    2.06   0
   1  -1  11   13.20    3.15   0
   1   5  25    1.40    1.75   0
   1   9  29   -0.35    2.62   0
   1  11  30   -1.60    1.74   0
   2  -2  -2  139.41    6.25   0
   2   0  19    0.48    2.10   0
   2   2  23   -2.00    2.48   0
   2   4  26    2.06    2.47   0
   2   6  28   -0.18    1.87   0
   2   8  30    1.36    2.27   0
   2  10  31    0.25    1.33   0
   2  10  31    0.75    1.31   0
   3  -3  -2  146.31    4.83   0
   3  -1  19   -0.49    1.82   0
   3   1 -14   92.53    3.54   0
   4  -4  -1   35.27    3.05   0
   4   4 -20   -0.25    2.40   0
   4   4  29    1.14    2.04   0
   4   6  31    1.95    2.46   0
   4  14 -26    1.16    2.36   0
   5  -5   2  171.27    4.24   0
   5  -5   3   30.43    3.21   0
   5  -5   4  127.62    4.43   0
   5  -5   5   27.47    3.31   0
   5  -5   6   64.49    3.97   0
   5  -3  -9    1.86    3.17   0
   5  -1  23    4.69    2.26   0
   5   7 -24    3.00    2.35   0
   5  13 -27    0.78    1.79   0
   5  13 -27    0.35    0.99   0
   6  -4  -8   -0.80    3.21   0
   6  -2 -14    1.49    1.84   0
   6   8 -26    1.27    2.16   0
   7  -5  -7   50.10    2.61   0
   7  -5  15   96.51    6.05   0
   7  -3 -13   -0.21    2.49   0
   7  -1 -17    3.51    2.57   0
   7   1  29    1.18    1.82   0
   8  -6  -5    1.83    1.97   0
   8  -6  -4    9.82    2.66   0
   8  -4 -12   57.17    2.46   0
   8   0 -20   31.23    2.66   0
   9  -7  -1   11.01    2.00   0
   9  -7   0    7.77    2.40   0
   9  -7   1    4.56    2.69   0
   9  -7   8    5.55    2.62   0
   9  -3 -16   -0.89    1.81   0
   9   7 -28   -0.01    1.13   0
   9   7 -28   -0.11    1.16   0
   9   9 -29    0.10    2.43   0
  10  -6  -8   25.71    2.57   0
  10   0 -22    0.99    1.63   0
  10   6 -28    1.03    1.76   0
  11  -7  -6    5.75    1.93   0
  11  -7  -5   15.71    2.56   0
  11  -7  13   32.54    2.91   0
  11  -5 -13   -1.05    1.67   0
  11  -1 -21    2.89    1.58   0
  11   3 -26    0.55    1.74   0
  12  -8   0   25.08    2.11   0
  12  -8   1   23.51    2.45   0
  12  -8   3    2.20    2.49   0
  12  -8   4   -0.75    2.46   0
  12  -8   5    5.62    2.46   0
  12  -8   6    2.20    2.45   0
  12  -8   7    0.98    2.16   0
  12  -4 -16   -1.77    2.13   0
  12  -2 -20   -1.16    1.60   0
  12   0 -23    0.38    1.70   0
  13  -7  -8    1.31    1.74   0
  13  -7  15    0.48    2.59   0
  13  -5 -14   -3.38    2.58   0
  13  -1 -22   -2.15    2.10   0
  13   3 -27   -0.46    1.69   0
  14  -8  -3    4.50    1.74   0
  14  -8  -2    1.18    2.35   0
  14  -8  10    2.27    2.53   0
  14  -6 -12    2.04    1.83   0
  14  -2 -21    1.92    1.71   0
  14   0 -24    1.51    1.58   0
  14   2 -26    2.20    1.86   0
  15  -7  -9    0.66    1.72   0
  15  -7  16    0.02    2.37   0
  15  -3 -19    4.43    2.69   0
  16  -8  -4    0.93    1.71   0
  16  -8  10    2.19    2.45   0
  16  -8  11    3.80    2.34   0
  16  -6 -12   -1.54    2.61   0
  16  -2 -21    1.99    2.54   0
  17  -7  -9    2.16    1.82   0
  17  -5 -15    3.48    2.17   0
  18  -8  -3    1.45    1.79   0
  18  -8  -2   -0.09    2.48   0
  18  -8   9   -0.57    2.23   0
  18  -8  10   -0.82    1.64   0
  18  -8  10   -0.01    1.17   0
  18  -6 -12   -0.36    2.14   0
  19  -7  -8    0.24    1.68   0
  -5  11   0    5.54    2.72   0
  -5  11  10    6.15    1.72   0
  -5  11  11   12.70    2.55   0
  -5  13  -3    3.63    2.62   0
  -5  13  13    4.64    1.83   0
  -5  13  14    1.06    2.52   0
  -5  15  -4    8.52    2.03   0
  -5  15  15    5.74    1.79   0
  -5  15  16    9.66    2.25   0
  -5  17  -5    1.87    2.46   0
  -5  17  15    2.85    1.99   0
  -5  19  -4    1.15    1.84   0
  -5  19  15   -0.06    1.87   0
  -5  21  -3    3.32    2.46   0
  -5  21  -2    0.08    1.71   0
  -5  23   0    4.69    2.03   0
  -5  23   1    0.97    1.16   0
  -5  23   2    0.69    1.20   0
  -4   8  -2   -0.97    2.87   0
  -4   8  12    1.59    1.82   0
  -4   8  13   12.67    2.65   0
  -4  10  16    3.65    1.83   0
  -4  12  -8   18.36    2.49   0
  -4  12  18   19.70    2.06   0
  -4  12  19   -1.62    2.13   0
  -4  14  -9   16.94    2.61   0
  -4  14  20    1.93    2.37   0
  -4  16  20    0.77    1.81   0
  -4  18  20   -1.12    1.55   0
  -4  20  -9   -0.54    2.46   0
  -3   5   0  174.47    4.64   0
  -3   5  11    2.15    2.17   0
  -3   7  -6    9.77    3.06   0
  -3   7  17   21.38    2.49   0
  -3   9  -9    1.12    2.22   0
  -3   9  20    8.36    2.28   0
  -3  11 -11    1.04    2.49   0
  -3  11  22    1.53    2.02   0
  -3  13  23    0.48    2.10   0
  -3  15 -13   12.92    2.81   0
  -3  15  23    3.56    1.82   0
  -3  17 -13    3.14    1.97   0
  -3  17  24    0.14    2.01   0
  -3  19 -13    6.97    2.66   0
  -3  21 -12    0.44    2.12   0
  -2   4  15   30.73    2.83   0
  -2   6  19   11.07    1.80   0
  -2   8  22    1.55    2.48   0
  -2  10  24   -0.81    2.29   0
  -2  12  25    2.32    1.75   0
  -2  14  26    1.58    2.27   0
  -2  16 -16    6.91    2.80   0
  -1   1   4   50.12    5.68   0
  -1   1   5  373.07    7.68   0
  -1   1   6 1457.59   13.21   0
  -1   1   7  141.02    5.54   0
  -1   3  17   11.99    2.57   0
  -1   5  21   -0.88    2.63   0
  -1  11  27   -1.28    2.40   0
  -1  13  28    2.49    2.34   0
   0   0  10  177.55    5.00   0
   0   2  18   -0.22    2.75   0
   0   4  22    4.51    2.60   0
   0   6  25   -1.92    2.26   0
   0   8  27    0.98    2.42   0
   0  10 -18    2.28    3.04   0
   1   1  19   14.91    2.48   0
   1   3  23   -0.39    2.60   0
   1   5  26    0.66    2.05   0
   1   7  28    0.74    2.23   0
   2  -2  12   -0.28    2.85   0
   2   0  -9    0.87    3.59   0
   3  -3  -1   91.52    5.33   0
   3   3 -17    9.44    1.98   0
   3   3  27    1.52    2.29   0
   3   5  29    0.32    1.89   0
   3   7  31   -0.88    1.77   0
   4  -4   0  219.15    4.98   0
   4  -2  -9   54.26    3.75   0
   4  -2  19    5.53    2.36   0
   4   0 -14   16.39    2.43   0
   4   2  27    0.74    2.52   0
   5   1  27    6.22    2.27   0
   5   3 -20    5.45    2.43   0
   5   5 -22   10.29    2.47   0
   5   5  32   -0.36    2.20   0
   5  11 -26    1.22    2.13   0
   6  -2 -13   23.01    2.93   0
   6   0 -17   -0.56    2.64   0
   6   2 -20    1.90    2.44   0
   6   4  32   -1.01    2.11   0
   7  -5  -6   73.10    2.77   0
   7  -1  26   12.60    2.48   0
   7   1 -20   13.81    1.88   0
   7   7 -26    2.05    2.26   0
   7   9 -27   -1.40    2.60   0
   8  -6  -3    7.38    2.75   0
   8  -6  12   30.52    3.29   0
   8  -4 -11   62.08    3.10   0
   8  -2 -16    3.01    2.28   0
   8   2 -22   -0.30    2.19   0
   8   6 -26   -0.12    2.49   0
   9  -7   2    7.32    1.98   0
   9  -7   3    2.00    2.41   0
   9  -7   4   -1.03    2.66   0
   9  -7   5   -2.39    2.81   0
   9  -7   6    1.15    2.41   0
   9  -7   7   -0.14    1.93   0
   9  -5 -10    3.87    1.73   0
   9  -3 -15   -3.28    2.30   0
   9  -1 -19   -2.10    1.87   0
   9  -1  28    0.51    2.43   0
   9   1 -22    6.57    1.90   0
   9   3 -24    0.10    2.20   0
   9   5 -26   -0.10    2.19   0
  10  -6  -7    4.14    2.40   0
  10  -6  16   17.94    3.64   0
  10  -4 -14   -1.74    1.81   0
  10  -2 -18   18.84    2.01   0
  10  -2  27   -0.14    3.17   0
  10   0 -21   -1.76    2.30   0
  10   2 -24    1.12    1.72   0
  10   4 -26   -0.78    1.54   0
  11  -7  -4   39.34    2.26   0
  11  -5 -12    6.68    1.79   0
  11  -3 -17    5.49    1.81   0
  11   5 -27   -0.28    2.33   0
  12  -6 -10    3.69    1.78   0
  12  -6  18    0.44    2.60   0
  12  -4 -15    0.77    2.41   0
  12  -2 -19    0.93    2.25   0
  12   2 -25    0.16    1.67   0
  12   4 -27   -0.58    1.68   0
  13  -7  -7    4.18    1.79   0
  13  -7  -6   -5.27    2.37   0
  13  -5 -13   12.44    2.64   0
  13  -3 -18    3.48    1.85   0
  13   1 -24    2.03    2.01   0
  13   3 -26   -0.57    2.33   0
  14  -8  -1    2.80    1.73   0
  14  -8   0    1.24    2.20   0
  14  -8   1    0.34    2.23   0
  14  -8   7    2.76    2.59   0
  14  -8   8    3.29    2.52   0
  14  -8   9    2.75    1.94   0
  14  -6 -11   -0.15    1.79   0
  14  -6  19    1.67    2.57   0
  14  -4 -16    4.40    2.56   0
  14  -2 -20    2.92    2.10   0
  14   0 -23   -0.61    2.03   0
  15  -7  -8   -1.01    1.74   0
  15  -5 -14    0.14    2.25   0
  15  -1 -22   -0.58    1.68   0
  16  -8  -2    2.41    1.77   0
  16  -8  -1   10.01    2.15   0
  16  -8   0   -2.44    2.37   0
  16  -8   8    0.38    2.37   0
  16  -8   9   -2.09    2.11   0
  16  -6 -11    0.62    2.35   0
  16  -4 -17   -2.70    1.77   0
  17  -7  -8    0.06    1.72   0
  17  -7  -7   -1.40    2.36   0
  17  -7  15    1.93    2.15   0
  17  -7  15   -0.70    1.32   0
  18  -8  -1   -1.14    1.73   0
  18  -8   0   -0.65    1.77   0
  18  -8   1    0.17    2.24   0
  18  -8   2   -2.28    2.51   0
  18  -8   3   -1.51    2.45   0
  18  -8   4    0.02    2.48   0
  18  -8   5    0.37    2.44   0
  18  -8   7    0.13    1.68   0
  18  -8   7    0.56    1.21   0
  18  -8   8    1.13    1.18   0
  18  -8   8   -0.63    1.11   0
  18  -6 -11   -0.71    1.81   0
  18  -4 -16   -0.68    2.51   0
  19  -7  -6   -0.13    1.97   0
  -6  14   6    3.85    2.34   0
  -6  16   2    6.00    2.16   0
  -6  16   3   10.59    2.57   0
  -6  16   4    4.74    1.74   0
  -6  16   5   14.52    1.83   0
  -6  16   6    2.00    1.75   0
  -6  16   7   -0.03    1.77   0
  -6  16   8    2.25    1.85   0
  -6  16   9    4.14    2.28   0
  -6  16  10   -0.38    1.99   0
  -6  18   2    2.03    2.34   0
  -6  18   3    0.00    2.42   0
  -6  18   4    0.97    1.74   0
  -6  18   5    0.03    1.74   0
  -6  18   6    1.84    1.81   0
  -6  18   7    0.21    1.70   0
  -6  18   8   -1.33    1.61   0
  -6  18   9   -2.32    2.14   0
  -6  18  10   -0.53    2.04   0
  -6  20   4    2.88    2.12   0
  -6  20   5    1.92    1.98   0
  -6  20   6   -2.01    1.95   0
  -6  20   7    0.14    2.12   0
  -6  20   8   -2.67    2.04   0
  -5   9   6    3.70    2.60   0
  -5  11  -1   20.39    2.16   0
  -5  11  12    6.88    1.95   0
  -5  11  13    1.15    1.84   0
  -5  13  -4   17.54    2.72   0
  -5  13  15   40.73    2.22   0
  -5  13  16    1.88    2.42   0
  -5  15  -5    1.32    1.84   0
  -5  17  -6   -1.08    2.23   0
  -5  17  17   -0.56    1.78   0
  -5  19  -5   -0.45    1.88   0
  -5  19  16   -1.45    1.82   0
  -5  19  17   -0.47    2.53   0
  -5  21  -4    2.34    2.48   0
  -5  23  -1   -0.36    1.22   0
  -4   8  -3   20.96    2.97   0
  -4   8  14    4.62    1.79   0
  -4  10  -6   33.30    2.24   0
  -4  10  18    1.63    2.35   0
  -4  12  20    3.76    2.41   0
  -4  14  21    1.50    2.53   0
  -4  16 -10    8.59    2.31   0
  -4  16  21    2.86    1.90   0
  -4  16  22   -0.30    2.23   0
  -4  18 -10    0.31    2.45   0
  -4  18  21    0.19    1.69   0
  -4  18  22   -2.90    2.04   0
  -4  22  -8    0.23    1.90   0
  -3   5  -1  345.47    6.09   0
  -3   5  12    4.37    2.10   0
  -3   5  13   85.33    3.48   0
  -3   7  18    0.16    2.13   0
  -3   9  21    1.81    2.19   0
  -3  13  24    1.57    2.26   0
  -3  15  24    0.83    1.69   0
  -2   6  20    6.12    2.71   0
  -2   8  23   -1.25    2.09   0
  -2  12  26    3.02    2.44   0
  -2  14  27   -0.67    2.14   0
  -2  18 -16    1.18    2.13   0
  -1   1   3  104.71    5.58   0
  -1   1   9  214.32    5.68   0
  -1   7 -13    6.79    4.49   0
  -1   7  24    1.56    1.60   0
  -1   9  26   -0.86    1.75   0
  -1  11  28    2.82    2.10   0
  -1  13  29   -0.31    1.94   0
   0   0  11   -0.12    3.21   0
   0  10  29   -0.65    1.56   0
   0  12  30   -1.87    1.66   0
   1  -1  12   17.77    3.14   0
   1   9  30    1.95    1.81   0
   2   2 -13    6.85    2.44   0
   2   2  24    9.35    2.51   0
   2   4  27    1.75    2.51   0
   2   6  29    0.22    1.82   0
   2   8  31    1.34    2.40   0
   3  -1  -9    6.08    2.39   0
   3   1  24    0.37    2.31   0
   3   7 -21   14.88    2.30   0
   4  -4   1   43.61    3.11   0
   4  -4   9  112.27    6.82   0
   4   0  24    4.20    2.29   0
   4   2 -17    2.48    1.82   0
   4   4  30   -0.15    2.49   0
   4   6  32   -0.61    2.43   0
   5  -3  -8    3.95    2.40   0
   5  -1 -13   44.86    3.25   0
   5   1 -17   40.30    2.41   0
   5   3  30    0.68    2.65   0
   6  -4  -7  197.26    3.80   0
   6  -2  23    5.78    2.61   0
   6   0  27    1.00    2.17   0
   6   2  30    0.55    1.94   0
   6   4 -22   11.33    2.27   0
   6   6 -24    2.40    1.77   0
   7  -5  -5  100.14    3.05   0
   7  -3 -12    3.16    1.91   0
   7  -3  22   15.48    3.81   0
   7  -1 -16   15.03    2.59   0
   7   3 -22    0.85    1.62   0
   7   3  32   -0.22    2.37   0
   7   5 -24   -0.12    2.06   0
   8  -6  -2   19.19    2.75   0
   8   0 -19    1.68    1.83   0
   8   0  29    0.44    2.16   0
   8   4 -24   -0.20    1.60   0
   8   8 -27   -0.53    2.34   0
   8  10 -28   -2.07    2.61   0
   9  -5  -9    6.07    1.76   0
   9   7 -27    1.50    2.37   0
  10  -6  -6    1.80    2.48   0
  10  -4 -13   -2.71    1.81   0
  10   2 -23    1.39    2.37   0
  10   6 -27   -0.47    1.97   0
  11  -7  -2   -1.10    2.62   0
  11  -7  12   -0.95    2.19   0
  11  -5 -11   16.44    2.43   0
  11  -3 -16    1.41    2.26   0
  11  -1 -20    0.63    1.69   0
  11   3 -25   -3.21    1.75   0
  12  -6  -9    6.44    1.88   0
  12   0 -22   -0.85    1.59   0
  13  -7  -5    9.02    1.99   0
  13  -7  14   -0.94    2.37   0
  13  -3 -17   -0.94    2.48   0
  13  -1 -21   -0.92    1.66   0
  14  -8   2   -0.24    1.66   0
  14  -8   3    1.10    1.67   0
  14  -8   4   -0.66    1.67   0
  14  -8   5    8.86    1.88   0
  14  -8   6    0.54    1.72   0
  14  -6 -10    3.76    1.76   0
  14  -4 -15    2.60    2.51   0
  14   2 -25    0.64    1.62   0
  15  -7  -6    2.38    1.65   0
  15  -7  15    0.74    2.17   0
  15  -5 -13    2.09    2.21   0
  15  -3 -18   -3.02    1.90   0
  15  -1 -21   -0.13    2.33   0
  15   1 -24    0.73    1.50   0
  16  -8   1    1.69    1.66   0
  16  -8   3    1.40    1.69   0
  16  -8   4    0.58    2.01   0
  16  -8   5    7.10    2.32   0
  16  -8   6   -2.27    2.20   0
  16  -8   7   -0.46    1.79   0
  16  -4 -16    1.13    1.77   0
  16  -2 -20    1.27    1.70   0
  17  -7  -6    0.76    1.83   0
  17  -7  -5    2.80    2.54   0
  17  -7  14    0.81    2.60   0
  17  -5 -13   -2.61    2.02   0
  17  -3 -18   -0.90    1.84   0
  18  -6 -10    0.53    1.77   0
  18  -6  -9    0.82    2.41   0
  18  -4 -15    4.35    2.58   0
  19  -7  -5   -1.11    1.60   0
  19  -7  -4    1.33    2.12   0
  -6  14   2   20.28    2.54   0
  -6  14   3   30.58    2.13   0
  -6  14   4   25.00    2.08   0
  -6  14   5    6.59    1.89   0
  -6  14   7    3.51    1.96   0
  -6  14   8   10.59    1.86   0
  -6  14  10   -1.72    2.33   0
  -6  14  11    7.89    2.47   0
  -6  16   0    9.10    2.25   0
  -6  16  13    6.85    2.17   0
  -6  18   0    2.72    2.28   0
  -6  18   1    2.04    1.62   0
  -6  18  11   -1.66    1.60   0
  -6  18  12    0.84    1.58   0
  -6  18  13    0.81    2.32   0
  -6  20   1    0.41    2.31   0
  -6  20   2    0.31    1.73   0
  -6  20   3   -1.33    1.81   0
  -6  20   9    2.30    1.66   0
  -6  20  10   -0.61    1.66   0
  -6  20  11    1.79    2.24   0
  -6  20  12   -0.78    1.92   0
  -6  22   4   -0.70    2.08   0
  -6  22   5    2.12    1.99   0
  -6  22   6   -1.30    1.94   0
  -6  22   8   -1.07    1.83   0
  -5   9   2   82.00    3.42   0
  -5   9   3   24.21    2.89   0
  -5   9   4   31.20    2.23   0
  -5   9   5    1.23    1.91   0
  -5   9   7   35.02    2.29   0
  -5   9   8    0.48    1.82   0
  -5   9   9    1.99    1.89   0
  -5   9  10    5.18    2.58   0
  -5  11  -2    3.19    1.94   0
  -5  11  14   -0.50    1.79   0
  -5  11  15   10.66    2.47   0
  -5  13  -5   18.05    2.81   0
  -5  13  17   16.22    2.06   0
  -5  15  -6    2.00    2.39   0
  -5  15  18    1.03    1.83   0
  -5  15  19    0.20    2.26   0
  -5  19  -6    0.12    1.98   0
  -5  19  18   -0.86    1.80   0
  -5  19  19    2.25    2.38   0
  -5  21  -5    2.54    1.84   0
  -5  23  -3    2.45    1.31   0
  -4   6   4   12.76    3.27   0
  -4   6   5  249.82    4.90   0
  -4   6   6    9.61    3.31   0
  -4   6   7   -2.42    3.02   0
  -4   6   8   11.42    3.05   0
  -4   8  15    1.94    1.73   0
  -4   8  16    1.25    2.33   0
  -4  10  19   -0.67    2.29   0
  -4  12  21    4.91    2.48   0
  -4  14 -10   85.02    3.38   0
  -4  14  22    1.99    1.66   0
  -4  16  23    2.51    2.14   0
  -4  20 -10   -0.88    2.43   0
  -4  22  -9    0.09    2.50   0
  -3   5  14   11.62    2.83   0
  -3   7  19   29.39    2.63   0
  -3  13  25    0.43    2.36   0
  -3  15  25    1.01    1.65   0
  -3  21 -13    0.22    1.85   0
  -2   4  16    2.60    1.98   0
  -2   6  21    5.09    2.42   0
  -2  10  25   -0.36    1.76   0
  -2  12  27    0.61    2.36   0
  -2  14  28    2.32    1.91   0
  -2  20 -16   -0.10    2.22   0
  -1   1   2    4.50    5.33   0
  -1   1  10    5.79    3.33   0
  -1   3  18    4.40    1.87   0
  -1   5  22    5.33    1.87   0
  -1   7  25    8.99    2.48   0
  -1   9  27    2.44    2.39   0
   0   0  12 2237.61   14.48   0
   0   2  19    0.36    1.81   0
   0   4  23    4.74    1.79   0
   0   6  26   -0.10    1.65   0
   0   8  28   -0.16    1.62   0
   0  10  30    3.87    2.19   0
   0  12 -19   21.59    4.80   0
   1   1  20   15.96    2.65   0
   1   3  24    3.98    2.42   0
   1   5  27    0.78    2.40   0
   1   7  29    0.50    1.68   0
   1   9 -19    6.22    2.57   0
   1   9  31    3.23    2.11   0
   2  -2  -1  133.94    5.52   0
   2   0  20   93.28    3.80   0
   2   6  30   -0.30    2.09   0
   2   8 -20    0.93    1.87   0
   2  14 -23    1.14    2.39   0
   3  -3   0  200.35    6.27   0
   3  -1  20    1.79    2.06   0
   3   1 -13   21.14    3.23   0
   3   5  30    0.46    1.89   0
   3   7  32   -0.24    1.18   0
   3   7  32   -1.56    1.09   0
   3  13 -24    0.76    2.24   0
   4  -4   2   85.32    3.84   0
   4  -2  -8    3.82    3.50   0
   4   0 -13    0.22    3.19   0
   4   4 -19    4.21    2.52   0
   4  10 -24    0.70    2.07   0
   4  12 -25   -0.34    1.79   0
   5  -1  24   -0.18    2.44   0
   6  -4  -6   77.56    3.50   0
   6  -2 -12   40.17    3.19   0
   6   0 -16    7.48    2.61   0
   6   8 -25    1.06    2.45   0
   6  12 -27   -0.61    2.20   0
   7  -5  -4   77.16    3.40   0
   7  -3 -11    0.74    2.77   0
   7   1 -19    0.05    1.78   0
   8  -6  -1   27.70    2.38   0
   8  -6  11    1.72    2.16   0
   8  -2 -15   30.07    2.34   0
   9  -5  -8   10.86    1.91   0
   9  -3 -14   -0.44    1.68   0
   9  -1 -18    2.95    1.84   0
   9   1 -21   -0.98    1.67   0
   9   3 -23    0.22    2.27   0
   9   5 -25    3.09    2.29   0
   9   9 -28    0.51    1.95   0
  10  -6  -5   27.61    2.66   0
  10  -4 -12   18.39    2.63   0
  10  -2 -17   -2.61    1.72   0
  10   0 -20    1.46    2.20   0
  10   4 -25   -0.63    1.62   0
  10   8 -28    0.06    1.58   0
  10   8 -28   -1.02    1.09   0
  11  -7  -1    2.27    1.79   0
  11  -7   0    4.37    2.69   0
  11  -7  10   18.06    2.77   0
  11  -7  11    5.21    2.21   0
  11  -5 -10    4.20    2.42   0
  11   1 -22   -1.08    2.05   0
  11   7 -28   -0.52    1.01   0
  11   7 -28    0.37    1.06   0
  12  -6  -8   -0.31    1.88   0
  12  -6  -7    5.34    2.55   0
  12  -4 -14   21.96    2.09   0
  12  -2 -18   -1.41    1.70   0
  12   0 -21    1.08    2.18   0
  12   2 -24    0.28    1.67   0
  12   4 -26   -0.58    1.75   0
  13  -7  -4    0.54    1.77   0
  13  -7  -3    5.63    2.65   0
  13  -7  13    1.11    2.40   0
  13  -5 -12    4.36    1.92   0
  13  -1 -20   -0.17    2.01   0
  13   1 -23    1.88    1.70   0
  13   3 -25    1.23    2.37   0
  13   5 -27   -1.60    1.57   0
  14  -2 -19   -0.84    1.61   0
  14   0 -22   -0.01    1.72   0
  15  -7  14    2.71    2.16   0
  15  -5 -12    1.52    2.18   0
  15  -3 -17    1.56    1.85   0
  15   1 -23    1.69    2.17   0
  16  -6  -9    1.87    1.64   0
  16  -6  18    0.28    2.51   0
  16  -4 -15    0.12    1.71   0
  16  -2 -19   -1.34    1.86   0
  16   0 -22    0.11    1.61   0
  17  -7  -4    0.68    1.88   0
  17  -7  -3    0.55    2.35   0
  17  -7  13    2.54    2.67   0
  17  -5 -12   -0.35    1.97   0
  17  -1 -20   -2.06    2.55   0
  18  -6  -8   -0.35    2.03   0
  18  -4 -14   -1.11    2.63   0
  19  -7  -3   -1.68    1.22   0
  19  -7  -3   -2.05    1.20   0
  19  -7  -2   -1.56    1.57   0
  19  -7  -1   -0.22    2.48   0
  19  -5 -11   -0.76    1.76   0
  -6  12   5    1.42    2.33   0
  -6  12   6   77.65    2.56   0
  -6  12   7    0.84    1.85   0
  -6  12   8  214.21    3.94   0
  -6  12   9    8.40    2.49   0
  -6  14   0   37.93    2.82   0
  -6  14   1    8.10    1.74   0
  -6  14  12    1.31    1.69   0
  -6  14  13    6.38    1.74   0
  -6  14  14    6.74    2.21   0
  -6  16  14    2.41    1.78   0
  -6  16  15   -0.50    2.33   0
  -6  18  -2    4.30    2.40   0
  -6  18  -1    2.91    1.65   0
  -6  18  14    4.42    1.76   0
  -6  18  15    0.83    2.38   0
  -6  20  -1    7.68    2.52   0
  -6  20   0    1.00    1.68   0
  -6  20  13    1.23    1.71   0
  -6  20  14   -0.47    2.42   0
  -6  20  15    0.04    2.13   0
  -6  22   1    1.36    2.25   0
  -6  22   2    3.01    2.42   0
  -6  22   3    1.45    1.69   0
  -5   9   1   15.99    2.99   0
  -5   9  11    0.35    1.75   0
  -5   9  12    0.83    1.80   0
  -5   9  13    7.87    2.28   0
  -5  11  -3   79.28    2.92   0
  -5  11  16   17.06    1.98   0
  -5  11  17    4.74    2.21   0
  -5  13  18    1.82    1.72   0
  -5  13  19    5.30    2.47   0
  -5  15  -7    4.13    2.31   0
  -5  15  20    6.30    2.48   0
  -5  17  -7    0.67    1.95   0
  -5  19  -7    3.86    2.62   0
  -5  21  -6   -0.24    1.85   0
  -4   6   2  138.06    4.37   0
  -4   6   3   81.77    3.26   0
  -4   6   9   47.59    2.69   0
  -4   6  10    6.99    2.14   0
  -4   6  11   -1.13    2.90   0
  -4   8  -4   99.84    3.76   0
  -4  10  -7   17.80    2.49   0
  -4  10  20    1.16    2.43   0
  -4  12  -9    8.95    2.19   0
  -4  12  22    2.35    2.32   0
  -4  14  23    3.74    1.70   0
  -4  16 -11   -0.21    2.43   0
  -4  18 -11    1.97    2.27   0
  -4  22 -10    0.02    2.02   0
  -3   5  -2   18.87    2.87   0
  -3   5  15   -0.26    2.60   0
  -3   7  20    2.85    2.35   0
  -3   9  22    1.02    1.74   0
  -3  11  24    2.59    1.56   0
  -3  15  26    4.90    1.76   0
  -3  17 -14    0.96    2.21   0
  -3  19 -14   -0.52    2.16   0
  -2   4  17    0.56    1.86   0
  -2   8  24   -1.01    1.75   0
  -2  10  26    2.73    1.80   0
  -2  12 -15    1.59    3.07   0
  -1   1  11   40.19    3.55   0
  -1   3  19   -1.44    2.46   0
  -1   5  23   10.26    2.60   0
  -1   7  26    2.66    2.11   0
  -1   9  28   -0.14    2.07   0
  -1  11  29   -1.45    1.75   0
   0   2  20    8.97    2.75   0
   0   4  24   -2.16    2.46   0
   0   6  27   -0.61    1.94   0
   0   8  29   -1.17    2.38   0
   1  -1  13   73.64    4.03   0
   1   5 -15   47.26    3.25   0
   2  -2  13   19.06    3.29   0
   2   2  25    4.42    2.44   0
   2   4  28    0.38    2.66   0
   2   6 -18   24.25    2.43   0
   2   8  32   -0.94    1.65   0
   3  -1  -8   71.89    4.27   0
   3   1  25    0.95    2.18   0
   3   3 -16    6.91    2.58   0
   3   3  28    1.62    1.95   0
   3   9 -22    1.27    2.10   0
   3  11 -23    6.66    2.45   0
   4  -4   3   39.64    3.17   0
   4  -4   4  105.86    4.83   0
   4  -4   8    0.41    3.82   0
   4   2 -16   27.70    2.94   0
   4   2  28   -0.97    2.57   0
   4   4  31   -2.84    2.28   0
   5  -3  -7   13.46    2.52   0
   5   1 -16   30.05    3.04   0
   5   1  28    0.36    2.17   0
   5   3 -19   18.72    2.07   0
   5   3  31   -1.31    2.23   0
   5   5 -21   -0.40    2.44   0
   5   7 -23    1.15    2.21   0
   6  -4  -5  197.82    4.57   0
   6   2 -19    1.46    1.86   0
   6   6 -23    2.31    2.58   0
   7  -5  -3    0.24    3.06   0
   7  -1 -15    8.23    2.76   0
   7   1  30   -0.19    2.18   0
   7   3 -21   23.13    2.56   0
   7   7 -25    2.85    2.00   0
   8  -6   1   11.36    2.68   0
   8  -6  10   25.67    2.66   0
   8  -2 -14   17.12    2.54   0
   8   0 -18   10.01    2.00   0
   8   2 -21    1.09    1.72   0
   8   4 -23    5.26    2.34   0
   8   6 -25    1.54    1.85   0
   9  -5  -7    2.25    2.38   0
   9  -3 -13    5.94    2.26   0
   9  -1 -17    0.43    2.44   0
   9   1 -20   -0.53    2.48   0
  10  -6  -4    1.10    2.41   0
  10  -6  15    1.58    2.48   0
  10  -2 -16   -0.16    2.33   0
  10   2 -22   -2.02    2.31   0
  10   6 -26   -1.63    2.13   0
  11  -7   1    1.08    1.78   0
  11  -7   2   -0.63    2.50   0
  11  -7   3   12.94    2.66   0
  11  -7   8    4.00    2.51   0
  11  -7   9    4.71    2.53   0
  11  -5  -9   32.83    2.66   0
  11  -5  20   -0.11    2.87   0
  11  -3 -15    8.89    1.92   0
  11   3 -24    0.85    1.61   0
  11   5 -26   -0.23    1.67   0
  12  -6  -6    2.71    2.45   0
  12  -6  17    0.76    2.49   0
  12  -2 -17   -1.64    2.35   0
  12   2 -23    2.70    2.38   0
  12   6 -27    0.52    1.53   0
  12   6 -27   -0.65    1.05   0
  13  -7  -2    2.73    1.84   0
  13  -7  -1    9.49    2.66   0
  13  -7  12    2.13    2.46   0
  13  -5 -11    0.70    1.76   0
  13  -5  21    0.41    3.19   0
  13  -3 -16    2.94    1.84   0
  13   1 -22    1.26    2.42   0
  14  -6  -8    1.01    1.82   0
  14  -6  -7   -1.40    2.33   0
  14  -6  18    0.82    2.37   0
  14  -4 -14    1.49    1.83   0
  14  -2 -18    0.67    1.81   0
  14   0 -21   -0.78    2.30   0
  14   2 -24   -0.61    1.65   0
  15  -7  -3    1.30    1.68   0
  15  -7  -2    1.89    2.33   0
  15  -7  13    1.74    2.38   0
  15  -5 -11    0.12    2.13   0
  15  -3 -16    3.50    2.35   0
  16  -6  -8    3.85    1.65   0
  16  -6  -7   -1.45    2.30   0
  16  -4 -14    3.51    1.92   0
  16  -2 -18    0.31    1.91   0
  16   0 -21    2.19    2.50   0
  17  -7  -2    0.23    1.79   0
  17  -7  -1   -0.76    2.45   0
  17  -7  11    1.62    2.36   0
  17  -7  12   -1.33    2.12   0
  17  -5 -11   -0.28    1.84   0
  18  -6  -7   -0.08    1.70   0
  18  -6  -6    2.07    2.37   0
  18  -4 -13    2.05    2.58   0
  19  -7   0   -0.22    1.73   0
  19  -7   2    0.57    1.14   0
  19  -7   3   -0.25    2.40   0
  19  -7   4    2.19    2.57   0
  19  -7   5   -0.54    2.48   0
  19  -5 -10   -0.61    1.86   0
  -6  12   1    4.09    2.36   0
  -6  12   2   19.59    2.76   0
  -6  12   3   38.15    2.20   0
  -6  12  11    4.09    1.84   0
  -6  12  12    2.32    1.75   0
  -6  12  13   16.12    2.44   0
  -6  14  -1    2.15    1.85   0
  -6  14  15   -2.00    1.76   0
  -6  16  -3    3.40    2.11   0
  -6  16  -2    3.08    1.86   0
  -6  16  17    1.97    2.47   0
  -6  18  -3    0.36    2.56   0
  -6  18  16    2.08    1.94   0
  -6  18  17    3.52    2.67   0
  -6  20  -2    0.78    1.83   0
  -6  20  16   -0.55    1.74   0
  -6  22  -1    1.85    2.41   0
  -6  22   0   -0.18    1.74   0
  -5   9   0    3.82    2.21   0
  -5   9  14   -2.88    1.91   0
  -5  11  -4    4.97    2.74   0
  -5  11  18    1.55    2.41   0
  -5  13  -6   43.71    3.17   0
  -5  13  20    2.00    2.40   0
  -5  15  21   -1.06    1.82   0
  -5  17  -8   -0.78    2.27   0
  -5  17  21    1.66    1.73   0
  -5  17  22    1.59    2.28   0
  -5  19  -8    0.73    2.41   0
  -5  21  -7    1.22    2.74   0
  -4   6   1  289.72    5.32   0
  -4   6  12    1.51    2.03   0
  -4   6  13   84.98    3.42   0
  -4   8  18    8.40    1.99   0
  -4  10  21    5.19    1.67   0
  -4  12  23    0.54    2.24   0
  -4  20 -11    0.88    2.16   0
  -3   5  16   12.24    2.05   0
  -3   7  -7   17.33    3.21   0
  -3   7  21   14.78    2.54   0
  -3   9  23    1.08    1.68   0
  -3  11  25    1.74    1.72   0
  -3  13 -13    0.99    2.11   0
  -2   2   5  415.52    7.82   0
  -2   2   6   77.10    4.05   0
  -2   2   7  726.56    8.14   0
  -2   2   8    0.97    3.09   0
  -2   2   9   64.70    4.03   0
  -2   4  18    0.95    1.79   0
  -2   6  22    2.94    1.88   0
  -2   8  25    1.60    1.84   0
  -2  10  27   -0.96    2.31   0
  -2  12  28   -0.91    1.74   0
  -2  14 -16    6.54    3.18   0
  -1   1  12   87.10    4.03   0
  -1  11  30   -2.13    2.59   0
   0   0  13    2.99    2.26   0
   0   6 -14    5.96    2.90   0
   0  10  31   -1.41    1.76   0
   1   1  21   -1.11    2.69   0
   1   3  25    4.61    2.44   0
   1   5  28    0.94    2.42   0
   1   7  30    1.26    1.76   0
   1   9  32    0.15    2.58   0
   1  11 -20   -0.16    2.80   0
   1  13 -21   13.24    3.51   0
   2  -2   0    1.19    4.91   0
   2   0  -8   91.28    3.97   0
   2   0  21   -0.48    2.43   0
   2   6  31   -0.91    2.21   0
   2  10 -21    0.20    2.37   0
   2  12 -22   -0.22    2.29   0
   3  -3   1  180.52    5.49   0
   3  -3  12    4.98    3.98   0
   3   5  31   -0.99    1.81   0
   3   7  33    0.31    1.29   0
   4  -4   5   -0.05    3.41   0
   4  -4   6   78.36    4.68   0
   4  -4   7   22.05    3.86   0
   4  -2  -7    1.91    3.73   0
   4  -2  20    1.55    2.31   0
   4   0  25    0.04    2.44   0
   5  -3  -6   86.54    3.76   0
   5  -1 -12   89.84    3.12   0
   5  13 -26    1.53    1.87   0
   6  -2 -11   99.40    3.57   0
   6   2  31   -0.47    2.08   0
   6   4 -21    1.64    1.70   0
   7  -5  -2    8.56    3.15   0
   7  -5  14    1.69    2.78   0
   7  -3 -10   10.09    2.12   0
   7  -1  27   -0.03    2.23   0
   7   1 -18   -2.53    2.27   0
   7   5 -23   -1.38    1.64   0
   7   9 -26   -0.44    1.89   0
   8  -6   2   36.60    2.54   0
   8  -6   3    7.75    3.01   0
   8  -6   4   51.32    3.44   0
   8  -6   8    2.58    2.21   0
   8  -6   9   32.05    2.73   0
   8   8 -26   -1.50    2.12   0
   8  10 -27    0.30    2.58   0
   9  -5  -6   -0.00    2.62   0
   9  -5  18    4.22    3.37   0
   9   7 -26    0.86    1.67   0
  10  -6  -3    5.58    1.99   0
  10  -4 -11   -0.03    1.87   0
  10   0 -19    1.47    1.78   0
  10   4 -24    2.41    1.64   0
  10   8 -27    1.94    2.32   0
  11  -7   4   21.01    2.12   0
  11  -7   5    5.58    1.88   0
  11  -7   6    0.37    1.97   0
  11  -7   7    4.73    2.02   0
  11  -5  -8    5.59    2.54   0
  11  -3 -14   10.41    1.83   0
  11  -1 -18    5.19    1.81   0
  11   1 -21    0.30    1.62   0
  11   7 -27    0.95    1.13   0
  11   7 -27    0.18    1.10   0
  12  -6  -5    0.20    2.42   0
  12  -4 -12   -0.61    2.21   0
  12   0 -20    4.05    1.76   0
  12   4 -25    2.95    1.66   0
  13  -7   0    1.94    1.74   0
  13  -7   1   11.96    2.44   0
  13  -7  10   -1.92    2.62   0
  13  -7  11    8.37    2.45   0
  13  -5 -10    5.60    1.85   0
  13  -3 -15    4.98    1.84   0
  13  -1 -19   -2.36    1.68   0
  13   3 -24    0.10    2.06   0
  13   5 -26    1.67    1.71   0
  14  -6  -6    1.38    2.36   0
  14  -4 -13    5.58    1.91   0
  14  -2 -17   -0.21    2.20   0
  14   2 -23    1.98    2.11   0
  14   4 -25   -2.29    2.14   0
  15  -7  -1   12.55    1.95   0
  15  -7   0   -3.94    2.34   0
  15  -7  11    4.97    2.66   0
  15  -7  12   -0.63    1.94   0
  15  -5 -10    2.71    1.87   0
  15  -5  21    0.80    2.63   0
  15  -3 -15   -0.67    2.49   0
  15  -1 -19   -0.57    1.70   0
  15   1 -22    0.99    1.67   0
  16  -6  -6    3.03    2.05   0
  16  -6  17    0.36    2.56   0
  16  -4 -13   -0.62    1.90   0
  16  -2 -17    1.52    2.62   0
  17  -7   0   -0.35    1.69   0
  17  -7   2    0.26    2.38   0
  17  -7   3    1.41    2.40   0
  17  -7   8    2.74    2.46   0
  17  -7   9    0.23    2.46   0
  17  -7  10    1.04    2.26   0
  17  -5 -10    4.27    1.89   0
  17  -3 -15    0.83    1.72   0
  17  -1 -19    0.46    1.70   0
  18  -6  -5    2.65    2.12   0
  18  -4 -12   -0.18    2.26   0
  18  -2 -17   -0.13    1.79   0
  19  -5  -9    0.76    1.75   0
  19  -5  -8   -1.30    2.38   0
  -7  17   4   10.14    2.18   0
  -7  17   5    3.39    2.27   0
  -7  17   6   -2.00    2.27   0
  -7  17   7   -1.77    2.33   0
  -7  17   8   -1.79    2.29   0
  -7  17  10   -2.66    2.25   0
  -7  17  11    1.82    2.06   0
  -7  19   4    2.06    2.09   0
  -7  19   5   -1.68    2.41   0
  -7  19   6    2.21    2.36   0
  -7  19   8   -2.59    2.36   0
  -7  19   9   -1.02    2.37   0
  -7  19  10   -1.18    2.35   0
  -7  19  11   -1.97    2.02   0
  -6  10   7   -4.00    2.24   0
  -6  12   0    2.04    2.61   0
  -6  12  14   -0.19    1.71   0
  -6  12  15    8.99    2.50   0
  -6  14  -2   31.68    2.32   0
  -6  14  17    5.53    1.95   0
  -6  16  18    1.95    1.68   0
  -6  16  19   -0.32    2.14   0
  -6  18  -4   -2.13    2.49   0
  -6  18  18    2.14    1.79   0
  -6  18  19    3.80    2.35   0
  -6  20  -4    1.04    2.09   0
  -6  20  -3    2.20    1.76   0
  -6  22  -2   -1.16    1.17   0
  -5   9  -1   13.25    2.28   0
  -5   9  15    3.22    1.79   0
  -5   9  16    4.47    2.39   0
  -5  11  19    0.66    1.80   0
  -5  13  21    0.41    1.73   0
  -5  15  -8    0.84    2.23   0
  -5  15  22   -0.16    2.03   0
  -5  21  -8    0.72    2.11   0
  -4   6   0    5.17    3.08   0
  -4   6  14    1.70    1.97   0
  -4   8  19   29.91    2.12   0
  -4  10  22    3.51    1.83   0
  -4  12  24   -1.06    2.25   0
  -4  14 -11   34.08    2.98   0
  -4  14  25    1.04    1.77   0
  -4  22 -11    0.32    1.96   0
  -3   5  -3   16.78    3.63   0
  -3   5  17    4.86    1.88   0
  -3   9 -10   44.36    3.79   0
  -3   9  24   -0.08    1.71   0
  -3  13  27    1.03    1.67   0
  -3  15 -14    1.49    2.21   0
  -3  21 -14   -0.38    2.07   0
  -2   2   4  467.45    7.83   0
  -2   2  10   25.36    2.63   0
  -2   2  11    7.35    3.54   0
  -2   4  19    0.04    1.83   0
  -2   6  23    1.04    1.79   0
  -2  10  28    0.35    2.27   0
  -2  12  29   -1.49    1.71   0
  -1   1  13   -1.47    2.59   0
  -1   3  20   24.39    2.19   0
  -1   5  24    1.53    1.49   0
  -1   7  27    0.87    2.44   0
  -1   9  29    1.90    1.66   0
   0   0  14   80.87    3.71   0
   0   2  -7  115.49    6.41   0
   0   4 -11    4.08    3.78   0
   0   6  28    4.51    2.37   0
   0   8 -16    1.45    2.60   0
   0   8  30   -0.91    1.68   0
   1  -1  14   20.98    3.10   0
   1   7  31    0.57    2.06   0
   2   2 -12   46.74    3.17   0
   2   4  29    0.19    2.58   0
   2  16 -23    0.47    3.29   0
   3  -3   2   36.33    4.68   0
   3  -1  21   12.42    2.45   0
   3   1 -12  109.80    4.22   0
   3   3  29    0.88    2.61   0
   4   0 -12  157.07    3.76   0
   4   2  29   -0.32    2.69   0
   4  14 -25    0.54    2.27   0
   5  -3  19   24.22    3.74   0
   5  11 -25   -0.01    2.05   0
   6   0 -15    0.50    1.95   0
   6   0  28    0.99    2.13   0
   6   2 -18   30.23    2.69   0
   6   8 -24    1.39    2.34   0
   7  -5  -1    7.01    3.14   0
   7  -3  -9   30.13    3.20   0
   7  -1 -14   27.03    2.87   0
   7   7 -24    0.63    2.51   0
   8  -6   5   20.24    2.31   0
   8  -6   6   14.59    2.20   0
   8  -6   7    1.31    1.80   0
   8  -4  -8   11.78    2.12   0
   8  -2 -13    1.43    2.31   0
   8  -2  26    0.66    2.74   0
   8   0 -17   -2.48    1.76   0
   8   4 -22   14.82    2.50   0
   8   6 -24   -0.71    2.34   0
   9  -5  -5   41.21    3.09   0
   9  -3 -12   -0.63    1.76   0
   9  -1 -16    3.46    1.83   0
   9   1 -19    1.20    2.52   0
   9   3 -22    0.01    1.68   0
   9   5 -24    0.60    1.62   0
   9   9 -27    0.78    1.67   0
  10  -6  -2    0.50    1.83   0
  10  -6  -1   18.38    2.72   0
  10  -6  14    0.35    2.04   0
  10  -4 -10   -0.77    1.71   0
  10  -2 -15   16.43    2.00   0
  10   2 -21    8.39    2.41   0
  11  -3 -13    0.42    2.56   0
  11  -1 -17   -0.10    2.43   0
  11   3 -23   -0.62    1.67   0
  11   5 -25    0.38    1.64   0
  12  -6  16    0.76    2.25   0
  12  -4 -11    2.92    2.43   0
  12   2 -22    1.50    2.02   0
  12   6 -26    0.44    2.10   0
  13  -7   2    7.44    1.73   0
  13  -7   3   -1.53    1.67   0
  13  -7   4   -1.73    2.48   0
  13  -7   5   20.65    2.62   0
  13  -7   6    1.85    2.46   0
  13  -7   7    5.41    2.56   0
  13  -7   8   -1.28    2.61   0
  13  -7   9    7.68    2.49   0
  13  -5  -9   16.92    2.00   0
  13  -3 -14    2.03    2.23   0
  13   1 -21   -0.64    2.01   0
  14  -6  17   -0.20    2.06   0
  14  -4 -12    0.64    1.73   0
  14   0 -20    4.52    1.65   0
  15  -7   1   -2.10    1.75   0
  15  -7   2   -1.15    1.71   0
  15  -7   3    0.84    2.28   0
  15  -7   4    0.21    2.35   0
  15  -7   5    6.83    2.58   0
  15  -7   6    1.93    2.41   0
  15  -7   7   -0.85    2.55   0
  15  -7   9   -1.60    2.67   0
  15  -7  10    1.70    1.95   0
  15  -5  -9    0.53    1.73   0
  15  -3 -14    1.07    2.63   0
  15  -1 -18    0.26    2.37   0
  15   1 -21    2.01    2.28   0
  15   3 -24   -0.25    1.51   0
  16  -6  -5    1.55    1.66   0
  16  -6  -4    2.51    2.33   0
  16  -6  16    0.30    2.22   0
  16  -4 -12    3.24    1.87   0
  16  -2 -16    0.99    2.50   0
  16   0 -20   -0.98    1.83   0
  17  -7   4    1.61    1.65   0
  17  -7   5    1.15    1.67   0
  17  -7   6   -1.32    1.89   0
  17  -7   7   -0.73    1.83   0
  17  -5  -9    1.28    1.74   0
  17  -5  -8   -1.97    2.26   0
  17  -3 -14    1.43    1.83   0
  17  -1 -18    2.14    1.93   0
  18  -6  -4    0.34    1.77   0
  18  -6  -3   -0.61    2.09   0
  18  -2 -16    0.52    1.75   0
  19  -5  -7   -0.80    1.63   0
  19  -3 -13    0.75    1.28   0
  -7  15   3   40.41    2.58   0
  -7  15   4   16.64    2.56   0
  -7  15   5    3.79    1.81   0
  -7  15   6    0.06    1.75   0
  -7  15   7   -0.97    1.69   0
  -7  15   8    4.57    1.90   0
  -7  15   9   12.66    1.79   0
  -7  15  10    1.69    1.55   0
  -7  15  11    0.23    1.58   0
  -7  15  12    6.09    2.34   0
  -7  15  13    0.76    2.25   0
  -7  17   2   21.90    2.65   0
  -7  17   3   -0.53    1.69   0
  -7  17  12    1.18    1.58   0
  -7  17  13    3.12    1.74   0
  -7  17  14    2.76    2.21   0
  -7  19   1    0.27    2.00   0
  -7  19  12    0.62    1.59   0
  -7  19  13   -1.12    1.63   0
  -7  19  14    2.11    2.21   0
  -7  21   3    7.67    2.68   0
  -7  21   4    0.90    1.78   0
  -7  21   5    1.07    1.72   0
  -7  21   6   -1.31    1.73   0
  -7  21   7   -2.03    1.73   0
  -7  21   8   -2.41    1.68   0
  -7  21   9    1.09    1.66   0
  -7  21  10    0.69    1.49   0
  -7  21  11   -0.73    1.11   0
  -7  21  11    0.36    1.16   0
  -6  10   3    0.31    2.34   0
  -6  10   4    1.53    2.60   0
  -6  10   5   71.45    2.60   0
  -6  10   6   35.92    2.13   0
  -6  10   9   19.48    1.93   0
  -6  10  10    0.45    1.70   0
  -6  10  11    2.33    1.93   0
  -6  10  12    2.20    2.25   0
  -6  12  -1    5.13    2.63   0
  -6  12  16    4.72    1.87   0
  -6  12  17    0.67    2.22   0
  -6  14  -3   26.91    2.34   0
  -6  14  18   -1.26    1.89   0
  -6  14  19   -2.99    2.59   0
  -6  16  20    1.52    2.41   0
  -6  18  -5    1.87    2.72   0
  -6  18  20    2.22    1.69   0
  -6  20  -5   -1.43    2.17   0
  -6  22  -4   -0.19    1.99   0
  -6  22  -3   -0.28    1.63   0
  -5   7   5   31.59    3.22   0
  -5   7   6    8.01    2.21   0
  -5   7   7   60.92    2.66   0
  -5   7   8    2.44    2.09   0
  -5   7   9   86.88    2.83   0
  -5   7  10   12.79    2.83   0
  -5   7  11    2.29    2.69   0
  -5   9  -2   14.92    3.13   0
  -5   9  17    2.38    1.76   0
  -5  11  -5    6.64    1.95   0
  -5  11  21   -1.90    2.04   0
  -5  13  -7    0.73    2.36   0
  -5  13  22   -0.74    1.66   0
  -5  15  23   -0.30    1.93   0
  -5  15  24    2.47    2.03   0
  -5  17  -9    2.93    2.31   0
  -5  19  -9    2.18    2.53   0
  -4   6  15    2.76    1.82   0
  -4   6  16   10.30    2.60   0
  -4   8  -5    4.24    1.91   0
  -4   8  20   14.73    2.03   0
  -4  10  -8    0.39    2.12   0
  -4  10  23    1.50    1.70   0
  -4  12 -10    8.74    2.41   0
  -4  12  25   -1.46    2.30   0
  -4  14  26   -0.00    1.82   0
  -4  16 -12    4.90    2.36   0
  -4  18 -12    1.44    2.17   0
  -4  20 -12   -0.86    1.82   0
  -3   5  18    3.12    1.77   0
  -3   7  22    1.36    1.83   0
  -3   9  25    0.50    1.57   0
  -3  11 -12   10.27    2.71   0
  -3  11  27   -2.31    2.41   0
  -3  13  28    0.60    1.63   0
  -2   2   3  334.58    7.14   0
  -2   2  12   47.27    2.80   0
  -2   4  -5    2.06    3.71   0
  -2   4  20    4.23    2.59   0
  -2   6  -9    0.26    4.62   0
  -2   6  24    0.28    2.36   0
  -2  12  30    2.86    2.19   0
  -2  18 -17    0.40    2.62   0
  -1   1  14  858.92    8.22   0
  -1   3  21    9.57    2.70   0
  -1   5  25    4.29    2.35   0
  -1   7  28   -1.39    2.02   0
  -1   9  30    1.93    2.22   0
  -1  11  31    0.94    1.26   0
  -1  11  31   -0.15    1.26   0
   0   0  15   -0.57    2.55   0
   0   8  31   -0.66    2.17   0
   1   1  22    3.37    2.69   0
   1   3  26    3.18    2.62   0
   1   5  29   -2.13    2.62   0
   2  -2  14    1.10    2.86   0
   2   0  22    2.85    2.35   0
   2   2  26   -0.47    1.91   0
   2   6  32   -0.88    2.08   0
   3  -1  -7  686.08    7.77   0
   3   1  26    1.27    2.51   0
   3   3 -15    3.96    2.62   0
   3   5  32    0.98    2.54   0
   3  15 -24    0.50    2.47   0
   4   2 -15    1.76    3.04   0
   4   4 -18    0.08    1.82   0
   4   4  32   -1.86    2.47   0
   4   6 -20   -1.33    2.26   0
   5  -3  -5    2.06    2.74   0
   5  -1 -11    8.57    2.33   0
   5  -1  25    1.38    2.81   0
   5   1 -15   28.57    2.36   0
   5   1  29    1.32    2.10   0
   5   3 -18    0.59    1.77   0
   5   3  32    0.58    2.22   0
   5   7 -22    2.27    2.62   0
   5  15 -26   -1.60    2.56   0
   6  -4  -3    0.65    3.12   0
   6  -2 -10   54.60    2.69   0
   6  -2  24    3.83    2.48   0
   6   4 -20   17.33    2.74   0
   6   6 -22    5.10    2.38   0
   6  12 -26   -0.38    2.36   0
   7  -5   0   -1.55    3.25   0
   7   1 -17    2.27    2.58   0
   7   1  31   -0.04    2.40   0
   7   3 -20   10.56    2.03   0
   7   5 -22    5.49    2.36   0
   8  -4  -7    3.66    2.04   0
   8   0  30   -0.06    2.08   0
   9  -5  -4    0.90    2.67   0
   9  -3 -11    8.89    1.94   0
   9  -1  29    0.22    2.85   0
   9   7 -25    1.19    2.40   0
  10  -6   0   12.36    2.63   0
  10  -6  13    7.07    2.44   0
  10  -4  -9   -3.08    2.40   0
  10  -2 -14   -0.35    2.42   0
  10   0 -18    5.37    1.84   0
  10   4 -23    0.67    2.01   0
  11  -5  -7    3.58    1.64   0
  11   1 -20   -1.49    1.60   0
  11   7 -26    0.28    2.05   0
  12  -6  -3    2.72    1.91   0
  12  -6  -2   -0.00    2.65   0
  12  -4 -10    7.45    2.43   0
  12  -2 -15    4.05    2.49   0
  12   0 -19    1.31    1.69   0
  12   4 -24    0.63    1.73   0
  13  -5  -8    0.32    1.85   0
  13  -3 -13    7.22    2.55   0
  13  -1 -17    3.25    2.44   0
  13   3 -23    1.32    1.71   0
  13   5 -25    0.88    1.66   0
  14  -6  -4   -1.10    1.71   0
  14  -6  -3    0.17    2.47   0
  14  -6  16    3.22    2.56   0
  14  -4 -11   -0.05    1.82   0
  14  -2 -16   -2.09    1.74   0
  14   0 -19   -0.20    2.19   0
  14   2 -22    1.81    1.66   0
  14   4 -24   -0.01    2.34   0
  15  -5  -8    1.35    1.66   0
  15   3 -23    1.32    1.96   0
  16  -6  -3    4.55    2.25   0
  16  -6  15   -1.35    2.56   0
  16  -4 -11    0.17    1.82   0
  16   0 -19   -1.51    2.11   0
  16   2 -22    1.04    1.66   0
  17  -5  -7    0.08    2.09   0
  17  -3 -13    0.66    2.20   0
  17  -1 -17    0.90    2.53   0
  17   1 -20   -1.47    2.51   0
  18  -6  -2   -1.16    1.84   0
  18  -6  -1    1.35    2.06   0
  18  -4 -10    0.09    1.85   0
  18  -2 -15    2.18    1.60   0
  19  -5  -6   -0.27    1.62   0
  19  -5  -5   -1.40    2.24   0
  19  -3 -12   -1.10    1.74   0
  -7  13   5   24.16    2.77   0
  -7  13   6    1.93    2.56   0
  -7  13   8   16.15    1.96   0
  -7  13   9    4.01    1.70   0
  -7  13  10    1.69    1.66   0
  -7  13  11    9.13    2.53   0
  -7  13  12    2.17    2.40   0
  -7  15   1    3.52    2.22   0
  -7  15   2   48.31    2.33   0
  -7  17   0    2.84    2.33   0
  -7  17   1    1.53    1.65   0
  -7  17  15   -0.61    1.76   0
  -7  17  17   -0.00    2.25   0
  -7  19   0    1.96    2.32   0
  -7  19  15    0.55    1.76   0
  -7  19  16    0.66    1.74   0
  -7  19  17   -1.86    2.05   0
  -7  21   0   -0.24    2.01   0
  -7  21   1    1.95    2.52   0
  -7  21   2   -0.71    1.72   0
  -6  10   2   45.94    2.95   0
  -6  10  13   23.67    2.07   0
  -6  10  14   -0.09    1.76   0
  -6  10  15    1.09    2.16   0
  -6  12  -2   27.22    2.91   0
  -6  14  -4    5.69    2.74   0
  -6  14  20    0.79    1.75   0
  -6  16  -5   16.47    2.15   0
  -6  16  21   -1.07    1.65   0
  -6  18  -6    1.14    2.34   0
  -6  22  -5   -1.90    1.89   0
  -5   7   3   95.78    3.82   0
  -5   7   4    0.96    2.15   0
  -5   7  12    5.82    1.94   0
  -5   7  13   13.57    2.66   0
  -5   9  -3   29.33    2.86   0
  -5  11  22    1.19    2.35   0
  -5  13  23   -0.22    1.65   0
  -5  13  24    3.47    2.08   0
  -5  15  -9    2.73    2.01   0
  -5  21  -9   -1.38    2.49   0
  -4   6  -1    2.29    2.18   0
  -4   6  17   -3.32    2.51   0
  -4   8  21   15.05    2.01   0
  -4  10  24   -0.03    1.60   0
  -4  12  26   -0.13    2.33   0
  -4  14  27    0.41    1.67   0
  -3   3   5   33.49    4.23   0
  -3   3   6  152.94    4.14   0
  -3   3   7   80.09    3.32   0
  -3   3   8  166.53    4.14   0
  -3   3   9    0.24    2.55   0
  -3   3  10   37.91    3.22   0
  -3   3  11   31.05    3.48   0
  -3   5  19    2.62    1.65   0
  -3   7  23    1.27    1.70   0
  -3   9  26   -0.42    2.39   0
  -3  11  28   -2.40    2.40   0
  -3  13  29    1.09    1.20   0
  -3  13  29    1.49    1.24   0
  -3  19 -15    0.31    2.25   0
  -2   2   2  131.03    6.44   0
  -2   2  13    7.13    2.19   0
  -2   4  21   21.68    2.82   0
  -2   6  25    7.63    2.19   0
  -2   8  27   -1.62    1.71   0
  -2  10  29    2.85    1.71   0
  -2  20 -17    1.55    2.51   0
  -1   1  15    3.11    2.96   0
  -1   3  22   12.43    2.45   0
  -1   5 -10    1.10    5.13   0
  -1  19 -19    0.30    3.78   0
   0   2  22    2.66    1.82   0
   0   4  26    0.81    1.70   0
   0   6  29   -0.66    1.69   0
   1   7  32    1.85    2.45   0
   2  -2   1   55.61    5.84   0
   2   0  -7    3.68    4.03   0
   2   4  30    1.96    2.50   0
   2   8 -19    2.69    2.33   0
   3  -3   3   26.53    4.52   0
   3   3  30    1.56    2.40   0
   4  -2  -6   16.66    2.64   0
   4   0 -11    0.59    2.97   0
   4   0  26    0.32    2.41   0
   4  10 -23    6.95    2.19   0
   4  12 -24   -0.24    2.08   0
   5   5 -20    0.64    1.87   0
   6   0 -14    3.83    2.10   0
   6   2  32    1.07    2.72   0
   7  -5   1   45.00    3.31   0
   7  -5  13   18.04    3.20   0
   7  -3  -8   61.88    3.31   0
   7  -1 -13   15.98    2.61   0
   7   9 -25   -0.32    2.32   0
   7  11 -26   -0.34    2.57   0
   8  -4  -6   -0.63    2.91   0
   8  -2 -12   18.50    2.04   0
   8   0 -16    0.94    1.85   0
   8   2 -19   30.59    2.32   0
   8   8 -25   -0.28    1.80   0
   8  10 -26    3.39    2.44   0
   8  12 -27    0.24    2.53   0
   9  -5  -3   54.82    3.03   0
   9  -1 -15    8.34    1.74   0
   9   1 -18    0.64    2.51   0
   9   3 -21   -1.11    1.80   0
   9   5 -23    3.24    2.06   0
   9   9 -26    2.24    2.33   0
  10  -6   1    5.73    1.93   0
  10  -6   2    1.96    2.57   0
  10  -6  12   10.85    2.52   0
  10  -4  -8   53.08    2.91   0
  10   0 -17   -0.96    2.44   0
  10   2 -20    2.01    2.31   0
  10   8 -26    0.60    2.07   0
  10  10 -27    1.95    2.12   0
  11  -5  -6    8.03    1.74   0
  11  -3 -12    6.20    1.85   0
  11  -1 -16   11.21    2.40   0
  11   1 -19    5.95    2.45   0
  11   3 -22    1.63    1.77   0
  11   5 -24   -0.52    1.51   0
  11   9 -27   -0.41    1.46   0
  11   9 -27    0.27    0.90   0
  12  -6  -1    0.36    2.67   0
  12  -6  15    9.83    2.63   0
  12  -4  23    1.13    2.88   0
  12   0 -18    3.99    2.13   0
  12   2 -21    0.83    1.71   0
  12   4 -23    2.26    2.27   0
  12   6 -25    0.27    2.43   0
  13  -5  -7    3.68    1.87   0
  13  -5  20    0.68    2.29   0
  13   1 -20   -0.08    1.60   0
  13   7 -26   -1.30    1.97   0
  14  -6  -2    1.17    2.23   0
  14  -6  15    0.22    2.36   0
  14  -4 -10    2.35    1.83   0
  14  -2 -15    2.05    1.78   0
  14   2 -21   -1.52    2.40   0
  15  -5  -7   21.18    1.93   0
  15  -5  20    0.17    1.53   0
  15  -5  20    0.79    1.12   0
  15  -3 -13    2.43    1.97   0
  15  -1 -17    0.08    1.92   0
  15   1 -20    0.09    1.71   0
  16  -6  -2    0.80    1.87   0
  16  -6  -1    2.76    2.50   0
  16  -6  14    3.28    2.59   0
  16  -2 -15   -0.80    1.86   0
  16   0 -18    2.01    2.58   0
  16   2 -21   -1.41    2.31   0
  17  -5  -6    3.35    1.79   0
  17  -3 -12    1.16    2.29   0
  17  -1 -16    1.13    2.41   0
  18  -6   0    1.99    1.78   0
  18  -6   1   -0.25    1.63   0
  18  -6   2    0.27    2.56   0
  18  -6   3   -0.25    2.43   0
  18  -6  10    1.16    2.34   0
  18  -6  11    2.49    2.42   0
  18  -6  12   -0.29    1.22   0
  18  -6  12    0.15    1.16   0
  18  -4  -9   -1.37    1.81   0
  18  -2 -14   -1.06    1.77   0
  18   0 -18    0.52    1.20   0
  19  -5  -4   -1.47    1.61   0
  19  -5  -3   -0.92    2.45   0
  19  -3 -11   -0.74    1.75   0
  -7  13   2    0.18    2.17   0
  -7  13   3    2.66    1.82   0
  -7  13   4    5.25    1.96   0
  -7  13  13   -1.05    1.68   0
  -7  13  14   -2.47    1.66   0
  -7  13  15   15.67    2.47   0
  -7  15   0    2.15    2.41   0
  -7  15  16    1.09    1.88   0
  -7  15  17   -1.56    2.43   0
  -7  17  -1    1.73    1.80   0
  -7  17  18    2.28    1.92   0
  -7  17  19    1.17    2.08   0
  -7  19  -2    1.66    2.21   0
  -7  19  -1    0.02    1.69   0
  -7  19  18    0.82    1.20   0
  -7  21  -1   -0.58    2.40   0
  -6  10   1   18.60    2.17   0
  -6  10  16    4.20    1.75   0
  -6  10  17    3.83    2.20   0
  -6  12  -3   13.31    2.81   0
  -6  12  19    0.34    1.77   0
  -6  14  -5    3.24    2.53   0
  -6  14  21    2.84    1.92   0
  -6  14  22    3.16    2.61   0
  -6  16  -6   10.55    2.78   0
  -6  16  22   -0.10    1.79   0
  -6  16  23   -2.51    2.52   0
  -6  20  -6    1.47    1.85   0
  -5   7   2    1.45    2.13   0
  -5   7  14    2.50    1.72   0
  -5   7  15   40.34    2.81   0
  -5   9  20    3.52    2.39   0
  -5  11  -6   37.50    2.28   0
  -5  11  23    7.25    2.49   0
  -5  13  -8    0.96    2.20   0
  -5  13  25   -1.82    2.04   0
  -5  15  26    0.13    2.52   0
  -5  17 -10    3.07    2.07   0
  -5  19 -10    0.20    2.22   0
  -4   6  18    2.29    1.79   0
  -4   8  -6    6.85    2.44   0
  -4   8  22    1.75    1.79   0
  -4  12  27   -0.11    2.22   0
  -3   3   4   58.11    4.56   0
  -3   3  12   11.99    2.37   0
  -3   3  13   11.66    3.08   0
  -3   5  20    9.11    1.79   0
  -3   7  24    0.50    1.80   0
  -3   9  27    4.28    2.45   0
  -3  11  29   -0.04    2.06   0
  -3  17 -15    2.65    2.05   0
  -3  21 -15    1.42    2.41   0
  -2   2  15    0.25    3.02   0
  -2   8  28    0.83    1.69   0
  -2  10  30   -1.50    1.60   0
  -2  16 -17    2.22    3.47   0
  -1   1  16   38.90    3.30   0
  -1   5  26   15.26    2.00   0
  -1   7  29    2.64    2.42   0
  -1   9  31    1.52    1.80   0
   0   0  16   24.89    2.80   0
   0   2  23    0.84    2.47   0
   0   4  27    2.99    2.42   0
   0   6  30    0.10    2.22   0
   0   8  32   -1.29    2.55   0
   1  -1  16   20.93    2.85   0
   1   1  23    3.37    2.55   0
   1   3  27    1.26    2.69   0
   1   5  30   -2.65    1.80   0
   2  -2  15   81.52    4.39   0
   2   2  27    3.60    2.67   0
   2   6 -17    0.84    1.91   0
   2   6  33    0.28    1.92   0
   3  -1  22    1.16    2.24   0
   3   1 -11   10.22    3.41   0
   3   1  27    5.49    2.42   0
   3   5  33   -0.56    2.50   0
   3   9 -21    1.61    2.10   0
   4  -2  21    0.67    2.69   0
   4   2  30   -1.85    2.48   0
   4   4  33    1.05    2.12   0
   4  16 -25    0.06    1.79   0
   4  16 -25    0.26    1.00   0
   5  -3  -4   10.14    2.89   0
   5  -1 -10   45.78    2.76   0
   5   1 -14   16.65    3.02   0
   5   3 -17   -0.54    2.72   0
   5  13 -25   -0.43    2.18   0
   6  -4  -2  159.32    3.67   0
   6  -2  -9   85.93    3.05   0
   7  -5   2    0.41    2.25   0
   7   1 -16   12.72    2.69   0
   7   3 -19    7.76    2.73   0
   7   7 -23   -0.26    2.39   0
   8   4 -21   -1.00    2.09   0
   8   6 -23    0.94    2.04   0
   9  -5  -2   26.91    2.90   0
   9  -5  17    0.44    2.66   0
   9  -3 -10   18.75    2.04   0
   9  -1 -14   14.43    2.46   0
   9  11 -27    0.36    1.71   0
  10  -6   3   13.78    2.10   0
  10  -6   4    9.12    2.75   0
  10  -6  11    0.81    2.31   0
  10  -4  22    1.98    3.19   0
  10  -2 -13    4.25    1.94   0
  10   4 -22   -0.12    2.24   0
  10   6 -24   -2.19    2.00   0
  11  -5  -5   11.09    1.92   0
  11  -5  19    1.41    2.49   0
  11  -3 -11   10.35    2.43   0
  11   7 -25    2.02    2.04   0
  12  -6   0   19.78    1.98   0
  12  -6   1   82.92    3.11   0
  12  -6  14    0.29    2.43   0
  12  -4  -9   13.10    1.92   0
  12  -2 -14   -0.89    1.80   0
  12   8 -26    0.15    2.17   0
  13  -5  -6   -1.06    1.76   0
  13  -5  -5   13.43    2.48   0
  13  -3 -12   11.19    1.84   0
  13  -1 -16    1.08    1.76   0
  13   1 -19   -0.04    2.40   0
  13   3 -22    2.14    1.86   0
  13   5 -24   -0.07    1.59   0
  14  -6  -1    3.73    1.75   0
  14  -6   0    1.99    2.38   0
  14  -6  14    2.80    2.37   0
  14  -4  -9    1.28    2.14   0
  14  -4  23    0.54    2.48   0
  14  -2 -14    1.81    2.31   0
  14   0 -18   15.61    1.95   0
  14   4 -23    3.06    2.01   0
  14   6 -25    0.99    1.26   0
  15  -5  -6   -0.18    1.67   0
  15  -5  -5    3.69    2.32   0
  15  -5  19   -1.19    2.59   0
  15  -3 -12    4.14    1.89   0
  15  -1 -16   -2.93    1.81   0
  15   3 -22    0.71    1.61   0
  16  -6  13    1.71    2.56   0
  16  -4  -9   -0.49    1.76   0
  16  -2 -14    1.85    1.99   0
  17  -5  -5    9.30    1.94   0
  17  -5  -4    2.96    2.54   0
  17  -3 -11    0.47    2.43   0
  17   1 -19   -0.93    1.85   0
  18  -6   5   -0.30    1.57   0
  18  -6   6    0.79    2.03   0
  18  -6   7    1.92    2.15   0
  18  -6   8   -1.88    2.10   0
  18  -6   9   -0.19    1.12   0
  18  -6   9    1.25    1.23   0
  18  -4  -8    0.66    1.68   0
  18  -4  -7    0.54    2.39   0
  18  -2 -13    0.25    1.78   0
  18   0 -17   -2.02    1.77   0
  19  -5  -2   -0.55    1.72   0
  19  -5  -1    0.87    2.54   0
  19  -3 -10    2.72    1.89   0
  -8  16   7    4.60    1.98   0
  -8  16   8    4.37    2.21   0
  -8  16   9    2.02    2.26   0
  -8  16  10   10.45    2.34   0
  -8  16  11    0.45    2.03   0
  -8  18   5    2.26    2.30   0
  -8  18   6    1.30    2.32   0
  -8  18   8   -1.26    1.83   0
  -8  18   9    1.24    1.67   0
  -8  18  10    1.67    1.71   0
  -8  18  11    0.66    1.77   0
  -8  18  12    1.34    2.32   0
  -8  18  13    2.08    2.24   0
  -8  20   5   -0.56    1.85   0
  -8  20   6    0.51    2.47   0
  -8  20   7    1.88    1.80   0
  -8  20   8    0.47    1.73   0
  -8  20   9    0.82    1.76   0
  -8  20  10   -0.01    1.57   0
  -8  20  12    0.51    2.23   0
  -8  20  13    1.86    1.91   0
  -7  11   6    2.38    2.47   0
  -7  11   7   16.75    2.62   0
  -7  11   9    6.30    1.84   0
  -7  11  10   -0.38    1.83   0
  -7  13   1   70.35    3.14   0
  -7  13  16    8.42    2.06   0
  -7  13  17   -1.08    2.44   0
  -7  15  -1   14.88    2.11   0
  -7  15  18    2.39    1.76   0
  -7  15  19    1.41    2.43   0
  -7  17  -2    2.53    1.78   0
  -7  17  20   -1.48    1.66   0
  -7  19  -3    2.09    2.52   0
  -7  21  -2   -0.74    1.79   0
  -6   8   6    1.25    2.60   0
  -6   8   7   20.81    2.89   0
  -6   8   8   19.31    2.83   0
  -6   8  10    3.03    2.60   0
  -6   8  11    5.21    2.61   0
  -6   8  12    1.46    2.32   0
  -6  10   0   73.63    2.70   0
  -6  10  18   20.04    2.64   0
  -6  12  21    0.80    1.94   0
  -6  14  23    4.55    2.50   0
  -6  16  24    2.00    1.78   0
  -6  18  -7   -4.04    2.62   0
  -6  20  -7    4.03    2.71   0
  -6  22  -6    1.41    1.75   0
  -5   7   1   24.48    2.48   0
  -5   7  16    0.60    1.70   0
  -5   7  17   24.67    2.56   0
  -5   9  -4   13.96    2.80   0
  -5   9  21   16.03    1.94   0
  -5  11  24    0.69    2.25   0
  -5  13  26    0.95    2.30   0
  -5  21 -10    0.72    2.27   0
  -4   4   8    0.23    3.39   0
  -4   4   9    8.45    3.28   0
  -4   4  10   23.79    3.39   0
  -4   6  -2   63.17    3.02   0
  -4   6  19    3.72    1.86   0
  -4   8  23    2.16    1.70   0
  -4  10  26    0.52    1.74   0
  -4  12  28    0.48    2.25   0
  -4  14 -12    1.53    2.32   0
  -4  18 -13    2.85    2.07   0
  -4  20 -13   -0.11    2.10   0
  -3   3  14    8.55    2.04   0
  -3   5  -4    2.55    3.30   0
  -3   9  28    1.91    2.11   0
  -2   2  16   22.53    3.00   0
  -2   4  22   -0.81    1.79   0
  -2   6  26   -0.41    1.59   0
  -2   8  29   -0.05    2.34   0
  -2  10  31    3.49    2.26   0
  -1   1  17   70.68    3.64   0
  -1   3  23    0.50    2.57   0
  -1   5  27   -0.04    2.46   0
  -1   7  30   -0.35    1.96   0
  -1   9  32   -1.29    2.08   0
   0   0  17   -3.96    2.48   0
   1   5 -14    5.01    2.50   0
   1   7  33    3.16    2.12   0
   1   7  33   -0.30    1.21   0
   2   0  23    0.43    2.54   0
   2   2 -11    6.47    3.08   0
   2   4  31   -0.88    2.26   0
   3  -3   4   90.71    5.48   0
   3  -3  13    3.09    3.86   0
   3  -1  -6   82.77    3.88   0
   3  11 -22    0.40    1.89   0
   3  13 -23   -0.08    2.06   0
   3  17 -24    0.12    2.07   0
   3  17 -24   -0.03    1.00   0
   4  -2  -5  451.85    6.19   0
   4   2 -14    1.94    3.04   0
   4   4 -17    2.15    2.55   0
   5   1  30    0.91    2.63   0
   5   3  33   -0.10    2.33   0
   5  11 -24    0.72    2.06   0
   6  -4  -1   25.00    2.70   0
   6   0 -13   -0.70    2.51   0
   6   0  29    0.51    2.13   0
   6   4 -19   31.43    2.92   0
   6   6 -21   -0.87    2.35   0
   6   8 -23    2.12    1.89   0
   6  14 -26   -0.22    1.59   0
   6  14 -26   -0.08    1.15   0
   7  -5   4   82.91    3.79   0
   7  -5  12    2.19    2.55   0
   7  -3  -7    8.12    2.24   0
   7  -1 -12   47.31    3.08   0
   7  -1  28    0.57    2.33   0
   7   5 -21    2.25    2.19   0
   8  -4  -5    7.56    2.03   0
   8  -2 -11    6.43    1.95   0
   8   0 -15    0.31    1.88   0
   8   2 -18   -1.11    2.36   0
   9  -5  -1   -0.69    2.72   0
   9  -3  -9    1.50    1.83   0
   9   1 -17    1.57    2.59   0
   9   3 -20    0.07    1.65   0
   9   5 -22    2.82    2.15   0
   9   7 -24    2.89    2.17   0
  10  -6   5   50.16    2.57   0
  10  -6   6   11.18    2.48   0
  10  -6   7    4.66    2.66   0
  10  -6   8    5.47    2.71   0
  10  -6   9   20.52    2.57   0
  10  -6  10    1.33    1.77   0
  10  -4  -7   11.70    1.95   0
  10  -2 -12    8.85    2.47   0
  10   0 -16   33.52    2.64   0
  10   2 -19    2.51    2.49   0
  10   8 -25    2.11    2.22   0
  11  -5  -4   34.43    2.34   0
  11  -5  -3    2.52    2.51   0
  11  -1 -15    3.14    1.80   0
  11   1 -18    5.03    2.47   0
  11   5 -23   -0.08    1.95   0
  11   9 -26   -1.10    2.05   0
  12  -6   3   -0.49    2.62   0
  12  -6  12   -0.23    2.32   0
  12  -6  13    7.86    2.23   0
  12  -4  -8    3.02    1.77   0
  12  -2 -13   11.30    2.40   0
  12   0 -17    1.55    1.67   0
  12   2 -20    1.00    1.66   0
  12   4 -22    3.45    2.28   0
  12   6 -24    3.47    2.39   0
  13  -5  -4   -1.71    2.59   0
  13  -5  19    0.77    2.43   0
  13  -1 -15    4.11    2.42   0
  13   3 -21    0.54    2.27   0
  13   7 -25   -1.36    2.36   0
  14  -6   1    0.31    1.65   0
  14  -6   2    0.48    2.27   0
  14  -6  13    2.53    2.58   0
  14  -4  -8   17.76    2.41   0
  14  -2 -13   -1.40    2.52   0
  14   0 -17    0.51    2.05   0
  14   2 -20    0.96    2.05   0
  15  -5  -4    3.18    2.21   0
  15  -3 -11    1.96    1.85   0
  15  -1 -15    0.76    2.54   0
  15   3 -21    1.06    2.25   0
  16  -6   2    2.91    1.82   0
  16  -6   3    1.84    1.76   0
  16  -6   4   -1.24    1.89   0
  16  -6   5    2.79    2.32   0
  16  -6   6    1.10    2.52   0
  16  -6   9   -1.04    2.54   0
  16  -6  10   10.94    2.69   0
  16  -6  11    1.37    2.30   0
  16  -6  12    2.15    1.90   0
  16  -4  -8    0.66    1.70   0
  16  -2 -13    0.58    1.98   0
  16   0 -17    2.42    1.91   0
  16   2 -20    0.26    1.69   0
  17  -5  -3   -0.56    1.79   0
  17  -3 -10   -1.65    2.40   0
  17  -1 -15    2.89    1.83   0
  17   1 -18    2.79    2.07   0
  18  -2 -12    0.56    2.01   0
  18   0 -16   -1.06    2.19   0
  19  -5   0    0.93    1.75   0
  19  -5   1    3.09    2.42   0
  19  -3  -9   -0.00    1.83   0
  19  -3  -8    0.72    2.34   0
  19  -1 -14   -1.79    1.31   0
  20  -4  -4    0.27    1.69   0
  20  -4  -3    4.31    2.33   0
  -8  14   8   13.12    2.28   0
  -8  14   9    2.43    2.14   0
  -8  14  10    3.05    2.17   0
  -8  14  11    2.67    2.12   0
  -8  16   4    2.90    2.31   0
  -8  16   5    0.14    1.60   0
  -8  16   6    0.77    1.78   0
  -8  16  12    1.61    1.57   0
  -8  16  13    1.12    1.57   0
  -8  16  14    0.33    1.70   0
  -8  16  15    0.42    2.57   0
  -8  18   2   -0.47    1.98   0
  -8  18   4    7.22    1.80   0
  -8  18  14   -0.99    1.68   0
  -8  18  15    0.90    1.78   0
  -8  18  16    0.20    2.31   0
  -8  20   4    3.40    1.75   0
  -7  11   3    1.23    2.29   0
  -7  11   4    2.20    1.87   0
  -7  11   5   25.06    2.15   0
  -7  11  13   36.29    2.21   0
  -7  11  14    4.31    1.80   0
  -7  11  15   -0.07    2.39   0
  -7  13   0    3.95    1.92   0
  -7  13  18    4.77    1.90   0
  -7  15  -2    3.10    1.82   0
  -7  15  21   -1.22    2.34   0
  -7  17  -3    2.34    1.83   0
  -7  17  21   -0.38    1.75   0
  -7  19  -4    0.45    2.17   0
  -7  21  -3   -1.03    1.75   0
  -6   8   4   10.76    2.84   0
  -6   8   5   12.43    2.11   0
  -6   8  13    0.80    1.65   0
  -6   8  14    2.25    2.41   0
  -6  10  -1   61.19    2.63   0
  -6  10  19    2.70    1.67   0
  -6  10  20    5.45    2.36   0
  -6  12  -4   88.82    3.02   0
  -6  12  22    3.73    1.64   0
  -6  12  23    2.54    2.02   0
  -6  14  -6    1.50    2.41   0
  -6  14  24   -0.79    1.73   0
  -6  16  -7    7.54    2.63   0
  -6  22  -7    0.26    2.45   0
  -5   7   0    3.88    3.00   0
  -5   7  18    7.71    1.98   0
  -5   9  22   -0.72    1.75   0
  -5  11  -7    6.33    2.24   0
  -5  11  25   -0.46    1.83   0
  -5  13  27    2.18    2.19   0
  -5  15 -10    5.15    2.22   0
  -5  19 -11    0.05    2.39   0
  -4   4   5   67.54    4.10   0
  -4   4   6   52.77    2.83   0
  -4   4   7   55.53    3.03   0
  -4   4  11  127.22    3.33   0
  -4   4  13   32.83    3.14   0
  -4   6  20   -1.24    1.81   0
  -4   6  21    2.00    2.32   0
  -4   8  24   10.17    1.83   0
  -4  10  -9    4.47    2.15   0
  -4  10  27   -0.68    2.40   0
  -4  12  29   -0.02    2.30   0
  -4  16 -13    3.53    2.32   0
  -3   3  15    4.86    2.11   0
  -3   3  16    7.99    2.75   0
  -3   5  22    1.50    1.78   0
  -3   7  -8    2.98    2.81   0
  -3  11  30    0.07    1.10   0
  -3  11  30    0.40    1.01   0
  -3  13 -14   17.08    3.38   0
  -2   2   1  132.90    5.63   0
  -2   2  17   27.93    2.98   0
  -2   4  23    0.58    1.74   0
  -2   6  27    2.19    2.38   0
  -1   1  18   70.22    3.32   0
  -1   3  24    3.21    2.56   0
   0   2  24   25.82    2.93   0
   0   4  28    5.95    2.59   0
   0   6  31    0.73    2.48   0
   0   8  33   -0.48    1.12   0
   1  -1  17    5.32    2.41   0
   1   1  24   10.16    2.53   0
   1   3  28    0.62    1.86   0
   1   5  31    1.92    1.72   0
   1   9 -18    9.55    2.60   0
   2   2  28    1.56    2.57   0
   2  10 -20    4.15    2.41   0
   3   3 -14    9.29    2.99   0
   3   3  31   -0.26    1.91   0
   4   0 -10  131.79    3.73   0
   4   0  27    1.72    2.34   0
   4   2  31    0.94    2.10   0
   4   6 -19    7.39    2.48   0
   5  -3  -3    8.19    2.86   0
   5  -1  -9   44.16    3.66   0
   5  -1  26    1.27    2.30   0
   5   5 -19    6.40    2.18   0
   5   7 -21   13.60    1.95   0
   6  -4   0   67.29    4.07   0
   6  -2  -8   14.64    2.32   0
   6   2 -16    3.91    2.35   0
   6  10 -24   -1.39    2.08   0
   7  -5   5  114.29    3.72   0
   7  -5   6    5.36    2.56   0
   7  -5  11    1.83    2.23   0
   7  -3  -6    6.69    3.15   0
   7  -3  23    0.30    3.75   0
   7   1  32   -0.11    2.44   0
   7   9 -24    2.47    2.26   0
   7  11 -25    1.55    2.42   0
   8  -4  -4    3.30    2.03   0
   8  -4  20    3.37    3.56   0
   8  -2 -10   15.99    2.82   0
   8   0  31   -0.78    2.38   0
   8   4 -20   12.86    2.44   0
   8   8 -24    2.38    1.85   0
   9  -5   0    6.02    2.95   0
   9  -3  -8   45.90    3.07   0
   9  -1 -13    8.87    2.51   0
   9   9 -25    0.78    2.30   0
  10  -4  -6   -1.43    1.84   0
  10   4 -21    0.68    2.23   0
  10   6 -23   -1.30    2.06   0
  10  10 -26   -0.31    1.77   0
  11  -5  -2   40.31    2.96   0
  11  -5  18   -0.11    2.54   0
  11  -1 -14    1.84    2.49   0
  12  -6   4   -0.32    1.78   0
  12  -6   5    6.89    2.58   0
  12  -6   6    1.98    2.55   0
  12  -6   7    3.09    2.66   0
  12  -6   9   -0.51    2.43   0
  12  -6  10    1.30    2.57   0
  12  -6  11    0.53    2.51   0
  12  -4  -7    5.43    1.91   0
  12  -2 -12   16.29    2.56   0
  12   0 -16   49.10    2.88   0
  12   2 -19    4.46    2.27   0
  13  -5  -3   -2.06    2.58   0
  13  -3 -10   14.06    2.53   0
  13   1 -18   -0.11    1.61   0
  13   5 -23   -0.19    1.61   0
  14  -6   3   15.60    1.98   0
  14  -6   4   -0.15    1.73   0
  14  -6   5   -3.24    2.39   0
  14  -6   6   -1.24    2.28   0
  14  -6   7    8.87    2.37   0
  14  -6   9    1.92    2.51   0
  14  -6  10   -0.27    2.43   0
  14  -6  11    1.70    2.60   0
  14  -6  12    1.58    1.97   0
  14  -4  -7    1.36    2.10   0
  14   4 -22   -2.52    1.67   0
  14   6 -24    0.23    1.62   0
  15  -5  -3    2.73    1.71   0
  15  -5  18    2.34    2.42   0
  15  -3 -10    1.22    1.79   0
  15   1 -18   -0.10    1.71   0
  15   5 -23    0.78    1.54   0
  16  -6   7    1.02    1.87   0
  16  -6   8    8.09    1.91   0
  16  -4  -7    0.51    1.66   0
  16  -4  -6    4.96    2.40   0
  16   0 -16   -0.99    2.31   0
  16   2 -19   -1.86    2.37   0
  17  -5  -2   -2.52    1.84   0
  17  -5  -1    5.49    2.18   0
  17  -5  16    1.00    2.13   0
  17  -5  16   -0.53    1.21   0
  17  -3  -9    0.45    1.75   0
  17  -1 -14    1.37    1.73   0
  17   1 -17   -2.11    2.40   0
  18  -4  -5    0.05    1.76   0
  18  -2 -11   -1.77    2.03   0
  18   0 -15   -1.00    2.45   0
  19  -5   2    0.54    1.75   0
  19  -5   3    0.21    1.80   0
  19  -5   4    0.39    2.55   0
  19  -5   5    1.32    2.59   0
  19  -5   6    3.68    2.44   0
  19  -3  -7    1.44    2.33   0
  19  -1 -13   -0.79    1.81   0
  20  -4  -2   -0.82    1.56   0
  20  -4  -1    0.39    2.22   0
  -8  14   4    4.94    2.25   0
  -8  14   5    7.71    2.50   0
  -8  14   6    1.79    1.75   0
  -8  14   7    2.09    1.74   0
  -8  14  12    2.47    1.68   0
  -8  14  13    7.10    1.83   0
  -8  14  14    1.31    2.37   0
  -8  14  15    4.58    2.51   0
  -8  16   2    7.54    2.46   0
  -8  16   3   14.89    2.02   0
  -8  16  17   -1.53    1.82   0
  -8  16  18    1.72    2.08   0
  -8  18   1    1.04    2.24   0
  -8  18  17   -1.06    1.70   0
  -8  20   1   -1.73    2.19   0
  -7  11   2   -3.67    2.54   0
  -7  11  16   -1.28    1.81   0
  -7  11  17   20.03    2.69   0
  -7  13  -1   -0.30    1.84   0
  -7  13  20    2.53    1.82   0
  -7  13  21   -3.88    2.31   0
  -7  15  -3    0.77    1.72   0
  -7  15  22    1.43    1.84   0
  -7  17  -4   10.17    2.04   0
  -7  21  -4    0.60    1.72   0
  -6   8   3    9.72    2.07   0
  -6   8  15    3.24    1.84   0
  -6   8  16    1.49    1.88   0
  -6  10  -2   71.65    3.39   0
  -6  10  21    2.04    2.29   0
  -6  12  -5   18.67    2.63   0
  -6  12  24    1.89    2.29   0
  -6  14  25    0.83    1.75   0
  -6  14  26    2.74    2.16   0
  -6  18  -8    3.04    2.57   0
  -6  20  -8    0.72    1.12   0
  -6  20  -8    0.17    1.04   0
  -5   7  -1   42.54    3.39   0
  -5   7  19    5.03    1.88   0
  -5   7  20    0.44    2.32   0
  -5   9  23   -0.27    1.60   0
  -5   9  24    5.69    2.16   0
  -5  11  26   -0.48    1.73   0
  -5  13  -9   27.77    2.64   0
  -5  13  28    1.76    2.33   0
  -5  17 -11   -0.03    2.01   0
  -5  21 -11    0.41    2.10   0
  -4   4   4   -1.45    3.34   0
  -4   4  14   12.29    2.01   0
  -4   4  15    9.97    2.64   0
  -4   6  -3    5.85    3.07   0
  -4   6  22    6.15    2.39   0
  -4   8  25    2.02    1.71   0
  -4  10  28   -3.36    2.44   0
  -4  12 -11    5.96    2.15   0
  -3   3   2  132.14    4.71   0
  -3   3  17   12.26    2.65   0
  -3   5  23    4.25    2.38   0
  -3   7  27    0.45    2.13   0
  -3   9  29   -0.84    1.69   0
  -3  15 -15    4.11    2.93   0
  -2   2  18   10.76    2.72   0
  -2   8  30   -1.08    1.93   0
  -1   5  28    1.72    1.75   0
  -1   7  31    4.91    2.36   0
   0   0  18   50.15    2.64   0
   1   5  32    0.78    2.06   0
   1   7 -16    8.62    2.49   0
   2  -2   2    2.51    4.84   0
   2  -2  16    1.02    2.34   0
   2   0  -6 9547.89   31.42   0
   2   0  24   10.34    2.69   0
   2   4  32    0.91    2.20   0
   2  14 -22    4.37    2.49   0
   3  -3   5  163.52    6.76   0
   3  -1  23    0.09    2.28   0
   3   1  28    5.35    2.65   0
   4  -2  -4    2.75    3.96   0
   4  10 -22    5.85    2.36   0
   4  14 -24   -0.54    2.28   0
   5  -3  -2  206.95    5.04   0
   5  -3  20   13.34    3.69   0
   5   1 -13   49.11    2.71   0
   5   3 -16    5.22    2.85   0
   5  15 -25    0.09    2.25   0
   6  -2  25    0.24    2.86   0
   6   0 -12    1.79    2.84   0
   7  -5   7   94.86    3.57   0
   7  -5   8    9.69    2.53   0
   7  -5   9   20.71    2.68   0
   7  -5  10   59.81    3.41   0
   7  -1 -11    4.32    2.78   0
   7   1 -15   10.33    2.01   0
   7   3 -18    5.71    1.91   0
   7   7 -22   -1.27    2.32   0
   8  -4  -3    1.57    2.92   0
   8   0 -14    8.33    1.87   0
   8   2 -17    0.83    2.44   0
   8   6 -22   -0.24    1.63   0
   8  10 -25    2.29    1.79   0
   8  12 -26    0.75    1.72   0
   9  -5   1    1.08    2.67   0
   9  -5  16   11.19    2.97   0
   9   1 -16    2.73    2.45   0
   9   7 -23    1.69    2.28   0
   9  11 -26    0.64    1.06   0
   9  11 -26    0.67    1.18   0
  10  -4  -5    5.01    2.38   0
  10  -2 -11    1.24    1.79   0
  10   0 -15   -1.32    2.40   0
  10   2 -18   19.67    2.75   0
  11  -5  -1    3.68    2.58   0
  11  -3  -9    4.41    1.90   0
  11   1 -17    0.11    2.18   0
  11   3 -20   -1.90    1.81   0
  11   5 -22    1.63    1.98   0
  11   7 -24   -0.26    1.64   0
  12  -6   8    0.67    1.85   0
  12  -4  -6    3.50    1.92   0
  12   4 -21   -0.83    2.38   0
  12   6 -23    2.76    2.35   0
  12   8 -25    0.90    1.82   0
  13  -5  -2   21.65    2.15   0
  13  -5  18   -0.37    2.26   0
  13  -3  -9   39.12    2.79   0
  13  -1 -14    2.92    1.91   0
  13   3 -20   -1.56    2.20   0
  13   7 -24   -1.78    2.49   0
  14  -6   8    0.76    1.83   0
  14  -4  -6    2.20    2.22   0
  14  -4  22   -0.17    2.37   0
  14  -2 -12    0.97    2.00   0
  14   0 -16   -0.38    1.92   0
  14   2 -19    0.19    1.58   0
  14   4 -21   -0.98    2.36   0
  15  -5  -1   12.26    2.59   0
  15  -5  17    0.40    2.34   0
  15  -3  -9   -0.75    1.86   0
  15  -1 -14    0.78    1.81   0
  15   1 -17    3.69    2.27   0
  15   3 -20    1.30    2.08   0
  15   5 -22   -0.98    2.33   0
  16  -4  -5   -0.87    2.29   0
  16  -2 -11    5.46    2.47   0
  16   0 -15    3.03    2.55   0
  17  -5   0    0.47    1.76   0
  17  -5   1   -1.11    2.12   0
  17  -5  14    2.19    2.54   0
  17  -5  15    0.58    1.85   0
  17  -5  15    0.89    1.14   0
  17  -3  -8    4.05    1.84   0
  17  -1 -13    2.37    1.85   0
  18  -4  -4    4.56    1.89   0
  18  -4  -3   -1.23    2.54   0
  18  -2 -10    1.74    1.97   0
  18   0 -14    2.29    2.39   0
  19  -5   7   -0.80    1.23   0
  19  -5   7   -0.71    1.13   0
  19  -5   8    1.69    1.22   0
  19  -5   8    0.85    1.08   0
  19  -3  -6    2.47    1.79   0
  19  -1 -12    1.44    1.85   0
  20  -4   0   -1.42    1.72   0
  20  -4   1    0.97    2.40   0
  -9  19   9    1.01    2.02   0
  -9  19  10   -0.25    1.98   0
  -9  19  11    8.30    2.04   0
  -8  12   8    1.82    2.33   0
  -8  12   9   23.19    2.51   0
  -8  12  10   42.35    2.89   0
  -8  12  11    5.37    2.39   0
  -8  12  12   20.64    2.63   0
  -8  14  16   -1.09    1.79   0
  -8  14  17    9.67    1.94   0
  -8  14  18    2.97    2.31   0
  -8  16   0   -1.17    1.94   0
  -8  16  19    0.42    1.66   0
  -8  16  20    2.75    2.05   0
  -8  18  -1    0.10    2.22   0
  -8  18   0    0.92    1.68   0
  -8  20  -1    1.34    2.09   0
  -8  20   0    1.86    1.75   0
  -7   9   7    3.91    2.33   0
  -7   9   8    0.46    2.48   0
  -7   9   9   19.08    2.55   0
  -7   9  10    9.06    2.47   0
  -7   9  11    4.31    2.44   0
  -7   9  12   15.88    2.46   0
  -7  11   1   97.87    3.43   0
  -7  11  18    0.92    1.75   0
  -7  11  19   -1.57    2.37   0
  -7  13  -2    1.99    2.48   0
  -7  13  22    3.28    2.64   0
  -7  15  -4    2.26    2.35   0
  -7  15  23   -0.16    1.84   0
  -7  15  24   -0.50    2.55   0
  -7  17  -5    2.69    2.45   0
  -7  19  -5    1.78    1.78   0
  -7  21  -5    0.08    2.46   0
  -6   8   2    1.37    2.18   0
  -6   8  18    6.56    2.51   0
  -6  10  22   -0.15    1.68   0
  -6  12  25    0.99    2.36   0
  -6  14  -7   12.34    2.78   0
  -6  16  -8    0.92    2.58   0
  -5   5   7    5.60    3.11   0
  -5   5   8   -1.17    2.11   0
  -5   5   9    1.10    2.23   0
  -5   5  10   34.44    2.50   0
  -5   5  11    5.72    2.09   0
  -5   5  12    3.71    2.04   0
  -5   5  13    4.89    2.85   0
  -5   7  21   15.63    2.61   0
  -5   9  -5    5.58    2.57   0
  -5   9  25    3.26    2.04   0
  -5  11  27   -1.60    1.69   0
  -4   4   3   22.95    3.66   0
  -4   4  16    0.53    1.89   0
  -4   4  17    3.43    2.37   0
  -4   6  23    2.76    2.44   0
  -4   8  -7   23.07    2.96   0
  -4   8  26    0.32    1.78   0
  -4  10  29   -1.31    2.37   0
  -4  20 -14   -0.07    2.16   0
  -3   3  18   23.48    2.76   0
  -3   5  24    3.04    2.25   0
  -3   9  30   -2.87    1.63   0
  -3  19 -16    0.22    2.75   0
  -2   2  19   -0.21    2.58   0
  -2   4  25    5.14    2.22   0
  -2   6  28    0.77    1.51   0
  -2   8  31   -1.79    2.40   0
  -1   1  19    3.30    1.95   0
  -1   3  25    2.51    1.75   0
  -1   5  29    1.94    2.47   0
  -1   7  32   -0.74    2.15   0
   0   0  19    1.59    2.60   0
   0   4  29   -0.16    1.94   0
   0   6  32   -0.62    1.72   0
   0  16 -20    0.20    3.64   0
   1  -1  18   66.62    3.36   0
   1   1  25    4.95    2.66   0
   1   3  29   -0.27    1.94   0
   1  15 -21    1.41    2.71   0
   2   2  29    1.08    2.56   0
   2  12 -21   -0.97    2.02   0
   3  -1  -5   40.64    3.64   0
   3   1 -10   54.33    3.02   0
   3   3  32    0.08    2.51   0
   4  -2  22    2.51    2.36   0
   4   4 -16    0.77    2.90   0
   4  12 -23    0.64    1.95   0
   5   1  31    0.11    2.64   0
   6  -4   1   98.26    3.49   0
   6  -2  -7   76.51    2.95   0
   6   0  30    0.33    2.62   0
   6   4 -18   -1.69    2.30   0
   6   8 -22    1.22    2.29   0
   7  -3  -5  275.07    4.31   0
   7   5 -20    0.51    1.69   0
   8  -4  -2    2.89    2.89   0
   8  -2  -9   34.47    2.34   0
   8  -2  27   -0.05    3.27   0
   8   8 -23    1.43    2.43   0
   9  -5   2    0.72    2.53   0
   9  -3  -7    1.06    1.91   0
   9  -1 -12    2.04    2.35   0
   9   5 -21   -1.93    1.64   0
  10  -4  -4    1.67    2.58   0
  10   4 -20    1.43    2.36   0
  10   8 -24   -0.33    1.56   0
  11  -5   0    6.22    2.36   0
  11  -5  17    1.07    2.54   0
  11  -3  -8   -2.67    2.30   0
  11  -1 -13   -0.96    1.83   0
  11   9 -25    0.75    1.42   0
  12  -4  22    2.66    2.83   0
  12  -2 -11    3.98    1.85   0
  12   0 -15    1.13    1.77   0
  12   2 -18   -1.05    2.34   0
  13  -5  -1   22.30    2.20   0
  13  -5   0    0.04    2.64   0
  13  -3  -8    9.29    2.55   0
  13   1 -17    5.16    1.60   0
  13   5 -22    2.34    1.70   0
  14  -4  -5   37.85    2.26   0
  14  -2 -11    2.31    1.89   0
  14   0 -15   -0.23    1.77   0
  14   2 -18   -2.27    2.18   0
  14   6 -23   -1.73    1.66   0
  15  -5   1    3.80    2.41   0
  15  -5  16    1.97    2.59   0
  15  -3  -8   -1.54    1.83   0
  15  -1 -13    7.46    2.00   0
  16  -4  -4    1.44    1.70   0
  16  -2 -10   -2.61    2.54   0
  16   2 -18    1.86    1.63   0
  17  -5   2    0.31    1.69   0
  17  -5   3    3.00    1.67   0
  17  -5   4   -0.91    2.31   0
  17  -5   5    3.93    2.32   0
  17  -5  12   -1.66    2.50   0
  17  -5  13   -1.17    1.70   0
  17  -5  13   -0.12    1.27   0
  17  -3  -7    0.44    1.70   0
  17  -1 -12    0.99    2.21   0
  17   1 -16    3.08    1.98   0
  17   3 -19    1.21    1.66   0
  18  -4  -2    0.41    1.83   0
  18  -2  -9   -0.08    1.86   0
  18   2 -17   -0.10    1.69   0
  19  -3  -5   -1.89    1.71   0
  19  -3  -4   -0.73    2.23   0
  19  -1 -11    0.11    1.90   0
  20  -4   2    1.89    1.04   0
  20  -2  -7   -0.77    1.73   0
  -9  17   6    6.26    2.16   0
  -9  17   7    2.96    2.51   0
  -9  17   8    2.53    1.73   0
  -9  17   9   -0.47    1.81   0
  -9  17  10    9.18    1.90   0
  -9  17  11   -0.07    1.63   0
  -9  17  12   -0.32    1.69   0
  -9  17  13    0.67    1.63   0
  -9  17  14    0.88    2.38   0
  -9  17  15    0.54    2.18   0
  -9  19   5    1.79    2.28   0
  -9  19   6    2.22    2.31   0
  -9  19   7    0.78    1.83   0
  -9  19   8   -0.24    1.63   0
  -9  19  12    0.52    1.59   0
  -9  19  13   -0.20    1.60   0
  -9  19  14   -1.92    1.57   0
  -9  21   5    0.33    2.13   0
  -9  21   7    1.09    1.21   0
  -8  12   6   28.68    2.26   0
  -8  12  14   15.35    1.98   0
  -8  12  15    4.49    1.87   0
  -8  12  16    3.42    2.58   0
  -8  14   1    7.91    2.47   0
  -8  14   2   -1.94    1.65   0
  -8  14  19    1.40    1.88   0
  -8  14  20   -2.13    2.16   0
  -8  16  -1    5.28    2.20   0
  -8  16  21    0.21    1.64   0
  -8  18  -2    0.21    2.16   0
  -8  20  -2   -0.22    2.14   0
  -7   9   5   28.01    2.70   0
  -7   9   6    1.00    1.74   0
  -7   9  14    5.68    1.87   0
  -7   9  15    3.46    1.88   0
  -7   9  16    1.87    2.37   0
  -7  11   0    2.30    1.84   0
  -7  11  20    0.44    1.79   0
  -7  11  21    7.84    2.47   0
  -7  13  -3   12.52    2.79   0
  -7  13  23    3.66    1.92   0
  -7  15  25   -0.92    1.24   0
  -7  19  -6   -1.37    2.38   0
  -7  21  -6    0.24    2.11   0
  -6   8   1    3.69    2.00   0
  -6   8  19    3.31    1.70   0
  -6   8  20   -0.43    2.47   0
  -6  10  -3    8.03    2.08   0
  -6  10  23    1.80    1.73   0
  -6  10  24    0.19    2.10   0
  -6  12  -6   73.03    3.31   0
  -6  18  -9    0.20    2.41   0
  -6  20  -9   -1.28    1.62   0
  -5   5   5    5.14    3.35   0
  -5   5   6    2.62    2.36   0
  -5   5  14   -0.45    1.89   0
  -5   5  15    6.13    1.81   0
  -5   5  16   -1.75    2.24   0
  -5   7  -2   84.57    3.69   0
  -5   7  22    2.93    1.72   0
  -5   9  26    0.87    2.12   0
  -5  11  28    0.35    1.68   0
  -5  15 -11   -0.03    2.29   0
  -5  19 -12    0.30    2.19   0
  -4   4   2   15.16    4.02   0
  -4   4  18   -1.76    2.43   0
  -4   6  24   -0.62    2.30   0
  -4  10  30    2.96    2.12   0
  -4  18 -14   10.76    2.88   0
  -3   3   1   92.36    4.40   0
  -3   3  19   -0.80    1.76   0
  -3   5  25    1.64    2.24   0
  -3   7  28    2.18    1.66   0
  -3   9 -11   10.90    3.33   0
  -3   9  31   -1.62    2.50   0
  -2   2   0    4.25    5.13   0
  -2   2  20    0.04    2.54   0
  -2   6  29   -0.45    1.66   0
  -2   8  32    0.17    2.21   0
  -1   3  26    0.99    2.31   0
   0   0  20  188.89    4.75   0
   0   2  26    1.81    2.77   0
   0   4  30   -0.24    2.23   0
   0   6  33   -1.36    2.13   0
   0  10 -17    0.54    2.62   0
   1  -1  19   10.69    2.26   0
   1   3  30   -0.15    2.24   0
   1   5  33    1.00    2.07   0
   2  -2  17    0.64    2.28   0
   2   0  25    1.48    2.43   0
   2   2 -10   34.15    3.46   0
   2   4  33   -0.35    2.13   0
   2   8 -18    2.90    1.87   0
   3  -3   6   50.88    5.04   0
   3  -3  14   38.29    5.01   0
   3  -1  24   -0.12    2.65   0
   3   1  29    0.23    2.34   0
   3   9 -20    8.09    2.04   0
   3  15 -23    0.99    2.48   0
   4   0  -9    0.31    2.55   0
   4   0  28    8.02    2.59   0
   4   2 -13   28.64    2.59   0
   4   2  32    0.99    2.33   0
   5  -3  -1    0.35    3.54   0
   5  -1  -8   -1.17    2.09   0
   5  -1  27    4.59    2.77   0
   5   5 -18    1.28    2.47   0
   5   7 -20    3.03    2.31   0
   5  13 -24    0.62    1.81   0
   6  -4   2   -0.85    2.04   0
   6   2 -15   -0.58    1.98   0
   6   6 -20   -1.81    1.88   0
   6  14 -25    0.49    2.14   0
   7  -1 -10   59.07    3.12   0
   7   1 -14   31.18    2.73   0
   7   3 -17   -0.45    2.59   0
   7   9 -23    5.20    2.60   0
   8   0 -13    0.45    1.83   0
   8   4 -19   -1.03    1.57   0
   8   6 -21    5.18    2.37   0
   8  10 -24    9.57    2.44   0
   9  -5   3    0.21    2.03   0
   9  -5   4    9.39    2.89   0
   9  -5  15    2.66    2.20   0
   9  -3  -6    0.73    2.71   0
   9  -1  30    0.44    3.14   0
   9   1 -15    9.56    2.44   0
   9   3 -18    7.72    2.59   0
   9   9 -24    1.57    1.68   0
   9  11 -25   -0.40    2.20   0
  10  -4  -3   20.70    2.71   0
  10   0 -14   12.89    2.04   0
  10   2 -17   -3.09    2.60   0
  10   6 -22    0.99    1.57   0
  10  10 -25   -0.26    1.51   0
  11  -5   1   83.61    2.73   0
  11  -3  -7    5.23    2.50   0
  11   1 -16   10.38    1.89   0
  11   3 -19    6.20    1.74   0
  11   7 -23    0.52    1.70   0
  12  -4  -4   33.63    2.59   0
  12   4 -20   -0.86    2.12   0
  12   6 -22    0.74    2.29   0
  12   8 -24   -1.16    1.77   0
  13  -5   1   11.41    2.38   0
  13  -5  17    2.59    2.18   0
  13  -3  25    6.90    3.31   0
  13   1 -16    0.82    1.98   0
  13   3 -19   -0.19    1.67   0
  13   7 -23   -0.20    2.31   0
  14  -4  -4   15.80    2.00   0
  14  -2 -10   15.48    2.53   0
  14   0 -14    1.53    2.43   0
  14   4 -20    1.34    2.48   0
  14   6 -22    0.99    2.49   0
  15  -5   2    8.35    1.88   0
  15  -5   3    2.32    2.33   0
  15  -5  15    5.89    2.73   0
  15  -3  -7    2.32    1.75   0
  15  -1 -12    0.82    2.22   0
  15   1 -16   -0.46    1.65   0
  15   3 -19    3.78    1.77   0
  15   5 -21    2.27    2.14   0
  16  -4  -3    0.03    1.62   0
  16  -4  -2   16.71    2.51   0
  16  -4  20   -0.01    1.77   0
  16  -2  -9    2.71    2.42   0
  16   0 -14   -0.61    1.89   0
  16   2 -17    2.14    2.19   0
  16   4 -20   -2.52    1.63   0
  17  -5   6    1.52    1.66   0
  17  -5   7   -0.37    1.85   0
  17  -5   8    2.71    2.24   0
  17  -5   9    1.56    2.18   0
  17  -5  10    0.62    2.15   0
  17  -5  11   -1.47    1.78   0
  17  -3  -6    4.19    1.79   0
  17  -1 -11    0.48    2.23   0
  17   1 -15    0.32    2.24   0
  17   3 -18    2.38    2.26   0
  18  -4   0    1.95    2.03   0
  18  -4   1   -0.13    2.27   0
  18   0 -13    3.02    1.72   0
  18   2 -16   -0.94    2.33   0
  19  -3  -3    0.26    1.96   0
  19  -1 -10    0.80    1.91   0
  19  -1  -9   -2.34    2.44   0
  19   1 -14   -0.33    1.30   0
  20  -2  -6    2.51    1.73   0
  20  -2  -5    1.08    2.27   0
  -9  15   6   -0.12    2.02   0
  -9  15   7    1.40    2.18   0
  -9  15   8    3.79    1.60   0
  -9  15   9    0.99    1.75   0
  -9  15  10   12.35    1.84   0
  -9  15  11   -2.78    1.69   0
  -9  15  12   -1.38    1.79   0
  -9  15  13    1.52    1.74   0
  -9  15  14   -1.43    2.26   0
  -9  17   4    0.40    2.39   0
  -9  17   5    4.23    1.78   0
  -9  17  16   -0.99    1.72   0
  -9  17  17    0.04    1.67   0
  -9  19   3    4.23    2.58   0
  -9  21   3    0.90    2.32   0
  -9  21   4   -0.64    1.70   0
  -8  12   3    2.69    2.34   0
  -8  12   4    1.80    1.98   0
  -8  12  17    1.34    1.82   0
  -8  12  18    3.81    2.53   0
  -8  14   0    8.30    2.47   0
  -8  14  21    0.93    1.76   0
  -8  16  22    0.97    1.73   0
  -8  20  -3    2.57    2.20   0
  -7   9   3    6.49    2.44   0
  -7   9   4    0.70    1.94   0
  -7   9  18    2.93    2.48   0
  -7  11  -1    1.57    2.57   0
  -7  11  22    2.94    1.69   0
  -7  13  24    1.76    1.81   0
  -7  13  25    2.06    2.50   0
  -7  15  -5    4.30    1.87   0
  -7  17  -6    0.28    1.90   0
  -6   6   8   64.53    3.36   0
  -6   6   9   17.51    2.93   0
  -6   6  10   29.11    2.23   0
  -6   6  12   11.09    2.82   0
  -6   6  13   17.06    2.70   0
  -6   6  14    2.81    2.29   0
  -6   8   0   24.93    3.08   0
  -6   8  21    0.45    1.78   0
  -6  10  -4   41.74    2.80   0
  -6  10  25   -1.40    2.32   0
  -6  12  27    1.89    1.67   0
  -6  14  -8   17.31    2.35   0
  -6  16  -9    4.05    2.36   0
  -5   5   4    1.28    2.44   0
  -5   5  17    3.32    1.88   0
  -5   7  23    1.50    1.65   0
  -5  13 -10   12.49    2.34   0
  -5  21 -12   -0.60    2.16   0
  -4   4  19    2.77    1.77   0
  -4   6  -4    1.16    3.00   0
  -4   6  25    2.31    2.18   0
  -4   8  28    0.32    1.78   0
  -3   3  20   12.82    1.98   0
  -3   5  -5    4.21    3.15   0
  -3   5  26   -0.78    2.04   0
  -2   2  21    5.31    2.63   0
  -2   4  26    0.24    1.73   0
  -2   6  30    0.72    2.32   0
  -1   1  21   15.22    2.77   0
  -1   5  30    0.68    1.94   0
  -1   7  33    0.21    2.39   0
   0   4 -10    0.24    3.55   0
   0   6 -13    5.06    2.55   0
   1   1  26    8.64    2.75   0
   1  11 -19   -0.01    2.12   0
   1  13 -20    0.54    2.75   0
   2   2  30    3.82    2.76   0
   3   3 -13   12.14    3.18   0
   3   3  33   -1.38    2.35   0
   3  11 -21    0.67    2.38   0
   4  -2  -3  102.76    4.00   0
   4   6 -18    1.68    2.20   0
   4  16 -24   -0.27    1.64   0
   4  16 -24   -0.07    0.94   0
   5   1 -12   88.85    3.05   0
   6  -4   3   34.29    3.30   0
   6  -2  -6   36.43    2.73   0
   6   0 -11   -0.44    2.11   0
   7  -3  -4  304.48    4.49   0
   7  -1  29    0.02    2.55   0
   7   5 -19   31.48    2.86   0
   7   7 -21    8.30    2.35   0
   7  11 -24    0.89    2.16   0
   7  13 -25    0.02    2.02   0
   8  -4  -1   69.96    2.79   0
   8  -2  -8    2.42    2.06   0
   8   2 -16    2.29    1.62   0
   8  12 -25   -1.28    1.69   0
   8  12 -25    0.61    1.13   0
   9  -5  14    8.44    2.38   0
   9  -1 -11    4.47    1.84   0
   9   5 -20    4.03    2.30   0
   9   7 -22   -2.43    1.96   0
  10  -4  21    1.28    2.74   0
  10  -2  -9    1.44    1.83   0
  10   8 -23    0.33    2.23   0
  11  -5   2    1.93    1.85   0
  11  -5   3   33.82    2.94   0
  11  -5  16    2.75    2.41   0
  11   3 -18    2.05    2.37   0
  11   9 -24   -2.29    1.66   0
  12  -4  -3   33.35    2.67   0
  12   0 -14    7.49    1.88   0
  12   2 -17   -1.85    1.60   0
  12  10 -25   -0.18    1.29   0
  13  -5   2    4.34    1.87   0
  13  -5   3    0.03    2.40   0
  13  -5  16    0.23    2.18   0
  13  -3  -7   16.86    1.99   0
  13  -1 -12    4.37    1.86   0
  13   5 -21    1.40    1.72   0
  13   9 -24   -0.07    2.36   0
  14  -4  -3    6.75    1.89   0
  14  -4  21   -0.61    2.13   0
  14  -2  -9    2.32    2.49   0
  14   2 -17    0.03    1.68   0
  15  -5   5    3.49    2.27   0
  15  -5   6   -1.64    2.23   0
  15  -5  13   -1.51    2.63   0
  15  -5  14    2.33    2.28   0
  15  -3  -6   -0.44    1.79   0
  15  -1 -11    0.07    2.57   0
  15   1 -15    2.28    2.19   0
  16  -4  -1    0.72    2.35   0
  16  -4  19    0.59    2.60   0
  16  -2  -8    2.76    2.59   0
  16   0 -13    1.86    1.93   0
  16   4 -19   -1.11    2.01   0
  17  -3  -5   10.74    1.77   0
  17  -3  -4    0.16    2.36   0
  17  -1 -10    2.01    2.57   0
  17   1 -14   -0.19    2.45   0
  18  -4   2    1.90    1.81   0
  18  -4   3    1.25    2.35   0
  18  -2  -7    4.12    1.81   0
  18   0 -12   -1.43    1.72   0
  19  -3  -2   -0.86    1.80   0
  19  -3  -1    0.54    2.38   0
  19   1 -13    1.93    1.79   0
  20  -2  -4   -0.47    1.65   0
  -9  13   9   -0.65    2.13   0
  -9  13  10    4.23    2.35   0
  -9  13  11   -0.13    2.40   0
  -9  13  13    1.03    2.17   0
  -9  15   4    1.36    2.53   0
  -9  15   5    3.80    1.60   0
  -9  15  16   -0.45    1.85   0
  -9  15  17   -1.40    1.88   0
  -9  15  18   -1.30    2.47   0
  -9  17   2    1.22    2.34   0
  -9  17   3    1.46    1.76   0
  -9  17  19   -0.29    1.80   0
  -9  19   1   -0.03    1.91   0
  -9  19   2    1.22    1.79   0
  -9  21   1    0.50    1.99   0
  -9  21   2    0.89    1.84   0
  -8  10   8    2.37    2.43   0
  -8  10   9   -1.91    1.85   0
  -8  10  10   19.74    2.07   0
  -8  10  11   17.35    2.00   0
  -8  10  12   55.57    2.37   0
  -8  10  13   -0.13    1.76   0
  -8  10  14   -0.14    2.31   0
  -8  12   2   40.00    2.74   0
  -8  12  19    1.69    1.85   0
  -8  12  20    0.01    1.72   0
  -8  14  -1    0.96    2.43   0
  -8  14  22   -0.78    1.90   0
  -8  14  23   -0.21    2.42   0
  -8  18  -3    1.01    1.91   0
  -8  20  -4    1.46    2.07   0
  -7   9   2    2.29    2.62   0
  -7   9  19   12.43    1.93   0
  -7   9  20   -1.70    2.38   0
  -7  11  -2   -0.57    2.86   0
  -7  11  23    1.54    1.62   0
  -7  11  24    1.10    2.06   0
  -7  13  -4   19.77    2.07   0
  -7  13  26    2.89    2.43   0
  -7  17  -7   -0.49    2.27   0
  -7  19  -7    2.08    2.60   0
  -7  21  -7    1.31    2.69   0
  -6   6   6    1.32    2.95   0
  -6   6   7   31.94    2.44   0
  -6   6  15   -0.21    1.79   0
  -6   6  16    1.80    2.33   0
  -6   8  -1    2.46    2.74   0
  -6   8  22    0.21    1.63   0
  -6   8  23    0.25    2.09   0
  -6  10  26    0.41    2.37   0
  -6  12  28   -1.52    1.48   0
  -6  18 -10   -0.77    1.98   0
  -6  20 -10   -0.39    2.19   0
  -5   5   3   14.02    2.61   0
  -5   5  18   -1.26    1.75   0
  -5   5  19    1.21    2.64   0
  -5   7  24    0.27    1.71   0
  -5   9  -6   19.59    2.02   0
  -5   9  28    3.83    2.11   0
  -5  11  30   -1.69    1.09   0
  -5  11  30   -0.72    1.05   0
  -5  17 -12    2.49    2.00   0
  -4   4   1   30.97    3.91   0
  -4   4  20   -1.11    1.66   0
  -4   6  26    0.74    2.07   0
  -4   8  29   -1.30    2.33   0
  -4  10 -10    0.14    2.51   0
  -4  10  31    1.18    1.67   0
  -4  14 -13    2.01    2.59   0
  -3   3   0  189.52    6.28   0
  -3   3  21   21.09    2.15   0
  -3   7  30   -0.39    2.57   0
  -3   9  32    1.73    1.74   0
  -3  11 -13    0.13    2.62   0
  -3  17 -16   -0.12    2.52   0
  -2   2  22    1.71    2.28   0
  -2   4  27   -2.99    2.35   0
  -2  20 -18    0.29    3.71   0
  -1   3  27    0.18    1.77   0
  -1   5  31   -0.10    2.52   0
   0   0  21   -1.27    2.70   0
   0   2  -6   43.27    6.40   0
   0   2  27    0.60    2.63   0
   0   4  31    1.90    2.44   0
   1  -1  20   15.84    2.55   0
   1   3  31   -3.05    2.25   0
   1   5 -13   15.60    2.79   0
   1   5  34    0.74    2.33   0
   2  -2  18   27.87    2.97   0
   2   0  -5    3.70    4.67   0
   2   0  26   -1.68    2.17   0
   3  -3   7    1.65    3.62   0
   3  -1  -4  140.20    4.83   0
   3   1  -9    2.07    3.38   0
   3  13 -22    1.85    2.01   0
   4  -2  23    0.46    2.74   0
   5  -1  -7  166.87    4.60   0
   5   1  32   -0.06    2.69   0
   6  -4   4   80.97    3.71   0
   6  -4  16    7.59    3.53   0
   6   2 -14    0.72    2.68   0
   6   4 -17   28.95    2.19   0
   6   8 -21   -1.15    2.34   0
   7  -3  -3   21.11    3.37   0
   7  -1  -9   -0.15    2.90   0
   7   1 -13   18.92    2.86   0
   8  -2  -7    3.53    3.04   0
   8   0 -12   19.52    2.14   0
   8   4 -18    1.99    2.35   0
   8   8 -22    0.03    2.28   0
   9  -5   6    0.38    1.89   0
   9  -5   7    5.56    2.77   0
   9  -5   8   -0.89    2.65   0
   9  -5  12    0.98    2.21   0
   9  -5  13   21.58    2.59   0
   9  -3  -5    3.93    1.99   0
   9   3 -17    0.68    2.53   0
   9   9 -23   -0.50    2.26   0
  10  -4  -2   11.55    2.09   0
  10  -2  -8   -1.04    2.61   0
  10   0 -13   -0.35    1.65   0
  10   2 -16   -0.29    2.66   0
  10   6 -21    1.39    1.71   0
  10  10 -24   -0.84    2.08   0
  11  -5   4   30.58    2.34   0
  11  -5   5    1.54    2.64   0
  11  -5  15    8.85    2.54   0
  11  -3  -6   19.05    1.98   0
  11  -1 -11   17.72    2.00   0
  11   1 -15    0.02    1.73   0
  11   5 -20    3.67    2.32   0
  11   7 -22   -0.85    1.95   0
  11  11 -25    0.54    0.85   0
  11  11 -25    1.01    0.92   0
  12  -4  -2  101.19    3.15   0
  12  -4  21   -0.26    2.50   0
  12   0 -13   -0.92    2.25   0
  12   4 -19    0.35    2.25   0
  12   6 -21   -1.12    2.28   0
  12   8 -23    0.27    1.87   0
  13  -5   4    0.09    1.76   0
  13  -5   5    2.23    2.48   0
  13  -5  14   -0.82    2.41   0
  13  -5  15    1.95    2.26   0
  13  -3  -6    2.02    2.01   0
  13  -1 -11    5.14    1.82   0
  13   1 -15    0.48    1.93   0
  13   3 -18    0.94    1.70   0
  13   5 -20   -1.22    2.38   0
  13   7 -22   -1.05    2.25   0
  14  -4  -2    3.05    1.93   0
  14  -2  -8   -0.44    2.49   0
  14   0 -13    0.06    1.77   0
  14   2 -16    0.43    2.42   0
  14   4 -19    2.80    1.81   0
  14   6 -21    1.61    2.37   0
  14   8 -23   -0.26    1.83   0
  15  -5   7    0.82    1.80   0
  15  -5   8    1.82    2.30   0
  15  -5   9    2.02    2.33   0
  15  -5  10    1.12    2.41   0
  15  -5  11    9.65    2.53   0
  15  -5  12    0.97    1.85   0
  15  -3  -5    8.26    1.80   0
  15   5 -20    1.29    1.66   0
  15   7 -22   -0.75    1.58   0
  16  -4   0    1.22    1.91   0
  16  -4  18    0.56    2.49   0
  16  -2  -7   -0.77    2.45   0
  16   0 -12   15.83    2.57   0
  16   2 -16    0.37    1.88   0
  18  -4   4   -0.67    1.91   0
  18  -4   5   -2.35    2.25   0
  18  -4   6    2.30    2.42   0
  18  -4   7    1.60    2.24   0
  18  -4  12    0.97    2.25   0
  18  -4  13    0.20    2.01   0
  18  -4  13    0.40    1.07   0
  18  -4  14   -0.24    2.11   0
  18  -2  -6    1.90    1.76   0
  18   0 -11   -1.22    1.78   0
  19  -3   0    1.21    1.76   0
  19  -3   1    1.14    2.51   0
  19  -1  -7    1.34    2.41   0
  19   1 -12   -0.49    1.76   0
  20  -2  -3    2.22    1.74   0
  20  -2  -2    2.93    1.92   0
  20  -2  -2   -0.43    1.08   0
 -10  18   8   -0.76    2.00   0
 -10  18   9   -1.45    2.08   0
 -10  18  10   -2.34    2.18   0
 -10  18  11    0.32    2.20   0
 -10  18  12    0.19    2.17   0
 -10  18  13   -0.33    2.21   0
 -10  18  14   -0.96    2.00   0
 -10  18  15    0.84    2.15   0
 -10  20   7    1.83    2.03   0
 -10  20   8    0.18    2.19   0
  -9  13  14    0.14    1.78   0
  -9  13  15   -0.43    1.80   0
  -9  13  17    2.38    2.43   0
  -9  15   2    0.84    2.10   0
  -9  15   3   -0.80    1.74   0
  -9  15  19   -0.84    1.65   0
  -9  15  20   -1.60    1.54   0
  -9  17   1    1.21    2.09   0
  -9  19   0    0.81    2.34   0
  -9  21   0   -0.64    2.45   0
  -8  10   5    1.80    2.57   0
  -8  10  17   -1.56    1.78   0
  -8  10  18   -2.03    2.17   0
  -8  12  22   -0.25    2.62   0
  -8  14  -2   -1.43    2.72   0
  -8  14  24    1.08    1.74   0
  -8  14  25   -1.64    2.15   0
  -8  16  -3    0.97    1.77   0
  -7   7   9   -1.50    2.46   0
  -7   7  10    0.42    2.55   0
  -7   7  11    1.14    2.57   0
  -7   7  12   -0.84    2.53   0
  -7   7  13   -0.56    2.46   0
  -7   7  14    0.63    2.34   0
  -7   9   1   64.18    3.28   0
  -7   9  21    4.07    1.74   0
  -7  11  25    1.08    2.34   0
  -7  13  -5   43.20    2.90   0
  -7  13  27   -1.59    1.10   0
  -7  13  27   -0.45    1.12   0
  -6   6   4   21.99    3.01   0
  -6   6   5   19.88    2.39   0
  -6   6  17    2.67    1.62   0
  -6   6  18    0.02    2.41   0
  -6  10  27    2.00    1.74   0
  -6  12  -7   -0.11    2.36   0
  -5   5   2   34.69    3.53   0
  -5   5  20    2.16    1.94   0
  -5   7  -3  102.67    3.37   0
  -5   7  25    0.38    1.76   0
  -5   9  29   -0.63    2.08   0
  -4   8  30   -1.01    2.22   0
  -3   5  27   -1.54    1.72   0
  -3   7  31    0.13    2.07   0
  -2   4  28    0.43    2.15   0
  -2   6  31   -1.47    1.69   0
  -1   1  22   -0.19    1.85   0
  -1   3  28   -0.88    2.54   0
   0   0  22    0.02    2.65   0
   0   8 -15   26.61    3.35   0
   1   1  27   -1.17    2.75   0
   2  -2   3  153.02    8.11   0
   2   2  31   -0.93    2.40   0
   2   4  34    0.34    0.97   0
   2   4  34   -0.62    1.25   0
   2  16 -22   -0.32    2.57   0
   3  -3  15   19.37    4.38   0
   3  -1  25    0.42    2.45   0
   3   1  30   -1.77    2.47   0
   3  17 -23   -0.28    2.25   0
   4  -2  -2   10.56    4.26   0
   4   0  -8   -0.04    2.35   0
   4   0  29    0.30    2.36   0
   4   2 -12   45.62    2.90   0
   4   2  33   -0.72    2.48   0
   4   4 -15   12.28    3.05   0
   4  12 -22    0.82    2.14   0
   5   1 -11    6.42    3.17   0
   5   5 -17   -0.91    2.72   0
   5  15 -24    0.37    2.12   0
   6  -2  -5    2.82    2.45   0
   6  -2  26    0.26    3.07   0
   6   0 -10   31.86    3.11   0
   6   0  31    0.14    2.54   0
   6   6 -19   -1.27    1.82   0
   7   9 -22   -3.72    2.33   0
   8  -4   1  144.16    4.07   0
   8  10 -23   -1.19    2.40   0
   8  14 -25   -1.33    2.13   0
   9  -5   9   -0.47    2.09   0
   9  -5  11   -0.24    2.05   0
   9  -3  -4   66.22    3.41   0
   9   7 -21   -0.31    2.05   0
   9  11 -24   -0.23    2.09   0
   9  13 -25   -0.61    2.19   0
  10  -4  -1   80.53    2.66   0
  10   0 -12   -2.48    2.38   0
  10  12 -25    0.50    0.85   0
  10  12 -25   -0.31    0.90   0
  11  -5   6   -0.12    2.39   0
  11  -5   7    3.72    2.62   0
  11  -5  13    1.75    2.68   0
  11  -5  14    0.72    2.45   0
  11  -3  -5    0.61    1.77   0
  11   1 -14    0.61    2.44   0
  12   2 -16    0.67    1.64   0
  12  10 -24   -1.54    1.23   0
  12  10 -24    0.52    1.20   0
  13  -5   6   -2.10    1.81   0
  13  -5   7   -1.64    2.20   0
  13  -5  10   -0.68    2.75   0
  13  -5  11   -0.17    2.73   0
  13  -5  12    0.32    2.55   0
  13  -5  13   -3.98    2.44   0
  13  -1 -10   -0.67    2.36   0
  13   1 -14    0.98    2.42   0
  13   3 -17   -0.54    2.20   0
  13   9 -23   -0.43    2.46   0
  14  -4  20   -0.66    2.00   0
  14   0 -12   -3.19    2.66   0
  15  -3  -4    1.50    1.72   0
  15  -1 -10   -0.16    1.90   0
  15   1 -14    0.85    1.79   0
  15   3 -17   -1.27    1.71   0
  15   5 -19   -1.10    2.30   0
  15   7 -21   -1.48    2.35   0
  16  -4   2    0.83    2.25   0
  16  -4  17    0.29    2.59   0
  16  -2  -6    0.09    2.37   0
  16   0 -11    1.80    2.69   0
  16   2 -15   -0.59    1.95   0
  16   4 -18   -0.58    1.66   0
  16   6 -20   -0.28    1.60   0
  17  -1  -8    1.08    2.48   0
  17   1 -13   -2.63    1.84   0
  17   3 -16   -0.78    1.76   0
  18  -4   8   -1.17    1.79   0
  18  -4   9   -2.52    1.84   0
  18  -4  10    0.80    1.73   0
  18  -4  11   -0.50    1.67   0
  18  -2  -4    2.27    2.47   0
  18   0 -10    1.83    1.83   0
  18   2 -14   -2.57    1.91   0
  19  -3   2   -0.56    1.80   0
  19  -3   3   -1.17    2.48   0
  19  -1  -6   -0.48    2.14   0
  19   1 -11    0.95    1.85   0
  20  -2   0    0.69    2.29   0
  20   0  -8   -3.48    1.68   0
  20   0  -7   -4.62    2.52   0
 -10  16   8   -1.02    2.30   0
 -10  16   9    0.39    2.42   0
 -10  16  10   -0.64    1.81   0
 -10  16  11   -0.21    1.77   0
 -10  16  12    0.25    1.68   0
 -10  16  13    0.18    1.64   0
 -10  16  14   -0.52    1.67   0
 -10  16  15    2.23    2.47   0
 -10  16  16   -0.62    2.16   0
 -10  18   5   -0.14    2.04   0
 -10  18   6    2.48    2.30   0
 -10  20   5   -0.94    2.45   0
 -10  20   6   -0.74    1.69   0
  -9  13   4   -0.75    2.57   0
  -9  13   5    0.23    1.86   0
  -9  13  18   -0.80    1.87   0
  -9  13  19    0.81    1.83   0
  -9  13  20   -0.38    2.15   0
  -9  15  22    2.24    1.74   0
  -9  17   0   -1.02    1.70   0
  -9  19  -1   -1.01    2.46   0
  -9  21  -1   -0.69    1.99   0
  -9  21  -1    0.04    1.11   0
  -8  10   4   46.31    2.27   0
  -8  10  19    0.45    1.74   0
  -8  10  20   -3.02    2.51   0
  -8  12   0  102.54    2.96   0
  -8  16  -4   -1.03    2.66   0
  -8  18  -5    1.78    2.66   0
  -8  20  -5   -0.31    2.15   0
  -8  20  -5    0.32    1.16   0
  -7   7   7    0.27    2.79   0
  -7   7   8    2.50    1.95   0
  -7   7  17    2.03    2.47   0
  -7   9  22   -1.00    1.71   0
  -7   9  23    3.15    2.42   0
  -7  11  -3    0.69    2.66   0
  -7  11  26   -2.32    1.70   0
  -7  15  -7    1.14    2.23   0
  -7  19  -8   -1.30    1.86   0
  -7  21  -8    1.31    1.77   0
  -6   6   3   18.97    2.99   0
  -6   6  19    1.24    1.81   0
  -6   6  20    1.13    2.50   0
  -6   8  -2    7.73    3.14   0
  -6   8  25   -1.72    2.26   0
  -6  10  -5   -2.28    2.69   0
  -6  10  28    0.87    1.76   0
  -6  14  -9   10.34    2.48   0
  -6  16 -10    5.43    2.26   0
  -6  20 -11    1.54    2.46   0
  -5   5  21   -1.29    1.87   0
  -5   5  22   10.16    2.32   0
  -5   7  26   -0.59    1.60   0
  -5   9  30    1.66    2.11   0
  -5  11  -9    8.11    2.12   0
  -5  19 -13    0.70    2.27   0
  -5  21 -13    0.61    1.76   0
  -4   4   0  216.24    5.54   0
  -4   4  23   -1.20    2.36   0
  -4   6  27   -1.16    1.74   0
  -4   8  -8    0.15    2.81   0
  -4   8  31    2.39    2.22   0
  -4  12 -12   37.17    3.50   0
  -4  20 -15    0.03    2.74   0
  -3   5  28   -0.49    1.54   0
  -2   2  23    1.03    1.87   0
  -2   6  32   -0.15    2.42   0
  -1   1  23    1.32    2.74   0
   0   2  28    1.04    1.94   0
   0   4  32    2.26    2.53   0
   1  -1  21    2.07    2.17   0
   1   3  32   -0.41    2.31   0
   2  -2  19    7.68    2.52   0
   2  10 -19   -0.81    1.82   0
   3   3  34   -1.43    2.29   0
   3   3  34   -0.34    1.26   0
   3   5 -15    1.74    2.26   0
   3   9 -19    7.52    2.35   0
   5  -3   1  101.43    4.47   0
   5  -3  21   16.47    4.27   0
   5  -1  28    1.03    2.57   0
   5   7 -19    1.56    1.94   0
   5  13 -23   -0.59    2.21   0
   6  -4   5  188.78    4.38   0
   6  10 -22   -0.43    2.21   0
   6  12 -23    1.32    2.20   0
   7  -3  -2  109.52    3.30   0
   7  -1  -8    5.74    3.05   0
   7   5 -18    2.54    2.25   0
   7   7 -20    0.27    2.33   0
   7  11 -23   -0.20    2.34   0
   7  13 -24   -0.30    2.41   0
   8  -4   2  103.33    3.94   0
   8  -2  -6   56.06    3.47   0
   8   0 -11    0.71    1.96   0
   8  12 -24    0.01    1.88   0
   9  -1  -9    2.05    2.73   0
   9   1 -13    7.29    2.51   0
   9   5 -19   -1.47    1.55   0
  10  -2  -7    1.05    1.89   0
  10   6 -20    1.60    2.40   0
  10   8 -22   -1.03    1.72   0
  11  -5   8    0.29    1.76   0
  11  -5   9    1.92    2.38   0
  11  -5  10    2.39    2.47   0
  11  -5  11   -1.09    2.48   0
  11  -5  12    0.40    2.27   0
  11   5 -19    0.83    2.26   0
  11   7 -21    2.41    2.42   0
  11  11 -24   -0.12    1.57   0
  12  -4   0   -0.09    1.94   0
  12  -2  -7    2.45    2.56   0
  12   0 -12   -0.48    2.12   0
  12   2 -15    3.36    2.47   0
  12   4 -18   -0.52    2.09   0
  12   6 -20   -2.57    2.22   0
  12   8 -22   -1.86    2.14   0
  13  -3  24    1.90    2.76   0
  13   7 -21   -0.20    2.26   0
  14  -4   1    2.22    1.84   0
  14   2 -15    0.79    1.83   0
  14   4 -18    0.21    1.58   0
  14   6 -20    0.61    2.04   0
  14   8 -22    1.59    1.87   0
  15  -1  -9    2.41    1.82   0
  15   3 -16    1.33    2.30   0
  16  -4   3   -0.48    1.84   0
  16  -4   4   -1.86    2.21   0
  16  -4   5   -0.08    2.32   0
  16  -4  15    5.51    2.67   0
  16  -4  16   -0.48    2.11   0
  16  -2  -5   -0.74    2.41   0
  16   2 -14    2.18    2.67   0
  16   4 -17    0.87    2.13   0
  17  -3  -1    0.51    1.71   0
  17  -3   0   -2.67    2.41   0
  17  -1  -7    3.63    2.29   0
  17   1 -12   -0.69    1.81   0
  17   3 -15    1.12    2.37   0
  17   5 -18    2.83    1.65   0
  18   0  -9   -3.69    1.91   0
  18   2 -13   -0.11    1.68   0
  18   4 -16    1.50    1.79   0
  19  -3   4   -1.01    1.78   0
  19  -3   5   -0.14    2.15   0
  19  -3   6    0.61    2.57   0
  19  -1  -5   -2.13    1.71   0
  19   1 -10   -0.15    1.83   0
  20  -2   1   -1.95    1.09   0
  20  -2   1    0.84    1.37   0
  20  -2   2    2.67    2.46   0
  20   0  -6   -0.81    2.25   0
 -10  14   9   -1.41    2.02   0
 -10  14  10   -0.59    2.23   0
 -10  14  11    2.93    2.33   0
 -10  14  12    0.20    2.34   0
 -10  14  13    0.99    2.30   0
 -10  14  14    1.75    2.22   0
 -10  16   5   -1.04    2.10   0
 -10  16   6    5.98    1.86   0
 -10  16   7    5.73    1.80   0
 -10  16  18    0.81    2.01   0
 -10  16  19    0.91    2.52   0
 -10  18   3    1.09    2.34   0
 -10  18   4    1.64    1.71   0
 -10  20   3    3.12    2.42   0
 -10  20   4   -0.40    1.76   0
  -9  11   7   92.40    3.26   0
  -9  11   8   67.80    2.90   0
  -9  11   9    1.19    1.76   0
  -9  11  10   23.32    2.07   0
  -9  11  11    2.79    1.83   0
  -9  11  12    6.67    1.76   0
  -9  11  13    6.44    1.73   0
  -9  11  14    0.64    1.67   0
  -9  11  15   13.96    2.03   0
  -9  11  16    5.34    1.90   0
  -9  11  17    2.96    2.56   0
  -9  13   3   -0.10    1.81   0
  -9  13  21   -0.53    1.69   0
  -9  13  22   -1.00    2.35   0
  -9  15   0   -0.21    2.24   0
  -9  17  -1   10.36    1.97   0
  -9  19  -2   -0.76    2.43   0
  -9  21  -2   -0.17    2.08   0
  -9  21  -2   -0.91    1.21   0
  -8   8  11    6.35    2.42   0
  -8   8  12   -1.75    2.49   0
  -8   8  13    0.94    2.37   0
  -8  10   3   28.60    2.11   0
  -8  10  21    0.58    1.88   0
  -8  10  22   -1.63    2.07   0
  -8  12  -1    0.39    2.57   0
  -8  12  25   -1.86    2.51   0
  -8  14  -3    4.68    1.90   0
  -8  20  -6    1.07    2.18   0
  -7   7   5    9.38    2.78   0
  -7   7   6   19.50    2.15   0
  -7   7  18    0.28    1.80   0
  -7   7  19   -1.05    2.27   0
  -7   9   0   12.29    2.12   0
  -7   9  24    1.33    1.78   0
  -7  11  27    0.30    1.61   0
  -7  17  -8   -0.28    2.57   0
  -6   6  21    0.10    1.70   0
  -6   8  26    1.53    1.65   0
  -6  10  29    0.48    1.64   0
  -6  18 -11    2.26    2.28   0
  -5   5   1   14.66    2.65   0
  -5   5  23   -3.52    2.41   0
  -5   7  -4    5.47    2.53   0
  -5   7  27    3.98    1.81   0
  -5   9  -7    6.49    2.35   0
  -5  15 -12    0.64    2.13   0
  -4   2  11  269.14    4.91   0
  -4   2  12   46.63    3.56   0
  -4   2  13   28.41    3.10   0
  -4   6  -5    4.38    2.94   0
  -4   6  28   -0.12    1.75   0
  -3   1  10   55.53    3.93   0
  -3   1  11   14.65    3.26   0
  -3   1  12  107.16    4.10   0
  -3   1  13   23.08    3.36   0
  -3   3  24   -0.24    1.69   0
  -3   5  29   -2.43    2.15   0
  -3   7  32   -0.91    1.87   0
  -2   2  -1   58.62    6.01   0
  -2   2  24    0.17    1.86   0
  -2   4  -6  147.37    9.44   0
  -2   4  29    0.52    1.86   0
  -1   1  24    2.50    2.64   0
  -1   3  29   -1.30    1.95   0
  -1   5  33   -1.88    2.06   0
   0   0  23    0.78    2.46   0
   0   2  29    2.85    2.47   0
   0  12 -18    1.03    2.66   0
   0  14 -19    0.81    2.62   0
   1   1  28    0.15    2.63   0
   1   7 -15   51.37    3.19   0
   1   9 -17    0.61    1.98   0
   1  17 -21   -0.24    2.97   0
   2   0  27    0.82    2.39   0
   2   2  -9   70.17    4.14   0
   2   2  32    0.89    2.16   0
   2  12 -20    0.31    2.39   0
   2  14 -21    0.86    2.24   0
   3  -1  26    2.11    2.82   0
   3   1  31   -1.49    2.04   0
   3   3 -12   12.20    2.99   0
   4  -2  24    0.91    3.04   0
   4   6 -17    0.63    1.77   0
   5  -1  -6   33.12    3.04   0
   6  -4   6   20.63    2.92   0
   6  -2  -4    0.87    2.56   0
   6   2 -13   26.45    2.15   0
   6   4 -16   13.20    1.96   0
   6   8 -20   -1.47    2.27   0
   7   1 -12   48.98    2.41   0
   7   3 -15   13.85    2.71   0
   8  -4   3   63.09    3.57   0
   8  -4  19    1.44    2.66   0
   8   2 -14   14.73    2.55   0
   8   4 -17    0.31    1.72   0
   8   6 -19    0.94    2.41   0
   8   8 -21    1.85    2.07   0
   9  -3  -3   -0.52    1.96   0
   9   3 -16    0.33    1.87   0
   9   9 -22   -0.04    2.15   0
  10  -4  20   -0.19    2.39   0
  10   0 -11    2.57    2.28   0
  10  10 -23    2.96    1.48   0
  11  -1  -9   28.97    2.47   0
  11   1 -13    0.19    2.25   0
  11   3 -16    3.24    2.61   0
  12  -4   1    7.09    1.86   0
  12  -4  20   10.73    2.39   0
  12   0 -11    0.40    2.40   0
  12  10 -23   -0.65    2.24   0
  13  -3  -3   15.49    2.03   0
  13  -1  -9   17.96    1.99   0
  13   1 -13   13.10    2.00   0
  13   3 -16    3.71    1.99   0
  14  -4   2    1.19    1.84   0
  14  -4   3    4.36    2.38   0
  14  -4  18    0.98    2.33   0
  14  -2  -6   20.04    2.15   0
  14   0 -11   -2.38    1.72   0
  14   2 -14    1.73    2.51   0
  14   4 -17   -0.23    2.28   0
  15  -3  -2    2.76    1.85   0
  15  -3  -1    3.78    2.51   0
  15  -3  22    0.25    2.44   0
  15   1 -12    4.38    2.46   0
  15   5 -18   -0.82    2.13   0
  15   7 -20    0.03    2.37   0
  16  -4   6   -0.21    1.52   0
  16  -4   8   10.14    2.53   0
  16  -4   9    1.39    2.68   0
  16  -4  10    2.54    2.54   0
  16  -4  11    1.16    2.47   0
  16  -4  12    0.21    2.43   0
  16  -4  13    0.99    2.47   0
  16  -4  14    1.89    2.24   0
  16  -2  -4    5.09    2.25   0
  16   0 -10    1.83    1.84   0
  16   6 -19    2.44    1.60   0
  17  -3   1    4.31    1.84   0
  17  -3   2    1.64    2.41   0
  17  -1  -6    2.19    2.30   0
  17   1 -11   -1.05    1.83   0
  17   5 -17   -2.52    2.08   0
  18  -2  -2    0.96    1.81   0
  18  -2  -1   -0.99    2.53   0
  18   0  -8   12.08    2.25   0
  18   2 -12    0.89    1.71   0
  18   4 -15    2.24    2.18   0
  19  -3   7    0.79    1.26   0
  19  -3   7   -0.37    1.22   0
  19  -3   8    1.02    1.80   0
  19  -3   9    0.82    1.24   0
  19  -3   9    0.84    1.19   0
  19  -3  10    0.24    1.16   0
  19  -3  10   -0.98    1.15   0
  19  -1  -3   -0.38    2.28   0
  19   1  -9    0.81    1.93   0
  19   3 -13    1.51    1.88   0
  20  -2   3    0.53    1.01   0
  20  -2   3   -0.04    1.16   0
  20  -2   4    2.24    2.59   0
 -10  14   7    5.79    2.40   0
 -10  14   8   14.15    1.85   0
 -10  14  17    1.26    1.71   0
 -10  14  18    1.09    2.43   0
 -10  14  19    2.37    2.06   0
 -10  16   3   -2.15    2.10   0
 -10  16   4   -1.40    1.74   0
 -10  16  20    2.19    1.75   0
 -10  18   2    1.03    2.45   0
 -10  20   1    2.77    2.15   0
 -10  20   2    0.78    1.82   0
  -9  11   5   33.29    2.99   0
  -9  11   6   10.18    2.07   0
  -9  11  18    1.52    1.87   0
  -9  11  19   -0.66    1.74   0
  -9  11  20   -0.30    2.27   0
  -9  13   2   45.97    2.36   0
  -9  13  23   -2.46    1.79   0
  -9  15  -1    4.62    2.28   0
  -9  17  -2   -1.45    1.91   0
  -9  19  -3    0.85    2.40   0
  -9  21  -3    1.93    2.28   0
  -8   8   8   10.77    2.61   0
  -8   8   9   -0.84    1.68   0
  -8   8  10   14.22    1.86   0
  -8   8  14    2.99    1.92   0
  -8   8  15   22.05    2.07   0
  -8   8  16    1.99    1.79   0
  -8   8  17    4.53    2.47   0
  -8  10   2    8.98    1.89   0
  -8  10  23   -1.52    1.72   0
  -8  12  -2   92.53    3.29   0
  -8  12  26   -0.89    1.71   0
  -8  14  -4   -1.85    2.36   0
  -8  16  -5    0.55    1.77   0
  -8  18  -6    0.48    2.59   0
  -7   7   4   42.86    3.01   0
  -7   7  20   -0.17    1.68   0
  -7   7  21    6.41    2.46   0
  -7   9  -1   -1.72    2.71   0
  -7   9  25   -0.78    1.67   0
  -7   9  26   -0.35    2.14   0
  -7  11  -4    0.12    2.61   0
  -7  11  28   -0.58    1.55   0
  -7  11  29    1.08    2.13   0
  -7  13  -6    4.08    1.87   0
  -7  19  -9    0.67    2.27   0
  -7  21  -9   -0.25    2.05   0
  -7  21  -9    0.08    1.20   0
  -6   6   2   34.89    2.54   0
  -6   6  23    1.44    2.41   0
  -6   8  -3    3.00    2.86   0
  -6   8  27    1.36    1.71   0
  -6  10  -6   42.04    2.78   0
  -6  10  30    0.41    1.58   0
  -6  12  -8    6.86    2.30   0
  -5   3  10  237.82    4.73   0
  -5   3  12  103.89    3.72   0
  -5   3  13   35.77    3.12   0
  -5   3  14  129.71    3.73   0
  -5   5  24    0.95    2.27   0
  -5   7  28   -0.05    1.71   0
  -5   9  31    0.73    1.72   0
  -5  13 -11   15.08    2.44   0
  -5  17 -13   -0.02    2.38   0
  -4   2   9   55.97    3.04   0
  -4   2  10  133.56    3.64   0
  -4   2  14    1.13    2.23   0
  -4   2  15    0.98    2.08   0
  -4   2  16   26.00    2.94   0
  -4   4  25   -1.70    2.23   0
  -4   6  29    1.53    1.62   0
  -4   8  32    0.28    1.71   0
  -4  18 -15   -0.18    2.58   0
  -3   1   8   73.19    4.29   0
  -3   1   9    5.26    2.46   0
  -3   1  14   93.28    3.15   0
  -3   1  15   17.14    2.35   0
  -3   1  16    1.78    2.92   0
  -3   3  -1  170.90    5.50   0
  -3   3  25    0.83    1.66   0
  -3   5  30    1.62    1.96   0
  -3   7  -9   14.75    4.01   0
  -3   7  33   -1.38    2.59   0
  -2   0  10   -1.97    3.32   0
  -2   0  11    0.98    2.20   0
  -2   0  12   20.20    2.91   0
  -2   0  13   -0.77    1.92   0
  -2   0  14  178.63    4.60   0
  -2   0  15    1.10    2.74   0
  -2   2  25    1.19    2.54   0
  -2   4  30    0.01    2.56   0
  -2   6  33    0.58    1.62   0
  -1   3  30    2.10    2.35   0
  -1  11 -16    1.36    3.37   0
   0   0  24  124.82    4.02   0
   0   4  33    0.99    1.73   0
   1  -1  22    0.62    2.43   0
   1   3  33    0.61    2.21   0
   2  -2  20    0.61    2.05   0
   2  18 -22   -0.41    2.48   0
   3  -3   8   94.97    7.25   0
   3  -3  16    1.16    3.26   0
   3  -1  -3   54.17    4.16   0
   3   1  -8   73.18    4.32   0
   3  15 -22    5.51    2.44   0
   4  -2  -1  106.80    4.26   0
   4   0  -7    0.81    2.47   0
   4   0  30    0.86    2.34   0
   4   2 -11  269.30    5.25   0
   4  16 -23   -1.24    2.13   0
   5  -3   2  332.47    6.16   0
   5   1 -10   42.62    3.55   0
   5   1  33   -0.63    2.50   0
   5   9 -20    3.59    2.36   0
   6  -4   7   49.20    3.53   0
   6  -4  15    0.97    2.73   0
   6   0  -9    0.93    2.28   0
   6   6 -18    1.25    1.74   0
   6  16 -24   -0.41    2.02   0
   7  -3  -1   30.52    2.68   0
   7  -1  -7   45.20    3.41   0
   7  -1  30   -0.45    3.23   0
   8  -2  -5    4.40    2.14   0
   8   0 -10    1.08    1.95   0
   9  -3  -2    1.14    2.85   0
   9  -1  -8    4.15    2.76   0
   9   1 -12    3.65    2.48   0
   9   5 -18   -0.37    1.76   0
   9   7 -20    1.09    1.98   0
   9  11 -23    0.04    1.78   0
   9  13 -24    1.81    1.53   0
   9  13 -24   -0.46    0.95   0
  10  -4   2   53.23    2.52   0
  10  -2  -6   30.58    2.22   0
  10   2 -14   -2.79    2.47   0
  10   4 -17   -0.30    1.82   0
  10   6 -19   13.81    2.56   0
  10   8 -21    3.07    2.01   0
  11   5 -18    6.66    2.46   0
  11   9 -22   -2.02    1.67   0
  12  -4   2   44.60    2.43   0
  12  -4   3   -0.88    2.65   0
  12  -4  19    1.77    2.33   0
  12  -2  -6    1.83    2.02   0
  12   2 -14    4.33    2.33   0
  12   6 -19   -2.24    2.40   0
  12   8 -21   -0.14    2.41   0
  13  -3  -2   -0.05    1.96   0
  13  -1  -8    5.49    2.35   0
  13   1 -12    2.17    2.58   0
  13   5 -18    2.05    2.07   0
  13   7 -20    0.30    2.32   0
  14  -4   4   22.07    2.08   0
  14  -4   5   -2.18    2.28   0
  14  -4  17    0.23    2.49   0
  14  -2  -5   37.97    2.20   0
  14   0 -10   20.16    2.15   0
  14   6 -19    2.40    1.81   0
  14   8 -21   -1.13    1.79   0
  15   3 -15   -0.14    1.64   0
  16  -2  -3   -0.85    2.20   0
  16   0  -9    0.77    1.87   0
  16   2 -13   -0.54    1.80   0
  16   4 -16    2.23    1.75   0
  16   6 -18   -1.58    2.00   0
  17  -3   3   -1.03    2.09   0
  17  -3   4    2.36    2.30   0
  17  -1  -5    1.08    2.42   0
  17   1 -10   -2.22    2.26   0
  17   3 -14    0.79    1.96   0
  18  -2   0    1.25    2.35   0
  18   0  -7   -0.67    1.89   0
  18   2 -11    1.32    2.25   0
  18   4 -14    0.73    2.64   0
  19  -1  -2    1.00    2.29   0
  19   1  -8   -1.15    1.88   0
  19   3 -12   -0.73    1.78   0
  20  -2   5   -1.88    1.20   0
  20   0  -4   -0.02    1.78   0
 -11  17   9   -0.24    2.08   0
 -11  17  10    4.47    2.43   0
 -11  17  12    0.71    1.61   0
 -11  17  13    0.28    1.64   0
 -11  17  14   -0.79    1.72   0
 -11  17  15   -1.25    1.16   0
 -11  17  16    3.43    2.48   0
 -11  19   7    0.06    2.30   0
 -11  19   8   -0.05    1.60   0
 -11  19   9    1.11    1.60   0
 -10  12  11   -0.41    2.31   0
 -10  12  12    9.94    2.44   0
 -10  12  13    3.86    2.44   0
 -10  12  14    1.33    2.41   0
 -10  12  15    3.46    2.53   0
 -10  12  16    7.33    2.36   0
 -10  14   5    2.61    1.74   0
 -10  14  20   -0.62    1.66   0
 -10  14  21   -1.94    2.28   0
 -10  16   2    1.90    2.41   0
 -10  18   1    1.55    2.19   0
 -10  20   0    0.89    2.06   0
  -9  11   4   39.09    2.85   0
  -9  11  21   -1.91    1.96   0
  -9  11  22   -0.36    2.61   0
  -9  13  25   -1.37    2.33   0
  -9  15  -2   10.38    2.15   0
  -9  21  -4    0.75    2.07   0
  -8   8   6    4.75    2.55   0
  -8   8   7    0.82    1.75   0
  -8   8  18   15.21    2.00   0
  -8   8  19    6.40    1.86   0
  -8   8  20    6.92    2.47   0
  -8  10   1    4.91    1.97   0
  -8  10  25    2.20    2.32   0
  -8  12  27   -1.73    1.64   0
  -8  16  -6    2.51    2.17   0
  -8  20  -7   -1.25    2.47   0
  -7   7   3   25.44    2.19   0
  -7   7  22    2.06    1.61   0
  -7   9  27    2.43    2.29   0
  -7  15  -8    1.57    2.36   0
  -7  17  -9    2.84    2.31   0
  -6   4  12   10.21    2.85   0
  -6   4  13   11.43    2.81   0
  -6   4  14   18.52    2.90   0
  -6   4  15   -1.18    2.28   0
  -6   6   1   13.38    3.09   0
  -6   6  24    0.67    2.26   0
  -6   8  28   -0.02    1.79   0
  -5   3   8    1.98    3.41   0
  -5   3   9    1.10    2.21   0
  -5   3  15   81.11    2.70   0
  -5   3  16    6.07    1.97   0
  -5   3  17   -1.75    2.58   0
  -5   5   0   54.24    3.15   0
  -5   5  25    3.90    1.84   0
  -5   7  29    1.81    1.74   0
  -4   2   7   -1.53    3.81   0
  -4   2   8    5.34    2.32   0
  -4   2  18   -1.06    2.58   0
  -4   4  -1   39.70    3.80   0
  -4   4  26   -1.34    2.14   0
  -4   6  30   -1.23    1.85   0
  -3   1   7  702.16    8.45   0
  -3   1  17   -0.03    1.96   0
  -3   1  18    2.56    2.68   0
  -3   3  26    2.03    2.46   0
  -2   0   8   89.48    4.78   0
  -2   0   9   -1.85    2.57   0
  -2   0  16   -0.76    2.92   0
  -2   2  26    6.19    2.34   0
  -1   1  25    2.22    1.80   0
  -1   5  34    1.86    2.50   0
   0   2  30    1.12    2.59   0
   0   4  34   -0.14    1.98   0
   1  -1  23    4.54    2.57   0
   1   1  29    0.12    1.91   0
   2   0  -4  886.49   11.44   0
   2   0  28   -0.38    2.53   0
   3  11 -20    0.73    2.07   0
   3  13 -21    1.13    2.22   0
   4   4 -14   12.21    2.34   0
   5  -1  -5    2.65    3.45   0
   5   5 -16   -0.45    1.92   0
   5  15 -23   -0.59    2.11   0
   6  -4   8    8.32    2.68   0
   6  -2  -3   18.32    3.23   0
   6   0  32    0.92    2.60   0
   6  10 -21    0.99    2.32   0
   7  -3   0    4.20    3.07   0
   7   1 -11    1.20    2.64   0
   7   5 -17    1.76    1.80   0
   7   7 -19    3.35    2.46   0
   7  11 -22    3.16    2.41   0
   7  15 -24    0.64    1.82   0
   8  -4   4   19.51    2.37   0
   8   2 -13    3.52    2.66   0
   8   4 -16   16.97    2.64   0
   8  12 -23   -0.54    1.90   0
   8  14 -24    0.43    1.50   0
   9   3 -15   -0.13    1.83   0
  10  -4   3   61.20    2.61   0
  10  -2  -5   56.47    2.55   0
  10   0 -10    2.89    1.82   0
  10  10 -22   -0.04    2.32   0
  11  -3  -2   11.32    2.13   0
  11  -1  -8   11.70    1.91   0
  11   1 -12    0.24    1.87   0
  11   3 -15    8.39    2.60   0
  11   7 -20   -3.68    1.75   0
  11  11 -23   -0.99    1.26   0
  12  -4   4   -0.66    2.70   0
  12  -2  -5   24.61    2.14   0
  12   0 -10    0.53    1.92   0
  12  10 -22    4.87    2.51   0
  13  -3  -1   14.30    2.07   0
  13  -3  23    1.71    2.21   0
  13  -1  -7   14.03    2.53   0
  13   3 -15    4.78    1.76   0
  14  -4   6    0.97    1.82   0
  14  -4   7   17.43    2.54   0
  14  -4  15   -1.88    2.56   0
  14  -4  16    3.65    2.33   0
  14  -2  -4    0.07    1.72   0
  14   0  -9    1.97    2.54   0
  14   2 -13    0.92    1.65   0
  14   4 -16    4.49    1.76   0
  15  -3   1   23.84    2.37   0
  15  -3  21    0.87    2.23   0
  15  -1  -6   12.39    2.61   0
  15   1 -11    0.09    1.88   0
  15   3 -14   -1.06    2.44   0
  15   5 -17    1.63    1.67   0
  15   7 -19   -0.82    1.73   0
  16  -2  -2    5.28    2.23   0
  16   0  -8   14.37    1.97   0
  16   2 -12    4.57    1.98   0
  16   4 -15    1.68    2.13   0
  17  -3   5    0.00    1.71   0
  17  -3   6   -1.73    2.43   0
  17  -3  16    3.68    2.72   0
  17  -3  17   -0.68    1.77   0
  17  -3  17    0.61    1.24   0
  17   1  -9    0.43    2.53   0
  17   3 -13   -0.27    1.83   0
  17   5 -16    0.26    1.80   0
  18  -2   1    0.63    1.71   0
  18  -2   2    2.40    2.47   0
  18   0  -6   -1.14    1.71   0
  18   2 -10   -2.51    2.33   0
  19  -1  -1   -0.87    1.74   0
  19   1  -7   -0.25    1.73   0
  19   3 -11    3.21    1.72   0
  20   0  -3   -0.58    1.11   0
  20   0  -3   -0.38    1.08   0
  20   0  -2   -0.47    2.33   0
  20   2  -8   -1.00    1.14   0
 -11  15  10    2.58    2.31   0
 -11  15  11   -1.29    2.25   0
 -11  15  12    0.95    2.26   0
 -11  15  13    3.29    1.65   0
 -11  15  14   -0.07    2.26   0
 -11  15  15    0.10    2.46   0
 -11  15  16    2.49    2.68   0
 -11  15  17   -2.70    2.23   0
 -11  17   6    2.22    2.09   0
 -11  17   7    0.51    1.79   0
 -11  17   8    1.85    1.78   0
 -11  19   5    4.37    2.58   0
 -11  19   6   -1.90    1.76   0
 -10  12   7   -1.10    2.47   0
 -10  12   8    4.43    1.94   0
 -10  12   9    3.65    1.77   0
 -10  12  17    0.68    1.88   0
 -10  12  18    1.22    1.88   0
 -10  12  19   -3.90    2.53   0
 -10  14   3   10.99    2.57   0
 -10  14   4    1.11    1.79   0
 -10  14  22   -0.26    1.79   0
 -10  14  23    0.89    2.47   0
 -10  18   0    1.07    1.70   0
 -10  20  -1    0.13    2.11   0
  -9   9   8   11.55    2.38   0
  -9   9   9    3.97    2.43   0
  -9   9  10   13.30    1.94   0
  -9   9  11   25.34    2.14   0
  -9   9  12   25.84    2.02   0
  -9   9  14    5.49    1.76   0
  -9   9  15   -0.32    1.70   0
  -9   9  17    2.93    2.54   0
  -9   9  18    6.45    2.15   0
  -9  11  23    2.55    1.86   0
  -9  11  24    3.45    2.21   0
  -9  19  -4    7.05    2.01   0
  -8   8   4    1.00    2.42   0
  -8   8   5    1.10    1.78   0
  -8   8  21    1.25    1.69   0
  -8   8  22    0.39    2.05   0
  -8  10   0   50.31    2.43   0
  -8  10  26    3.46    1.71   0
  -8  12  -3   21.16    2.81   0
  -8  14  -5    0.08    2.47   0
  -8  18  -7    0.12    2.63   0
  -7   5  12    1.94    2.46   0
  -7   5  13    5.45    2.37   0
  -7   5  14    3.65    2.30   0
  -7   7   2    1.96    2.83   0
  -7   7  23   -0.67    1.52   0
  -7   7  24    2.14    2.29   0
  -7   9  -2    2.84    2.03   0
  -7   9  28   -0.73    2.30   0
  -7  11  -5   13.33    2.76   0
  -7  13  -7   14.45    2.61   0
  -7  21 -10   -0.94    1.89   0
  -6   4   8    1.20    3.21   0
  -6   4   9   16.22    2.39   0
  -6   4  10   51.10    2.59   0
  -6   4  17   24.57    2.10   0
  -6   4  18   -2.32    2.36   0
  -6   6  25    0.34    1.61   0
  -6   8  29    0.14    1.70   0
  -6  14 -10    6.50    2.24   0
  -6  16 -11    7.39    2.16   0
  -6  20 -12    0.87    2.04   0
  -5   3   7   12.58    2.58   0
  -5   3  18    0.37    1.81   0
  -5   3  19   25.41    2.70   0
  -5   5  26    1.44    1.75   0
  -5   7  30   -0.32    1.60   0
  -4   2   6   15.81    4.07   0
  -4   2  19   14.20    2.10   0
  -4   2  20    6.43    2.34   0
  -4   4  27    6.00    2.34   0
  -4   6  31   -0.58    2.48   0
  -3   1  19   14.39    2.79   0
  -3   3  27   -1.51    2.27   0
  -3   5  -6   12.44    4.04   0
  -2   0  17   -0.45    1.99   0
  -2   0  18  117.27    3.99   0
  -2   2  27    3.12    2.14   0
  -2   4  31    2.33    1.92   0
  -1  -1  12   85.30    4.08   0
  -1  -1  13   -0.44    2.70   0
  -1  -1  14  856.24    8.93   0
  -1  -1  15    3.97    2.67   0
  -1   1  26    3.06    2.84   0
  -1   3  31   -0.04    2.54   0
   0   0  25    0.38    2.66   0
   0  18 -20    1.55    3.64   0
   1   3  34    0.20    2.29   0
   2  -2  21    1.61    2.38   0
   2   2  33    0.07    2.54   0
   3  -3  17   10.25    3.55   0
   3  -1  27    5.45    2.46   0
   3   1  32    1.17    2.46   0
   4   6 -16   11.72    2.83   0
   4  12 -21    8.56    2.43   0
   4  14 -22    3.09    2.19   0
   5  -3   3    4.69    3.19   0
   5  -1  29   -0.24    2.66   0
   5   3 -13   31.85    2.51   0
   6  -4   9    4.35    2.30   0
   6  -4  10   21.63    2.82   0
   6  -4  14    3.40    2.58   0
   6   0  -8    2.19    2.32   0
   6   2 -12   38.91    2.59   0
   6   4 -15    1.21    1.89   0
   6  12 -22    3.34    2.37   0
   7  -1  -6   10.96    3.17   0
   7   3 -14   34.60    2.28   0
   7  13 -23    2.07    1.77   0
   8  -4   5   53.93    2.74   0
   8  -4  18    2.97    2.66   0
   8  -2  -4   17.16    2.39   0
   8   0  -9    2.10    2.04   0
   8   6 -18    0.68    2.15   0
   8   8 -20    5.62    1.82   0
   9  -3  -1   28.75    2.26   0
   9  -3  24   -0.54    3.14   0
   9  -1  -7    6.99    2.02   0
   9   1 -11    2.52    2.56   0
   9   5 -17    0.86    2.49   0
   9   7 -19    1.52    2.09   0
   9   9 -21    1.85    1.71   0
  10  -4   4  188.40    3.68   0
  10  -4   5  134.54    3.88   0
  10  -4  19    4.13    2.26   0
  10  -2  -4    4.56    2.78   0
  10   2 -13    2.74    2.34   0
  10   4 -16    1.33    1.86   0
  10   8 -20    3.02    2.27   0
  10  12 -23    1.61    1.33   0
  10  12 -23   -0.57    0.91   0
  11  -3  -1    6.90    1.98   0
  11  -3  24    2.52    2.37   0
  11  -1  -7   13.26    2.42   0
  11   5 -17    4.60    2.41   0
  12  -4   5  106.83    3.06   0
  12  -4   6   53.65    3.10   0
  12  -4  18    3.03    1.94   0
  12  -2  -4   46.06    2.62   0
  12  -2  27   -0.30    2.53   0
  12   0  -9    0.93    2.30   0
  12   4 -16    0.85    1.69   0
  12   6 -18    9.80    2.41   0
  12   8 -20    0.11    2.38   0
  13  -3   0    0.99    1.89   0
  13   1 -11    3.99    1.91   0
  13   3 -14   -2.99    2.40   0
  13   5 -17    0.42    1.68   0
  13   7 -19    3.47    2.18   0
  13   9 -21   -1.45    1.73   0
  13  11 -22    3.48    2.49   0
  14  -4   8   -0.25    1.78   0
  14  -4   9   -1.22    1.69   0
  14  -4  10    3.09    2.31   0
  14  -4  11    6.48    2.64   0
  14  -4  12    5.08    2.61   0
  14  -4  13    0.97    2.30   0
  14  -4  14    4.93    2.38   0
  14  -2  -3   17.93    2.01   0
  14   6 -18    2.98    1.84   0
  15  -3   2    2.12    1.88   0
  15  -3   3    2.08    2.40   0
  15  -3  20   -1.12    2.25   0
  15  -1  -5    2.21    2.48   0
  15   1 -10    2.78    1.96   0
  15   5 -16    4.37    2.27   0
  16  -2  -1    0.58    1.59   0
  16   0  -7   -0.41    1.84   0
  16   2 -11    3.62    2.62   0
  16   4 -14    6.06    2.60   0
  16   6 -17   -1.26    1.79   0
  16   8 -19   -1.45    1.67   0
  17  -3   7    5.96    1.81   0
  17  -3   8    0.76    1.74   0
  17  -3   9    2.05    2.05   0
  17  -3  10   -0.91    2.46   0
  17  -3  11   -0.51    2.36   0
  17  -3  12   -1.89    2.40   0
  17  -3  13   -0.51    2.42   0
  17  -3  14   -1.33    2.13   0
  17  -3  15    1.75    1.81   0
  17  -1  -3    1.04    2.05   0
  17   1  -8    3.44    2.57   0
  17   3 -12   -2.11    2.17   0
  17   5 -15   -0.18    1.90   0
  17   7 -17    1.29    2.35   0
  18  -2   3   -0.60    1.75   0
  18  -2   4    1.09    2.43   0
  18   0  -5    1.02    1.66   0
  18   2  -9    2.05    2.46   0
  18   4 -13   -0.87    1.83   0
  19  -1   0    5.31    1.88   0
  19  -1   1    3.20    2.10   0
  19   1  -6   -0.27    1.79   0
  19   3 -10    2.37    2.19   0
  20   0  -1    2.50    1.65   0
  20   2  -7   -2.67    1.74   0
 -11  15   8    3.03    1.76   0
 -11  15   9    2.25    1.82   0
 -11  15  18   -2.39    1.86   0
 -11  15  19    3.47    1.84   0
 -11  15  20    1.04    2.51   0
 -11  17   4    3.48    2.16   0
 -11  17   5    0.79    1.77   0
 -11  19   3    1.28    2.16   0
 -11  19   4    0.68    1.09   0
 -11  19   4    0.38    1.13   0
 -10  12   5   -0.06    2.50   0
 -10  12   6   -2.44    1.81   0
 -10  12  20   -0.07    1.67   0
 -10  12  21    0.36    1.81   0
 -10  12  22    2.24    2.36   0
 -10  14   2    4.45    2.44   0
 -10  16   0    1.64    2.33   0
 -10  20  -2    1.07    2.11   0
  -9   9   6   15.10    2.57   0
  -9   9   7   24.03    2.14   0
  -9   9  19    2.36    1.72   0
  -9   9  20    3.85    2.51   0
  -9  11   2    1.72    1.70   0
  -9  11  25    0.50    2.34   0
  -9  13  -1    0.29    1.89   0
  -9  15  -3   -2.70    2.35   0
  -9  19  -5    1.62    2.48   0
  -8   8   3    7.46    2.47   0
  -8   8  23   -1.20    1.64   0
  -8  10  -1   52.20    3.03   0
  -8  10  27   -0.97    1.65   0
  -8  10  28   -0.24    2.03   0
  -8  20  -8    3.71    2.30   0
  -7   5   9    8.35    2.80   0
  -7   5  10    8.02    2.04   0
  -7   5  11    0.49    1.88   0
  -7   5  15   11.87    1.80   0
  -7   5  16    0.53    1.64   0
  -7   5  17    3.98    2.53   0
  -7   5  18    4.56    2.35   0
  -7   7   1   23.13    2.84   0
  -7   7  25   -0.49    1.65   0
  -7   9  29    0.72    1.70   0
  -7  19 -10    2.02    2.15   0
  -6   4   7  183.54    3.75   0
  -6   4  19   29.64    2.17   0
  -6   4  20   21.32    2.81   0
  -6   6   0  211.50    4.04   0
  -6   6  26    2.40    1.73   0
  -6   8  -4    3.33    2.68   0
  -6   8  30   -1.32    1.78   0
  -6  18 -12    1.66    1.84   0
  -5   3   6   96.53    3.46   0
  -5   3  20    2.88    1.74   0
  -5   3  21    4.36    2.44   0
  -5   5  -1   83.19    3.81   0
  -5   5  27   -0.19    1.81   0
  -5   7  -5    8.11    2.73   0
  -5   7  31    1.00    1.84   0
  -5  11 -10   17.15    2.37   0
  -5  19 -14    1.57    2.44   0
  -4   2  21   -0.67    2.63   0
  -4   4  28    2.70    2.01   0
  -4   6  32   -1.02    2.24   0
  -3   1   6   83.94    3.98   0
  -3   1  20   11.07    2.10   0
  -3   3  28   -0.04    2.20   0
  -3   5  32    0.25    2.50   0
  -3  19 -17    0.25    3.68   0
  -2   0   7   -0.30    2.92   0
  -2   0  19   -0.60    2.69   0
  -1  -1   9  215.66    6.19   0
  -1  -1  10    3.38    2.45   0
  -1  -1  16   38.84    3.16   0
  -1   1  27    1.24    2.31   0
   0   2  31    3.72    2.77   0
   1  -1  24    9.63    2.70   0
   1   1  30    1.15    2.62   0
   1   5 -12    6.73    2.88   0
   1  11 -18    0.20    1.99   0
   1  15 -20   15.15    3.28   0
   1  19 -21    0.21    2.46   0
   1  19 -21    0.27    1.15   0
   2  -2   4   80.69    6.91   0
   2   0  29    0.01    2.53   0
   3  -1  -2   34.79    5.31   0
   3   3 -11   31.89    3.40   0
   3   5 -14   10.00    2.08   0
   4  -2   0  213.38    5.31   0
   4  -2  25    1.22    3.25   0
   4   0  -6   87.24    4.38   0
   4   0  31    0.84    2.49   0
   5   1  -9   40.48    3.22   0
   6  -4  11    2.36    2.01   0
   6  -4  12   11.12    2.51   0
   6  -4  13   19.11    2.83   0
   6  -2  -2  244.18    5.15   0
   6  -2  27    2.10    3.66   0
   6   6 -17    4.99    1.82   0
   6   8 -19    0.95    1.87   0
   7  -3   1    5.14    2.32   0
   7   1 -10   61.33    3.36   0
   7   9 -20    0.04    2.19   0
   8  -4   6   16.16    2.25   0
   8  -4   7   -0.63    2.46   0
   8  10 -21    0.97    2.12   0
   9  -3   0    2.51    2.20   0
   9   3 -14    1.87    2.20   0
   9  11 -22   -0.88    1.41   0
   9  13 -23   -1.11    1.32   0
   9  13 -23    0.41    0.95   0
  10  -4   6   -0.98    2.68   0
  10  -4  18    1.44    2.27   0
  10   0  -9   -0.80    1.86   0
  10   6 -18    0.75    1.75   0
  11  -3   0   18.32    2.07   0
  11   1 -11   10.53    2.05   0
  11   3 -14    7.57    2.40   0
  11  11 -22   -2.27    2.05   0
  11  13 -23    0.12    1.44   0
  11  13 -23   -1.13    0.82   0
  12  -4   7   54.72    2.98   0
  12  -4  16   11.96    2.55   0
  12  -4  17   10.49    2.22   0
  12  -2  -3    1.01    2.46   0
  12  10 -21    2.92    2.60   0
  13  -3   1    9.76    2.02   0
  13  -3  22    0.99    2.22   0
  13  -1  -6    3.53    1.85   0
  13   1 -10    0.79    2.41   0
  14  -2  -2   29.57    2.29   0
  14   0  -8   13.80    2.06   0
  14   2 -12   -0.35    1.71   0
  14   4 -15    3.09    1.68   0
  14   6 -17    4.24    2.45   0
  14  10 -21    0.46    1.23   0
  14  10 -21    1.65    1.17   0
  15  -3   4   -0.65    2.20   0
  15  -3  19    1.68    2.25   0
  15  -1  -4    2.42    2.42   0
  15   1  -9    2.17    2.67   0
  15   3 -13    0.56    1.85   0
  15   7 -18    1.44    1.69   0
  16  -2   0    5.66    1.83   0
  16  -2   1    0.39    2.36   0
  16   0  -6    8.61    2.30   0
  16   2 -10   -0.11    2.70   0
  16   8 -18   -3.17    2.32   0
  17  -1  -2    3.90    1.76   0
  17   1  -7   -0.08    2.56   0
  17   3 -11   -1.39    2.56   0
  17   5 -14    0.86    2.47   0
  18  -2   5    2.48    1.79   0
  18  -2   6    0.34    2.51   0
  18   0  -4    3.23    1.78   0
  18   0  -3    4.89    2.33   0
  18   2  -8    2.11    2.62   0
  18   4 -12   -1.73    1.77   0
  18   6 -15    0.71    1.79   0
  19  -1   2    1.21    1.78   0
  19  -1   3    0.13    2.60   0
  19   1  -5    3.58    1.68   0
  19   3  -9    1.90    2.25   0
  20   0   0    3.02    1.59   0
  20   0   1    2.55    1.92   0
  20   2  -6    0.12    1.77   0
  20   2  -5   -1.83    2.51   0
 -12  18  10   -1.89    1.86   0
 -11  13   9   -0.33    2.02   0
 -11  13  10   -0.41    2.32   0
 -11  13  11    4.11    1.73   0
 -11  13  12   -1.00    1.67   0
 -11  13  14   -1.14    1.79   0
 -11  13  15    0.77    1.93   0
 -11  13  16   -1.69    1.85   0
 -11  13  17    4.47    1.77   0
 -11  13  18    2.74    2.48   0
 -11  13  19   -1.97    2.10   0
 -11  15   5    0.42    2.31   0
 -11  15   6   -3.26    1.77   0
 -11  17   3    0.61    2.34   0
 -11  19   2    1.98    2.54   0
 -10  10   9   19.94    2.34   0
 -10  10  10   -0.65    2.48   0
 -10  10  11   23.96    2.07   0
 -10  10  12    4.12    1.83   0
 -10  10  14    1.18    1.68   0
 -10  10  15    3.36    1.77   0
 -10  10  16    4.31    1.86   0
 -10  10  17    5.05    2.54   0
 -10  10  18    5.33    2.59   0
 -10  12   4   61.90    3.16   0
 -10  12  23   -0.15    1.91   0
 -10  12  24    3.08    2.24   0
 -10  14   1    0.68    2.24   0
 -10  16  -1    1.80    2.43   0
 -10  18  -2   -0.21    2.42   0
  -9   9   5    7.99    2.46   0
  -9   9  22    0.43    1.62   0
  -9   9  23    0.80    2.08   0
  -9  11   1    8.54    1.96   0
  -9  11  26   -0.48    1.71   0
  -9  11  27   -1.05    2.00   0
  -9  13  -2   16.46    2.54   0
  -9  15  -4   -1.86    2.27   0
  -9  17  -5    3.17    2.54   0
  -8   6  10    1.90    2.42   0
  -8   6  11   27.21    2.76   0
  -8   6  12    0.16    1.66   0
  -8   6  13    4.88    1.75   0
  -8   6  14    4.15    2.01   0
  -8   6  15   33.03    2.24   0
  -8   6  16    1.36    2.33   0
  -8   6  17    2.43    2.41   0
  -8   8  24    0.73    1.75   0
  -8   8  25   -0.50    2.34   0
  -8  10  29    1.12    2.03   0
  -8  12  -4    0.83    2.50   0
  -8  14  -6    3.91    2.55   0
  -8  16  -7    1.41    1.83   0
  -8  18  -8    5.91    2.59   0
  -7   5   7   50.99    3.31   0
  -7   5   8   12.40    2.10   0
  -7   5  19   23.36    2.08   0
  -7   5  20    3.33    2.56   0
  -7   7  26    1.70    1.69   0
  -7   9  -3   15.87    2.15   0
  -7   9  30   -0.55    1.66   0
  -7  15  -9    3.90    2.13   0
  -7  17 -10    5.13    2.36   0
  -6   4   6   74.95    3.02   0
  -6   4  21    2.66    1.86   0
  -6   4  22    8.59    2.45   0
  -6   6  27    0.12    1.72   0
  -6   8  31   -0.26    1.71   0
  -6  10  -7   98.49    3.37   0
  -6  12  -9    1.65    1.91   0
  -5   3   5    1.97    2.71   0
  -5   3  22   19.13    2.63   0
  -5   5  28   -1.52    1.76   0
  -5   7  32   -0.50    2.46   0
  -5   9  -8   18.59    2.53   0
  -5  15 -13   -0.04    2.37   0
  -4   2   5  437.61    6.18   0
  -4   2  22    4.45    2.61   0
  -4  10 -11   19.32    2.99   0
  -4  14 -14    5.48    3.04   0
  -3   1   5   42.25    4.99   0
  -3   1  21    3.12    1.94   0
  -3   1  22    1.61    2.22   0
  -3   3  -2   39.45    4.84   0
  -3   5  33    2.74    2.25   0
  -2   0   6 9999.99   33.04   0
  -2   0  20   -0.37    1.99   0
  -2   2  28    0.38    2.57   0
  -1   3  32    0.02    1.87   0
   0   0  26    1.70    2.57   0
   1  13 -19    0.24    2.57   0
   2  -2  22    4.52    2.45   0
   2   2  -8    1.83    3.49   0
   2   2  34    0.19    2.50   0
   2  10 -18    0.21    1.96   0
   2  16 -21    1.29    2.27   0
   3  -3   9   36.53    6.40   0
   3   1  -7  689.84    8.53   0
   3   1  33    0.46    2.10   0
   3  17 -22    0.57    1.93   0
   4   2 -10  130.19    3.81   0
   4   4 -13   34.04    3.24   0
   5  -3   4   10.01    3.14   0
   5  -3  22    0.40    3.83   0
   5  -1  -4  189.90    4.34   0
   5   5 -15    5.91    2.79   0
   5   9 -19   -1.57    2.21   0
   5  17 -23   -1.59    1.76   0
   5  17 -23   -0.70    0.96   0
   6   2 -11   98.39    3.67   0
   7   3 -13   -0.11    2.60   0
   7   5 -16    1.09    1.85   0
   7   7 -18   -2.76    2.39   0
   7  15 -23   -0.42    2.14   0
   8  -4   8    1.00    2.46   0
   8  -4  17    1.19    2.17   0
   8  -2  -3   53.95    2.73   0
   8   0  -8    0.07    2.75   0
   8   2 -12   17.76    2.04   0
   8   4 -15   15.48    1.93   0
   8  12 -22    4.41    1.92   0
   8  14 -23   -0.14    1.44   0
   8  14 -23    0.09    0.98   0
   9  -3   1   30.74    3.10   0
   9  -1  -6   14.46    2.17   0
   9   1 -10   37.39    2.96   0
   9   9 -20    4.43    2.36   0
  10  -4   7   -0.73    2.51   0
  10  -4   8   11.14    2.84   0
  10  -4  17    5.92    2.49   0
  10  -2  -3    4.68    1.93   0
  10   0  -8    5.39    2.63   0
  10   2 -12    6.65    2.28   0
  10  10 -21    6.18    1.83   0
  10  14 -23    3.04    1.78   0
  11  -3   1    1.45    1.88   0
  11  -1  -6    1.49    1.81   0
  11   1 -10    4.55    2.39   0
  11   5 -16    0.43    2.45   0
  11   9 -20    0.63    2.36   0
  12  -4   9   43.48    2.60   0
  12  -4  10   36.65    2.96   0
  12  -4  11   12.20    2.64   0
  12  -4  12    3.50    2.55   0
  12  -4  13    0.92    2.59   0
  12  -4  14    6.45    2.43   0
  12  -4  15    1.15    2.12   0
  12  -2  -2    7.45    2.63   0
  12   0  -8    1.73    1.91   0
  12   2 -12   17.28    2.05   0
  12   4 -15   -1.01    1.78   0
  12   6 -17    1.31    2.32   0
  12   8 -19   -1.23    2.35   0
  12  12 -22   -2.30    2.34   0
  13  -3   2   22.51    2.17   0
  13  -3   3   21.14    2.64   0
  13  -1  -5    3.04    1.94   0
  13   5 -16   -0.36    1.52   0
  13   7 -18    2.04    2.12   0
  13   9 -20    1.66    1.76   0
  13  11 -21    1.45    2.58   0
  14  -2  -1   10.45    2.01   0
  14   0  -7    0.66    1.80   0
  14   2 -11    6.60    1.95   0
  14   4 -14   -0.99    2.39   0
  14  10 -20   -0.20    2.60   0
  15  -3   5    0.20    1.72   0
  15  -3   6    6.95    2.15   0
  15  -3   7    3.27    2.23   0
  15  -3  17    0.44    2.51   0
  15  -3  18   -0.46    2.15   0
  15  -1  -3    4.92    2.48   0
  15   3 -12    1.78    2.18   0
  15   5 -15    4.63    1.75   0
  15   7 -17   -3.09    2.44   0
  15   9 -19   -0.30    2.01   0
  16  -2   2    0.25    2.19   0
  16   0  -5   -0.01    2.15   0
  16   4 -13   -0.03    1.94   0
  17  -1  -1    3.17    1.59   0
  17   7 -16    1.07    1.70   0
  18  -2   7   -0.70    1.85   0
  18  -2   8    8.39    1.84   0
  18  -2   9    0.44    2.21   0
  18  -2  10    4.96    2.41   0
  18  -2  11    2.49    2.51   0
  18  -2  12    3.58    2.48   0
  18  -2  13    1.14    2.30   0
  18  -2  14    1.45    2.19   0
  18   0  -2    5.70    2.63   0
  18   2  -7    3.25    2.71   0
  18   4 -11    1.90    2.12   0
  18   6 -14    0.14    1.66   0
  19  -1   4   -1.01    1.67   0
  19  -1   5    1.16    2.49   0
  19   3  -8    2.90    2.22   0
  20   0   2    2.06    1.72   0
  20   0   3   -0.58    2.27   0
  20   2  -4    2.05    2.40   0
 -12  16  10   -2.51    2.28   0
 -12  16  11    0.32    2.27   0
 -12  16  12   -0.16    1.59   0
 -12  16  13    0.38    1.73   0
 -12  16  14    0.02    1.70   0
 -12  16  15    1.95    1.72   0
 -12  18   7    0.32    2.38   0
 -12  18   8   -0.96    1.65   0
 -12  18   9    3.31    1.67   0
 -11  13   7    0.76    2.31   0
 -11  13   8   -0.41    1.70   0
 -11  13  21    1.48    2.36   0
 -11  13  22   -2.62    2.27   0
 -11  15   4    8.37    1.83   0
 -11  17   2    2.22    1.90   0
 -11  19   1   -0.28    1.81   0
 -10  10   7    1.53    2.48   0
 -10  10   8    4.40    1.75   0
 -10  10  19    0.60    1.87   0
 -10  10  20   -1.35    1.83   0
 -10  10  21    8.69    2.64   0
 -10  12   3   34.14    2.29   0
 -10  12  25   -0.03    1.80   0
 -10  14   0    3.70    2.27   0
 -10  18  -3    0.35    2.16   0
 -10  20  -3   -0.17    1.08   0
 -10  20  -3   -0.90    1.07   0
  -9   7  13   -0.55    2.28   0
  -9   7  14    2.78    2.23   0
  -9   7  15   15.62    2.44   0
  -9   9  24    1.61    2.36   0
  -9  11   0   46.24    3.02   0
  -9  19  -6    0.86    2.56   0
  -8   6   8    0.65    2.64   0
  -8   6   9    5.34    1.86   0
  -8   6  18    3.14    1.83   0
  -8   6  19    2.91    1.68   0
  -8   6  20    9.45    2.54   0
  -8   8   2   42.05    2.37   0
  -8   8  26    0.65    1.70   0
  -8  10  -2   -0.48    2.59   0
  -7   5   6   66.70    3.41   0
  -7   5  21    4.27    1.80   0
  -7   5  22   -0.06    2.45   0
  -7   7   0    7.21    2.89   0
  -7   7  27   -0.08    1.81   0
  -7   7  28   -0.52    2.11   0
  -7  11  -6    2.67    1.85   0
  -7  13  -8    1.31    2.25   0
  -6   4   5  200.77    3.96   0
  -6   4  23    2.60    2.42   0
  -6   6  -1   17.15    2.52   0
  -6   6  29    0.19    2.15   0
  -5   3   4   11.94    3.43   0
  -5   3  23   -1.33    1.79   0
  -5   5  29   -0.57    1.60   0
  -4   2   4    2.99    4.02   0
  -4   2  23    8.71    2.09   0
  -4   4  -2   88.77    3.84   0
  -4   4  29    0.91    1.73   0
  -4   6  -6   19.55    3.23   0
  -4   6  33   -0.41    1.94   0
  -4  16 -15    6.29    3.00   0
  -3   1  23    8.59    2.72   0
  -3   3  29   -1.03    1.91   0
  -2   0  21    0.48    1.86   0
  -2   2  29    0.43    2.75   0
  -2   4  33   -1.06    1.20   0
  -2   4  33   -0.69    1.27   0
  -1  -1   8   84.56    5.10   0
  -1  -1  19    5.60    2.55   0
  -1   1  28    1.45    2.50   0
  -1   3  33   -1.21    2.17   0
  -1   7 -12    5.83    3.85   0
  -1  15 -18    0.06    3.52   0
   0   0  27   -0.44    2.45   0
   0   2  32    1.05    2.73   0
   0   6 -12    2.28    3.00   0
   1  -1  25    2.44    2.57   0
   1   1  31    2.14    2.70   0
   2   0  30    1.13    2.30   0
   2   8 -16   -0.87    1.91   0
   3  -3  18    1.63    3.23   0
   3  -1  28    6.79    2.56   0
   4  16 -22    0.17    2.26   0
   5   3 -12   94.37    3.21   0
   5   7 -17   24.94    2.55   0
   6  -2  -1   -0.89    3.47   0
   6   0  -7    0.11    2.38   0
   6   0  33   -0.20    2.99   0
   6   4 -14   19.15    2.19   0
   6  10 -20    2.72    1.75   0
   7  -1  -5   67.58    2.86   0
   7  11 -21   -0.32    1.64   0
   7  13 -22    1.30    2.10   0
   8  -4   9   -0.11    2.16   0
   8  -4  16   20.84    3.01   0
   8  -2  -2    4.24    3.18   0
   8   6 -17   -0.92    1.72   0
   8   8 -19    2.42    1.77   0
   9  -1  -5    5.54    2.97   0
   9   3 -13    3.42    2.58   0
   9   5 -16    2.52    1.85   0
   9   7 -18    3.28    2.08   0
  10  -4   9   57.06    3.35   0
  10  -4  10    8.01    2.74   0
  10  -4  16   11.47    2.25   0
  10  -2  -2   35.32    3.09   0
  10   6 -17   -2.87    2.15   0
  10   8 -19   10.85    1.84   0
  10  12 -22    1.09    1.37   0
  11  -3   2    0.73    2.30   0
  11  -3  23    0.55    2.06   0
  11  -1  -5    2.45    2.32   0
  11   3 -13   -1.18    2.26   0
  11   7 -18   -1.40    1.75   0
  11  11 -21    1.19    2.27   0
  12   0  -7    1.08    2.54   0
  12   2 -11    4.80    2.63   0
  12   4 -14   20.98    2.80   0
  13  -3   4   27.41    2.69   0
  13  -3  21   -0.73    2.03   0
  13   1  -9   17.77    2.02   0
  13   5 -15    0.13    2.31   0
  14  -2   0    0.90    1.91   0
  14   0  -6  146.64    3.47   0
  14   2 -10   14.09    2.66   0
  14   6 -16   -3.35    2.10   0
  14   8 -18   -1.85    2.11   0
  15  -3   8   -0.59    1.74   0
  15  -3   9    2.76    2.46   0
  15  -3  10    6.32    2.44   0
  15  -3  15    0.63    2.43   0
  15  -3  16   -0.47    2.34   0
  15   1  -8    6.77    1.88   0
  15   5 -14    2.41    2.34   0
  16  -2   3    4.48    1.81   0
  16  -2   4    3.30    2.45   0
  16   0  -4    5.26    2.15   0
  16   2  -9    3.44    2.01   0
  16   4 -12   -0.10    2.44   0
  16   6 -15    1.58    1.71   0
  16   8 -17    1.89    2.02   0
  17  -1   1   -0.92    2.43   0
  17   1  -6    1.35    1.74   0
  17   3 -10    1.42    1.84   0
  17   5 -13    1.82    2.05   0
  17   7 -15    0.40    2.39   0
  18   0  -1    0.63    2.18   0
  18   4 -10    0.49    2.38   0
  18   6 -13   -2.60    2.45   0
  19  -1   6   -1.44    1.77   0
  19  -1   7   -0.00    1.74   0
  19  -1   8    1.71    2.54   0
  19  -1   9    1.14    2.50   0
  19   1  -2    1.07    2.34   0
  19   3  -7    1.15    2.24   0
  19   5 -11   -2.58    1.76   0
  20   0   4    2.76    1.34   0
  20   0   4   -2.00    1.24   0
  20   0   5   -0.75    2.15   0
 -12  14  12    5.78    2.15   0
 -12  14  14    2.34    2.38   0
 -12  14  15   -0.56    2.52   0
 -12  14  16    1.58    2.52   0
 -12  14  17    3.06    2.11   0
 -12  16   7    2.19    2.43   0
 -12  16   8    0.60    1.68   0
 -12  16   9    3.28    1.85   0
 -12  18   6    1.53    1.85   0
 -11  11  11    3.22    2.39   0
 -11  11  12   -2.34    2.42   0
 -11  11  13    0.23    1.84   0
 -11  11  14    5.11    1.90   0
 -11  11  15    0.19    1.79   0
 -11  11  16    0.79    1.79   0
 -11  11  17    2.65    2.54   0
 -11  11  18    0.58    2.73   0
 -11  13   5   -0.98    2.38   0
 -11  13   6    2.77    1.73   0
 -11  13  23   -0.16    1.18   0
 -11  13  23    0.69    1.24   0
 -11  15   2   -0.23    2.19   0
 -11  15   3    1.52    1.75   0
 -11  17   1    1.01    1.64   0
 -11  19   0   -1.48    1.76   0
 -10  10   6   13.33    1.99   0
 -10  10  22   -2.43    1.98   0
 -10  10  23    0.48    2.49   0
 -10  12   2    2.14    1.76   0
 -10  14  -1    3.29    2.38   0
 -10  20  -4    0.65    2.34   0
  -9   7   9   10.19    2.31   0
  -9   7  10   -1.75    2.34   0
  -9   7  11    5.66    1.90   0
  -9   7  12    7.14    1.90   0
  -9   7  17    0.70    1.77   0
  -9   7  18    4.67    1.76   0
  -9   9   3    0.59    1.73   0
  -9   9  25    0.32    1.79   0
  -9   9  26    2.79    2.44   0
  -9  11  -1   83.70    3.11   0
  -9  13  -3   -1.00    1.89   0
  -9  15  -5   -1.22    2.20   0
  -9  17  -6    0.93    2.54   0
  -8   6   7    1.07    1.88   0
  -8   6  21    2.09    1.67   0
  -8   6  22    0.30    2.28   0
  -8   8   1   40.36    2.30   0
  -8   8  27    0.06    1.72   0
  -8   8  28   -1.95    2.07   0
  -8  12  -5   17.51    2.65   0
  -8  16  -8    1.43    2.48   0
  -8  20  -9    0.03    1.92   0
  -8  20  -9   -0.00    1.13   0
  -7   5   5   90.73    2.89   0
  -7   5  23   -2.34    1.65   0
  -7   5  24    2.55    2.11   0
  -7   7  29   -3.20    2.39   0
  -7   9  -4   29.33    2.99   0
  -7  19 -11    8.08    2.43   0
  -6   4   4   90.91    3.23   0
  -6   4  24    1.69    1.67   0
  -6   6  30    0.15    1.99   0
  -6   8  -5   12.53    2.63   0
  -6  14 -11    1.29    2.08   0
  -6  16 -12   15.04    2.51   0
  -6  20 -13    1.42    2.27   0
  -5   3  25    3.25    2.16   0
  -5   5  -2  160.97    4.06   0
  -5   5  30    1.32    2.46   0
  -5  13 -12    1.25    2.20   0
  -5  17 -14    4.05    2.45   0
  -4   2  24    7.88    2.02   0
  -4   4  30   -0.18    1.67   0
  -4   8  -9    6.10    2.46   0
  -4  20 -16   -0.04    2.82   0
  -3   1   4  142.96    6.09   0
  -3   1  24    8.43    2.67   0
  -3   3  30    2.03    2.53   0
  -3   5  34    0.54    1.14   0
  -2   0  22    0.17    1.81   0
  -2   4  34    0.55    2.33   0
  -1  -1  20   18.14    3.05   0
  -1   1  29   -0.46    2.32   0
  -1  13 -17    1.38    3.20   0
   0  -2  13   17.87    3.77   0
   0  -2  14   13.49    3.02   0
   0  -2  15    5.59    3.15   0
   0   4  -9   49.62    5.18   0
   0  10 -16   -0.21    2.28   0
   1   7 -14   12.68    2.79   0
   1   9 -16    0.42    2.10   0
   2  -2  23   -0.91    2.20   0
   2  12 -19   -0.26    2.14   0
   2  14 -20   -0.06    2.24   0
   3  11 -19    2.15    2.33   0
   3  15 -21    0.32    2.01   0
   4  -2   1   90.25    4.10   0
   4  -2  26    0.40    2.81   0
   4   0  32    0.81    2.22   0
   4   6 -15    2.09    2.72   0
   5  -1  30    0.67    3.02   0
   5   1  -8    2.08    3.25   0
   5  11 -20    1.04    1.85   0
   5  15 -22    2.35    1.88   0
   6   6 -16    2.22    2.29   0
   6   8 -18    4.96    2.66   0
   6  12 -21    0.90    1.64   0
   6  14 -22    1.37    1.84   0
   7  -3   3  117.49    3.97   0
   7   1  -9    1.31    2.15   0
   7   5 -15   13.62    2.73   0
   7   9 -19   10.58    2.38   0
   8  -4  10   16.85    2.18   0
   8  -4  11   29.24    2.51   0
   8  -4  12    6.41    1.91   0
   8  -4  13   24.52    2.50   0
   8  -4  14    7.87    2.23   0
   8  -4  15   46.50    3.25   0
   8   0  -7    0.70    2.95   0
   8   2 -11    6.00    1.91   0
   8   4 -14    5.10    2.35   0
   9  -3   2   50.81    2.63   0
   9  11 -21   -1.32    1.88   0
   9  13 -22   -0.28    1.61   0
  10  -4  11   31.41    2.67   0
  10  -4  12   34.15    2.91   0
  10  -4  13    2.70    2.23   0
  10  -4  14   73.27    3.33   0
  10  -4  15   22.82    2.29   0
  10   0  -7    0.06    2.69   0
  10   2 -11    0.72    2.27   0
  10   4 -14   -3.08    2.42   0
  10  10 -20    0.56    2.27   0
  11  -3   3    2.39    2.34   0
  11   1  -9   30.94    2.09   0
  11  13 -22   -0.18    1.25   0
  12  -2  -1   27.44    2.16   0
  12  -2  26    0.49    2.62   0
  12   6 -16    8.85    2.54   0
  12   8 -18   -0.10    2.39   0
  12  10 -20    0.67    1.86   0
  12  12 -21   -2.34    2.60   0
  13  -3   5   18.46    2.12   0
  13  -3  20    1.01    2.13   0
  13  -1  -3   14.59    2.75   0
  13   1  -8    7.08    2.65   0
  13   3 -12    3.41    1.89   0
  13   7 -17    0.50    1.77   0
  13   9 -19   -0.69    1.69   0
  14  -2   1   50.85    2.42   0
  14  -2  24    0.59    1.75   0
  14  -2  24   -0.10    1.04   0
  14   0  -5    3.02    2.59   0
  14   4 -13    5.53    1.64   0
  14  10 -19    1.45    2.51   0
  15  -3  11    2.87    1.90   0
  15  -3  12    1.01    1.98   0
  15  -3  13    2.18    1.98   0
  15  -3  14   -0.17    1.91   0
  15  -1  -1   -1.44    2.47   0
  15   1  -7    6.53    1.82   0
  15   3 -11   -1.38    1.82   0
  15   7 -16    0.19    1.74   0
  16  -2   5    4.55    1.90   0
  16  -2   6    3.13    2.44   0
  16  -2  20    1.22    1.65   0
  16  -2  20    0.46    1.24   0
  16   0  -3   -3.06    2.02   0
  16   2  -8    4.81    1.94   0
  16   6 -14   -1.48    2.29   0
  17  -1   2   -0.03    1.72   0
  17   1  -5    0.98    1.71   0
  17   3  -9   -0.86    1.84   0
  18   0   0   -0.85    1.65   0
  18   2  -6    0.03    1.96   0
  19  -1  10   -0.54    1.20   0
  19  -1  10    0.64    1.20   0
  19  -1  11    1.53    1.20   0
  19  -1  11    0.33    1.19   0
  19   1  -1   -0.31    1.73   0
  19   3  -6    0.78    2.27   0
  19   5 -10   -2.40    1.71   0
  20   0   6    1.68    1.23   0
  20   2  -2   -0.99    1.63   0
 -12  14   8    1.72    2.06   0
 -12  14   9   -1.12    2.35   0
 -12  14  10   -1.68    1.83   0
 -12  14  11    0.90    1.74   0
 -12  14  18   -2.11    1.89   0
 -12  14  19    1.08    1.83   0
 -12  14  20    1.82    1.71   0
 -12  16   5    5.58    2.09   0
 -12  18   4    0.52    1.75   0
 -11  11   8    0.84    2.47   0
 -11  11   9    1.55    1.70   0
 -11  11  10   -0.23    1.64   0
 -11  11  19    2.52    1.83   0
 -11  11  21    1.31    2.37   0
 -11  11  22   -2.25    2.32   0
 -11  13   4   14.50    1.97   0
 -11  15   1   -1.83    2.02   0
 -11  17   0   -1.45    1.67   0
 -11  19  -1    4.14    2.64   0
 -10   8  12   -3.08    2.38   0
 -10   8  13    6.70    2.48   0
 -10   8  15    1.25    2.39   0
 -10   8  16    0.22    2.43   0
 -10   8  17    2.82    2.38   0
 -10   8  18    1.51    2.12   0
 -10  10   4   41.59    2.77   0
 -10  10   5    0.83    1.89   0
 -10  10  24    3.13    1.80   0
 -10  10  25    0.06    2.39   0
 -10  12   1   16.05    2.00   0
 -10  16  -3   -0.01    1.90   0
 -10  18  -4   -0.79    2.39   0
  -9   7   8    1.86    1.73   0
  -9   7  20    3.08    1.58   0
  -9   7  21    2.66    1.55   0
  -9   7  22    0.05    2.13   0
  -9   9   2    2.37    2.51   0
  -9   9  27   -0.33    1.64   0
  -9  13  -4    2.79    2.17   0
  -9  19  -7    2.31    2.58   0
  -8   6   5    5.62    2.56   0
  -8   6   6    6.75    2.03   0
  -8   6  23    2.63    1.66   0
  -8   8   0    2.87    2.69   0
  -8   8  29   -0.73    2.28   0
  -8  10  -3   28.22    2.22   0
  -8  14  -7    6.89    1.97   0
  -8  18  -9   -0.77    2.20   0
  -7   5   4   74.57    3.46   0
  -7   5  25   -0.40    2.28   0
  -7   7  -1    0.69    2.90   0
  -7   7  30   -0.83    2.37   0
  -7  15 -10    1.46    2.01   0
  -6   4   3    4.65    3.19   0
  -6   4  25    0.85    1.83   0
  -6   4  26   -1.16    2.13   0
  -6   6  -2   28.97    2.98   0
  -6   6  31   -0.02    2.23   0
  -5   3   3    6.52    2.93   0
  -5   5  31   -1.17    2.49   0
  -5   7  -6    2.59    2.52   0
  -4   2   3  100.98    5.38   0
  -4   2  25    1.43    1.66   0
  -4   4  31   -0.85    2.29   0
  -4  12 -13    1.47    2.80   0
  -3   1  25   -0.94    2.20   0
  -3   3  31    0.76    2.25   0
  -2   0   5    2.77    3.45   0
  -2   0  23   -0.46    1.79   0
  -2   2  -2    0.68    5.00   0
  -2   2  30    1.22    2.02   0
  -1  -1   7  145.51    6.19   0
  -1  -1  21   13.61    2.93   0
  -1   3  34    0.55    2.50   0
  -1   9 -14    0.50    2.95   0
  -1  19 -19    0.22    3.86   0
   0  -2  12    1.68    3.31   0
   0  -2  16   15.20    2.73   0
   0  -2  17   -0.14    2.14   0
   0   0  28   -0.10    2.71   0
   0   2  33    1.50    1.87   0
   1  -1  26   10.66    2.68   0
   1   1  32    3.76    2.64   0
   2   0  -3    1.08    3.27   0
   3  -3  19    0.50    2.86   0
   3  -1  29   -0.15    2.55   0
   3   1  34   -0.04    2.10   0
   4   0  -5    0.56    2.65   0
   4   2  -9   55.07    3.90   0
   4   8 -17    1.75    1.76   0
   4  14 -21    2.33    1.97   0
   5  -3   5  118.85    4.63   0
   5  -1  -3   11.27    2.66   0
   5   5 -14    0.29    2.76   0
   6   0  -6  356.25    5.67   0
   6   2 -10   55.49    3.50   0
   7  -1  -4   42.49    2.76   0
   7  -1  31    0.49    3.79   0
   7   3 -12    2.40    2.52   0
   7   7 -17    4.56    2.31   0
   8  -2  -1   52.90    2.74   0
   8   6 -16   -1.65    2.57   0
   8   8 -18   15.12    2.71   0
   8  12 -21    2.61    1.86   0
   8  14 -22    0.90    1.66   0
   9  -3   3    3.55    2.14   0
   9  -1  -4    2.41    2.97   0
   9   1  -9    0.92    1.91   0
   9   5 -15   13.88    1.97   0
   9   7 -17    2.50    2.34   0
   9   9 -19    0.61    2.07   0
  10  -2  -1   20.08    2.04   0
  10   6 -16   -0.15    2.52   0
  10   8 -18   -1.17    2.40   0
  10  12 -21   -0.52    2.21   0
  10  14 -22   -0.40    1.22   0
  10  14 -22   -0.82    0.84   0
  11  -3   4    1.31    2.37   0
  11  -3  22    4.46    2.28   0
  11  -1  -4    1.46    1.80   0
  11   3 -12    3.00    1.93   0
  11   5 -15    6.62    1.95   0
  11   7 -17    0.37    2.24   0
  11   9 -19    1.11    1.85   0
  12  -2   0   36.61    2.22   0
  12   0  -6    0.00    1.93   0
  12   2 -10    1.09    1.84   0
  12   4 -13   16.39    2.48   0
  13  -3   6    4.98    2.03   0
  13  -3   7   20.34    2.66   0
  13  -3  19    6.95    2.42   0
  13   3 -11   33.66    2.84   0
  13   5 -14   -2.29    2.32   0
  13  11 -20   -0.05    1.82   0
  14  -2   2    9.71    1.99   0
  14  -2   3    1.48    2.59   0
  14  -2  23    3.55    2.39   0
  14   2  -9    2.96    1.75   0
  14   6 -15   -0.69    1.62   0
  14   8 -17   -3.24    1.78   0
  15  -1   0    0.33    2.47   0
  15   1  -6   13.33    2.03   0
  15   3 -10    1.86    1.84   0
  15   5 -13   -0.26    1.63   0
  16  -2   7   -2.83    1.56   0
  16  -2   8   -0.06    2.27   0
  16  -2  18    1.80    2.59   0
  16  -2  19    0.26    1.15   0
  16  -2  19    0.52    1.24   0
  16   0  -2   23.82    2.31   0
  16   2  -7    1.98    2.25   0
  16   4 -11    1.68    1.81   0
  17  -1   3    0.87    1.79   0
  17  -1   4    0.14    2.08   0
  17   1  -4    3.26    1.77   0
  17   1  -3   -2.86    2.24   0
  17   3  -8    2.79    1.88   0
  17   5 -11    1.33    2.48   0
  17   7 -14    0.40    1.83   0
  18   0   1    2.10    1.86   0
  18   0   2   10.30    2.54   0
  18   2  -5    2.25    1.85   0
  18   2  -4    5.09    2.34   0
  18   4  -9    0.80    1.67   0
  18   6 -12   -0.09    1.89   0
  19   1   0    3.14    1.79   0
  19   1   1    2.92    2.39   0
  19   3  -5    0.47    2.07   0
  20   2  -1   -0.22    1.62   0
  20   2   0    2.52    2.28   0
  20   4  -6    1.07    1.15   0
 -13  17  10   -0.28    2.14   0
 -13  17  11   -0.09    1.14   0
 -12  12  12   -1.05    2.10   0
 -12  12  13   -1.02    2.22   0
 -12  12  14    0.55    2.45   0
 -12  12  15   -0.61    2.68   0
 -12  12  16    4.53    2.60   0
 -12  12  17    0.16    2.42   0
 -12  12  18    3.05    2.18   0
 -12  14   6   14.31    2.39   0
 -12  14   7    7.32    1.81   0
 -12  16   4    1.08    2.46   0
 -12  18   2   -2.46    2.32   0
 -12  18   3    1.19    1.92   0
 -11  11   6   18.70    2.36   0
 -11  11   7    4.36    1.80   0
 -11  11  24    0.18    2.15   0
 -11  13   3    6.66    1.84   0
 -11  15   0   -1.69    1.96   0
 -11  17  -1    1.07    2.50   0
 -11  19  -2    1.10    2.31   0
 -10   8  10    0.42    1.72   0
 -10   8  11    1.94    1.72   0
 -10   8  19   10.58    2.00   0
 -10   8  20   -0.75    1.86   0
 -10   8  21   -1.10    2.39   0
 -10  10   3  102.54    3.50   0
 -10  10  26    0.31    1.74   0
 -10  10  27    0.75    2.04   0
 -10  12   0   92.52    3.39   0
 -10  14  -2   -0.60    1.64   0
 -10  16  -4   -0.61    2.39   0
 -10  20  -5    2.06    1.83   0
  -9   7   6   -0.27    2.45   0
  -9   7   7    5.12    1.69   0
  -9   7  23    2.50    1.65   0
  -9   7  24    1.66    2.11   0
  -9   9   1    6.77    2.60   0
  -9   9  28    0.17    1.55   0
  -9   9  29   -0.10    2.01   0
  -9  11  -2   18.67    2.77   0
  -9  15  -6    0.05    2.23   0
  -9  17  -7   -0.81    2.66   0
  -8   6   4    6.27    2.38   0
  -8   6  25    1.37    1.70   0
  -8   8  30    0.49    2.27   0
  -8  12  -6   68.63    3.05   0
  -8  20 -10   -1.15    1.94   0
  -7   5   3   -0.00    2.91   0
  -7   5  26   -1.59    1.74   0
  -7   7  31   -0.98    2.46   0
  -7  11  -7  146.95    4.19   0
  -7  13  -9   34.08    3.09   0
  -7  17 -11   -0.75    2.04   0
  -6   4  27   -1.20    2.41   0
  -6   6  32   -1.41    2.11   0
  -6  10  -8    4.63    2.03   0
  -6  12 -10    2.05    1.94   0
  -6  18 -13    0.07    2.01   0
  -5   3  27    4.28    2.42   0
  -5   5  32   -0.06    2.62   0
  -4   2  26   -0.53    1.74   0
  -4   4  32   -1.25    2.39   0
  -3   1  26    0.87    2.06   0
  -2   0  24    2.17    1.89   0
  -2   2  31   -0.68    2.61   0
  -1  -1  22    6.28    2.85   0
  -1   1  30    7.40    2.83   0
   0  -2  11   14.58    3.50   0
   0  -2  18    4.48    2.32   0
   0   2  34    0.48    2.40   0
   0   8 -14    0.79    2.40   0
   2  -2  24    7.52    2.49   0
   2   0  31    0.58    2.36   0
   2  18 -21    0.83    2.32   0
   3  -1  -1   20.51    3.68   0
   3   3 -10   33.83    2.63   0
   4   4 -12   10.09    2.82   0
   4  18 -22    0.60    1.65   0
   4  18 -22    0.17    0.98   0
   5   3 -11   56.98    3.49   0
   5   7 -16   -0.24    2.58   0
   5   9 -18    2.37    2.11   0
   5  17 -22    0.25    2.18   0
   6  -2   0   18.16    2.49   0
   6   4 -13   11.48    2.09   0
   6  10 -19    0.69    2.12   0
   7  -3   4   62.05    2.93   0
   7   1  -8    8.04    3.15   0
   7  11 -20    2.28    1.89   0
   7  13 -21    0.75    2.05   0
   7  15 -22    0.85    1.38   0
   7  15 -22   -0.11    1.02   0
   8   0  -6   22.67    3.37   0
   8   2 -10   15.83    3.00   0
   9  -3   4   43.85    3.44   0
   9  -3  23    0.42    2.52   0
   9   3 -12    3.21    1.95   0
   9  11 -20    4.59    2.59   0
   9  15 -22    0.43    1.74   0
  10  -2  27    0.37    3.23   0
  10   0  -6    4.41    1.95   0
  10   2 -10   -1.19    1.72   0
  10   4 -13   -1.97    2.57   0
  11  -3   5   -1.63    1.87   0
  11  -1  -3    1.75    1.76   0
  11   1  -8    8.45    1.85   0
  11  11 -20   -1.68    1.73   0
  11  13 -21    0.19    2.26   0
  12  -2   1    1.09    1.86   0
  12   0  -5   -0.81    2.65   0
  12   8 -17    0.30    2.47   0
  12  10 -19    0.63    1.83   0
  13  -3   8    1.13    1.88   0
  13  -3   9   26.85    2.83   0
  13  -3  10    1.28    2.40   0
  13  -3  17    1.85    2.39   0
  13  -3  18    2.31    2.11   0
  13  -1  -2   -2.44    1.95   0
  13   1  -7   13.92    1.98   0
  13   7 -16    0.48    1.68   0
  13   9 -18   -1.28    1.75   0
  14  -2   4   12.71    2.66   0
  14   0  -4    7.65    1.95   0
  14   2  -8   -2.48    2.49   0
  14   6 -14    1.86    2.36   0
  14  10 -18    2.54    2.50   0
  15  -1   1    3.25    2.31   0
  15   1  -5    3.11    2.29   0
  15   3  -9   -0.65    2.61   0
  15   5 -12    1.50    2.50   0
  15   7 -15    1.56    1.71   0
  15   9 -17   -0.60    1.73   0
  16  -2   9   -0.57    1.72   0
  16  -2  10   -0.01    2.12   0
  16  -2  11    2.67    2.58   0
  16  -2  12   -0.82    2.46   0
  16  -2  13   -2.13    2.50   0
  16  -2  14    7.19    2.57   0
  16  -2  15    2.51    2.46   0
  16  -2  16    1.33    2.22   0
  16  -2  17    0.13    1.28   0
  16  -2  17    1.62    1.26   0
  16   0  -1    3.14    2.13   0
  16   2  -6    0.34    2.48   0
  16   4 -10    5.19    2.03   0
  16   6 -13    3.41    1.80   0
  16   8 -15   -0.54    2.06   0
  16  10 -17    1.06    1.68   0
  17  -1   5    1.43    1.73   0
  17  -1   6    1.64    2.36   0
  17   1  -2    5.12    2.34   0
  17   3  -7    3.19    2.35   0
  17   7 -13    0.62    2.38   0
  17   9 -15   -0.30    2.36   0
  18   0   3    3.28    1.75   0
  18   0   4    1.41    2.43   0
  18   2  -3    2.41    2.35   0
  18   4  -8    0.08    1.79   0
  18   6 -11   -0.82    1.84   0
  19   1   2    4.65    2.10   0
  19   3  -4    1.70    2.14   0
  19   5  -8   -0.79    1.69   0
  20   2   1    0.28    1.57   0
 -13  15  10    2.72    2.08   0
 -13  15  11   -0.68    2.32   0
 -13  15  12    0.54    1.73   0
 -13  15  13    0.06    1.80   0
 -13  15  14    0.40    1.74   0
 -13  15  15    0.56    1.71   0
 -13  15  16    0.77    1.87   0
 -13  17   7    1.76    2.06   0
 -13  17   9   -0.17    1.68   0
 -12  12   9   -2.50    2.26   0
 -12  12  10    0.14    1.80   0
 -12  12  11    1.92    1.70   0
 -12  12  20   -1.53    1.65   0
 -12  12  21    0.26    2.43   0
 -12  12  22   -0.86    2.24   0
 -12  14   5    1.37    2.30   0
 -12  16   3   -0.34    1.85   0
 -12  18   1    1.55    2.22   0
 -11   9  11   12.48    2.32   0
 -11   9  12    2.30    2.42   0
 -11   9  13    1.51    1.66   0
 -11   9  14    0.76    1.79   0
 -11   9  15   -1.95    1.79   0
 -11   9  16    0.48    1.78   0
 -11   9  17   14.14    2.00   0
 -11   9  18    4.23    2.55   0
 -11  11   5    2.75    2.42   0
 -11  11  25   -0.84    1.83   0
 -11  13   2    2.01    1.78   0
 -11  17  -2    1.86    2.44   0
 -11  19  -3    3.10    2.00   0
 -10   8   7   24.88    2.64   0
 -10   8   8    4.43    1.83   0
 -10   8  22    0.73    1.72   0
 -10  10   2   33.40    2.72   0
 -10  12  -1    4.87    2.35   0
 -10  14  -3    1.06    2.35   0
 -10  18  -5    0.50    1.84   0
 -10  20  -6    3.59    1.92   0
  -9   7   5   11.30    2.52   0
  -9   7  25   -0.73    1.70   0
  -9  19  -8    4.33    2.51   0
  -8   4  14    3.62    2.24   0
  -8   4  15   17.19    2.49   0
  -8   4  16   20.52    2.65   0
  -8   6  26    1.72    1.67   0
  -8   6  27   -0.75    2.33   0
  -8   8  -1    1.05    2.63   0
  -8  10  -4   21.31    2.70   0
  -8  14  -8    1.41    1.95   0
  -8  16  -9   -0.18    2.28   0
  -7   3  12    3.40    2.72   0
  -7   3  13    2.26    1.92   0
  -7   3  14   30.43    2.19   0
  -7   3  15   13.18    1.91   0
  -7   3  16   21.79    2.15   0
  -7   3  17   -0.55    1.92   0
  -7   3  18    1.46    2.49   0
  -7   3  19    6.47    2.51   0
  -7   5  27   -0.58    1.84   0
  -7   5  28    1.75    2.08   0
  -7   7  -2    1.15    2.99   0
  -7   9  -5   14.88    2.80   0
  -6   2  11   97.32    3.55   0
  -6   2  12   42.16    3.19   0
  -6   2  13   23.26    2.22   0
  -6   2  14    3.21    1.88   0
  -6   2  15    3.48    2.01   0
  -6   2  16   -0.22    1.88   0
  -6   2  17    6.50    1.92   0
  -6   2  18   29.69    2.81   0
  -6   2  19   -1.21    2.26   0
  -6   4   2  158.28    4.32   0
  -6   4  28    0.84    2.42   0
  -5   1  13   46.91    3.25   0
  -5   1  14   16.73    3.03   0
  -5   1  15   27.87    3.02   0
  -5   1  16   29.06    2.95   0
  -5   1  17   43.11    3.06   0
  -5   1  18    0.88    2.34   0
  -5   3  28    1.61    2.28   0
  -5   5  -3   32.96    3.09   0
  -5   5  33   -2.19    2.15   0
  -5   9  -9   53.17    3.43   0
  -5  11 -11    9.92    2.46   0
  -4   4  -3   39.32    4.06   0
  -4   4  33    0.90    2.13   0
  -3   1   3   53.42    4.34   0
  -3   1  27    0.30    2.34   0
  -3   3  32    0.25    1.90   0
  -2   0  25    2.00    2.47   0
  -1  -1  23    5.53    2.58   0
   0  -2  10   48.22    4.41   0
   0  -2  19   -1.29    2.19   0
   0   0  29    1.22    2.68   0
   0  16 -19    2.63    2.82   0
   1  -1  27    9.33    2.84   0
   1   1  33    1.39    2.43   0
   1  17 -20    3.74    2.76   0
   3   1  -6   83.27    3.93   0
   4  -2   2   26.49    4.22   0
   4   0  33   -0.20    1.93   0
   5  -3   6   32.86    3.27   0
   5   1  -7  164.43    4.43   0
   6  -2  28    0.05    3.63   0
   6   6 -15   -1.74    2.57   0
   6   8 -17   21.00    2.77   0
   6  12 -20    1.00    2.00   0
   6  14 -21    0.37    2.09   0
   7  -3   5   31.90    3.24   0
   7  -1  -3   17.06    2.54   0
   7   5 -14    0.25    2.56   0
   7   9 -18    1.89    2.44   0
   8  -2   0    8.86    2.30   0
   8   4 -13   15.69    2.04   0
   8  10 -19    0.36    2.21   0
   8  16 -22   -0.02    2.06   0
   9  -3   5  105.64    3.84   0
   9  -1  -3   40.22    2.44   0
   9   5 -14    1.89    2.65   0
   9  13 -21    0.08    1.31   0
  10   6 -15    2.37    2.55   0
  10  10 -19    1.87    1.60   0
  11  -3   6    1.71    1.89   0
  11  -3   7   -0.94    2.72   0
  11  -3  21   12.09    2.32   0
  11  -1  -2   53.63    3.06   0
  11   1  -7   14.07    2.51   0
  11   3 -11    8.73    1.89   0
  11   5 -14    2.59    1.85   0
  11   7 -16    2.61    2.39   0
  11   9 -18    5.16    2.07   0
  12  -2   2    0.45    1.71   0
  12  -2  25   -0.44    2.30   0
  12   2  -9   17.08    2.02   0
  12   4 -12   -1.33    2.33   0
  12  12 -20   -1.63    1.91   0
  13  -3  11   34.96    2.33   0
  13  -3  12   28.31    3.02   0
  13  -3  13   32.68    3.01   0
  13  -3  14    8.75    2.78   0
  13  -3  15   18.64    2.83   0
  13  -3  16   17.96    2.50   0
  13  -1  -1   69.69    2.66   0
  13   1  -6    4.11    2.43   0
  13   3 -10   13.56    1.96   0
  13   9 -17   -1.60    2.36   0
  13  11 -19    0.04    1.68   0
  13  13 -20   -0.89    1.65   0
  14  -2   5   -1.21    2.21   0
  14  -2  22    5.28    2.22   0
  14   0  -3    1.20    1.71   0
  14   4 -11   -1.72    1.68   0
  14   8 -16   -2.02    1.80   0
  14  12 -19   -0.67    1.84   0
  14  12 -19   -0.21    1.23   0
  15  -1   2   29.85    2.18   0
  15   1  -4    1.26    2.46   0
  15   7 -14    4.39    2.32   0
  15   9 -16    2.04    2.28   0
  15  11 -18   -0.02    1.62   0
  16   0   0   21.42    2.04   0
  16   2  -5    4.81    2.46   0
  16   4  -9    0.85    2.61   0
  16   6 -12    2.00    2.48   0
  16  10 -16    1.93    2.32   0
  17  -1   7    7.37    1.79   0
  17  -1   8   -2.17    2.17   0
  17  -1   9   -2.44    2.26   0
  17   1  -1    3.58    2.38   0
  17   3  -6    1.07    2.48   0
  17   5 -10    1.59    1.91   0
  18   0   5    2.55    1.78   0
  18   0   6    0.62    2.37   0
  18   2  -2   -0.15    2.32   0
  18   4  -7    0.91    1.77   0
  18   6 -10   -1.88    2.17   0
  19   1   3    0.30    1.80   0
  19   1   4    0.00    2.57   0
  19   3  -3    0.19    1.79   0
  19   5  -7    4.58    2.18   0
  20   2   2   -0.42    1.54   0
  20   4  -3    0.62    2.27   0
 -13  13  14    3.54    2.08   0
 -13  13  15    1.49    2.09   0
 -13  13  16   -1.39    2.28   0
 -13  13  17   -1.07    2.18   0
 -13  13  18    3.34    2.15   0
 -13  15   8    4.89    2.37   0
 -13  15   9    0.99    1.74   0
 -13  17   6    0.38    1.69   0
 -12  12   7   -0.21    2.31   0
 -12  12   8   -1.25    1.53   0
 -12  14   4    1.24    1.72   0
 -12  16   2   -1.32    1.75   0
 -12  18   0   -0.07    2.26   0
 -11   9   9    1.65    2.39   0
 -11   9  10    7.83    1.85   0
 -11   9  20   -1.35    1.85   0
 -11   9  21    3.84    2.07   0
 -11   9  22   -1.11    2.48   0
 -11   9  23    0.09    2.20   0
 -11  11   4   -1.66    1.82   0
 -11  13   1    0.71    1.66   0
 -11  15  -1    3.26    1.79   0
 -10   8   6    1.26    2.40   0
 -10   8  24    1.96    1.71   0
 -10   8  25    1.13    2.44   0
 -10  16  -5    1.85    2.56   0
 -10  18  -6    2.23    2.26   0
  -9   5  13    5.14    2.34   0
  -9   5  14    2.53    2.46   0
  -9   5  15   13.48    2.49   0
  -9   5  16   -2.29    2.31   0
  -9   5  17    3.53    2.37   0
  -9   5  18   -1.97    2.20   0
  -9   7   4    0.94    2.57   0
  -9   7  26    2.08    1.67   0
  -9   7  27    2.26    2.42   0
  -9   9   0   -0.59    1.84   0
  -9  11  -3    9.48    1.87   0
  -9  13  -5   41.82    2.42   0
  -8   4  11   62.91    3.23   0
  -8   4  12   52.35    2.46   0
  -8   4  13   14.44    1.92   0
  -8   4  18   -0.49    1.78   0
  -8   4  19   -0.09    1.85   0
  -8   4  20   11.56    2.73   0
  -8   6   3    5.05    1.89   0
  -8   6  28    0.29    2.41   0
  -8  18 -10    1.11    2.06   0
  -7   3  10    8.16    2.13   0
  -7   3  11   -0.82    1.90   0
  -7   3  20   12.20    2.03   0
  -7   3  21   26.40    2.84   0
  -7   5   2    6.19    2.12   0
  -7   5  29    1.14    2.04   0
  -7  19 -12    0.24    2.21   0
  -6   2  10   51.02    2.70   0
  -6   2  20    0.88    1.83   0
  -6   2  21    6.50    2.43   0
  -6   4  29   -1.95    2.27   0
  -6   6  -3    9.71    2.85   0
  -6   8  -6   49.17    2.45   0
  -5   1  11    8.71    2.31   0
  -5   1  12   96.13    3.17   0
  -5   1  19   64.73    2.69   0
  -5   1  20   17.83    2.80   0
  -5   3  29   -0.90    2.23   0
  -5  19 -15    0.75    3.04   0
  -4   0  13   -0.40    3.18   0
  -4   0  14   19.46    3.31   0
  -4   0  15   -1.64    2.88   0
  -4   0  16   81.91    3.69   0
  -4   0  17    1.66    2.76   0
  -4   2   2   11.24    3.25   0
  -4   2  28    0.45    1.81   0
  -4  18 -16    0.29    3.46   0
  -3   3  33    1.49    2.45   0
  -2   0   4  884.83   11.20   0
  -2   0  26    5.68    2.97   0
  -2   2  32   -1.25    1.88   0
  -1  -1   6 1550.75   16.35   0
  -1  -1  24    1.63    2.52   0
  -1   1  31   -0.83    2.02   0
   0  -2  20   11.04    2.39   0
   0   0  30    3.47    2.37   0
   0  12 -17    1.86    2.42   0
   1  -1  28    1.80    2.67   0
   1  11 -17    6.62    2.55   0
   2  -2  25    4.05    3.17   0
   2   0  32   -0.96    2.36   0
   2   2  -7  726.65    9.61   0
   2  10 -17    1.54    2.08   0
   3  -3  20   -0.21    2.74   0
   3  -1  30    0.88    2.59   0
   3  17 -21    1.91    2.08   0
   4  -2  27    1.59    2.79   0
   4   0  -4  117.89    5.07   0
   4  16 -21    0.33    1.81   0
   5  -3  23    1.78    4.81   0
   5  -1  -2   20.21    2.87   0
   5  -1  31    0.25    2.83   0
   5  11 -19   -0.28    1.94   0
   6  -2   1   37.19    3.60   0
   6   0  -5   -2.29    2.51   0
   6   2  -9   89.06    3.87   0
   7  -3  23   -0.08    4.43   0
   7   3 -11    1.80    1.88   0
   7   7 -16    4.35    2.35   0
   7  17 -22   -0.16    1.66   0
   8  -2   1    6.80    3.21   0
   8   0  -5   -0.67    3.15   0
   8   6 -15   34.18    2.31   0
   8   8 -17    5.14    2.43   0
   8  12 -20    1.55    1.73   0
   8  14 -21    0.20    1.82   0
   9  -3   6   33.58    3.23   0
   9   3 -11    8.34    1.89   0
   9   7 -16    1.38    2.15   0
   9   9 -18    3.14    1.71   0
  10  -2   1    0.81    2.04   0
  10   0  -5    0.18    1.90   0
  10   2  -9    4.79    1.84   0
  10   4 -12   15.54    2.61   0
  10   8 -17   -2.48    1.80   0
  10  12 -20    1.25    1.77   0
  10  14 -21   -0.13    1.30   0
  11  -3   8    1.85    2.64   0
  11  -3  20   -0.40    2.16   0
  11  11 -19    0.27    2.11   0
  11  13 -20    0.19    2.38   0
  12  -2   3    0.10    1.88   0
  12   0  -4   -0.24    1.92   0
  12   2  -8   34.36    2.84   0
  12   6 -14    7.29    2.56   0
  12  10 -18    2.70    2.22   0
  13  -1   0    2.77    1.98   0
  13   7 -15    1.55    1.66   0
  14  -2   6    0.63    1.65   0
  14  -2   7    0.34    2.30   0
  14  -2  21   -0.20    2.12   0
  14   0  -2   20.01    1.97   0
  14   2  -7   18.57    2.03   0
  14   4 -10    5.18    2.45   0
  14   6 -13    3.46    2.17   0
  14   8 -15    0.99    2.32   0
  14  10 -17   -1.32    2.13   0
  15  -1   3    6.10    1.81   0
  15  -1   4    6.26    2.49   0
  15   1  -3    1.48    2.37   0
  15   3  -8   -0.14    1.92   0
  15  11 -17    2.51    2.34   0
  16   0   1   -1.43    1.77   0
  16   8 -14   -1.48    1.68   0
  17  -1  10    2.52    1.70   0
  17  -1  11    0.26    2.11   0
  17  -1  12   -2.66    2.36   0
  17  -1  13   -3.10    2.47   0
  17  -1  14   -1.50    2.40   0
  17  -1  15    0.80    2.43   0
  17  -1  16    1.95    1.70   0
  17  -1  16    0.35    1.30   0
  17  -1  17    0.71    1.25   0
  17  -1  17    0.62    1.27   0
  17   1   0    0.91    2.32   0
  17   3  -5    7.19    2.63   0
  17   5  -9    0.62    1.88   0
  17   7 -12    0.26    1.77   0
  17   9 -14   -0.75    1.61   0
  18   0   7   -2.72    1.71   0
  18   0   8    1.96    2.49   0
  18   4  -6    4.10    1.96   0
  18   6  -9    2.70    2.26   0
  18   8 -12   -0.95    1.68   0
  19   1   5    2.29    1.85   0
  19   1   6    1.11    2.38   0
  19   3  -2    3.68    1.78   0
  19   5  -6    1.78    2.14   0
  19   7  -9    1.98    2.10   0
  20   2   4    1.40    1.31   0
  20   2   4    0.21    1.08   0
  20   4  -2   -0.95    1.20   0
  20   4  -2   -0.53    1.20   0
 -13  13  11    0.14    1.58   0
 -13  13  12    2.55    1.68   0
 -13  13  13    1.59    1.67   0
 -13  15   6   -1.79    2.06   0
 -13  15   7   -0.38    1.69   0
 -13  17   4   -1.62    2.46   0
 -13  17   5    1.26    1.82   0
 -12  10  11   -0.22    2.04   0
 -12  10  12    1.56    2.48   0
 -12  10  13    0.02    1.70   0
 -12  10  15   -1.01    1.82   0
 -12  10  16    0.43    1.84   0
 -12  10  17    4.23    1.90   0
 -12  10  18    0.17    1.85   0
 -12  10  19    0.27    1.76   0
 -12  10  21    1.60    2.25   0
 -12  12   6    7.05    1.86   0
 -12  14   3    1.29    1.84   0
 -12  16   1    2.26    1.69   0
 -11   9   7    3.51    2.46   0
 -11   9  24    1.48    1.86   0
 -11  11   3   -0.32    1.74   0
 -11  13   0    0.89    2.26   0
 -11  15  -2    2.06    2.49   0
 -11  17  -3    1.25    1.80   0
 -10   6  14    3.79    2.36   0
 -10   6  15    2.93    2.34   0
 -10   6  16    2.15    2.42   0
 -10   6  18   -0.50    2.40   0
 -10   8   5    9.95    1.79   0
 -10   8  26   -1.68    1.70   0
 -10   8  27    1.18    2.16   0
 -10  10   1   -1.20    1.68   0
 -10  14  -4    0.94    2.64   0
  -9   5  10    2.34    2.51   0
  -9   5  11   14.73    1.83   0
  -9   5  12    3.53    1.75   0
  -9   5  19    0.11    1.69   0
  -9   5  20    7.34    1.77   0
  -9   5  21   -3.94    2.25   0
  -9   7   3    0.37    2.44   0
  -9   7  28   -1.23    1.67   0
  -9   9  -1   24.28    2.76   0
  -9  15  -7    1.83    2.51   0
  -9  17  -8    2.92    2.62   0
  -8   4   9   30.15    2.99   0
  -8   4  10   63.55    2.54   0
  -8   4  21   -0.49    1.76   0
  -8   4  22   13.40    1.92   0
  -8   4  23    6.60    2.16   0
  -8   6   2   19.97    2.75   0
  -8   6  29   -1.58    1.73   0
  -8   8  -2   -1.65    2.74   0
  -8  10  -5    2.39    2.34   0
  -8  12  -7    3.58    2.33   0
  -7   3   8   65.37    3.59   0
  -7   3   9   30.87    2.47   0
  -7   3  22    0.76    1.76   0
  -7   3  23    2.19    2.43   0
  -7   5  30    0.93    2.35   0
  -7  11  -8    4.24    2.26   0
  -7  15 -11   17.43    2.74   0
  -6   2   8   17.24    3.04   0
  -6   2   9   92.88    3.14   0
  -6   2  22    7.35    1.90   0
  -6   2  23    6.90    2.39   0
  -6   4   1   21.02    3.50   0
  -6   4  30    2.55    2.47   0
  -6  20 -14    0.95    2.41   0
  -5   1   9   43.35    3.75   0
  -5   1  10   43.83    2.78   0
  -5   1  21    2.11    1.92   0
  -5   1  22   -0.11    2.56   0
  -5   3   1   -0.33    3.68   0
  -5   3  30    0.88    2.35   0
  -4   0  11    1.19    3.01   0
  -4   0  12  153.30    3.76   0
  -4   0  18    1.20    1.90   0
  -4   0  19   -0.78    1.87   0
  -4   0  20   14.66    2.79   0
  -4   2  29   -1.11    1.92   0
  -4   4  34    0.98    1.18   0
  -4   4  34    0.29    1.09   0
  -3   1  28   -1.62    1.96   0
  -3   3  -3   28.03    4.56   0
  -3   3  34    1.23    2.14   0
  -2   0  27   -3.51    2.65   0
  -2   2  33    2.00    2.52   0
  -1  -1  25    2.84    2.38   0
  -1   1  32   -0.58    2.30   0
   0  -2   9   28.90    4.84   0
   0  -2  21   35.68    2.83   0
   0  14 -18   16.13    3.20   0
   1   1  34    0.41    2.62   0
   1   5 -11    2.05    2.93   0
   2   8 -15   22.74    2.46   0
   2  16 -20    0.08    2.13   0
   3  11 -18    1.41    2.19   0
   4   2  -8    4.67    3.62   0
   4   6 -14    4.26    2.02   0
   4   8 -16    1.39    2.48   0
   4  14 -20    0.36    2.09   0
   5  -3   7    0.51    2.44   0
   5   5 -13    6.39    2.95   0
   6   4 -12    9.42    2.18   0
   7  -1  -2   56.06    3.88   0
   7   1  -7   42.94    2.69   0
   7  11 -19    0.00    2.33   0
   7  15 -21    0.96    1.95   0
   8   2  -9   32.62    2.41   0
   9  -3   7    2.40    2.82   0
   9  -3  22    6.58    2.91   0
   9  -1  -2   43.11    2.55   0
   9   1  -7    4.41    2.01   0
   9  11 -19   -1.72    2.21   0
   9  13 -20    0.09    1.83   0
   9  15 -21    0.65    1.75   0
  10  -2   2    2.06    1.99   0
  10   0  -4    0.28    2.78   0
  10  10 -18    6.28    2.53   0
  11  -3   9   11.92    2.45   0
  11  -3  10   37.33    3.03   0
  11  -3  19   13.49    2.32   0
  11  -1  -1    5.02    1.92   0
  11   1  -6    0.86    2.35   0
  11   3 -10    8.45    2.00   0
  11   5 -13   -0.56    1.85   0
  11   9 -17   13.69    2.40   0
  12  -2  24    0.96    2.15   0
  12   0  -3   -1.08    2.43   0
  12   4 -11    7.82    1.91   0
  12   8 -16   -1.85    1.75   0
  12  12 -19   -1.18    1.84   0
  12  14 -20    1.63    2.26   0
  13  -1   1    4.46    1.99   0
  13   1  -5    2.50    1.90   0
  13   3  -9   40.40    2.30   0
  13   5 -12    4.68    1.78   0
  13   7 -14   -2.04    2.16   0
  13   9 -16   -1.95    2.33   0
  13  11 -18    0.44    1.71   0
  13  13 -19    2.20    2.17   0
  14  -2   8    0.51    1.83   0
  14  -2   9    7.34    2.45   0
  14  -2  19    3.88    2.41   0
  14  -2  20   -0.27    1.89   0
  14   0  -1   -1.43    1.82   0
  14   2  -6   18.49    2.07   0
  14  12 -18    1.10    1.18   0
  15  -1   5    5.56    2.53   0
  15   3  -7    2.14    2.01   0
  15   5 -10    2.39    2.48   0
  15   7 -13    6.03    1.77   0
  15   9 -15    0.22    1.71   0
  16   0   2   -0.81    1.80   0
  16   0   3    1.07    2.34   0
  16   2  -4    6.43    1.88   0
  16   4  -8   -0.93    1.91   0
  16   6 -11    2.38    1.94   0
  16   8 -13    0.76    2.33   0
  16  10 -15    1.67    2.01   0
  17   1   1    2.17    1.64   0
  17   3  -4    4.37    2.37   0
  17   5  -8    0.46    2.27   0
  17   7 -11    0.22    1.95   0
  17   9 -13    4.06    2.47   0
  18   0   9   -0.91    1.77   0
  18   0  10    6.92    2.32   0
  18   0  11   -0.19    2.59   0
  18   0  12   -1.06    2.37   0
  18   0  13   -3.40    2.33   0
  18   0  14    7.65    2.46   0
  18   0  15   -0.97    2.27   0
  18   2   0    1.95    1.79   0
  18   4  -5    1.31    1.82   0
  18   6  -8   -2.46    2.29   0
  19   1   7    0.51    1.75   0
  19   1   8    5.05    2.21   0
  19   1   9   -1.30    2.48   0
  19   3  -1   -0.87    1.68   0
  19   3   0   -1.64    2.23   0
  19   5  -5   -0.47    2.21   0
  19   7  -8    0.79    2.49   0
  20   4  -1   -0.56    1.06   0
 -14  16  10   -1.61    2.21   0
 -13  13   8    1.19    2.47   0
 -13  13   9    1.43    1.72   0
 -13  15   5    1.31    2.29   0
 -13  17   3    0.41    2.54   0
 -12  10   9    5.48    2.27   0
 -12  10  10    5.46    1.64   0
 -12  10  22    1.58    1.87   0
 -12  10  23    2.26    1.82   0
 -12  12   4    2.68    2.03   0
 -12  12   5    0.06    1.80   0
 -12  14   2    0.13    1.75   0
 -12  16   0   -0.14    1.70   0
 -12  18  -1   -0.73    1.70   0
 -11   7  15   20.69    2.52   0
 -11   7  16    2.15    2.11   0
 -11   7  17    4.90    2.28   0
 -11   9   6   33.38    2.24   0
 -11   9  26   -1.85    1.66   0
 -11   9  27    1.67    2.01   0
 -11  11   2   10.81    1.91   0
 -11  13  -1    2.68    2.37   0
 -11  17  -4    4.19    2.30   0
 -10   6  10   21.59    2.49   0
 -10   6  11    8.69    2.45   0
 -10   6  12   -0.79    1.84   0
 -10   6  13    2.03    1.77   0
 -10   6  19   15.86    2.02   0
 -10   6  20    1.29    1.62   0
 -10   6  21    1.61    2.34   0
 -10   6  22    0.46    2.12   0
 -10   8   4    1.53    1.71   0
 -10   8  28    0.15    1.63   0
 -10  10   0   19.87    2.74   0
 -10  16  -6    2.65    2.29   0
 -10  20  -7    1.46    1.73   0
  -9   5   9    4.28    1.83   0
  -9   5  22    0.65    1.60   0
  -9   5  23    2.65    1.61   0
  -9   5  24    3.56    2.09   0
  -9   7  29    0.14    1.72   0
  -9   7  30    1.53    1.95   0
  -9  11  -4   26.67    2.86   0
  -9  13  -6    1.07    2.74   0
  -9  19  -9    0.49    2.09   0
  -8   4  24    1.92    1.68   0
  -8   4  25    5.16    2.06   0
  -8   6  30   -0.50    1.64   0
  -8  16 -10    7.09    2.19   0
  -8  20 -11   -0.57    2.15   0
  -7   3   7   10.21    3.20   0
  -7   3  24   -1.65    1.71   0
  -7   3  25    1.12    2.16   0
  -7   5   1    7.85    2.18   0
  -7   5  31    2.14    2.54   0
  -7   7  -3   37.43    2.48   0
  -7   9  -6   21.95    2.61   0
  -7  17 -12    5.11    2.42   0
  -6   2   7   78.46    3.61   0
  -6   2  24    1.07    1.74   0
  -6   4  31    0.54    2.47   0
  -6  14 -12   10.49    2.62   0
  -6  16 -13   -0.15    2.38   0
  -5   1   8   -2.22    3.32   0
  -5   1  23    1.71    1.92   0
  -5   3  31    1.87    2.08   0
  -4   0  10  131.26    4.37   0
  -4   0  21    0.67    1.87   0
  -4   0  22   21.56    2.70   0
  -4   2  30    0.89    2.46   0
  -4   6  -7    3.05    2.88   0
  -3  -1  14  102.14    3.96   0
  -3  -1  15   18.26    3.24   0
  -3  -1  16    2.39    3.00   0
  -3  -1  17    2.04    2.90   0
  -3   1   2   37.33    5.64   0
  -3   1  29   -0.39    2.74   0
  -2   0  28    7.71    2.36   0
   0  -2  22    4.16    2.43   0
   0   0  31   -0.15    2.34   0
   1  -1  29    0.24    2.67   0
   1  13 -18   -0.36    2.43   0
   1  15 -19    1.41    2.27   0
   1  19 -20    0.74    2.68   0
   2  -2  26    0.33    2.88   0
   2   0  33   -1.05    2.65   0
   2  14 -19    0.61    2.20   0
   3  -3  10   16.15    6.31   0
   3  -3  21    0.01    2.92   0
   3   3  -9   -0.45    3.14   0
   3   5 -12    2.60    2.55   0
   3  13 -19    7.52    2.24   0
   3  15 -20    2.63    1.97   0
   4   0  34    0.33    2.60   0
   4   4 -11  134.16    4.36   0
   5   7 -15   43.99    3.13   0
   5   9 -17    1.67    1.91   0
   6  -2   2   62.90    3.86   0
   6   6 -14    2.10    2.60   0
   6  16 -21    1.79    1.92   0
   7  -3   7    4.32    2.54   0
   7   3 -10   11.32    2.85   0
   7   5 -13    2.95    2.37   0
   7  13 -20    1.66    1.39   0
   8  -2   2    3.35    3.05   0
   8   0  -4    3.86    3.13   0
   8  10 -18    0.92    2.23   0
   8  16 -21   -1.53    1.81   0
   9  -3   8   19.43    2.97   0
   9  -1  -1   -0.76    2.97   0
   9   3 -10   21.61    2.03   0
   9   5 -13    2.82    1.81   0
   9   9 -17    3.15    2.34   0
  10  -2   3   16.81    2.86   0
  10   2  -8   -0.81    1.80   0
  10   6 -14    3.60    1.94   0
  10   8 -16    0.32    2.16   0
  10  12 -19   -1.56    2.44   0
  10  14 -20    1.87    2.57   0
  11  -3  11    6.09    2.43   0
  11  -3  12   31.04    2.79   0
  11  -3  17    9.64    2.23   0
  11  -3  18    3.21    2.06   0
  11  11 -18    2.01    2.37   0
  12  -2   5   76.94    2.66   0
  12   0  -2  117.45    3.30   0
  12   2  -7    0.21    1.95   0
  12   6 -13    0.57    2.50   0
  12  10 -17    2.93    2.22   0
  13  -1   2    3.49    1.93   0
  13   1  -4   20.19    2.10   0
  13   3  -8    4.71    2.35   0
  13   5 -11    1.10    2.49   0
  14  -2  10   10.52    1.91   0
  14  -2  11    6.86    2.23   0
  14  -2  12    0.04    2.61   0
  14  -2  13   -0.17    2.54   0
  14  -2  16    1.61    2.51   0
  14  -2  17    0.54    2.55   0
  14  -2  18    2.06    2.28   0
  14   0   0   21.74    2.54   0
  14   2  -5   41.02    2.95   0
  14   4  -9    2.46    1.85   0
  14   6 -12    1.67    1.81   0
  14   8 -14   -1.97    2.30   0
  14  10 -16   -0.07    1.76   0
  15  -1   6   -0.02    1.82   0
  15  -1   7   10.06    2.39   0
  15  -1  22    2.18    2.25   0
  15   1  -2    6.34    1.90   0
  15   3  -6   -1.23    2.48   0
  15   7 -12    1.68    2.24   0
  15  11 -16    2.17    2.10   0
  16   0   4   30.90    2.57   0
  16   2  -3    1.09    1.72   0
  16   4  -7   -1.15    1.85   0
  16   6 -10    3.43    2.38   0
  17   1   2    0.12    1.72   0
  17   3  -3   -0.93    2.29   0
  17   5  -7   -1.29    2.50   0
  17   7 -10    1.90    2.68   0
  18   2   1   -0.20    1.76   0
  18   4  -4    2.37    2.02   0
  19   1  10   -0.27    1.70   0
  19   1  11    1.37    1.92   0
  19   3   1    2.65    2.09   0
  19   5  -4   -3.39    2.12   0
  19   7  -7   -4.16    2.46   0
  20   4   0   -0.96    1.64   0
  20   4   1    0.62    2.38   0
 -14  14  11    0.40    1.99   0
 -14  14  12    1.12    2.20   0
 -14  14  13   -0.35    1.73   0
 -14  14  14   -0.33    1.77   0
 -14  14  15    1.69    1.79   0
 -14  16   8    0.94    2.34   0
 -14  16   9    2.82    1.24   0
 -13  11  11    1.64    2.18   0
 -13  11  12    0.04    2.24   0
 -13  11  13    1.31    1.71   0
 -13  11  14    0.23    1.85   0
 -13  11  15   -0.39    1.92   0
 -13  11  16    2.87    1.90   0
 -13  11  18   -1.08    1.68   0
 -13  11  19   -0.68    1.66   0
 -13  11  21    1.00    2.33   0
 -13  11  22   -0.11    2.17   0
 -13  13   6   -1.50    2.13   0
 -13  13   7    0.70    1.72   0
 -13  17   2    0.96    1.89   0
 -12  10   7   23.09    2.66   0
 -12  10   8   -1.32    1.79   0
 -12  12   3    1.16    2.43   0
 -12  14   1    0.61    1.57   0
 -12  16  -1   -1.17    2.42   0
 -12  18  -2    0.23    2.38   0
 -11   7  11   11.09    2.32   0
 -11   7  12    1.55    1.80   0
 -11   7  13    0.82    1.71   0
 -11   7  14    2.96    1.71   0
 -11   7  18    1.81    1.74   0
 -11   7  19    4.62    1.81   0
 -11   7  20   -3.42    1.81   0
 -11   7  21    4.43    2.26   0
 -11   7  22    1.09    2.08   0
 -11   9   5   38.15    2.36   0
 -11  11   1   14.37    2.43   0
 -11  19  -5    0.42    2.48   0
 -10   6   9    4.94    1.93   0
 -10   6  23   -2.21    1.67   0
 -10   6  24    1.38    2.30   0
 -10   8   3    0.83    1.75   0
 -10  12  -3   12.83    1.97   0
 -10  14  -5   -0.11    2.43   0
 -10  18  -7    0.27    1.82   0
  -9   5   7    7.08    2.65   0
  -9   5   8   11.37    1.93   0
  -9   5  25    5.89    1.74   0
  -9   7   2    3.44    1.84   0
  -9   9  -2   30.00    2.87   0
  -9  15  -8   10.29    2.44   0
  -8   4   7    7.21    2.10   0
  -8   4  26   -1.94    2.37   0
  -8   6   1   26.55    2.30   0
  -8   6  31   -0.14    1.75   0
  -8   8  -3   27.69    2.97   0
  -8  14  -9   -1.29    2.16   0
  -8  18 -11    0.80    2.36   0
  -7   3   6    8.19    3.17   0
  -7   3  26    3.15    2.49   0
  -7   5  32   -3.06    2.53   0
  -7  13 -10    1.23    2.15   0
  -6   2  25    5.43    1.78   0
  -6   2  26    2.18    2.31   0
  -6   4  32    3.43    2.65   0
  -6  10  -9   19.08    2.29   0
  -5   1  24    0.50    1.79   0
  -5   1  25   -0.37    2.46   0
  -5   3  32    1.09    2.20   0
  -5   5  -4  138.36    4.70   0
  -5   7  -7  108.50    4.14   0
  -5  15 -14   -0.00    2.68   0
  -4   0   9   -3.89    3.44   0
  -4   0  23    0.78    2.51   0
  -4   2   1  117.60    4.43   0
  -4   2  31    3.88    2.53   0
  -3  -1  12  110.81    4.23   0
  -3  -1  13   19.21    2.65   0
  -3  -1  18    4.08    2.02   0
  -3  -1  19   13.87    3.03   0
  -3  -1  20   13.16    2.95   0
  -3   1  30   -0.00    2.63   0
  -2   2  34   -1.14    2.52   0
  -1  -1  26    4.96    2.71   0
  -1   1  33    1.19    2.52   0
   0  -2  23    0.80    2.48   0
   2  -2   5   13.19    6.08   0
   3  -1  31   -0.38    2.65   0
   3   1  -5   40.09    4.66   0
   4  -2   3  367.68    7.00   0
   4  -2  28   -0.15    2.49   0
   4  18 -21   -0.00    1.21   0
   4  18 -21    0.63    0.92   0
   5  -1  -1   13.33    3.30   0
   5   1  -6   27.30    3.01   0
   6   0  -4   60.92    3.23   0
   6   2  -8   11.17    3.17   0
   6   8 -16   -0.04    1.78   0
   6  12 -19    1.44    1.86   0
   6  14 -20    1.30    2.01   0
   7  -1  -1    6.31    3.28   0
   7   1  -6   12.35    3.15   0
   7   7 -15   16.21    2.00   0
   7   9 -17   -0.96    1.85   0
   7  17 -21    0.22    1.97   0
   8   2  -8    4.70    2.12   0
   8   6 -14    7.15    1.95   0
   8   8 -16   -1.52    1.79   0
   8  12 -19    3.89    2.44   0
   8  14 -20    0.21    1.84   0
   9  -3   9    2.94    2.65   0
   9  -3  21    1.36    2.55   0
   9   1  -6   16.21    2.22   0
  10  -2   4    7.72    2.88   0
  10  -2  26    2.28    2.93   0
  10   0  -3   -0.38    2.56   0
  10   4 -11    3.16    1.74   0
  11  -3  13   41.25    2.36   0
  11  -3  14    1.60    2.03   0
  11  -3  15    4.88    2.01   0
  11  -3  16   20.55    2.34   0
  11  -1   1   55.38    2.96   0
  11   1  -5    2.97    1.81   0
  11   3  -9    1.57    1.96   0
  11   5 -12    7.99    1.84   0
  11   7 -14    0.60    2.52   0
  11   9 -16    0.00    2.32   0
  11  13 -19   -1.36    1.77   0
  11  15 -20    1.00    1.22   0
  11  15 -20    1.09    1.21   0
  12  -2   6   11.24    2.05   0
  12  -2  23    1.26    1.87   0
  12   2  -6    4.67    2.53   0
  12   4 -10    6.58    1.96   0
  12   8 -15   -2.36    1.67   0
  12  12 -18    1.64    1.82   0
  12  14 -19    2.42    2.24   0
  13  -1   3    1.49    1.95   0
  13  -1  26   -0.30    2.32   0
  13   1  -3   19.58    2.56   0
  13   9 -15   -1.06    2.41   0
  13  11 -17    0.99    1.82   0
  13  13 -18   -2.42    2.17   0
  14  -2  14    1.26    1.97   0
  14  -2  15    1.04    1.95   0
  14   0   1    2.52    2.33   0
  14   4  -8   20.91    2.77   0
  14   6 -11    3.67    2.35   0
  14  12 -17   -0.49    1.87   0
  15  -1   8   -1.08    2.06   0
  15  -1   9    1.44    2.23   0
  15   1  -1    1.36    1.72   0
  15   5  -9   -1.29    1.77   0
  15   9 -14    2.10    1.76   0
  16   0   5   -1.68    1.73   0
  16   0   6    0.42    2.47   0
  16   2  -2    7.22    1.65   0
  16   4  -6    0.14    2.27   0
  16   6  -9    1.63    2.46   0
  16   8 -12    0.90    1.74   0
  16  10 -14   -0.03    1.60   0
  17   1   3    0.72    1.85   0
  17   1   4    3.77    2.48   0
  17   3  -2    1.31    2.28   0
  17   9 -12   -0.05    1.75   0
  18   2   3   -1.71    2.54   0
  18   6  -7    1.91    1.71   0
  19   3   2    1.50    1.73   0
 -14  12  17    4.11    2.36   0
 -14  14   9    1.19    2.35   0
 -14  14  10   -0.53    1.68   0
 -14  16   6   -0.84    2.47   0
 -14  16   7   -0.04    1.70   0
 -13  11   9   -1.27    2.22   0
 -13  13   5    1.09    2.34   0
 -13  15   3    2.07    1.83   0
 -13  17   1    1.57    2.60   0
 -12   8  12   -1.48    2.17   0
 -12   8  13   -0.85    2.35   0
 -12   8  14    1.51    1.83   0
 -12   8  16   -0.66    1.89   0
 -12   8  17    1.67    1.86   0
 -12   8  18   -2.55    1.86   0
 -12   8  19    2.16    1.92   0
 -12   8  20    0.07    2.66   0
 -12   8  21   -0.23    2.69   0
 -12  10   6    1.46    1.71   0
 -12  12   2    2.41    2.42   0
 -12  14   0    2.72    1.61   0
 -12  16  -2    1.46    2.29   0
 -12  18  -3    0.05    1.98   0
 -11   7   9    2.05    2.39   0
 -11   7  10   15.08    1.95   0
 -11   7  23    1.08    1.64   0
 -11   7  24    0.13    2.25   0
 -11   9   4   -0.52    1.88   0
 -11  13  -2   -1.14    1.74   0
 -11  15  -4    2.90    2.42   0
 -11  17  -5    0.31    2.46   0
 -10   6   7    8.08    2.33   0
 -10   6  25   -0.41    1.82   0
 -10   6  26    1.33    2.35   0
 -10   8   2    7.59    2.34   0
 -10  10  -1   33.00    2.18   0
  -9   5   6    0.22    2.65   0
  -9   5  26   -1.93    1.74   0
  -9   5  27    0.48    2.62   0
  -9   7   1   12.84    2.66   0
  -9  11  -5   84.22    3.43   0
  -9  17  -9    1.51    2.26   0
  -8   4   6    3.63    2.13   0
  -8   4  27   -1.66    1.74   0
  -8   4  28   -1.47    2.13   0
  -8  10  -6  110.17    3.68   0
  -7   3  27   -0.52    1.85   0
  -7   5   0    0.56    2.24   0
  -6   2   6   32.63    2.75   0
  -6   2  27    2.29    2.23   0
  -6   4   0   70.21    3.31   0
  -6   4  33   -0.66    2.41   0
  -6   6  -4   -0.73    1.79   0
  -6   8  -7   -0.09    2.18   0
  -6  12 -11    6.30    2.54   0
  -6  18 -14    0.12    2.29   0
  -5   1   7  163.83    4.11   0
  -5   1  26    0.21    2.30   0
  -5   3   0   93.74    4.51   0
  -5  13 -13    4.23    2.92   0
  -4   0   8   -0.36    3.64   0
  -4   0  24    0.56    1.85   0
  -4   2  32    1.47    2.17   0
  -3  -1  11   10.90    3.13   0
  -3  -1  21    3.36    2.70   0
  -3  -1  22    0.91    2.36   0
  -3   1  31   -2.59    2.30   0
  -3   5  -7   22.96    4.54   0
  -2   0   3   -0.48    3.63   0
  -2   0  29    3.76    2.74   0
  -1  -1   5  390.70    9.63   0
  -1  -1  27   -0.99    2.61   0
  -1   5  -9    0.41    5.40   0
   0   0  32    1.15    2.68   0
   1  -1  30   -1.34    2.81   0
   1   7 -13   32.33    3.06   0
   1   9 -15    2.53    1.93   0
   2  -2  27    1.26    2.70   0
   3  -3  22    8.03    3.34   0
   4   0  -3   -1.30    4.29   0
   4  10 -17    1.47    1.97   0
   5  -3   8    0.96    2.30   0
   5  -1  32    0.56    3.32   0
   5  11 -18    1.62    1.54   0
   5  13 -19    2.51    1.89   0
   6   4 -11   81.31    2.97   0
   6  18 -21   -0.11    1.41   0
   7  -3   8  132.46    3.89   0
   7  11 -18   -2.72    2.40   0
   8  -2   3    1.37    2.13   0
   9  -3  10    5.76    2.56   0
   9  -1   0    1.05    2.92   0
   9   3  -9   -0.75    2.68   0
   9   5 -12    3.40    2.47   0
   9  11 -18    3.96    1.83   0
   9  13 -19    1.23    2.65   0
   9  15 -20   -0.63    1.20   0
   9  15 -20   -0.36    0.88   0
  10   2  -7   -1.17    1.91   0
  10   6 -13    0.18    1.93   0
  10   8 -15   -0.23    2.50   0
  10  16 -20    1.00    1.84   0
  11   1  -4    0.55    2.59   0
  11   3  -8    0.03    2.43   0
  12  -2   7    0.47    1.84   0
  12  -2   8    2.31    2.67   0
  12  -2  22   -0.27    2.18   0
  12   0  -1    1.43    1.72   0
  12   4  -9   14.05    2.48   0
  12   6 -12   -0.34    2.20   0
  12  10 -16    1.29    2.19   0
  13  -1   4    6.23    1.95   0
  13   3  -7   13.17    1.98   0
  13   5 -10    7.89    2.34   0
  14   0   2    8.94    2.46   0
  14   2  -4    1.11    1.84   0
  14   8 -13   -0.20    1.71   0
  14  10 -15    1.25    1.79   0
  15  -1  10    1.78    2.08   0
  15  -1  11    3.64    2.54   0
  15  -1  18    0.65    2.42   0
  15  -1  19    0.81    2.45   0
  15  -1  20    0.76    2.16   0
  15   3  -5    7.92    1.95   0
  15   5  -8   -0.99    2.51   0
  15   7 -11    0.48    1.69   0
  15   9 -13   -1.55    2.32   0
  15  11 -15    2.82    1.64   0
  16   0   7    2.00    2.18   0
  16   2  -1   -1.11    1.55   0
  16   8 -11    1.61    2.26   0
  16  10 -13    1.86    2.01   0
  17   1   5    0.81    1.83   0
  17   1   6    0.01    2.44   0
  17   3  -1   -1.21    2.38   0
  17   5  -6    4.16    1.86   0
  17   7  -9    0.89    1.78   0
  17   9 -11    2.09    2.04   0
  18   2   4   -0.24    1.76   0
  18   2   5    0.02    2.51   0
  18   4  -2   -1.34    1.67   0
  18   6  -6    3.35    1.76   0
  18   8  -9    1.17    1.82   0
  19   3   3   -0.64    1.60   0
  19   3   4    1.67    2.10   0
  19   5  -2   -1.18    1.68   0
  19   7  -6    0.34    1.74   0
  20   4   3    1.28    1.16   0
 -14  12  11   -0.65    2.04   0
 -14  12  12   -0.30    2.32   0
 -14  12  13    1.06    1.65   0
 -14  12  14    0.78    1.76   0
 -14  12  16    0.01    1.90   0
 -14  12  18    1.18    1.76   0
 -14  12  19    1.55    1.71   0
 -14  14   7   -2.11    2.32   0
 -14  14   8    1.32    1.69   0
 -14  16   5    0.85    1.77   0
 -13   9  16    1.18    2.40   0
 -13   9  17    1.71    2.64   0
 -13   9  18    1.82    2.40   0
 -13  11   8    0.81    1.64   0
 -13  13   4    3.89    1.69   0
 -13  15   2   -0.76    1.70   0
 -13  17   0   -1.47    2.37   0
 -12   8  10    7.31    2.58   0
 -12   8  11   14.78    1.87   0
 -12   8  22    1.25    1.88   0
 -12   8  23    1.16    1.86   0
 -12  12   1    4.70    2.06   0
 -12  14  -1    3.91    2.42   0
 -11   7   8    0.61    1.88   0
 -11   7  26   -1.59    2.21   0
 -11   9   3   10.91    1.92   0
 -11  19  -6    0.18    2.60   0
 -10   6   6   -1.13    2.33   0
 -10   6  27   -0.36    1.71   0
 -10   6  28    0.94    2.06   0
 -10  10  -2    6.23    2.60   0
 -10  12  -4    6.76    1.83   0
 -10  14  -6   -0.20    2.33   0
 -10  16  -7   -1.93    2.58   0
 -10  18  -8   -1.61    2.03   0
  -9   5   5   44.62    3.12   0
  -9   5  28   -0.47    1.84   0
  -9   5  29   -0.50    2.14   0
  -9   9  -3    5.42    2.63   0
  -9  13  -7    2.28    1.90   0
  -9  19 -10    0.75    2.17   0
  -8   4   5   10.61    2.13   0
  -8   4  29   -0.54    2.28   0
  -8   6   0    8.69    2.18   0
  -8  12  -8   30.87    2.30   0
  -7   3   5  268.50    4.39   0
  -7   3  28    3.17    1.69   0
  -7   3  29   -0.63    2.17   0
  -7   7  -4    4.22    1.99   0
  -7  19 -13   -0.05    2.03   0
  -6   2   5    4.23    3.59   0
  -6   2  28    1.32    1.64   0
  -5   1   6   29.57    3.09   0
  -5   1  27   -1.44    2.46   0
  -5   3  33   -0.06    1.25   0
  -5   3  33    0.12    1.30   0
  -5  17 -15    2.46    3.02   0
  -4   0  25   -1.55    1.81   0
  -4   0  26    2.18    2.20   0
  -4   4  -4  109.06    4.39   0
  -3  -1  10   54.00    3.76   0
  -3  -1  23    7.45    2.81   0
  -2   0  30    8.53    2.87   0
  -1  -1  28    1.93    2.37   0
  -1   1  34    1.76    2.76   0
   0  -2   8   85.24    5.61   0
   0  18 -19    0.83    2.46   0
   2   0  34    1.56    2.17   0
   2  18 -20    2.27    1.70   0
   3  17 -20   -0.59    1.78   0
   4   2  -7    4.76    3.45   0
   4   8 -15    1.14    2.65   0
   4  16 -20    1.23    1.87   0
   5   3  -9    0.30    2.27   0
   5   5 -12    4.25    2.16   0
   5   9 -16    4.10    2.67   0
   6  -2   3    5.98    2.34   0
   6   0  -3   -2.92    3.33   0
   6  10 -17    0.87    2.56   0
   7  -3   9    0.64    1.98   0
   7   3  -9   35.31    3.20   0
   7   5 -12    0.34    1.95   0
   7  13 -19    1.44    1.82   0
   7  15 -20    0.58    1.33   0
   8   0  -3   -2.02    2.31   0
   8   2  -7    6.03    3.07   0
   8   6 -13    8.30    2.70   0
   8   8 -15   21.99    2.76   0
   8  10 -17    0.65    1.87   0
   8  16 -20    0.41    1.79   0
   9  -3  11   -0.77    2.19   0
   9  -3  20    4.44    2.48   0
   9   1  -5    7.15    2.13   0
   9   7 -14    2.50    1.94   0
   9   9 -16    5.77    1.74   0
  10  -2   5   62.96    2.68   0
  10   0  -2   10.09    2.13   0
  10   4 -10   -0.16    1.70   0
  10  12 -18   -1.17    1.83   0
  10  14 -19    0.40    1.72   0
  11  -1   2   28.85    2.20   0
  11   5 -11   18.50    2.15   0
  11   7 -13    1.75    2.65   0
  11   9 -15   -0.85    2.36   0
  11  11 -17    2.51    1.82   0
  11  13 -18    0.49    2.15   0
  11  15 -19    0.45    2.24   0
  12  -2   9    0.05    2.33   0
  12  -2  21    0.45    2.28   0
  12   0   0   23.66    2.62   0
  12   8 -14    2.30    1.83   0
  12  12 -17   -0.71    2.17   0
  12  14 -18   -4.41    2.55   0
  13  -1   5    0.14    1.85   0
  13  -1  25    1.07    2.15   0
  13   1  -2    0.11    1.97   0
  13   3  -6    4.56    2.35   0
  13   7 -12    2.12    1.70   0
  13  11 -16    1.78    1.72   0
  13  13 -17   -1.08    2.15   0
  14   0   3   -2.95    1.87   0
  14   2  -3   16.38    2.01   0
  14   4  -7   -0.42    1.87   0
  14   6 -10    4.23    1.83   0
  14  10 -14    4.04    2.36   0
  14  12 -16   -0.11    1.76   0
  15  -1  12    9.23    2.03   0
  15  -1  13   -0.63    1.99   0
  15  -1  14    0.62    2.41   0
  15  -1  15    1.65    2.39   0
  15  -1  16   10.07    2.41   0
  15  -1  17    3.07    2.16   0
  15   3  -4    0.94    1.78   0
  15   7 -10    4.68    2.44   0
  16   0   8   -0.36    1.69   0
  16   0   9    0.57    1.99   0
  16   0  10    1.11    2.39   0
  16   0  20   -0.37    2.26   0
  16   2   0    5.87    1.72   0
  16   6  -8   -0.21    1.84   0
  16  12 -14   -1.43    1.63   0
  17   1   7    4.67    2.25   0
  17   5  -5   11.73    2.02   0
  17   7  -8    1.93    1.75   0
  17   9 -10    6.26    2.48   0
  18   2   6    2.78    2.10   0
  18   4  -1   -1.15    1.63   0
  18   6  -5    4.34    1.83   0
  18   8  -8   -1.05    1.76   0
  19   3   5    3.55    1.77   0
  19   3   6    0.57    2.49   0
  19   5  -1    2.87    1.89   0
  19   7  -5   -1.28    1.82   0
 -14  12   9    0.44    2.16   0
 -14  12  10   -0.68    1.78   0
 -14  14   6    0.04    1.73   0
 -14  16   3    0.32    2.24   0
 -14  16   4    2.37    1.85   0
 -13   9  11   17.75    2.31   0
 -13   9  12    8.37    2.66   0
 -13   9  13    1.53    1.73   0
 -13   9  14    0.96    1.79   0
 -13   9  20    3.13    1.77   0
 -13   9  21    1.05    1.89   0
 -13   9  22    3.14    1.85   0
 -13   9  23    2.13    2.61   0
 -13  11   6    1.27    2.27   0
 -13  13   3    0.86    1.74   0
 -13  15   1   -0.88    1.61   0
 -13  17  -1    2.00    2.18   0
 -12   8   8    6.74    2.39   0
 -12   8  25    1.11    1.73   0
 -12  10   4   13.44    1.95   0
 -12  16  -3    1.40    2.49   0
 -12  18  -4   -2.15    2.50   0
 -11   7   6    5.84    2.37   0
 -11   7   7   15.71    2.07   0
 -11   7  27   -0.39    1.57   0
 -11   7  28    2.16    2.25   0
 -11   9   2    7.58    1.87   0
 -11  11  -1   -0.15    1.84   0
 -11  13  -3    2.62    1.78   0
 -11  15  -5   -0.80    2.35   0
 -11  17  -6    2.50    2.52   0
 -10   4  14    0.83    2.25   0
 -10   4  15   24.71    2.70   0
 -10   4  17    0.22    2.36   0
 -10   4  18    3.81    2.44   0
 -10   4  19   10.48    2.53   0
 -10   4  20    3.91    2.32   0
 -10   6   5   26.18    2.66   0
 -10   6  29   -0.85    1.68   0
 -10   8   1   -3.29    1.80   0
  -9   3  13    3.30    2.50   0
  -9   3  14    0.42    2.39   0
  -9   3  15    1.15    1.91   0
  -9   3  16   -0.33    1.83   0
  -9   3  17   -1.61    1.79   0
  -9   3  18    9.45    1.81   0
  -9   3  19    3.97    1.82   0
  -9   3  20    3.34    2.52   0
  -9   3  21   -1.54    2.43   0
  -9   5   4    1.04    2.60   0
  -9   5  30    1.86    2.32   0
  -9   7   0    8.06    1.83   0
  -8   2  13   -1.02    2.54   0
  -8   2  14   16.53    2.62   0
  -8   2  15   28.06    2.09   0
  -8   2  16    3.43    1.89   0
  -8   2  17    1.90    1.77   0
  -8   2  18   -1.70    1.82   0
  -8   2  19   29.91    2.36   0
  -8   2  20    9.91    2.72   0
  -8   2  21    2.39    2.54   0
  -8   4   4    0.81    2.06   0
  -8   4  30    0.94    2.60   0
  -8   8  -4    2.33    2.63   0
  -8  16 -11   -0.66    2.31   0
  -8  20 -12    0.19    1.96   0
  -7   1  15    7.51    2.75   0
  -7   1  16   18.07    2.74   0
  -7   1  17    2.56    2.71   0
  -7   1  18   -0.81    2.51   0
  -7   1  19    1.55    2.71   0
  -7   3   4  302.39    5.21   0
  -7   3  30   -0.77    2.53   0
  -7   9  -7    3.10    2.26   0
  -7  11  -9    0.74    1.87   0
  -6   2  29    0.88    1.77   0
  -6   4  -1  101.89    4.25   0
  -5   1  28    0.61    1.89   0
  -5   3  34    0.85    1.13   0
  -4   0   7    1.05    3.01   0
  -4   0  27   -0.11    2.17   0
  -4   2  33    0.45    1.76   0
  -4   8 -10    0.58    3.03   0
  -3  -1   9    4.62    3.46   0
  -3  -1  24   12.43    2.69   0
  -3   1  32   -0.38    1.83   0
  -2  -2  15   -1.14    2.54   0
  -2  -2  16   22.72    2.92   0
  -2  -2  17   25.23    2.81   0
  -2  -2  18    9.47    2.80   0
  -2  -2  19    1.87    2.77   0
  -2   0  31    1.27    2.45   0
  -2  20 -18   -0.05    3.54   0
   0  -2  25    5.20    2.63   0
   0   0  33   -0.81    2.44   0
   0   6 -11    0.80    3.22   0
   0  10 -15    3.28    2.14   0
   1  -3  15    8.15    3.36   0
   1  -3  16    2.11    2.46   0
   1  -3  17    9.53    2.62   0
   1  -3  18    2.52    2.83   0
   1  -1  31    2.88    2.81   0
   2   2  -6   82.45    5.06   0
   3  -1  32    0.31    2.67   0
   4   4 -10   23.89    3.09   0
   5  -3   9  225.38    5.91   0
   5  -1   0   24.25    3.47   0
   5   1  -5    1.33    2.89   0
   5   7 -14    1.02    1.89   0
   6   2  -7   74.59    3.71   0
   6   6 -13   21.61    2.17   0
   6   8 -15    2.83    2.30   0
   6  12 -18   16.80    2.90   0
   6  16 -20    2.60    1.72   0
   7  -1   0   11.83    2.55   0
   7   1  -5   69.12    2.96   0
   7   7 -14   16.86    2.07   0
   7   9 -16    1.09    1.83   0
   8  -2   4   40.55    2.69   0
   8   4 -10   64.46    3.16   0
   8  12 -18    2.47    1.89   0
   8  14 -19    1.94    1.65   0
   9  -3  12   -0.27    1.91   0
   9  -3  13    6.45    2.11   0
   9  -3  18   31.25    2.99   0
   9  -3  19   50.44    3.53   0
   9  -1   1   16.15    2.20   0
   9   3  -8   46.38    3.11   0
   9  11 -17    2.93    2.38   0
  10  -2   6   20.73    2.16   0
  10  -2  25    1.02    2.28   0
  10   0  -1   -5.21    2.85   0
  10   2  -6   28.61    2.24   0
  10   6 -12    1.97    2.34   0
  10  10 -16    4.79    2.27   0
  11  -1   3   -1.43    2.37   0
  11  -1  28    0.54    2.83   0
  11   3  -7    7.35    2.51   0
  11   5 -10    4.63    2.53   0
  12  -2  10   -0.42    1.97   0
  12  -2  11   27.10    2.98   0
  12  -2  20    7.29    2.29   0
  12   0   1    0.16    2.55   0
  12   6 -11   14.55    1.95   0
  12  10 -15   -0.87    2.15   0
  13  -1   6   14.99    1.96   0
  13  -1   7    5.12    2.63   0
  13  -1  24    0.38    2.28   0
  13   1  -1   73.21    2.71   0
  13   5  -9   17.94    2.03   0
  13  11 -15   -2.80    2.41   0
  14   0   4  113.98    3.08   0
  14   2  -2   30.08    2.57   0
  14   4  -6    4.28    2.50   0
  14   6  -9   16.41    2.57   0
  14   8 -12    0.09    1.71   0
  14  12 -15    0.48    2.39   0
  15   1   2   28.63    2.12   0
  15   3  -3    4.01    1.92   0
  15   5  -7   21.32    2.10   0
  15   9 -12    2.59    1.70   0
  15  13 -15    1.60    1.92   0
  16   0  11    0.58    1.63   0
  16   0  12    9.15    2.30   0
  16   0  13    0.55    2.46   0
  16   0  14    0.24    2.59   0
  16   0  15    0.25    2.37   0
  16   0  16   -2.91    2.51   0
  16   0  17    1.84    2.40   0
  16   0  18    1.88    2.41   0
  16   0  19    0.84    2.10   0
  16   2   2    0.39    2.29   0
  16   6  -7   -0.63    1.84   0
  16   8 -10   -0.13    1.78   0
  16  10 -12   -2.64    1.76   0
  17   1   8   -1.17    1.66   0
  17   1   9    0.59    1.88   0
  17   1  10    4.52    2.50   0
  17   3   1    0.07    2.05   0
  17   5  -4    0.28    1.95   0
  17   7  -7    1.70    2.17   0
  18   2   7    0.96    1.67   0
  18   2   8    4.72    2.09   0
  18   2   9    1.08    2.52   0
  18   4   0   -1.52    1.66   0
  18   4   1   -0.93    2.34   0
  18   6  -4    1.16    1.92   0
  18   8  -7    2.71    1.74   0
  18  10  -9    2.08    2.03   0
  19   3   7    1.11    1.69   0
  19   3   8    3.51    2.39   0
  19   5   0   -1.47    1.66   0
  19   5   1    0.29    2.23   0
  19   7  -4   -0.05    1.77   0
 -15  13  12    2.33    2.00   0
 -15  13  13   -0.94    2.28   0
 -15  13  14    1.33    1.74   0
 -15  13  15   -0.45    1.19   0
 -15  15   8   -0.08    2.33   0
 -15  15   9   -0.62    1.59   0
 -14  10  15   -0.82    2.64   0
 -14  10  16    0.65    1.82   0
 -14  10  17   -0.86    1.70   0
 -14  10  18   -0.29    1.71   0
 -14  10  19   -0.53    1.71   0
 -14  10  20    1.56    2.32   0
 -14  10  21   -2.86    2.47   0
 -14  12   7    4.83    2.33   0
 -14  12   8    1.15    1.93   0
 -14  14   4    5.09    2.17   0
 -14  14   5   -1.52    1.69   0
 -14  16   2    0.75    2.24   0
 -13   9   9   -0.18    2.04   0
 -13   9  10    8.21    1.83   0
 -13   9  24    0.51    1.74   0
 -13  11   5    2.43    1.60   0
 -13  13   2    0.73    1.78   0
 -13  15   0    4.38    1.80   0
 -12   8   7    5.18    2.37   0
 -12  10   3   -0.01    1.67   0
 -12  12   0   11.58    1.85   0
 -12  14  -2    8.57    1.98   0
 -11   5  13    4.51    2.39   0
 -11   5  14   -0.61    2.36   0
 -11   5  15    2.72    1.89   0
 -11   5  16    1.74    1.73   0
 -11   5  18    5.19    1.92   0
 -11   5  19   -1.28    1.73   0
 -11   5  20    0.79    1.77   0
 -11   5  21    2.18    2.35   0
 -11   5  22    1.72    2.25   0
 -11   7   5   18.85    2.53   0
 -11   9   1    9.74    2.47   0
 -11  13  -4    4.00    2.27   0
 -11  19  -7   -0.21    2.49   0
 -10   4  12   13.31    2.62   0
 -10   4  21    0.04    1.64   0
 -10   4  22   -1.50    1.52   0
 -10   4  23   -2.81    2.25   0
 -10   6   4    0.52    2.58   0
 -10   8   0    2.74    2.54   0
 -10  10  -3   -0.92    2.43   0
 -10  12  -5   10.31    2.45   0
 -10  16  -8    5.41    2.38   0
  -9   3  11    9.75    2.70   0
  -9   3  12   -1.11    1.73   0
  -9   3  22    0.71    1.79   0
  -9   3  23   -1.79    1.66   0
  -9   3  24   -0.33    2.29   0
  -9   5  31   -0.12    2.13   0
  -9   5  31   -0.54    1.28   0
  -9  11  -6   23.08    2.72   0
  -9  15  -9   -0.70    2.26   0
  -9  17 -10    1.37    2.19   0
  -8   2  11    5.50    2.81   0
  -8   2  12   18.51    2.14   0
  -8   2  22    1.95    1.76   0
  -8   2  23    1.86    2.43   0
  -8   2  24    4.78    2.24   0
  -8   4  31   -0.81    1.87   0
  -8  14 -10   -0.01    2.06   0
  -7   1  12   48.92    3.09   0
  -7   1  13   16.51    2.11   0
  -7   1  14   24.96    2.18   0
  -7   1  20   16.15    2.15   0
  -7   1  21    2.15    1.93   0
  -7   1  22    2.75    2.55   0
  -7   3  31   -1.80    2.54   0
  -7  15 -12    0.75    2.02   0
  -6   0  15    0.34    2.51   0
  -6   0  16    5.76    2.61   0
  -6   0  17   -2.03    2.63   0
  -6   0  18  140.71    3.92   0
  -6   0  19    0.66    2.59   0
  -6   2   4   -0.10    2.59   0
  -6   2  30   -2.87    1.71   0
  -5   1   5    0.40    2.97   0
  -5   1  29   -0.39    1.99   0
  -5   9 -10   88.40    4.48   0
  -4   0  28   -0.66    2.44   0
  -4   2  34   -0.04    1.88   0
  -4   2  34   -0.41    1.04   0
  -4  10 -12    3.40    2.95   0
  -3  -1  25   -0.66    2.49   0
  -3   1   1   19.96    3.83   0
  -3   1  33   -0.46    2.60   0
  -2  -2  13    7.56    2.75   0
  -2  -2  14   86.50    3.23   0
  -2  -2  20    0.57    2.73   0
  -2  -2  21    5.94    2.80   0
  -1  -1  29   -0.60    2.54   0
  -1   1  35    0.38    1.24   0
  -1   1  35    1.39    1.31   0
  -1  17 -18    1.42    2.82   0
   0  -2  26    0.59    2.56   0
   1  -3  14   48.10    4.40   0
   1  -3  19    0.68    2.20   0
   1  -3  20   23.21    3.14   0
   1  17 -19    0.07    2.01   0
   2  -2  28    0.21    2.33   0
   2  16 -19    0.11    2.02   0
   3  -3  23    0.20    2.89   0
   3   3  -8  156.08    4.97   0
   3   5 -11    1.76    2.46   0
   3  13 -18   10.12    2.08   0
   3  15 -19    0.37    1.87   0
   3  19 -20    1.57    1.97   0
   4  -2   4  520.72    8.40   0
   4  -2  29    1.57    3.03   0
   4  18 -20    0.07    1.76   0
   5  11 -17    3.29    2.44   0
   6  -2   4    4.48    3.11   0
   6   4 -10   51.41    2.59   0
   6  14 -19   -0.08    1.43   0
   7  -3  10    6.55    2.00   0
   7  -3  22   14.66    4.01   0
   7  11 -17   18.56    2.65   0
   7  17 -20    0.04    1.31   0
   7  17 -20   -0.58    0.87   0
   8  -2   5    9.93    3.03   0
   8   0  -2   25.67    2.58   0
   9  -3  14   -0.11    1.69   0
   9  -3  15    0.67    1.85   0
   9  -3  16   15.70    2.16   0
   9  -3  17   11.82    2.10   0
   9   1  -4    0.32    2.11   0
   9   7 -13    2.73    2.67   0
   9   9 -15   -0.23    2.32   0
   9  13 -18    0.46    1.83   0
   9  15 -19    0.41    1.34   0
  10  -2   7    9.19    2.06   0
  10   4  -9   -1.99    1.77   0
  10   8 -14    1.86    1.85   0
  10  12 -17   -1.03    2.04   0
  10  14 -18    0.35    2.35   0
  10  16 -19   -0.08    1.22   0
  11  -1   4    6.29    2.71   0
  11   7 -12   -0.55    2.60   0
  11  11 -16    2.07    1.84   0
  11  13 -17    2.45    2.55   0
  11  15 -18    0.88    2.71   0
  12  -2  12    3.85    1.87   0
  12  -2  13    1.30    2.14   0
  12  -2  14   -0.95    2.59   0
  12  -2  15    6.89    2.56   0
  12  -2  16   19.12    2.67   0
  12  -2  17    5.18    2.19   0
  12  -2  18    1.00    2.18   0
  12  -2  19   -0.33    1.87   0
  12   2  -4   42.32    2.34   0
  12  12 -16   -1.94    2.11   0
  12  14 -17    0.26    2.61   0
  13  -1   8   98.97    3.55   0
  13  -1  23    0.05    2.27   0
  13   1   0    4.08    2.40   0
  13   3  -5   48.93    2.37   0
  13   5  -8    3.80    2.52   0
  13   7 -11    3.87    1.81   0
  13  13 -16    0.87    2.17   0
  14   0   5    2.84    1.83   0
  14   2  -1    9.29    2.38   0
  14   8 -11    4.63    2.35   0
  14  10 -13    2.00    2.18   0
  15   1   4    3.06    2.44   0
  15   3  -2    1.80    2.22   0
  15   5  -6    0.30    1.86   0
  15   7  -9   -1.71    1.66   0
  15   9 -11   -0.26    2.27   0
  15  11 -13    1.43    2.05   0
  16   2   3    4.89    2.32   0
  16   4  -3   -1.35    1.80   0
  16   6  -6    2.69    2.59   0
  16   8  -9   -0.62    1.85   0
  16  10 -11   -1.19    2.10   0
  16  12 -13    0.77    1.69   0
  17   1  11    0.93    1.65   0
  17   1  12    1.47    1.95   0
  17   1  13   -2.70    2.28   0
  17   1  14   -0.32    2.48   0
  17   1  15    3.24    2.42   0
  17   1  16    1.65    2.28   0
  17   1  17   -0.59    2.26   0
  17   1  18    2.01    1.95   0
  17   1  18   -0.67    1.03   0
  17   5  -3   -0.28    1.91   0
  17   7  -6    0.02    2.42   0
  17   9  -9    0.36    1.92   0
  17  11 -11    1.93    1.78   0
  18   2  10    1.16    2.00   0
  18   2  11    3.16    2.53   0
  18   2  12   -1.30    2.60   0
  18   4   2    0.88    2.11   0
  18   6  -3    0.08    1.90   0
  18   8  -6    2.42    1.73   0
  19   3   9    1.98    1.34   0
  19   3   9    0.26    1.31   0
  19   5   2    0.50    1.95   0
  19   7  -2    1.96    2.36   0
 -15  13  10    3.49    2.25   0
 -15  13  11    1.89    1.66   0
 -15  15   6    4.14    2.17   0
 -15  15   7   -0.09    1.61   0
 -14  10  11    3.40    2.29   0
 -14  10  12    4.31    1.75   0
 -14  12   6    6.27    2.61   0
 -14  14   3    1.94    2.03   0
 -13   9   8    1.60    1.72   0
 -13  11   4   -0.10    1.73   0
 -13  13   1   -0.28    2.30   0
 -13  15  -1    1.56    2.33   0
 -13  17  -2   -1.15    1.71   0
 -12   6  13    5.07    2.49   0
 -12   6  14    6.04    1.91   0
 -12   6  15    3.36    1.87   0
 -12   6  16    7.11    1.89   0
 -12   6  17    1.51    1.75   0
 -12   6  19    0.39    1.74   0
 -12   6  20    0.11    1.64   0
 -12   6  21    0.99    1.71   0
 -12   6  22   -1.57    2.26   0
 -12   6  23    0.09    2.04   0
 -12   8   6    5.29    1.91   0
 -12  10   2   12.74    1.88   0
 -12  12  -1   -0.79    2.15   0
 -12  14  -3    0.04    2.33   0
 -12  16  -4    3.20    1.81   0
 -12  18  -5    3.24    2.56   0
 -11   5  11   19.62    2.63   0
 -11   5  12    7.57    1.92   0
 -11   5  23    1.37    1.60   0
 -11   5  24    3.46    1.81   0
 -11   5  25    0.82    2.12   0
 -11   7   4   39.57    2.58   0
 -11  11  -2    0.16    1.76   0
 -10   4  11    2.57    1.90   0
 -10   4  24   -1.16    1.54   0
 -10   4  25   -3.94    1.88   0
 -10   4  26   -1.04    2.18   0
 -10  14  -7    3.18    2.40   0
 -10  18  -9    4.90    2.36   0
  -9   3  10   21.83    2.13   0
  -9   3  25    0.61    1.87   0
  -9   3  26    0.25    2.40   0
  -9   7  -1    2.54    1.85   0
  -9  13  -8    4.45    2.27   0
  -8   2  10   12.91    2.09   0
  -8   2  25   -0.35    2.46   0
  -8   4   3    0.96    2.12   0
  -8   4  32   -1.68    1.75   0
  -8  10  -7   87.36    3.46   0
  -8  12  -9    2.68    2.03   0
  -8  18 -12    0.77    2.06   0
  -7   1  11    7.06    2.16   0
  -7   1  23    3.05    1.69   0
  -7   1  24    2.53    2.30   0
  -7   3   3   23.74    2.54   0
  -7   3  32    1.52    2.76   0
  -7   7  -5    2.20    2.48   0
  -7  13 -11   -0.50    2.15   0
  -7  17 -13    4.48    2.56   0
  -6   0  13   -1.83    2.68   0
  -6   0  14    2.54    2.07   0
  -6   0  20   14.24    2.11   0
  -6   0  21   -0.86    1.83   0
  -6   0  22   36.24    3.04   0
  -6   2  31    1.16    1.68   0
  -6   6  -5   58.25    2.66   0
  -5   1  30   -0.97    1.85   0
  -5   3  -1  106.07    3.89   0
  -5   5  -5   28.66    3.41   0
  -4   0   6   85.62    3.71   0
  -4   0  29    0.51    2.51   0
  -3  -1   8   72.31    4.40   0
  -3  -1  26    1.47    2.05   0
  -2  -2  12   50.36    3.68   0
  -2  -2  22    5.05    2.81   0
  -2   0  32    0.16    2.75   0
  -2  12 -15    1.68    3.27   0
  -2  16 -17    1.60    3.25   0
  -1  -1  30    6.81    2.49   0
  -1  11 -15    4.22    2.54   0
   0   0  34   -0.16    2.43   0
   0   8 -13    0.89    2.51   0
   1  -3  13   48.49    4.57   0
   1  -3  21    0.50    2.67   0
   1  11 -16   13.44    2.23   0
   2  14 -18    3.87    2.07   0
   3  -1   1 1971.80   16.55   0
   4   0  -2  287.18    6.62   0
   4  10 -16    1.64    2.42   0
   5  -3  10   42.83    3.63   0
   5   3  -8    8.21    3.18   0
   5   5 -11    5.62    3.02   0
   5  13 -18    0.63    1.81   0
   5  15 -19    0.86    1.96   0
   6   0  -2    1.94    3.30   0
   6  10 -16    5.98    2.69   0
   6  18 -20   -0.25    1.37   0
   6  18 -20    0.58    0.97   0
   7  -3  11   32.21    2.44   0
   7  -1   1   10.43    2.59   0
   7   1  -4   43.67    3.59   0
   7   3  -8   62.29    2.80   0
   7   5 -11    0.44    2.05   0
   7  13 -18    3.74    2.54   0
   7  15 -19    0.93    1.66   0
   8  -2  27    0.03    3.45   0
   8   2  -6   58.03    2.72   0
   8   6 -12    0.27    1.80   0
   8   8 -14    6.41    2.53   0
   8  10 -16    7.08    1.93   0
   8  16 -19   -0.54    1.78   0
   9  -1   2   67.13    2.86   0
   9  17 -19   -0.58    1.85   0
  10  -2   8   11.58    2.56   0
  10  -2  24    1.54    2.25   0
  10   0   0   31.40    2.27   0
  10   2  -5   53.16    2.49   0
  10   6 -11    3.16    2.55   0
  11  -1   5   17.91    2.72   0
  11   1  -2   57.51    2.44   0
  11   3  -6   20.86    2.00   0
  11   5  -9   33.25    2.79   0
  11   9 -14    1.48    1.73   0
  12   0   2    1.67    1.83   0
  12  10 -14   -0.47    2.12   0
  13  -1   9    4.50    1.77   0
  13  -1  10   19.75    2.72   0
  13  -1  22    6.79    2.25   0
  13   7 -10    3.72    2.40   0
  13  11 -14    2.04    2.33   0
  14   0   6   13.95    2.00   0
  14   0   7    0.04    2.17   0
  14   2   0   -2.15    2.31   0
  14   4  -5   40.70    2.28   0
  14   6  -8    4.03    1.76   0
  14  12 -14    1.04    2.05   0
  15   1   5    8.02    2.18   0
  15   3  -1    2.34    2.48   0
  15   7  -8   -3.07    2.49   0
  15  13 -14   -0.65    1.59   0
  16   2   4    1.51    2.17   0
  16   4  -2   15.77    2.06   0
  16   6  -5    2.21    2.56   0
  16   8  -8    0.71    2.58   0
  16  12 -12    3.17    1.98   0
  17   3   3   -2.16    1.77   0
  17   5  -2   -1.72    1.76   0
  17   7  -5    0.19    2.46   0
  17   9  -8    3.04    1.92   0
  17  11 -10    2.74    2.16   0
  18   2  13   -0.76    1.22   0
  18   2  13    0.76    1.22   0
  18   2  14    0.79    1.83   0
  18   2  15    0.37    1.16   0
  18   4   3   -0.77    1.67   0
  18   6  -2   -0.83    1.86   0
  18   8  -5    3.46    1.99   0
  19   5   3    0.30    1.57   0
  19   5   4    0.17    2.17   0
  19   7  -1    1.66    2.42   0
 -15  11  13    0.02    2.30   0
 -15  11  14   -1.56    2.40   0
 -15  11  16    3.02    1.86   0
 -15  11  17    1.57    1.80   0
 -15  11  18   -0.31    1.70   0
 -15  13   8   -2.73    2.28   0
 -15  13   9    0.87    1.64   0
 -15  15   5   -1.74    2.46   0
 -14  10   9    0.17    2.30   0
 -14  10  10   -0.61    1.70   0
 -14  12   5    0.59    2.36   0
 -14  14   2    3.85    2.23   0
 -14  16   1   -1.48    1.98   0
 -13   7  13    3.90    2.18   0
 -13   7  14    0.14    2.40   0
 -13   7  15    3.57    1.83   0
 -13   7  16   -0.59    1.87   0
 -13   7  18   -0.99    1.83   0
 -13   7  20   -0.06    1.86   0
 -13   7  21    0.26    1.98   0
 -13   7  22    0.50    2.39   0
 -13   7  23    1.96    2.42   0
 -13   9   6   14.14    2.27   0
 -13   9   7    6.06    1.72   0
 -13  11   3   -2.11    1.72   0
 -13  13   0   -0.31    2.10   0
 -13  17  -3   -1.65    2.09   0
 -12   6  11   12.84    1.91   0
 -12   6  12    1.20    1.77   0
 -12   6  24   -0.96    1.71   0
 -12   6  26    3.33    1.96   0
 -12   8   5    9.94    1.95   0
 -12  10   1    2.79    2.22   0
 -11   5   9   31.85    2.79   0
 -11   5  10    3.17    1.81   0
 -11   5  26    0.11    1.73   0
 -11   5  27    0.66    1.98   0
 -11   9   0    7.78    1.79   0
 -11  11  -3    0.12    2.17   0
 -11  15  -6    0.26    1.89   0
 -11  17  -7   -0.41    1.19   0
 -11  17  -7    0.63    1.14   0
 -11  19  -8   -0.07    2.05   0
 -10   4   8   55.16    2.86   0
 -10   4   9   -0.65    1.74   0
 -10   4  27    0.72    1.71   0
 -10   6   3    5.29    1.92   0
 -10   8  -1    0.46    1.75   0
 -10  10  -4   64.78    3.12   0
 -10  12  -6    8.35    2.42   0
  -9   3   9    2.11    1.88   0
  -9   3  27    0.71    1.74   0
  -9   3  28   -1.17    2.14   0
  -9   5   2   30.01    3.07   0
  -9  19 -11    1.19    2.36   0
  -8   2   9   35.43    2.41   0
  -8   2  26    1.64    1.83   0
  -8   2  27    0.74    2.40   0
  -8   4   2    2.55    3.02   0
  -8   6  -2   34.43    3.13   0
  -8   8  -5    9.76    2.70   0
  -7   1  10   59.17    2.65   0
  -7   1  25    1.27    1.71   0
  -7   1  26    0.23    2.35   0
  -7   3  33    1.18    2.44   0
  -7   5  -2    0.05    2.39   0
  -6   0  11   -0.76    2.79   0
  -6   0  12    1.08    2.04   0
  -6   0  23   -2.89    1.92   0
  -6   0  24   -0.59    2.48   0
  -6   2   3   19.32    2.51   0
  -6   2  32   -0.08    1.75   0
  -6   4  -2    0.89    3.02   0
  -6   8  -8   30.78    2.68   0
  -6  10 -10   -0.40    1.81   0
  -6  14 -13   11.38    3.20   0
  -5  -1  15   30.83    2.94   0
  -5  -1  16   30.81    3.08   0
  -5  -1  17   46.21    3.10   0
  -5  -1  18    1.47    2.65   0
  -5  -1  20   14.95    2.47   0
  -5   1   4  212.33    4.84   0
  -5   1  31   -0.98    1.84   0
  -5   7  -8    4.02    2.91   0
  -5  11 -12   22.50    3.43   0
  -4   0  30    0.01    2.46   0
  -3  -1  27    1.54    1.94   0
  -3   1  34    2.07    1.90   0
  -3   3  -4   93.74    5.65   0
  -2  -2  11    5.93    2.95   0
  -2  -2  23    1.78    1.94   0
  -2  -2  24   -1.31    2.41   0
  -2   0   2   34.77    5.79   0
  -2   2  -3  163.75    8.18   0
   0  -2  27   -0.63    2.44   0
   0   4  -8   21.39    4.81   0
   0  16 -18    6.36    2.49   0
   1  -3  22    1.25    2.80   0
   1  -1  32    1.22    2.55   0
   1  15 -18   -0.23    1.95   0
   2  -2  29   -0.53    2.55   0
   3  -3  24    4.59    3.45   0
   3  -1  33    0.19    2.68   0
   3   7 -13   22.90    2.11   0
   4   2  -6   17.86    4.15   0
   4   6 -12    2.22    2.62   0
   4   8 -14    4.05    2.65   0
   5  -1   1  303.04    6.30   0
   5  -1  33   -0.18    3.41   0
   5   1  -4  207.30    5.38   0
   5   7 -13   11.90    2.91   0
   5   9 -15    1.14    2.64   0
   6  -2   5    2.04    2.91   0
   6   2  -6   33.93    3.56   0
   6   6 -12   15.82    2.18   0
   6   8 -14    4.03    2.62   0
   6  16 -19    1.19    1.88   0
   7  -3  12    9.24    2.00   0
   7  -3  21    8.77    3.60   0
   7   7 -13    0.37    1.95   0
   7   9 -15    2.22    1.86   0
   8  -2   6   87.75    3.11   0
   8   0  -1    1.46    2.34   0
   8   4  -9   29.88    2.28   0
   8  12 -17    0.22    1.70   0
   8  14 -18    1.84    2.38   0
   9  -1   3    4.43    3.00   0
   9  -1  30   -0.17    3.17   0
   9   1  -3   36.90    2.49   0
   9   3  -7   -1.37    1.94   0
   9   5 -10    1.35    1.76   0
   9  11 -16   -0.33    1.71   0
   9  13 -17    0.04    2.46   0
   9  15 -18   -2.38    2.59   0
  10  -2   9   10.89    2.64   0
  10   8 -13    2.89    1.93   0
  10  16 -18    0.64    2.67   0
  11  -1   6   11.80    2.80   0
  11  -1  27    0.20    2.28   0
  11   1  -1    5.27    2.59   0
  11  11 -15   -0.08    1.79   0
  12   0   3    2.81    1.80   0
  12   4  -6   -0.40    2.51   0
  12  12 -15   -0.39    2.17   0
  12  14 -16    4.60    2.49   0
  13  -1  11   74.49    3.01   0
  13  -1  12   -2.79    2.27   0
  13  -1  21    0.87    2.13   0
  13   1   2    4.10    2.74   0
  13   3  -3   13.82    2.52   0
  13   5  -7    9.79    1.83   0
  13   9 -12    7.29    1.79   0
  13  13 -15    0.29    1.77   0
  13  15 -16    0.47    2.16   0
  14   0   8   34.85    2.57   0
  14   0  24    0.33    2.16   0
  14   4  -4   15.52    2.00   0
  14   6  -7   -0.38    2.51   0
  14   8 -10    0.61    1.67   0
  14  10 -12    2.19    1.81   0
  14  14 -15    0.57    1.65   0
  15   1   6    2.36    1.67   0
  15   3   0    8.69    2.43   0
  15   9 -10    3.20    1.75   0
  15  11 -12   -0.43    1.65   0
  15  13 -13    1.93    2.13   0
  16   2   5    4.04    1.80   0
  16   4  -1    2.43    1.78   0
  16  10 -10    3.97    1.84   0
  17   3   4    0.52    1.67   0
  17   3   5    1.12    2.37   0
  17   5  -1    7.27    1.84   0
  17   9  -7   -0.74    2.42   0
  17  11  -9    2.41    2.62   0
  18   4   4    0.67    1.69   0
  18   4   5    1.69    2.31   0
  18   8  -4    3.99    2.05   0
  18  10  -7    0.89    1.84   0
  19   5   5   -1.06    1.98   0
 -15  11  10    0.21    2.08   0
 -15  11  11   -0.29    1.73   0
 -15  11  12    0.31    1.69   0
 -15  13   7    0.81    1.69   0
 -15  15   4    1.85    2.45   0
 -14   8  14    1.82    2.22   0
 -14   8  15   -1.33    2.41   0
 -14   8  16   -1.82    1.77   0
 -14   8  18   -2.10    1.73   0
 -14   8  19   -0.20    1.76   0
 -14   8  20   -1.66    1.76   0
 -14   8  21   -0.29    1.80   0
 -14   8  22    2.59    2.63   0
 -14   8  23   -0.92    2.08   0
 -14  10   8    1.13    1.63   0
 -14  12   4    0.04    1.77   0
 -14  16   0    1.92    1.73   0
 -13   7  11    7.01    2.45   0
 -13   7  12   -1.55    1.71   0
 -13   7  24    0.15    1.78   0
 -13   7  25   -1.34    1.70   0
 -13   9   5   -0.99    2.34   0
 -13  11   2    3.79    1.82   0
 -13  15  -2    0.67    1.90   0
 -12   6   9    2.79    2.42   0
 -12   6  10    3.66    1.80   0
 -12   6  27   -0.55    1.70   0
 -12   8   4   16.69    2.07   0
 -12  12  -2    1.80    1.67   0
 -12  14  -4    4.78    2.68   0
 -12  16  -5    1.31    1.90   0
 -12  18  -6   -0.40    2.71   0
 -11   5   8    3.52    1.85   0
 -11   5  28   -0.83    1.66   0
 -11   5  29   -0.06    2.00   0
 -11   7   3    5.88    1.88   0
 -11   9  -1    6.21    2.30   0
 -11  13  -5    8.57    1.96   0
 -10   4   7   13.10    2.59   0
 -10   4  28   -0.69    1.76   0
 -10   4  29    1.32    2.50   0
 -10   6   2    1.50    1.77   0
 -10  16  -9   -0.12    1.95   0
  -9   3   7    1.75    2.74   0
  -9   3  29   -2.79    2.22   0
  -9   7  -2    6.35    1.89   0
  -9   9  -5    2.26    2.50   0
  -9  11  -7    1.24    2.31   0
  -9  15 -10   -0.32    2.26   0
  -8   2   8    5.77    2.14   0
  -8   2  28    0.58    1.67   0
  -7   1   9    0.45    2.09   0
  -7   1  27   -0.64    1.57   0
  -7   3   2  107.66    3.34   0
  -7   9  -8    0.78    1.94   0
  -6   0  10   36.47    3.37   0
  -6   0  25   -0.17    1.80   0
  -6   0  26   -0.21    2.20   0
  -6   2  33   -0.64    1.28   0
  -6   2  33   -1.26    1.25   0
  -6  16 -14    0.61    2.74   0
  -6  20 -15    0.69    3.53   0
  -5  -1  13   48.94    3.33   0
  -5  -1  14   18.02    2.37   0
  -5  -1  21    0.06    1.86   0
  -5  -1  22    2.79    2.57   0
  -5  -1  23    1.40    2.36   0
  -5   1  32    1.38    2.46   0
  -4   0   5    0.23    2.80   0
  -3  -1   7  699.95    8.72   0
  -3  -1  28   -0.60    2.63   0
  -3   7 -10   12.40    5.80   0
  -2  -2  25    1.89    2.39   0
  -2   0  33    0.71    1.78   0
  -1  -1   4   50.96    5.99   0
  -1  -1  31    0.14    2.51   0
   0  -2   7  126.12    7.48   0
   0  -2  28   -0.26    2.37   0
   0   0  35   -0.73    2.00   0
   0  12 -16    0.67    2.39   0
   1  13 -17    2.32    2.01   0
   1  19 -19    0.91    1.98   0
   2  18 -19    1.26    1.97   0
   3  17 -19   -0.24    1.70   0
   4   4  -9    7.15    2.89   0
   4  12 -17   -0.19    1.61   0
   6   4  -9   16.60    2.99   0
   6  14 -18    0.62    1.73   0
   7  -3  13   48.82    2.89   0
   7  -1   2   10.23    3.20   0
   7  11 -16    0.38    2.57   0
   7  17 -19    0.74    1.62   0
   8  -2   7    3.29    2.76   0
   8   2  -5    2.48    2.23   0
   8  10 -15   20.02    2.78   0
   8  18 -19   -0.18    1.27   0
   9   7 -12    6.76    1.99   0
   9   9 -14    4.17    1.93   0
  10  -2  10    2.52    1.93   0
  10  -2  11   17.05    2.71   0
  10  -2  23   -1.07    1.87   0
  10   0   1    1.23    1.90   0
  10   2  -4    5.01    2.00   0
  10   6 -10   24.43    2.80   0
  10  14 -17    0.35    1.65   0
  11  -1   7   18.67    2.81   0
  11   3  -5    3.03    1.82   0
  11   5  -8    5.67    2.61   0
  11   9 -13    0.18    1.69   0
  11  13 -16   -0.51    1.72   0
  11  15 -17    0.43    1.94   0
  12   0   4   31.17    2.08   0
  12   2  -2    7.60    1.78   0
  12   6  -9    6.80    1.88   0
  12   8 -11   11.01    2.60   0
  12  10 -13    1.78    2.04   0
  13  -1  13    8.75    1.93   0
  13  -1  14    6.78    2.25   0
  13  -1  15    0.11    2.38   0
  13  -1  16   -2.65    2.31   0
  13  -1  17    0.93    2.20   0
  13  -1  18   26.29    2.66   0
  13  -1  19    1.89    2.06   0
  13  -1  20    5.48    1.84   0
  13   7  -9    1.34    2.17   0
  14   0   9    1.09    1.65   0
  14   0  10    4.53    2.42   0
  14   0  23    1.19    2.32   0
  14   2   1   45.38    2.36   0
  14   4  -3    9.19    2.65   0
  14   8  -9   -0.53    2.48   0
  14  10 -11    2.53    2.24   0
  14  12 -13    0.24    1.72   0
  14  14 -14   -2.04    2.38   0
  15   1   7    8.52    1.91   0
  15   1   8    4.87    2.49   0
  15   5  -4    0.71    1.83   0
  15   7  -7    1.72    1.77   0
  15   9  -9    1.70    2.23   0
  15  11 -11   -0.87    2.03   0
  16   2   6   -0.84    1.77   0
  16   2   7   -3.13    2.43   0
  16   4   0    2.60    1.75   0
  16   6  -4    0.29    1.77   0
  16   8  -7   -0.72    1.78   0
  16  10  -9    3.37    1.92   0
  16  12 -11    3.21    1.71   0
  17   3   6   -0.55    1.74   0
  17   5   0   -0.48    1.68   0
  17   7  -4    3.85    1.83   0
  18   4   6    2.77    1.84   0
  18   4   7    1.26    2.36   0
  18   6   0    2.08    1.79   0
  18   6   1    1.19    2.23   0
  18  10  -6    3.54    1.96   0
  19   5   6    1.54    1.64   0
  19   7   1    3.34    1.78   0
 -16  12  13    1.28    2.28   0
 -15   9  16    1.88    2.29   0
 -15   9  17   -1.68    2.38   0
 -15   9  18    2.95    2.47   0
 -15   9  19   -0.32    2.30   0
 -15   9  20   -0.95    2.31   0
 -15  11   9   -0.57    1.82   0
 -15  13   5   -1.88    2.35   0
 -14   8  11   -2.25    2.09   0
 -14   8  12    0.43    1.91   0
 -14   8  13   -0.91    1.72   0
 -14  10   6    3.95    2.45   0
 -14  12   3   -1.20    1.73   0
 -14  14   1    0.48    1.76   0
 -14  16  -1   -0.12    2.41   0
 -13   7   9    2.06    2.27   0
 -13   7  10    1.64    1.85   0
 -13   9   4   -0.66    2.32   0
 -13  13  -1   -1.54    1.74   0
 -13  15  -3   -2.53    2.38   0
 -13  17  -4    2.42    2.39   0
 -12   6   8    2.09    1.77   0
 -12   8   3    3.11    1.83   0
 -12  10   0    1.42    1.66   0
 -11   5   7    4.35    1.93   0
 -11   7   2    0.33    1.81   0
 -11  11  -4   34.19    2.60   0
 -11  15  -7    0.27    2.52   0
 -11  17  -8    1.12    1.95   0
 -10   4  30   -1.02    1.76   0
 -10   8  -2    2.76    1.79   0
 -10  14  -8    5.03    2.51   0
 -10  18 -10    0.45    2.40   0
  -9   3   6   -0.07    2.73   0
  -9   3  30    0.83    1.82   0
  -9   5   1    1.07    2.67   0
  -9  13  -9    0.08    1.93   0
  -9  17 -11    0.57    1.99   0
  -8   2   7    7.49    2.16   0
  -8   2  29    1.95    1.88   0
  -8   2  30   -0.32    2.05   0
  -8   4   1   72.79    3.63   0
  -8  14 -11    6.37    2.47   0
  -7   1   8    7.64    2.26   0
  -7   1  28    2.00    1.79   0
  -7   1  29   -1.57    2.10   0
  -7  11 -10    5.55    2.06   0
  -6   0   9   -2.66    3.25   0
  -6   0  27   -1.40    2.53   0
  -6   2   2  251.97    5.29   0
  -5  -1  12   97.20    3.87   0
  -5  -1  24   -0.32    2.57   0
  -5   1   3   12.49    3.79   0
  -5   1  33    0.58    2.46   0
  -4   0  31    0.23    1.88   0
  -4   2  -1   91.69    4.20   0
  -3  -1  29    0.01    2.67   0
  -2  -2  10   30.90    3.48   0
  -2  -2  26    4.60    2.48   0
  -2   0  34    0.72    2.24   0
  -2  14 -16    7.68    3.35   0
  -1  13 -16   15.47    3.25   0
  -1  15 -17   18.34    2.99   0
   0  14 -17    1.43    2.05   0
   1  -3  12    1.86    3.80   0
   1  -3  23   -1.09    2.28   0
   1  -1  33   -0.03    2.44   0
   1   9 -14   49.33    3.01   0
   4  -2   5  118.25    4.85   0
   4  -2  30    0.47    3.08   0
   5  -3  11   80.70    4.15   0
   5  11 -16   19.61    2.68   0
   5  17 -19    0.63    1.52   0
   6   0  -1    1.67    2.82   0
   6  18 -19    1.13    1.98   0
   7  -3  14   28.27    2.57   0
   7  -3  20    9.91    3.15   0
   7   1  -3   13.28    2.47   0
   7   3  -7   10.53    2.30   0
   7   5 -10    8.90    2.19   0
   7  13 -17    2.04    2.19   0
   7  15 -18    0.63    1.69   0
   8   0   0   57.72    2.85   0
   8   4  -8   11.24    3.04   0
   8  12 -16    0.19    2.37   0
   8  16 -18   -1.16    1.88   0
   9  -1   4    2.29    2.16   0
   9   1  -2   46.99    2.57   0
   9   3  -6   -0.06    1.95   0
   9  11 -15   15.62    2.56   0
   9  17 -18   -0.87    1.67   0
   9  17 -18   -0.62    0.96   0
  10  -2  12   57.17    3.06   0
  10  -2  22    1.64    2.02   0
  10   0   2   33.96    3.00   0
  10   2  -3    4.60    2.74   0
  10   4  -7   13.39    1.93   0
  10   8 -12    0.98    2.32   0
  10  10 -14   -2.48    1.76   0
  11  -1   8   70.68    3.27   0
  11  -1  26    0.36    2.29   0
  11   1   0   14.47    1.94   0
  11   3  -4   10.34    2.61   0
  11  11 -14    4.40    2.23   0
  12   0   5   -1.26    1.72   0
  12   2  -1   28.47    2.00   0
  12   6  -8    3.47    2.48   0
  12  12 -14   -2.35    2.12   0
  12  14 -15   -3.43    2.24   0
  12  16 -16   -2.78    2.45   0
  13   1   3    0.96    1.90   0
  13   3  -2    0.90    1.78   0
  13   9 -11   14.59    1.86   0
  13  13 -14    0.82    1.71   0
  13  15 -15    1.00    1.71   0
  14   0  11   -0.12    1.74   0
  14   0  12    0.73    2.25   0
  14   0  13    0.91    2.38   0
  14   0  21   -0.00    2.28   0
  14   0  22    0.18    1.89   0
  14   2   2    6.07    1.97   0
  14   6  -6    2.70    1.84   0
  15   1   9    8.66    1.82   0
  15   1  10    1.58    2.22   0
  15   5  -3    2.48    1.73   0
  15   7  -6    2.76    2.25   0
  15  13 -12   -0.45    1.59   0
  16   2   8   -0.52    1.73   0
  16   2   9   -1.75    2.37   0
  16   4   1    2.18    1.76   0
  16   6  -3    4.09    1.76   0
  16   8  -6   -0.78    1.83   0
  16  10  -8    2.61    2.58   0
  16  12 -10   -0.33    1.69   0
  17   3   7    2.22    1.83   0
  17   3   8    3.40    2.06   0
  17   5   1   -0.77    1.60   0
  17   7  -3   -1.02    1.79   0
  17  11  -8   -1.06    1.74   0
  18   4   8    1.49    2.05   0
  18   4   9    0.15    2.42   0
  18   6   2    2.74    2.31   0
  18   8  -2   -2.80    2.21   0
  18  10  -5   -1.07    1.67   0
  19   5   8    0.14    1.58   0
  19   7   2    0.53    1.62   0
  19   7   3   -2.74    2.22   0
 -16  12  10    2.00    1.97   0
 -16  12  11   -1.35    1.58   0
 -16  12  12    1.90    1.64   0
 -15   9  12    0.44    1.99   0
 -15   9  13   -2.52    2.45   0
 -15   9  14   -0.37    2.06   0
 -15   9  15   -1.63    1.92   0
 -15  11   7    0.94    2.51   0
 -15  13   4   -3.03    2.26   0
 -15  15   2    2.42    2.57   0
 -14   8   9   -0.77    2.04   0
 -14   8  10    1.79    1.71   0
 -14  10   5    1.71    1.72   0
 -14  12   2    2.49    1.74   0
 -14  14   0    1.20    1.66   0
 -13   7   8   -1.23    1.73   0
 -13   9   3    4.06    2.32   0
 -13  11   0    2.30    2.00   0
 -13  13  -2    2.93    2.51   0
 -12   4  15    1.74    2.18   0
 -12   4  16    3.69    2.41   0
 -12   4  17    2.16    2.35   0
 -12   4  18    0.12    1.81   0
 -12   4  19    1.44    1.76   0
 -12   4  20    0.41    1.70   0
 -12   4  21    2.88    2.28   0
 -12   4  22   -2.02    2.26   0
 -12   4  23    0.96    2.10   0
 -12   6   7    7.23    1.88   0
 -12   8   2    2.30    2.49   0
 -12  12  -3   27.40    2.13   0
 -12  14  -5   12.47    2.52   0
 -12  16  -6    3.23    2.53   0
 -12  18  -7    0.33    2.09   0
 -11   3  14    8.61    2.41   0
 -11   3  16    4.05    1.82   0
 -11   3  17    0.85    1.83   0
 -11   3  18   -0.62    1.68   0
 -11   3  19    6.73    1.76   0
 -11   3  20    0.07    1.75   0
 -11   3  21    3.12    1.72   0
 -11   3  22    3.27    2.26   0
 -11   5   6    5.19    1.77   0
 -11   7   1    1.71    2.18   0
 -11   9  -2   -2.63    2.46   0
 -11  13  -6    0.02    2.47   0
 -10   2  14    2.12    2.33   0
 -10   2  16   -0.59    1.91   0
 -10   2  18   15.08    2.07   0
 -10   2  19    2.70    1.77   0
 -10   2  20   -0.85    1.77   0
 -10   2  21    5.28    2.06   0
 -10   2  22    1.26    2.47   0
 -10   2  23   -1.72    2.41   0
 -10   6   1   16.63    1.93   0
 -10  10  -5    0.45    2.52   0
 -10  12  -7    2.12    2.57   0
  -9   1  16    1.64    2.56   0
  -9   1  17    1.43    2.52   0
  -9   1  18    3.81    2.66   0
  -9   1  19    3.63    2.62   0
  -9   1  20    1.50    2.55   0
  -9   1  21    0.56    2.47   0
  -9   3  31    1.74    1.70   0
  -9   7  -3   -1.23    2.58   0
  -8   2   6   59.72    2.75   0
  -8   2  31   -1.63    2.68   0
  -8   6  -3    6.80    2.11   0
  -8   8  -6    6.95    2.38   0
  -8  10  -8   29.11    2.65   0
  -8  16 -12    0.55    1.97   0
  -7   1   7   40.50    2.63   0
  -7   1  30    2.88    2.47   0
  -7   3   1   30.94    2.72   0
  -7   5  -3  128.91    4.07   0
  -7   7  -6   -0.08    2.38   0
  -7  19 -14   -0.07    2.60   0
  -6   0  28    1.00    1.91   0
  -6   6  -6    9.05    2.60   0
  -6  12 -12   10.34    2.82   0
  -5  -1  11    8.23    2.38   0
  -5  -1  25    1.82    1.73   0
  -5  -1  26    0.57    2.46   0
  -5   1  34    0.06    1.88   0
  -5   3  -2  320.98    5.79   0
  -4  -2  16   27.62    3.27   0
  -4  -2  17    3.48    2.85   0
  -4  -2  18   -1.16    2.74   0
  -4  -2  19   17.57    3.00   0
  -4  -2  20    5.43    2.76   0
  -4  -2  21    1.02    2.39   0
  -4   0   4  126.84    5.26   0
  -4   0  32   -0.02    2.48   0
  -4   4  -5   -0.19    3.45   0
  -3  -1  30    3.82    2.68   0
  -3   1   0  454.03    8.39   0
  -3  19 -17   -0.12    3.50   0
  -2  -2  27   -1.26    2.38   0
  -1  -3  17   11.27    2.56   0
  -1  -3  18    4.73    2.28   0
  -1  -3  19   -0.81    2.15   0
  -1  -3  20   21.82    2.96   0
  -1  -1  32    0.15    2.39   0
  -1  19 -18    1.30    2.60   0
   0  -2  29    1.62    2.47   0
   1  -3  24    2.69    2.90   0
   1   7 -12    1.35    2.46   0
   2  -2  30    0.48    2.33   0
   3  -3  25    7.93    3.60   0
   3   3  -7   83.53    4.46   0
   3   5 -10    1.84    2.84   0
   3  15 -18   13.18    1.93   0
   3  19 -19    0.29    1.75   0
   4   0  -1   -0.04    4.50   0
   4  10 -15    1.08    2.55   0
   5  -1   2  251.90    5.89   0
   5   3  -7   13.52    3.12   0
   5   5 -10   34.92    2.72   0
   5  13 -17   19.18    2.99   0
   5  15 -18   -0.44    1.66   0
   5  19 -19   -0.32    1.74   0
   6   2  -5    5.37    3.32   0
   6   6 -11   90.25    3.53   0
   6  10 -15    0.16    1.79   0
   7  -3  15    0.54    1.77   0
   7  -3  16    0.11    2.25   0
   7  -3  17    4.53    2.65   0
   7  -3  18   -0.37    2.64   0
   7  -3  19    1.89    2.76   0
   7  -1   3  141.17    4.33   0
   7   7 -12    1.00    1.84   0
   7   9 -14    6.39    1.95   0
   8  -2   8    2.33    2.33   0
   8   2  -4   14.19    3.31   0
   8  14 -17   10.68    2.20   0
   9  -1   5    5.65    3.06   0
   9   1  -1    2.49    2.96   0
   9   7 -11    7.37    2.49   0
   9   9 -13    5.64    2.64   0
   9  13 -16    1.43    2.00   0
   9  15 -17   -2.38    2.14   0
  10  -2  13   18.10    2.42   0
  10  -2  14    2.23    2.04   0
  10  -2  20    0.75    2.20   0
  10  -2  21    1.13    1.94   0
  10  12 -15    1.30    1.85   0
  10  14 -16    5.60    2.32   0
  10  16 -17    1.10    1.82   0
  11  -1   9   12.40    2.69   0
  11   5  -7   -2.06    2.58   0
  11   7 -10   12.28    1.87   0
  11   9 -12    0.78    1.80   0
  11  13 -15    0.30    1.68   0
  12   0   6    7.91    2.00   0
  12   2   0   36.54    2.70   0
  12   8 -10    4.52    2.22   0
  12  10 -12   -0.03    1.61   0
  13   1   4    5.81    1.92   0
  13   3  -1   12.73    2.70   0
  13   5  -5    9.39    1.88   0
  13   7  -8   -0.15    1.76   0
  13  11 -12    1.52    1.66   0
  14   0  14   19.53    2.12   0
  14   0  15   -0.78    2.23   0
  14   0  16    1.48    2.60   0
  14   0  17    0.35    2.43   0
  14   0  18   12.34    2.61   0
  14   0  19    0.08    1.97   0
  14   0  20    0.24    1.71   0
  14   2   3    2.16    1.90   0
  14   4  -2    5.22    1.88   0
  14   6  -5   15.06    2.73   0
  14   8  -8   -1.35    1.77   0
  14  10 -10    0.80    2.02   0
  14  12 -12   -0.41    1.72   0
  14  14 -13   -0.88    2.04   0
  15   1  11    2.90    1.61   0
  15   1  12    5.19    2.42   0
  15   1  21   -1.11    2.29   0
  15   1  22    0.83    1.62   0
  15   1  22    0.88    1.13   0
  15   3   3    2.65    2.40   0
  15   5  -2    8.24    1.83   0
  15   7  -5    4.32    2.50   0
  15   9  -8    0.75    1.69   0
  15  11 -10    2.42    1.66   0
  15  13 -11    0.52    2.20   0
  16   2  10   -0.12    1.68   0
  16   2  11   -1.33    2.29   0
  16   6  -2   -0.01    1.84   0
  16   8  -5    0.13    2.27   0
  16  12  -9   -0.20    2.41   0
  17   3   9    1.46    1.87   0
  17   3  10    1.76    2.18   0
  17   3  11    0.65    2.45   0
  17   5   2    1.54    1.63   0
  17   5   3    3.02    2.25   0
  17   7  -2    2.06    1.88   0
  17   9  -5   -0.12    1.64   0
  17  11  -7    2.15    1.84   0
  18   4  10    2.59    1.77   0
  18   4  11    2.47    2.46   0
  18   6   3    0.54    2.01   0
  18   8  -1    0.44    2.28   0
  18  10  -4    1.26    1.67   0
  19   7   4    0.32    2.07   0
 -16  10  14   -1.06    2.05   0
 -16  10  15   -0.95    2.47   0
 -16  10  16   -0.95    1.79   0
 -16  12   9    1.46    1.64   0
 -16  14   6    2.07    1.76   0
 -15   9  10   -1.51    2.02   0
 -15   9  11   -0.50    1.64   0
 -15  11   6    2.24    1.89   0
 -15  13   3    0.91    2.38   0
 -15  15   1    1.54    2.54   0
 -14   6  17    4.75    2.31   0
 -14   6  18    2.68    2.51   0
 -14   6  19    3.03    2.51   0
 -14   6  20    0.61    2.53   0
 -14   6  21    3.14    2.38   0
 -14   8   8    1.52    2.18   0
 -14  10   4    0.58    1.71   0
 -14  12   1   -1.91    2.32   0
 -14  14  -1    0.36    2.37   0
 -14  16  -2   -1.34    1.71   0
 -13   5  14   -1.40    2.57   0
 -13   5  15    0.15    1.83   0
 -13   5  16    2.56    1.77   0
 -13   5  17    0.46    1.86   0
 -13   5  18    2.79    1.76   0
 -13   5  19    1.01    1.80   0
 -13   5  20    0.95    1.72   0
 -13   5  21    0.51    1.72   0
 -13   5  22    1.01    1.69   0
 -13   5  24   -0.48    2.28   0
 -13   7   6    3.58    2.16   0
 -13   7   7    4.47    1.73   0
 -13  15  -4    3.30    2.48   0
 -13  17  -5    1.11    2.39   0
 -12   4  12    0.49    2.17   0
 -12   4  13   17.43    1.94   0
 -12   4  14   19.78    2.10   0
 -12   4  24   -1.32    1.82   0
 -12   4  25    1.56    2.39   0
 -12   4  26    1.51    2.07   0
 -12   6   6    6.29    1.79   0
 -11   3  12    5.53    2.55   0
 -11   3  13    0.76    1.89   0
 -11   3  24   -0.60    1.92   0
 -11   3  25   -1.12    1.85   0
 -11   5   5   10.90    1.88   0
 -10   2  12    5.45    2.41   0
 -10   2  13    0.94    1.97   0
 -10   2  24    0.65    1.83   0
 -10   2  25    2.17    2.43   0
 -10   2  26   -2.07    2.19   0
 -10   4   5    6.18    1.91   0
 -10   6   0   11.16    2.58   0
 -10   8  -3    0.33    2.45   0
  -9   1  14   10.06    1.85   0
  -9   1  15    9.71    1.84   0
  -9   1  22    6.18    1.89   0
  -9   1  23   -1.59    1.71   0
  -9   1  24   -1.45    2.26   0
  -9   3   5    1.36    2.03   0
  -9   5   0    5.97    2.85   0
  -9   9  -6   15.91    2.49   0
  -9  11  -8    8.13    2.11   0
  -9  19 -12    0.94    2.29   0
  -8   0  16    0.33    2.49   0
  -8   0  17    1.91    2.57   0
  -8   0  18   10.72    2.82   0
  -8   0  19    0.29    2.69   0
  -8   0  20   29.54    2.99   0
  -8   0  21    2.62    2.55   0
  -8   0  22    1.95    2.19   0
  -8   2   5    4.89    3.00   0
  -8   2  32   -1.00    2.69   0
  -8   4   0   33.28    3.47   0
  -8  12 -10    4.81    2.12   0
  -7   1   6   12.89    3.20   0
  -7   1  31    0.13    2.54   0
  -6   0   8    2.20    2.34   0
  -6   0  29   -1.34    1.81   0
  -6   4  -3   37.09    3.36   0
  -5  -1  10   42.65    2.80   0
  -5  -1  27   -0.42    2.56   0
  -4  -2  14    5.37    3.05   0
  -4  -2  15    1.26    2.11   0
  -4  -2  22    6.88    2.60   0
  -4  -2  23    5.28    2.77   0
  -4   0  33   -0.86    2.69   0
  -3  -1   6   80.21    3.96   0
  -3  -1  31    0.50    2.35   0
  -2  -2   9   67.46    4.18   0
  -2  -2  28    0.84    2.39   0
  -1  -3  15    0.89    2.53   0
  -1  -3  16    3.37    2.42   0
  -1  -3  21   10.00    2.29   0
  -1  -3  22   10.50    2.93   0
  -1  -1  33    2.03    2.18   0
  -1   9 -13   18.13    3.35   0
   1  -3  25    3.20    2.89   0
   1  -1  34    1.96    2.78   0
   2   2  -5  424.20    8.35   0
   2  16 -18   -0.16    1.67   0
   3  -3  11   28.51    6.74   0
   3  -1  34    0.11    2.55   0
   4   6 -11    0.43    2.87   0
   5  -3  12   29.65    3.52   0
   5   1  -3   12.11    2.77   0
   5   7 -12    2.16    2.86   0
   5   9 -14    1.01    2.36   0
   6   4  -8   -1.41    3.11   0
   6   8 -13   -0.72    1.91   0
   6  12 -16    5.91    2.50   0
   6  14 -17    6.45    2.91   0
   6  16 -18    0.72    1.36   0
   7   3  -6    4.86    3.24   0
   7   5  -9    6.87    2.76   0
   7  11 -15   -0.25    2.51   0
   7  17 -18    0.04    1.65   0
   8  -2   9   23.65    2.65   0
   8  -2  26    0.48    3.03   0
   8   0   1   -0.15    2.32   0
   8   6 -10    4.15    1.93   0
   8  10 -14    4.28    2.23   0
   8  18 -18   -0.15    1.24   0
   8  18 -18    1.41    0.85   0
   9   5  -8   10.19    2.68   0
  10  -2  15   28.59    2.29   0
  10  -2  16    0.00    2.02   0
  10  -2  17    0.47    2.06   0
  10  -2  18    2.64    2.10   0
  10  -2  19    1.99    2.00   0
  10   0   3   -1.76    2.00   0
  10   2  -2   35.63    3.03   0
  10   4  -6    1.96    1.85   0
  10   6  -9    4.27    1.67   0
  10   8 -11    0.11    2.64   0
  10  10 -13    3.19    1.71   0
  11  -1  10   -0.10    2.58   0
  11  -1  25   -0.08    1.76   0
  11   3  -3   35.68    2.79   0
  11   7  -9    0.66    2.56   0
  11  11 -13    1.58    2.39   0
  11  17 -16    2.13    2.42   0
  12   0   7    0.83    1.88   0
  12   0  27    0.93    2.27   0
  12   4  -4   35.73    2.24   0
  12   6  -7    8.38    1.85   0
  12  12 -13   -0.75    2.13   0
  12  14 -14   -1.15    2.31   0
  12  16 -15    1.23    2.45   0
  13   1   5    2.08    1.83   0
  13   3   0   -1.39    2.50   0
  13   5  -4   -2.29    2.43   0
  13   7  -7    6.08    2.44   0
  13  13 -13   -1.49    1.68   0
  13  15 -14    0.04    1.62   0
  14   2   4   10.02    1.91   0
  14   4  -1   31.93    2.13   0
  14  12 -11    1.90    2.05   0
  15   1  13    0.13    1.80   0
  15   1  14    5.40    1.88   0
  15   1  15    1.52    2.19   0
  15   1  16    7.69    2.57   0
  15   1  17    3.64    2.37   0
  15   1  18    0.61    2.27   0
  15   1  19    0.07    2.02   0
  15   1  20    1.15    2.01   0
  15   3   4   -0.63    2.42   0
  15   5  -1    9.97    2.27   0
  15   9  -7   -0.67    2.21   0
  15  11  -9   -0.17    2.04   0
  16   2  12    0.66    1.71   0
  16   2  13    0.12    2.00   0
  16   2  14    4.35    2.44   0
  16   2  15    6.47    2.32   0
  16   2  19    1.51    2.16   0
  16   2  20    1.11    2.14   0
  16   4   3    1.42    1.59   0
  16   4   4    5.43    2.39   0
  16   6  -1    4.27    1.88   0
  16   8  -4   -0.45    2.62   0
  16  10  -7   -1.42    1.85   0
  17   3  12    0.73    1.89   0
  17   3  13    0.61    2.16   0
  17   3  14   -0.77    2.42   0
  17   5   4    0.27    2.31   0
  17   7  -1    0.88    1.94   0
  17  11  -6   -1.10    2.21   0
  18   4  12    0.91    1.74   0
  18   4  13    1.42    1.71   0
  18   4  14   -2.25    1.98   0
  18   6   4   -2.30    1.66   0
  18   6   5   -0.68    2.21   0
  18   8   0    1.90    1.73   0
  18  10  -3    4.11    1.77   0
  19   7   5    1.94    1.66   0
 -16  10  12    0.25    1.78   0
 -16  10  13    1.92    1.82   0
 -16  12   7    3.16    2.38   0
 -16  12   8   -0.78    1.64   0
 -16  14   4    0.20    2.20   0
 -16  14   5   -0.40    1.74   0
 -15   7  17   -3.79    2.07   0
 -15   7  18    0.39    2.34   0
 -15   7  19    0.31    2.33   0
 -15   7  21    3.12    2.19   0
 -15   7  22    1.12    2.12   0
 -15   9   9    0.97    1.63   0
 -15  11   5    6.46    1.79   0
 -15  13   2    4.26    2.61   0
 -15  15   0   -0.02    2.22   0
 -14   6  13    2.74    2.25   0
 -14   6  14   -0.97    1.77   0
 -14   6  15    3.73    1.82   0
 -14   6  22    0.09    1.75   0
 -14   6  23    1.71    1.79   0
 -14   6  24    0.07    1.81   0
 -14   8   7   24.24    2.01   0
 -14  10   3   10.44    2.48   0
 -14  12   0    1.02    2.01   0
 -14  16  -3    2.36    2.40   0
 -13   5  11   -0.91    2.23   0
 -13   5  12    2.88    1.93   0
 -13   5  25    3.24    1.68   0
 -13   5  26    0.75    1.58   0
 -13   7   5   10.56    2.29   0
 -13   9   2    3.06    1.74   0
 -13  11  -1    1.29    2.20   0
 -13  13  -3    4.54    2.55   0
 -12   4  11    7.26    1.86   0
 -12   4  27    1.02    1.67   0
 -12   4  28   -1.40    1.90   0
 -12   6   5   -0.90    1.76   0
 -12   8   1    8.62    1.82   0
 -12  10  -2    7.04    1.85   0
 -12  12  -4    0.52    1.77   0
 -12  16  -7    2.82    2.26   0
 -11   3  10   12.41    2.65   0
 -11   3  11    5.84    1.99   0
 -11   3  27   -1.64    1.71   0
 -11   3  28    0.61    2.51   0
 -11   5   4   38.62    2.96   0
 -11   7   0    4.00    2.58   0
 -11   9  -3    0.89    2.41   0
 -11  11  -5    1.60    2.36   0
 -11  15  -8    2.14    2.60   0
 -11  17  -9    1.84    2.00   0
 -10   2  11    1.48    1.79   0
 -10   2  27   -0.02    1.71   0
 -10   2  28   -0.52    2.08   0
 -10   4   4    0.10    1.87   0
 -10  14  -9    0.36    2.27   0
 -10  16 -10    0.86    2.05   0
  -9   1  12    3.06    1.82   0
  -9   1  25   -1.89    1.82   0
  -9   1  26    0.47    2.37   0
  -9   1  27   -2.05    2.09   0
  -9   3   4   66.78    3.51   0
  -8   0  13   -0.96    2.43   0
  -8   0  14   10.49    1.94   0
  -8   0  15    4.58    1.94   0
  -8   0  23    0.50    1.85   0
  -8   0  24    3.51    2.52   0
  -8   0  25   -0.04    2.26   0
  -8  18 -13    0.66    2.66   0
  -7  -1  19    3.04    2.33   0
  -7   1  32    1.74    2.50   0
  -7   3   0    5.68    3.13   0
  -7  15 -13    1.48    2.46   0
  -6   0   7    1.99    2.38   0
  -6   0  30   -0.03    1.84   0
  -6   0  31   -0.24    2.21   0
  -6   2   1    1.18    2.27   0
  -5  -1   9   41.99    3.24   0
  -5  -1  28   -1.50    2.66   0
  -5   1   2   18.92    2.84   0
  -4  -2  24    8.81    2.56   0
  -4  -2  25    5.42    2.50   0
  -4   0  34    0.68    2.39   0
  -1  -3  14   19.20    3.08   0
  -1  -3  23   -1.15    2.42   0
  -1   7 -11   34.79    4.58   0
   0  -2  30    1.28    2.48   0
   0  18 -18   -0.33    1.78   0
   1  17 -18   -0.51    1.56   0
   2  -2  31    0.73    2.75   0
   2  12 -16    0.17    1.51   0
   2  14 -17    1.62    1.79   0
   3  -1   2   38.92    4.06   0
   3   1  -3   53.47    4.28   0
   3   7 -12    3.23    1.86   0
   4   2  -5  438.33    6.29   0
   4  12 -16    2.26    2.46   0
   4  14 -17   11.46    1.94   0
   5  17 -18    1.55    1.96   0
   6  -2   7   56.49    3.20   0
   6   0   0  278.66    4.93   0
   7  -1   4  102.18    4.00   0
   7   1  -2   57.93    3.01   0
   7  13 -16   11.46    2.59   0
   7  15 -17   -1.84    2.39   0
   8   4  -7    3.93    2.13   0
   8   8 -12   -1.71    1.65   0
   8  12 -15    0.63    2.37   0
   8  14 -16    0.72    2.56   0
   8  16 -17   -1.57    2.22   0
   9  -1   6   20.28    2.33   0
   9  -1  29    0.70    2.80   0
   9   1   0    4.08    2.93   0
   9  11 -14   -0.59    1.73   0
   9  15 -16   -0.18    2.36   0
   9  17 -17    0.20    1.37   0
  10   0   4   35.93    2.99   0
  10  12 -14    1.97    2.17   0
  10  14 -15    2.11    2.32   0
  10  16 -16   -1.34    2.05   0
  11  -1  11    2.39    2.20   0
  11  -1  24    6.75    2.28   0
  11   1   2   28.66    2.23   0
  11   5  -6    7.82    2.01   0
  11   9 -11    9.16    2.04   0
  11  13 -14    2.02    1.71   0
  11  15 -15    0.47    2.25   0
  12   0   8   25.18    2.29   0
  12   2   1    7.66    1.95   0
  12   8  -9    2.55    1.71   0
  12  10 -11   -0.45    1.62   0
  13   1   6   18.47    2.12   0
  13   1   7    5.50    2.41   0
  13   9  -9    1.53    1.66   0
  13  11 -11    3.70    1.71   0
  13  13 -12    3.73    2.54   0
  14   2   5    1.02    1.83   0
  14   4   0    6.25    2.29   0
  14   6  -4   -3.08    1.93   0
  14  10  -9    2.11    1.64   0
  14  14 -12    1.21    1.68   0
  15   3   5    1.55    2.04   0
  15   5   0   -2.00    2.34   0
  15   7  -4   12.32    1.95   0
  15  13 -10    3.07    1.66   0
  16   2  16    0.18    1.80   0
  16   2  17   -0.44    1.73   0
  16   2  18    0.91    1.77   0
  16   4   5    1.21    2.13   0
  16   6   0    6.23    2.15   0
  16   8  -3   -0.81    2.53   0
  16  10  -6   -1.29    1.77   0
  16  12  -8   -1.09    1.68   0
  17   3  15    0.50    1.74   0
  17   3  16    3.25    1.71   0
  17   3  17    1.12    1.08   0
  17   3  17   -0.17    1.05   0
  17   5   5    3.87    1.85   0
  17   7   0   -0.47    1.78   0
  17   9  -3   -0.22    1.61   0
  17  11  -5   -1.65    2.29   0
  18   6   6    0.43    2.01   0
  18   8   1    1.37    1.75   0
 -16   8  18   -1.26    2.08   0
 -16   8  19   -1.29    2.25   0
 -16  10  10    1.23    1.76   0
 -16  12   6    1.50    1.76   0
 -16  14   3   -0.09    2.13   0
 -15   7  13   -0.30    2.39   0
 -15   7  14    0.84    2.48   0
 -15   7  15    1.14    1.80   0
 -15   7  16    0.72    1.80   0
 -15   9   7   -2.18    2.24   0
 -15   9   8    0.99    1.68   0
 -15  11   4    1.64    1.74   0
 -15  13   1    0.68    2.11   0
 -14   6  11    1.41    2.37   0
 -14   6  12   -0.48    1.78   0
 -14   8   6    2.68    1.78   0
 -14  10   2    2.72    2.39   0
 -14  14  -2    3.48    1.82   0
 -13   5  10    8.21    2.51   0
 -13   9   1    1.08    1.80   0
 -13  15  -5    4.20    2.59   0
 -13  17  -6   -0.04    2.66   0
 -12   4   9   13.22    2.54   0
 -12   4  10    5.85    1.90   0
 -12   6   4    7.49    1.93   0
 -12   8   0   29.62    2.64   0
 -12  14  -6   -1.17    1.88   0
 -12  18  -8   -0.04    2.39   0
 -11   3   9    3.43    2.57   0
 -11   3  29    0.63    1.18   0
 -11   3  29   -0.25    1.20   0
 -11   5   3    0.76    2.61   0
 -11  13  -7    0.98    1.83   0
 -10   2   9    3.14    2.56   0
 -10   2  10   -1.44    1.71   0
 -10   2  29   -0.72    2.41   0
 -10   4   3   24.48    2.78   0
 -10   6  -1    5.21    2.55   0
 -10   8  -4   29.74    2.56   0
 -10  10  -6    5.04    1.90   0
 -10  12  -8   61.88    3.11   0
 -10  18 -11    0.86    2.44   0
  -9   1  11    5.42    1.85   0
  -9   1  28   -1.75    2.43   0
  -9   5  -1    0.31    2.84   0
  -9   7  -4    2.44    2.53   0
  -9  13 -10    8.33    2.58   0
  -9  15 -11    0.08    1.95   0
  -8   0  12   18.97    2.89   0
  -8   0  26    1.64    2.47   0
  -8   0  27   -1.95    2.02   0
  -8   2   4   17.30    2.36   0
  -8   6  -4   50.33    2.58   0
  -7  -1  15   10.68    2.62   0
  -7  -1  16   14.04    2.04   0
  -7  -1  17    4.08    1.88   0
  -7  -1  18   -0.25    1.89   0
  -7  -1  20   15.16    1.97   0
  -7  -1  21    3.48    1.92   0
  -7  -1  22    1.41    1.82   0
  -7  -1  23    2.21    2.38   0
  -7   1  33   -1.42    1.98   0
  -7   1  33    0.97    1.26   0
  -7   5  -4   86.09    3.65   0
  -7  13 -12    5.88    2.37   0
  -6   0  32   -0.27    2.18   0
  -6  18 -15   -0.21    3.85   0
  -5  -1  29    0.91    2.02   0
  -5   5  -6   66.99    4.08   0
  -4  -2  12   46.48    2.89   0
  -4  -2  26   -1.30    2.60   0
  -3  -1  32    0.62    1.96   0
  -2  -2   8    1.44    3.59   0
  -2  -2  29    2.26    2.53   0
  -1  -3  13    1.18    2.66   0
  -1  -3  24    4.93    2.50   0
  -1  -1  34   -0.45    2.06   0
   0  -2  31    1.31    2.86   0
   0  10 -14    0.31    2.32   0
   1  -3  11   22.55    5.18   0
   1  -3  26    3.50    3.22   0
   1  11 -15    1.57    1.64   0
   3  -3  26    3.81    3.40   0
   3  17 -18    0.93    1.67   0
   4  -2   6   11.55    2.81   0
   4   4  -8    0.20    2.09   0
   5  -3  13   16.59    3.35   0
   6   2  -4    1.91    3.42   0
   6   6 -10   22.37    3.07   0
   6  10 -14    0.75    2.67   0
   6  18 -18    0.25    0.94   0
   6  18 -18   -0.64    1.00   0
   7   7 -11    3.65    1.94   0
   7   9 -13    4.75    1.89   0
   8  -2  10    0.14    1.46   0
   8   0   2  289.08    4.97   0
   8   2  -3   59.77    2.84   0
   9  -1   7   11.71    3.03   0
   9   3  -4   64.53    2.63   0
   9   7 -10   -0.90    1.84   0
   9   9 -12   21.35    2.16   0
  10   0   5    0.21    2.76   0
  10   2  -1   19.31    2.13   0
  10   4  -5    1.83    1.89   0
  10   6  -8   27.97    2.01   0
  10   8 -10   -2.42    2.48   0
  11  -1  12   60.39    2.69   0
  11  -1  13    5.52    2.33   0
  11  -1  22    4.50    2.43   0
  11  -1  23    0.19    2.05   0
  11   1   3    0.04    1.87   0
  11  11 -12   -0.98    2.39   0
  11  17 -15   -0.59    2.40   0
  12   0   9    1.14    1.79   0
  12   0  10   28.51    2.84   0
  12   0  26    0.44    1.42   0
  12   0  26   -0.03    1.03   0
  12   2   2    6.42    2.37   0
  12   6  -6   10.53    1.91   0
  12  12 -12   -1.58    1.75   0
  12  14 -13   -0.76    2.18   0
  12  16 -14   -2.06    2.43   0
  13   1   8  109.68    3.37   0
  13   3   1   11.87    1.89   0
  13   5  -3    0.51    1.74   0
  13   7  -6   -1.07    1.75   0
  13  11 -10    2.18    2.28   0
  13  15 -13    0.93    1.80   0
  14   2   7    2.25    2.33   0
  14   4   1   -1.57    2.21   0
  14   6  -3    1.95    2.25   0
  14   8  -6    3.00    1.71   0
  14  10  -8    0.85    2.35   0
  14  12 -10    0.50    1.60   0
  14  14 -11    2.77    2.21   0
  15   3   6    3.84    1.73   0
  15   5   1    5.05    2.20   0
  15   7  -3    1.42    1.75   0
  15   9  -6    4.62    1.79   0
  15  11  -8   -0.08    1.63   0
  15  13  -9   -0.08    2.25   0
  16   4   6   -1.07    1.65   0
  16   6   1    1.28    2.07   0
  16  10  -5   -0.64    2.13   0
  16  12  -7    1.00    2.08   0
  17   5   6    2.87    1.75   0
  17   7   1    1.49    1.67   0
  17   7   2    3.64    2.35   0
  17   9  -2    1.27    1.69   0
  17  11  -4    2.02    2.40   0
  18   6   7    1.41    1.67   0
  18   6   8    0.83    2.34   0
  18   8   3    1.40    2.26   0
 -17  11  11   -0.03    2.38   0
 -16   8  14    1.58    2.72   0
 -16   8  15   -3.19    1.85   0
 -16   8  16   -1.97    1.82   0
 -16   8  17   -0.50    1.67   0
 -16  10   8    1.83    2.39   0
 -16  12   5    1.24    1.78   0
 -16  14   2    0.61    2.05   0
 -15   7  11    4.03    2.29   0
 -15   7  12    0.67    1.80   0
 -15   9   6    1.25    2.32   0
 -15  11   3    0.56    1.72   0
 -15  15  -1   -1.23    1.76   0
 -14   6   9   11.69    2.10   0
 -14   6  10    4.63    1.83   0
 -14   8   5    1.40    1.59   0
 -14  10   1    1.52    2.19   0
 -14  12  -1    2.97    2.28   0
 -14  14  -3    0.23    2.10   0
 -14  16  -4   -0.89    2.38   0
 -13   5   8    4.00    2.29   0
 -13   5   9   21.97    2.05   0
 -13   7   4    3.23    1.77   0
 -13   9   0    7.68    2.09   0
 -13  11  -2   -0.56    1.69   0
 -13  13  -4    4.60    2.75   0
 -12   4   8    2.07    1.78   0
 -12   6   3    3.17    1.85   0
 -12  10  -3   51.79    2.46   0
 -12  12  -5    1.45    2.46   0
 -11   3   8   -0.70    1.71   0
 -11   7  -1   -0.37    1.72   0
 -10   2  30   -1.21    1.89   0
  -9   1   9   -1.61    2.77   0
  -9   1  29   -0.22    1.93   0
  -9   1  30   -0.10    2.22   0
  -9   3   3    0.08    1.97   0
  -9  17 -12    2.59    2.40   0
  -8   0  11    0.38    1.99   0
  -8   0  28   -3.30    2.29   0
  -8   4  -1  141.86    3.58   0
  -8   8  -7   15.09    2.51   0
  -8  10  -9    6.73    2.17   0
  -7  -1  13   15.22    2.85   0
  -7  -1  14   28.11    2.34   0
  -7  -1  24    1.67    1.70   0
  -7  -1  25    1.39    2.28   0
  -7  -1  26    2.28    2.17   0
  -7   9  -9   26.45    2.43   0
  -7  17 -14    0.34    3.15   0
  -6   0   6  351.47    4.98   0
  -6   0  33   -0.95    2.04   0
  -6   8  -9   41.60    2.93   0
  -5  -1   8    0.37    2.54   0
  -5  -1  30   -0.59    1.88   0
  -5   3  -3    0.90    3.22   0
  -4  -2  11  274.67    5.31   0
  -4  -2  27   -1.97    2.75   0
  -4   0   3    0.04    3.07   0
  -4   2  -2   29.45    4.35   0
  -3  -3  19   -0.33    2.40   0
  -3  -1   5   40.70    3.69   0
  -3  -1  33    1.48    2.65   0
  -2   0   1    1.36    5.40   0
  -1  -3  25    0.16    2.50   0
   0  20 -18    0.81    1.66   0
   1  13 -16    0.51    1.83   0
   1  15 -17    0.28    1.62   0
   1  19 -18   -0.84    1.81   0
   2  18 -18    0.51    1.61   0
   4  -2  31   -0.16    3.33   0
   5  -1   3  344.71    5.97   0
   5   3  -6   95.71    3.57   0
   5   5  -9    2.69    2.21   0
   5  13 -16    0.81    2.07   0
   5  15 -17   -1.69    1.40   0
   5  19 -18   -1.32    1.77   0
   6  -2   8   91.78    3.53   0
   6   4  -7  194.84    4.64   0
   6   8 -12    0.38    1.89   0
   6  12 -15   10.54    2.75   0
   6  16 -17    2.65    1.74   0
   7   1  -1    2.11    3.24   0
   7   3  -5  276.58    4.85   0
   7   5  -8    9.93    2.92   0
   7  11 -14    3.56    2.62   0
   7  17 -17   -1.05    1.62   0
   8  -2  11   32.93    2.38   0
   8  -2  25    0.39    2.60   0
   8   4  -6    3.18    2.76   0
   8   6  -9    5.33    1.97   0
   8   8 -11    1.87    2.48   0
   8  10 -13    0.60    1.85   0
   8  18 -17    0.86    0.91   0
   8  18 -17    0.37    0.90   0
   9  -1   8    8.51    2.93   0
   9   1   1   14.06    3.01   0
   9   5  -7    3.54    1.91   0
   9  17 -16    0.34    2.38   0
  10  12 -13   -0.54    2.46   0
  10  16 -15    1.16    2.51   0
  11  -1  14   31.65    2.07   0
  11  -1  15   -2.64    2.00   0
  11  -1  16   19.32    2.55   0
  11  -1  20    0.41    2.08   0
  11  -1  21    1.52    2.03   0
  11   1   4    2.49    2.49   0
  11   3  -1    7.43    2.59   0
  11   9 -10    2.44    1.91   0
  11  13 -13    1.98    1.69   0
  11  15 -14    2.20    2.02   0
  12   0  11    1.35    2.64   0
  12   0  25    0.06    1.85   0
  12   2   3    2.66    2.53   0
  12   4  -2  101.82    2.86   0
  12   6  -5   -2.04    2.38   0
  12   8  -8    8.10    1.88   0
  13   1   9    3.48    2.23   0
  13   3   2   21.97    2.10   0
  13   5  -2   26.02    2.59   0
  13   9  -8    2.35    1.62   0
  13  13 -11    2.07    2.15   0
  13  15 -12    2.20    2.43   0
  14   2   8    5.59    2.11   0
  14   4   2    2.79    2.47   0
  14   6  -2   -0.92    2.40   0
  14   8  -5    0.28    2.37   0
  14  12  -9    2.22    2.32   0
  15   3   7    2.86    1.86   0
  15   3   8    2.21    2.28   0
  15   5   2    4.94    2.30   0
  15   7  -2    4.37    2.20   0
  15   9  -5    0.04    1.75   0
  15  11  -7    4.22    1.72   0
  16   4   7   -0.64    1.71   0
  16   4   8   11.60    2.48   0
  16   8  -2    1.89    1.84   0
  16  10  -4    2.47    2.44   0
  16  14  -8    0.83    1.17   0
  17   5   8   -0.88    1.84   0
  17   5   9    0.58    2.32   0
  17   7   3   -0.64    2.21   0
  17   9  -1    1.80    1.90   0
  17  11  -3    2.71    2.22   0
  18   6   9   -1.57    1.72   0
  18   6  10   -0.15    2.35   0
  18   8   4   -1.81    2.22   0
  18  10   0    2.79    1.87   0
 -17  11   9   -0.45    2.28   0
 -17  11  10    1.63    1.80   0
 -16   8  11    0.92    2.17   0
 -16   8  12    1.99    1.80   0
 -16   8  13    3.33    1.98   0
 -16  10   7   -0.48    1.76   0
 -16  12   4   -0.09    1.67   0
 -15   7   9    2.73    2.11   0
 -15   7  10    2.62    1.74   0
 -15   9   5    3.05    1.85   0
 -15  11   2   -1.02    1.71   0
 -15  13   0    0.13    1.60   0
 -15  15  -2    2.24    2.26   0
 -14   4  17   -1.99    2.13   0
 -14   4  18    0.78    2.38   0
 -14   4  20    2.82    2.55   0
 -14   6   8    6.16    2.34   0
 -14   8   4    3.36    1.66   0
 -13   3  16    1.47    2.23   0
 -13   3  17    1.39    2.49   0
 -13   3  18    1.23    1.91   0
 -13   3  19    0.86    1.75   0
 -13   3  20   -0.37    1.61   0
 -13   3  21   -0.42    1.64   0
 -13   3  22    1.19    2.37   0
 -13   3  23    1.12    2.33   0
 -13   3  24    2.13    2.07   0
 -13   5   7    4.44    2.28   0
 -13   7   3    7.73    1.93   0
 -13  11  -3    2.85    2.17   0
 -13  15  -6    2.69    2.17   0
 -12   2  16    2.85    2.44   0
 -12   2  17   -1.91    2.48   0
 -12   2  18    0.78    1.69   0
 -12   2  19   -0.83    1.68   0
 -12   2  20   -0.51    1.73   0
 -12   2  21    1.26    1.68   0
 -12   2  22   -0.90    2.34   0
 -12   2  23   -2.42    2.35   0
 -12   2  24    0.54    2.20   0
 -12   4   7    3.25    1.89   0
 -12   6   2   -0.20    2.52   0
 -12   8  -1   24.96    2.05   0
 -12  14  -7    1.27    2.59   0
 -12  16  -8    0.91    2.40   0
 -11   1  17   -1.25    2.27   0
 -11   1  18    0.53    2.56   0
 -11   1  19    7.06    2.48   0
 -11   1  20   -0.35    2.37   0
 -11   1  21    1.12    2.42   0
 -11   1  22   -1.46    2.18   0
 -11   3   7    7.88    1.80   0
 -11   9  -4   -0.51    1.65   0
 -11  15  -9    1.31    2.26   0
 -10   2   7    1.40    2.64   0
 -10   4   2   13.44    2.17   0
 -10   6  -2    3.18    2.18   0
  -9   1   8    5.55    2.83   0
  -9   1  31   -1.03    2.57   0
  -9   3   2    2.14    2.81   0
  -9   9  -7    4.15    2.52   0
  -9  11  -9   -0.11    2.44   0
  -8   0  10    2.64    1.99   0
  -8   0  29    2.14    1.72   0
  -8   0  30    1.03    2.17   0
  -8   2   3   55.37    2.80   0
  -8  14 -12    0.03    2.35   0
  -7  -1  12   45.73    2.49   0
  -7  -1  27    0.04    2.57   0
  -7   1   4   41.36    2.77   0
  -7   3  -1    4.49    3.04   0
  -7   7  -7    0.30    1.53   0
  -7  11 -11   51.69    3.57   0
  -6  -2  16   -0.15    2.63   0
  -6  -2  17    8.98    2.63   0
  -6  -2  18   24.73    2.28   0
  -6  -2  19    1.46    1.85   0
  -6  -2  20    0.93    1.90   0
  -6  -2  21    2.92    2.64   0
  -6  -2  22    8.21    2.64   0
  -6  -2  23    2.12    2.37   0
  -6   0   5   -0.40    3.31   0
  -6   2   0   15.52    2.49   0
  -6   4  -4   87.72    3.85   0
  -6  10 -11    3.92    2.41   0
  -5  -1   7  161.52    4.45   0
  -5  -1  31    1.83    1.88   0
  -5   1   1    9.24    4.24   0
  -4  -2  10  132.20    4.43   0
  -4  -2  28    1.16    2.62   0
  -3  -3  16    9.78    2.76   0
  -3  -3  17   12.47    3.00   0
  -3  -3  18   20.87    2.32   0
  -3  -3  20   12.33    2.12   0
  -3  -3  21   20.51    3.04   0
  -3  -3  22   12.87    2.67   0
  -3  -3  23   16.72    2.59   0
  -3  -1  34    2.17    2.35   0
  -2  -2  31   -0.13    2.35   0
  -2  18 -17    0.54    2.12   0
  -1  -3  12   33.00    3.66   0
  -1  -3  26   -0.16    2.44   0
  -1  -1  35    0.07    2.07   0
   0  -2  32    1.29    2.73   0
   0   6 -10  100.05    5.24   0
   0  16 -17    0.82    1.79   0
   1  -3  27    0.78    2.43   0
   2  -2  32   -0.69    2.75   0
   2  20 -18   -0.28    1.61   0
   3   5  -9   58.51    3.65   0
   3  19 -18    0.70    1.48   0
   4   0   0  849.32    9.66   0
   4   6 -10    6.63    2.84   0
   4  10 -14    4.07    1.94   0
   5   1  -2   20.17    2.93   0
   5   9 -13    5.64    2.00   0
   6   0   1    2.17    2.33   0
   6  14 -16    4.81    2.09   0
   7  -1   5    7.98    2.58   0
   7   9 -12   14.23    2.75   0
   7  13 -15   15.65    2.40   0
   7  15 -16    0.37    2.43   0
   7  19 -17   -1.31    1.76   0
   8  -2  12   20.22    2.27   0
   8   0   3   -1.99    2.92   0
   8   2  -2    1.91    2.20   0
   8  12 -14   16.58    2.06   0
   8  14 -15    5.74    2.31   0
   8  16 -16    3.49    1.84   0
   9  -1  28    0.56    2.71   0
   9   3  -3   -1.30    2.65   0
   9   7  -9   11.06    2.00   0
   9   9 -11   22.88    2.66   0
   9  13 -14    0.67    1.65   0
   9  15 -15   -0.07    1.67   0
  10   0   6    7.68    2.02   0
  10   2   0   19.22    2.20   0
  10   4  -4   -0.43    1.89   0
  10   6  -7    8.11    1.75   0
  10  10 -11   21.12    2.84   0
  10  14 -14   -0.11    1.74   0
  11  -1  17    6.44    1.65   0
  11  -1  18    3.06    1.98   0
  11  -1  19    3.49    1.85   0
  11   7  -7   13.22    2.59   0
  11  11 -11    3.32    2.46   0
  12   0  12    9.57    1.92   0
  12   0  13    0.36    2.33   0
  12   0  23   -0.38    2.07   0
  12   0  24    0.95    1.76   0
  12   4  -1   72.52    3.06   0
  12   8  -7    3.72    2.35   0
  12  12 -11    2.03    1.74   0
  12  16 -13   -0.55    2.10   0
  13   1  10   17.09    2.15   0
  13   1  11   75.03    3.17   0
  13   1  25    0.95    2.14   0
  13   3   3   24.67    2.59   0
  13   7  -5    7.39    1.87   0
  13   9  -7    4.87    2.32   0
  13  11  -9    1.19    2.06   0
  14   2   9    4.40    1.81   0
  14   2  10   12.64    2.36   0
  14   4   3    3.57    2.40   0
  14  10  -7    1.35    1.75   0
  14  14 -10   -0.70    1.63   0
  15   3   9    3.35    2.14   0
  15   5   3    4.40    2.24   0
  15   7  -1   10.75    2.43   0
  15   9  -4   -1.56    2.25   0
  15  11  -6    0.33    2.48   0
  15  13  -8    0.05    1.74   0
  15  15  -9   -0.16    2.05   0
  16   4   9    0.92    1.79   0
  16   4  10    3.68    2.33   0
  16   6   3   -0.85    1.62   0
  16   8  -1    3.94    1.82   0
  16  14  -7   -1.31    1.69   0
  17   5  10    0.31    1.62   0
  17   5  11    1.23    2.18   0
  17   7   4    0.16    1.98   0
  17   9   0    2.02    1.92   0
  18   6  11    1.58    1.69   0
  18   6  12   -0.20    1.60   0
  18   6  12    1.18    1.03   0
  18   8   5    0.77    1.60   0
  18  10   1   -1.22    1.76   0
 -17   9  12    2.08    2.09   0
 -17   9  13    1.01    1.85   0
 -17   9  14   -1.25    1.82   0
 -16  10   6   -0.05    1.75   0
 -16  12   3    0.19    1.67   0
 -16  14   1   -2.52    1.82   0
 -15   5  16    3.64    2.62   0
 -15   5  17    0.50    2.47   0
 -15   5  18    0.91    1.80   0
 -15   5  19    2.78    1.88   0
 -15   5  20    0.70    1.94   0
 -15   5  21   -0.76    1.74   0
 -15   5  22   -0.28    1.83   0
 -15   5  23    1.07    1.81   0
 -15   9   4    1.95    1.79   0
 -15  11   1    1.53    2.23   0
 -15  13  -1    0.38    2.29   0
 -14   4  14   -2.52    2.58   0
 -14   4  15    0.31    1.96   0
 -14   4  16    3.10    1.87   0
 -14   4  24    0.78    1.71   0
 -14   4  25   -1.33    1.70   0
 -14   6   7   -1.75    1.63   0
 -14   8   3    8.21    1.85   0
 -14  10   0    1.97    1.77   0
 -14  12  -2   -0.70    1.74   0
 -14  14  -4    1.30    2.10   0
 -14  16  -5    0.06    2.48   0
 -13   3  13    4.94    2.43   0
 -13   3  14   -0.85    1.91   0
 -13   3  15    6.69    1.89   0
 -13   3  25    3.05    1.74   0
 -13   3  26    0.09    1.62   0
 -13   3  27    1.21    1.92   0
 -13   5   6    2.21    2.26   0
 -13   7   2    0.82    2.43   0
 -13   9  -1    2.54    2.20   0
 -13  13  -5    1.87    2.63   0
 -13  17  -7    1.54    1.27   0
 -13  17  -7   -0.63    1.22   0
 -12   2  14    0.22    1.78   0
 -12   2  15    0.46    1.76   0
 -12   2  25    0.78    1.88   0
 -12   2  26    0.17    2.37   0
 -12   2  27   -0.98    2.14   0
 -12   4   6    2.50    1.88   0
 -12  10  -4   -0.61    2.23   0
 -11   1  14    3.07    2.47   0
 -11   1  15    3.57    1.86   0
 -11   1  16    7.20    1.97   0
 -11   1  23    5.43    1.96   0
 -11   1  24   -0.63    1.81   0
 -11   1  25   -0.70    2.41   0
 -11   1  26    0.41    2.08   0
 -11   3   6   18.01    1.97   0
 -11   7  -2   -1.54    1.64   0
 -11  17 -10    0.23    2.24   0
 -10   0  16   29.59    2.64   0
 -10   0  17   -0.35    2.61   0
 -10   0  18    3.73    2.59   0
 -10   0  19    0.80    1.79   0
 -10   0  20    0.82    1.79   0
 -10   0  21    0.51    1.70   0
 -10   0  22    1.21    2.38   0
 -10   0  23   -1.78    2.42   0
 -10   2   6   30.65    2.77   0
 -10   8  -5   35.15    2.85   0
 -10  10  -7    3.00    2.34   0
 -10  14 -10    0.75    2.26   0
 -10  16 -11    0.68    2.44   0
  -9   1   7    7.48    2.87   0
  -9   1  32    1.88    1.90   0
  -9   5  -2    0.90    2.12   0
  -9   7  -5    0.32    2.63   0
  -8   0   9   -0.91    2.02   0
  -8   0  31    0.78    2.34   0
  -8   6  -5   18.22    3.06   0
  -8  16 -13    0.53    2.59   0
  -7  -1  11    5.41    2.05   0
  -7  -1  28    2.94    1.93   0
  -7  -1  29   -0.38    2.36   0
  -6  -2  14    1.41    2.78   0
  -6  -2  15   -0.14    2.04   0
  -6  -2  24    1.15    1.91   0
  -6   0  34    0.78    1.32   0
  -6   6  -7   32.97    3.12   0
  -5  -1  32   -1.25    1.83   0
  -5   7  -9   73.04    4.35   0
  -5   9 -11    1.88    2.71   0
  -4  -2  29    0.26    1.99   0
  -3  -3  15    4.17    2.85   0
  -3  -3  24   -0.05    2.67   0
  -3   1  -1 1976.52   17.06   0
  -1  -3  27   -0.06    2.42   0
  -1  -1   3  108.09    7.33   0
  -1  17 -17   -0.03    1.82   0
   0  -2   6   42.68    6.57   0
   0   8 -12    6.67    2.83   0
   0  12 -15   -0.66    1.86   0
   1   9 -13   32.19    2.72   0
   2  16 -17    0.00    1.77   0
   3  -3  27   -0.20    3.17   0
   3   3  -6  147.79    4.45   0
   4   2  -4    3.03    2.74   0
   4   8 -12    0.39    2.58   0
   4  14 -16   -0.08    1.85   0
   4  16 -17    0.46    1.29   0
   5  -3  14   14.25    3.23   0
   5  -3  23    2.52    4.88   0
   5  17 -17    0.80    1.69   0
   6   2  -3   19.00    3.25   0
   6  10 -13   25.12    2.88   0
   6  18 -17    1.93    1.61   0
   7   7 -10    0.32    1.90   0
   8  -2  13    1.66    1.71   0
   8  -2  24   -0.27    2.45   0
   8   6  -8   -0.08    2.65   0
   8  18 -16    0.38    2.02   0
   9  -1   9   39.82    2.38   0
   9   1   2   61.26    3.34   0
   9   5  -6   -0.37    1.86   0
  10   0   7    2.05    2.62   0
  10   2   1    1.77    2.76   0
  10   8  -9    1.50    1.84   0
  10  18 -15    3.44    1.91   0
  11   1   5   13.03    2.00   0
  11   3   0   17.39    1.97   0
  11   5  -4   36.94    2.06   0
  11   9  -9    3.32    1.81   0
  11  13 -12    1.10    1.63   0
  11  15 -13    0.59    2.23   0
  11  17 -14   -0.01    1.82   0
  12   0  14    5.72    1.69   0
  12   0  15   -0.32    2.07   0
  12   0  16    3.90    2.48   0
  12   0  21    0.31    2.18   0
  12   0  22    0.10    2.06   0
  12   2   4   55.55    2.29   0
  12   6  -4    5.38    1.86   0
  12  10  -9    2.19    1.76   0
  13   1  12    3.54    2.25   0
  13   1  13    2.39    2.46   0
  13   3   4   24.78    2.83   0
  13   5  -1   23.20    2.06   0
  13   7  -4    0.94    1.79   0
  13  13 -10    1.78    1.77   0
  13  15 -11   -1.07    2.04   0
  14   2  11    5.86    2.13   0
  14   2  12   -1.30    2.16   0
  14   6  -1    2.21    1.76   0
  14  10  -6    2.81    2.09   0
  14  12  -8    0.31    1.65   0
  14  14  -9    2.08    2.28   0
  14  16 -10    2.15    2.23   0
  15   3  10    5.75    1.83   0
  15   3  11   -1.91    2.37   0
  15   5   4   10.92    2.38   0
  15   9  -3    1.60    2.68   0
  15  13  -7   -1.86    2.30   0
  16   4  11    3.84    1.70   0
  16   4  12    0.08    2.30   0
  16   6   4    0.66    1.65   0
  16   8   0   -0.24    1.83   0
  16  10  -3    2.36    1.81   0
  16  12  -5    0.44    1.84   0
  16  14  -6    0.77    2.35   0
  17   5  12   -0.90    1.72   0
  17   5  14    1.16    2.43   0
  17   7   5   -0.97    1.63   0
  17   9   1    0.61    1.87   0
  17  11  -2   -2.24    1.59   0
  18   8   6   -0.67    1.59   0
  18   8   7    2.17    2.10   0
  18  10   2    2.00    1.69   0
  18  10   3   -1.41    2.36   0
 -17   9  10    2.40    2.09   0
 -17   9  11    0.15    1.70   0
 -17  11   6    1.80    2.06   0
 -17  11   7   -1.02    1.65   0
 -17  13   4    0.43    1.13   0
 -16   6  15    3.77    2.42   0
 -16   6  16    1.30    1.69   0
 -16   6  17   -0.94    1.59   0
 -16   6  19   -1.65    1.72   0
 -16   6  20    1.45    1.84   0
 -16   6  21    0.30    1.18   0
 -16   8   8    3.78    2.23   0
 -16   8   9    0.01    1.71   0
 -16  10   4    4.71    2.13   0
 -16  10   5   -0.27    1.83   0
 -16  12   2    1.00    1.87   0
 -16  14   0    0.69    2.45   0
 -15   5  13    2.48    2.49   0
 -15   5  14   -1.85    1.98   0
 -15   5  15    0.39    2.01   0
 -15   7   7    0.65    1.63   0
 -15   9   3   -1.26    2.43   0
 -15  15  -3   -0.23    2.41   0
 -14   4  12   -0.07    2.56   0
 -14   4  13    5.41    1.94   0
 -14   6   6    0.38    1.75   0
 -14   8   2    1.31    2.29   0
 -14  10  -1    2.99    2.12   0
 -14  12  -3    2.83    2.27   0
 -13   3  11   29.25    2.71   0
 -13   3  12    0.90    1.84   0
 -13   5   5    9.23    2.42   0
 -13   7   1    7.49    2.28   0
 -13  11  -4    1.53    2.08   0
 -12   2  12    9.73    1.97   0
 -12   2  28   -0.87    1.69   0
 -12   4   5    2.15    1.95   0
 -12   6   1    2.82    1.82   0
 -12   8  -2   -0.85    1.86   0
 -11   1  12   -2.79    2.33   0
 -11   1  13   -0.52    1.77   0
 -11   1  27   -0.58    1.63   0
 -11   1  28   -0.83    2.30   0
 -11   3   5    4.03    2.48   0
 -11   9  -5   15.09    2.62   0
 -11  11  -7    3.40    2.29   0
 -10   0  14    6.77    2.44   0
 -10   0  15   -2.10    1.92   0
 -10   0  24   -0.11    1.85   0
 -10   0  25   -1.07    1.72   0
 -10   0  26   -0.73    2.63   0
 -10   4   1   79.53    2.80   0
 -10  12  -9    2.69    2.34   0
  -9  -1  17    1.67    2.46   0
  -9  -1  18   -0.31    2.70   0
  -9  -1  19   -1.03    2.66   0
  -9  -1  21    2.26    2.43   0
  -9  -1  22    7.83    2.64   0
  -9  -1  23   -0.54    2.26   0
  -9   3   1   30.59    3.08   0
  -9  19 -13   -0.66    2.84   0
  -8   0   8   -1.79    2.08   0
  -8   0  32   -3.13    2.50   0
  -8   2   2    1.51    2.31   0
  -8   4  -2  112.04    3.32   0
  -8  12 -11    4.29    2.29   0
  -7  -1  10   56.62    2.66   0
  -7  -1  30    0.49    2.47   0
  -7   1   3   13.45    2.52   0
  -6  -2  13   27.30    3.08   0
  -6  -2  26   -1.08    1.96   0
  -6  -2  27   -3.78    2.34   0
  -5  -1   6   31.87    3.85   0
  -5  -1  33    1.60    2.25   0
  -5  -1  33   -1.14    1.26   0
  -4  -2   9   51.94    2.88   0
  -4  -2  30   -0.18    2.02   0
  -4   0   2  261.28    6.54   0
  -3  -3  14    8.00    2.31   0
  -3  -3  25    2.25    2.02   0
  -3  -3  26    0.95    2.56   0
  -3  -1   4  146.02    6.11   0
  -2  -2  32   -0.24    2.36   0
  -1  -3  11    3.65    3.19   0
  -1  -3  28   -0.52    2.10   0
   0  -2  33   -1.21    2.73   0
   0  14 -16    1.05    1.66   0
   1  -3  28   -0.22    2.27   0
   2  -2   6   71.69    8.48   0
   2  14 -16    1.97    1.70   0
   3   7 -11    1.01    2.10   0
   4  -2   7    1.02    2.81   0
   4   4  -7   54.75    3.75   0
   4  18 -17   -1.27    1.91   0
   5   3  -5    0.23    3.50   0
   5   5  -8    0.97    3.08   0
   5  11 -14    0.61    2.03   0
   5  13 -15   48.38    3.12   0
   5  19 -17   -0.08    2.05   0
   6  -2   9  160.60    4.34   0
   6   6  -9   15.90    2.19   0
   6   8 -11    7.20    2.75   0
   6  16 -16   -0.74    2.09   0
   7  -1   6  112.36    3.50   0
   7   1   0   12.69    2.59   0
   7   3  -4  302.80    4.44   0
   7   5  -7   52.28    3.12   0
   7  11 -13   34.06    3.11   0
   7  17 -16    0.25    1.55   0
   8  -2  14    0.67    1.73   0
   8  -2  23    0.97    2.76   0
   8   0   4  292.23    4.92   0
   8   4  -5    8.57    2.13   0
   8   8 -10   16.20    2.06   0
   8  12 -13    5.70    2.44   0
   8  16 -15   -1.94    2.46   0
   9  -1  10   16.73    2.63   0
   9  -1  27   -1.04    2.54   0
   9   3  -2    1.98    2.88   0
   9   7  -8   -0.21    2.45   0
   9  13 -13    3.54    2.43   0
   9  17 -15    1.28    1.69   0
  10   0   8    1.39    2.58   0
  10   4  -3   22.08    2.09   0
  10   6  -6    2.04    1.77   0
  10  10 -10    0.71    2.54   0
  10  14 -13    0.39    1.75   0
  10  16 -14   -0.65    1.84   0
  11   1   6   12.19    1.94   0
  11   5  -3    3.85    2.46   0
  11   7  -6    4.27    2.35   0
  11  11 -10    0.20    2.42   0
  12   0  17    1.33    1.66   0
  12   0  18   -1.39    1.84   0
  12   0  19    0.55    1.80   0
  12   0  20   -0.39    1.63   0
  12   2   5   79.08    2.73   0
  12   4   0    2.23    1.87   0
  12   8  -6    2.24    2.33   0
  12  10  -8   -0.75    2.33   0
  12  12 -10   -2.91    1.67   0
  12  14 -11   -0.89    2.10   0
  12  16 -12   -0.51    1.72   0
  13   1  14   -1.20    2.06   0
  13   1  15    0.53    2.31   0
  13   1  16    1.14    2.36   0
  13   1  21    2.53    2.26   0
  13   1  22    0.57    2.46   0
  13   1  23   -0.59    1.86   0
  13   5   0   -1.98    1.83   0
  13   9  -6    2.70    1.90   0
  13  11  -8    0.02    1.75   0
  14   2  13   -2.98    1.97   0
  14   2  14    3.66    2.55   0
  14   2  23    0.01    2.53   0
  14   2  24   -0.53    1.54   0
  14   2  24   -0.52    1.09   0
  14   4   5    0.64    2.43   0
  14   6   0    3.94    1.71   0
  14   8  -3    1.27    2.01   0
  14  12  -7    2.59    2.25   0
  15   3  12   -0.06    1.64   0
  15   3  13   -0.11    1.92   0
  15   3  14    2.38    2.14   0
  15   7   1    3.10    2.38   0
  15  11  -5    4.47    1.89   0
  15  15  -8   -0.99    1.62   0
  16   4  13    1.39    1.77   0
  16   4  14   -0.87    2.13   0
  16   4  15   -1.25    2.38   0
  16   4  16    1.64    2.28   0
  16   6   5    2.08    1.62   0
  16   6   6    1.08    2.23   0
  16   8   1   -1.52    1.78   0
  16  12  -4   -0.18    1.82   0
  16  14  -5    0.35    2.31   0
  17   5  15   -0.83    1.78   0
  17   5  16   -0.34    1.74   0
  17   7   6   -2.19    1.68   0
  17   7   7    0.52    2.36   0
  17   9   2   -0.87    1.76   0
  17  13  -3    0.30    1.18   0
  18   8   8   -0.77    1.57   0
  18   8   9   -1.61    2.13   0
 -17   7  15   -1.32    2.62   0
 -17   7  16    1.04    1.84   0
 -17   7  17    1.29    1.79   0
 -17   9   9    1.28    1.63   0
 -17  11   5   -0.27    2.46   0
 -16   6  12   -0.56    2.25   0
 -16   6  13   -0.86    1.96   0
 -16   8   7    2.00    2.26   0
 -16  12   1    2.33    2.46   0
 -16  14  -1    0.82    2.04   0
 -15   5  11   -2.36    2.32   0
 -15   5  12    2.02    1.82   0
 -15   9   2    2.07    2.41   0
 -15  13  -2    2.53    1.85   0
 -14   4  10    0.03    2.57   0
 -14   6   5   19.88    1.97   0
 -14   8   1    2.66    2.08   0
 -14  14  -5    0.95    2.18   0
 -14  16  -6    1.99    2.23   0
 -13   3  10   17.90    2.75   0
 -13   5   4   -0.96    2.25   0
 -13   9  -2    8.16    1.82   0
 -13  13  -6    0.61    2.29   0
 -13  15  -7   -2.17    2.57   0
 -13  17  -8    5.86    2.17   0
 -12   2  10    3.16    2.63   0
 -12   2  11    1.98    1.84   0
 -12   4   4   27.93    2.74   0
 -12   6   0   19.74    2.33   0
 -12  10  -5   18.55    2.55   0
 -12  14  -8    1.08    2.61   0
 -12  16  -9    0.29    2.08   0
 -11   1  11   12.27    2.05   0
 -11   1  29   -2.22    1.80   0
 -11   1  30   -0.86    2.30   0
 -11   3   4    9.83    2.45   0
 -11   5   0    3.69    2.66   0
 -11   7  -3   18.09    2.62   0
 -10   0  12    1.23    2.48   0
 -10   0  13   -1.95    1.69   0
 -10   0  27   -2.81    1.77   0
 -10   0  28   -2.46    2.64   0
 -10   2   5   56.63    2.48   0
 -10   6  -3   12.84    2.67   0
 -10  18 -12    0.84    2.33   0
  -9  -1  15   10.32    2.52   0
  -9  -1  16    5.83    1.89   0
  -9  -1  24   -0.04    1.84   0
  -9  -1  25   -1.56    2.51   0
  -9  -1  26    3.59    2.17   0
  -9   1   6   15.59    2.16   0
  -9   5  -3    0.14    2.97   0
  -8   0   7    3.43    2.16   0
  -7  -1   9   -1.08    2.14   0
  -7  -1  31    0.75    2.55   0
  -7   3  -2   88.58    3.85   0
  -7   5  -5  117.58    3.53   0
  -6  -2  12   38.87    2.57   0
  -6   0   4   57.82    3.26   0
  -6   2  -1   38.10    3.68   0
  -5  -3  18   -1.29    2.72   0
  -5  -3  19   20.52    2.98   0
  -5  -3  20    0.82    2.68   0
  -5  -3  21    3.59    2.80   0
  -5  -3  22   16.57    2.72   0
  -5  -1  34    0.40    2.67   0
  -4  -2  31   -0.39    2.71   0
  -4  18 -16   -0.38    3.05   0
  -3  -3  13   10.77    2.43   0
  -3  -3  27    1.59    2.70   0
  -2  -2  33    0.49    2.07   0
  -2  20 -17    0.92    2.09   0
  -1  11 -14    9.63    2.26   0
   1  -3  29   -0.66    2.58   0
   1  17 -17    0.48    1.47   0
   2  -2  33   -0.06    2.70   0
   3  -1   3   11.57    4.24   0
   3   1  -2   33.21    4.07   0
   3  11 -14   21.42    2.84   0
   4  20 -17    1.47    2.03   0
   5  -3  15    1.90    2.92   0
   5   1  -1   11.70    3.82   0
   5   9 -12    1.58    2.81   0
   6   0   2  134.20    3.80   0
   6  12 -14    2.85    1.94   0
   6  14 -15   -2.10    1.88   0
   7  15 -15    5.12    1.97   0
   7  19 -16    1.38    1.37   0
   7  19 -16   -0.32    0.94   0
   8  -2  15    0.60    1.64   0
   8  -2  16    3.58    1.90   0
   8  -2  22   -0.51    2.65   0
   8  14 -14   -0.52    1.73   0
   9  -1  11   25.21    2.59   0
   9   1   3    3.41    1.93   0
   9   5  -5   45.78    2.41   0
   9  19 -15   -0.64    1.03   0
  10   0   9    0.22    2.59   0
  10   0  29    0.01    1.84   0
  10   0  29    0.25    1.15   0
  10   2   2    1.20    1.96   0
  10   4  -2    9.35    2.72   0
  10   8  -8    6.81    2.03   0
  10  18 -14   -1.83    1.71   0
  11   1   7   22.33    2.10   0
  11   3   1   -0.69    1.75   0
  11   9  -8   -0.17    1.66   0
  11  13 -11    4.79    1.86   0
  11  15 -12    0.51    2.16   0
  11  17 -13   -2.72    1.75   0
  12   2   6   11.53    2.05   0
  12   6  -3    4.08    1.82   0
  13   1  17   -0.29    1.71   0
  13   1  18   28.58    2.51   0
  13   1  19   -0.14    1.96   0
  13   1  20    4.35    1.73   0
  13   3   6    1.49    2.59   0
  13   5   1    7.92    2.44   0
  13   9  -5    0.31    2.40   0
  13  11  -7   -1.08    2.40   0
  13  13  -9    1.31    1.64   0
  13  15 -10    2.44    1.77   0
  14   2  15    2.99    1.84   0
  14   2  16    0.84    2.21   0
  14   2  17    0.77    2.41   0
  14   2  18    2.98    2.26   0
  14   2  19    0.16    2.28   0
  14   2  20    1.51    2.12   0
  14   2  21   -0.03    1.94   0
  14   2  22    2.03    1.23   0
  14   2  22    0.91    1.05   0
  14   4   6   -0.91    2.43   0
  14   6   1    0.20    1.68   0
  14   8  -2   -0.25    2.50   0
  14  10  -5    1.56    1.76   0
  14  14  -8    1.01    1.60   0
  14  16  -9    0.22    1.63   0
  15   3  15   -1.13    1.72   0
  15   3  16    1.06    1.70   0
  15   3  17    0.78    2.11   0
  15   3  18    0.73    1.99   0
  15   3  19    1.43    2.07   0
  15   3  20   -0.36    1.62   0
  15   3  20    0.36    1.16   0
  15   3  21   -0.25    1.48   0
  15   3  21   -0.62    1.05   0
  15   3  22   -2.31    1.48   0
  15   5   6   -1.13    1.59   0
  15   9  -2    1.89    1.87   0
  15  11  -4    1.29    1.70   0
  15  13  -6    1.70    1.70   0
  15  15  -7    1.06    1.55   0
  16   4  17    0.19    1.69   0
  16   4  18    3.26    1.75   0
  16   4  19    1.61    0.99   0
  16   4  19   -0.12    1.07   0
  16   4  20    0.08    1.04   0
  16   6   7    1.34    2.05   0
  16   8   2    1.13    1.62   0
  16  10  -1   -0.29    1.76   0
  16  12  -3   -1.10    1.68   0
  17   7   8    1.20    1.71   0
  17   7   9    3.65    2.30   0
  17   9   3    1.96    1.79   0
  17   9   4    1.59    2.31   0
  17  11   0    0.47    1.78   0
  17  11   1    3.65    2.44   0
  17  13  -2    0.59    1.70   0
  18  10   5    1.08    1.76   0
 -17   7  12    0.40    2.19   0
 -17   7  13    2.45    1.76   0
 -17   7  14   -1.50    1.80   0
 -17   9   7   -3.59    2.01   0
 -17   9   8    2.82    1.76   0
 -17  11   4    0.90    2.38   0
 -17  13   2    0.77    1.23   0
 -17  13   2    0.62    1.15   0
 -16   6  11   -0.90    1.59   0
 -16   8   6    0.38    1.80   0
 -16  10   3    0.19    1.74   0
 -16  12   0    3.24    2.07   0
 -15   5  10    0.01    1.79   0
 -15   7   5    2.53    1.55   0
 -15  11  -1    0.98    2.18   0
 -15  13  -3    7.46    2.29   0
 -15  15  -4    1.29    1.95   0
 -15  15  -4    0.37    1.23   0
 -14   4   9    0.50    1.87   0
 -14   6   4   -0.39    1.65   0
 -14  10  -2    3.34    2.24   0
 -14  12  -4    1.60    2.18   0
 -13   7   0    2.78    2.44   0
 -12   2   9   17.48    2.06   0
 -12   8  -3    5.31    1.73   0
 -12  12  -7   -0.57    2.46   0
 -11   1  10    4.79    2.02   0
 -11  13  -9    0.45    2.30   0
 -11  15 -10    1.16    2.06   0
 -10   0  11    0.14    1.71   0
 -10   0  29    1.28    1.97   0
 -10   0  30   -0.65    2.63   0
 -10   2   4    7.45    2.78   0
 -10   4   0   13.65    2.10   0
 -10   8  -6    9.24    2.56   0
 -10  10  -8    8.02    2.34   0
  -9  -1  13    6.09    2.56   0
  -9  -1  14    8.42    1.95   0
  -9  -1  27    2.20    1.83   0
  -9  -1  28    1.48    2.14   0
  -9   1   5    7.95    2.16   0
  -9   7  -6    1.02    2.64   0
  -9   9  -8    2.17    2.26   0
  -9  13 -11   -0.30    1.91   0
  -9  15 -12    0.52    2.00   0
  -8  -2  17    5.58    2.50   0
  -8  -2  18   -1.85    2.48   0
  -8  -2  19   37.94    3.01   0
  -8  -2  20   12.06    1.98   0
  -8  -2  21    2.38    2.42   0
  -8  -2  22   -1.12    2.38   0
  -8  -2  23    2.35    2.23   0
  -8  -2  24    2.07    2.18   0
  -8   0   6   29.43    3.31   0
  -8   2   1   51.02    2.76   0
  -8   8  -8    1.43    2.01   0
  -7  -1   8    7.98    3.20   0
  -7  -1  32    1.23    1.28   0
  -7  -1  32    0.25    1.18   0
  -7   1   2   56.73    3.00   0
  -6  -2  29   -1.80    2.01   0
  -6  -2  30    0.20    2.29   0
  -5  -3  16    8.14    2.89   0
  -5  -3  17    0.44    1.96   0
  -5  -3  23   -1.11    1.86   0
  -5  -3  24    7.13    2.56   0
  -5  -3  25    4.15    2.45   0
  -5   1   0   22.69    3.48   0
  -4  -2   8    5.38    2.34   0
  -4  -2  32    1.08    2.73   0
  -4   4  -6   79.51    4.70   0
  -3  -3  12   10.83    2.98   0
  -3  -3  28   -0.62    2.59   0
  -3   3  -5  163.12    6.91   0
  -2  10 -13    0.82    2.30   0
  -1  -3  29    1.22    2.40   0
  -1  15 -16   10.47    2.20   0
  -1  19 -17    2.39    1.99   0
   0  18 -17    1.26    1.47   0
   1  11 -14    8.37    2.58   0
   2   2  -4  450.50    8.28   0
   2  18 -17    2.41    1.56   0
   3  -3  28    0.46    3.91   0
   4   0   1    0.34    4.41   0
   4  10 -13    1.97    1.97   0
   4  16 -16   -0.62    1.85   0
   5  -3  16   -0.44    3.16   0
   5   7 -10    9.99    2.20   0
   5  17 -16   -0.02    1.99   0
   6  -2  10  204.66    4.83   0
   6   2  -2  251.44    5.18   0
   6  10 -12    2.26    2.65   0
   6  18 -16    1.76    1.52   0
   7  -1   7   45.64    3.03   0
   7  -1  31    0.21    3.91   0
   7   1   1    9.86    3.24   0
   7   3  -3   20.13    3.34   0
   8  -2  17    1.76    2.15   0
   8  -2  18   20.63    2.55   0
   8  -2  19   -0.70    2.10   0
   8  -2  20    5.76    2.47   0
   8  -2  21    1.55    2.35   0
   8   0   5   -0.79    2.30   0
   8   2   0   11.20    3.16   0
   8   4  -4    2.09    2.09   0
   8   6  -7   -0.78    1.86   0
   8   8  -9   -1.18    2.67   0
   8  10 -11   20.56    2.03   0
   8  18 -15    1.02    1.82   0
   9  -1  12    0.28    2.25   0
   9  -1  26   -0.02    2.46   0
   9   7  -7    5.57    2.50   0
   9  11 -11    3.11    1.81   0
   9  17 -14    0.25    1.59   0
  10   0  28   -0.28    2.26   0
  10  12 -11   -0.22    1.66   0
  10  14 -12    2.68    1.75   0
  10  16 -13    0.02    1.69   0
  11   1   8   65.11    3.01   0
  11   3   2   -0.08    2.27   0
  11   5  -2   44.73    2.19   0
  11   7  -5   14.39    1.94   0
  11   9  -7    2.76    2.43   0
  11  11  -9    0.37    2.17   0
  11  17 -12    0.37    2.35   0
  12   2   7    0.97    1.72   0
  12   4   2   45.72    2.76   0
  12   6  -2    1.93    2.29   0
  12   8  -5   13.19    1.89   0
  12  10  -7   22.34    1.93   0
  12  14 -10    0.04    1.78   0
  12  16 -11    0.02    1.74   0
  13   3   7   19.21    2.74   0
  13   5   2    5.37    2.47   0
  13   7  -2    4.50    1.73   0
  13  13  -8    2.65    2.01   0
  13  15  -9    3.13    2.32   0
  13  17 -10   -1.00    1.08   0
  13  17 -10    0.22    1.14   0
  14   4   7   16.22    2.59   0
  14   6   2    2.36    2.10   0
  14  10  -4    1.56    1.72   0
  14  12  -6   10.44    1.81   0
  14  14  -7    1.54    2.28   0
  14  16  -8    1.64    2.26   0
  15   5   7    2.75    1.71   0
  15   5   8    5.34    2.30   0
  15   7   2    0.80    1.70   0
  15   9  -1   -0.23    1.70   0
  15  11  -3    0.30    2.12   0
  15  13  -5   -1.16    1.75   0
  15  15  -6    0.69    2.40   0
  16   6   8    4.18    1.82   0
  16   6   9    1.56    2.31   0
  16   8   3    1.21    1.68   0
  16   8   4    1.60    2.17   0
  16  10   0    2.95    1.69   0
  16  12  -2    2.07    1.63   0
  16  14  -4   -0.50    1.70   0
  17   7  10   -1.04    1.66   0
  17   7  11   -0.38    2.39   0
  17   9   5    0.80    2.08   0
  17  11   2    5.41    2.46   0
  17  13  -1   -0.41    1.74   0
 -17   7  10    0.74    1.98   0
 -17   7  11    0.52    1.66   0
 -17   9   6    1.10    2.39   0
 -17  11   3   -1.72    2.39   0
 -16   4  18    3.86    2.22   0
 -16   4  19   -4.99    2.47   0
 -16   4  20    0.34    2.65   0
 -16   4  21    2.86    2.43   0
 -16   6   9    1.33    2.27   0
 -16   6  10    4.29    1.65   0
 -16   8   5    1.19    1.71   0
 -16  10   2    5.31    1.97   0
 -16  14  -2   -0.56    2.29   0
 -15   3  16    7.12    2.39   0
 -15   3  17    3.75    2.48   0
 -15   3  18   -2.75    1.95   0
 -15   3  19    1.28    2.07   0
 -15   3  20    0.37    1.76   0
 -15   3  21   -0.65    1.80   0
 -15   3  22   -0.35    1.77   0
 -15   3  23    3.80    1.73   0
 -15   3  24    2.14    2.35   0
 -15   5   8    0.23    2.18   0
 -15   7   4    8.76    1.81   0
 -15   9   1    0.50    1.71   0
 -14   2  16    0.11    2.41   0
 -14   2  18    2.47    1.82   0
 -14   2  19    0.10    1.74   0
 -14   2  20    2.93    1.75   0
 -14   2  21    0.57    1.64   0
 -14   2  22    0.96    1.72   0
 -14   2  23   -1.37    1.62   0
 -14   2  24   -0.50    1.59   0
 -14   2  25   -0.33    2.28   0
 -14   2  26   -2.03    2.06   0
 -14   4   8   22.34    2.09   0
 -14   6   3    1.20    2.32   0
 -14   8   0    1.55    1.71   0
 -13   1  17    3.20    2.43   0
 -13   1  18   -0.46    2.46   0
 -13   1  20    1.64    1.74   0
 -13   1  21   -1.23    1.79   0
 -13   1  22    0.83    1.74   0
 -13   1  23    0.79    2.32   0
 -13   1  24   -1.59    2.46   0
 -13   1  25    0.02    2.17   0
 -13   3   8    6.04    1.96   0
 -13   5   3   -1.39    1.84   0
 -13   9  -3    6.64    1.82   0
 -13  11  -5   -0.09    1.85   0
 -12   0  19   -0.65    2.14   0
 -12   0  20   11.15    2.17   0
 -12   0  21    0.29    2.14   0
 -12   0  22    1.20    2.13   0
 -12   2   8   36.86    2.29   0
 -12   4   3   33.51    2.24   0
 -12   6  -1   79.21    3.04   0
 -11   3   3   35.91    2.20   0
 -11   9  -6   13.78    2.57   0
 -11  17 -11    1.18    1.81   0
 -10   0  10    2.36    1.78   0
 -10   0  31    1.62    1.83   0
  -9  -1  12    3.41    1.82   0
  -9  -1  29    1.54    2.27   0
  -9   3   0    3.44    2.26   0
  -9  11 -10   95.66    3.94   0
  -8  -2  15   25.75    2.73   0
  -8  -2  16    1.07    1.70   0
  -8  -2  25   -0.13    1.64   0
  -8  -2  26   -0.62    2.45   0
  -8   4  -3   67.27    3.00   0
  -8   6  -6   16.52    2.85   0
  -8  10 -10    0.63    1.95   0
  -7  -1  33    0.63    1.27   0
  -7  -1  33    0.32    1.12   0
  -7   7  -8    6.31    2.23   0
  -7   9 -10    0.44    2.31   0
  -6  -2  31    0.05    2.23   0
  -6   0   3   -0.78    2.75   0
  -6   4  -5  191.22    4.83   0
  -5  -3  14  139.23    4.16   0
  -5  -3  15   81.44    2.95   0
  -5  -3  26    7.23    2.75   0
  -5  -1   5    1.36    2.91   0
  -5   3  -4    8.63    3.23   0
  -5   5  -7  171.17    5.37   0
  -4  -2  33    0.49    2.72   0
  -3  -3  11   32.28    3.40   0
  -3  -3  29    0.04    2.65   0
  -2  -2   6   79.78    5.20   0
  -2  -2  34    0.78    2.56   0
  -2  16 -16    4.45    2.19   0
  -1  -3  30    0.36    2.39   0
   0  -2  34    0.69    2.37   0
   0  20 -17    1.55    1.93   0
   1  -3  10   15.27    5.23   0
   1  13 -15    0.87    1.75   0
   1  15 -16   -0.50    1.61   0
   1  19 -17    0.50    1.39   0
   2  20 -17   -1.13    1.44   0
   2  20 -17   -0.18    0.84   0
   3   5  -8   -1.14    2.99   0
   4   2  -3  105.48    4.99   0
   4   6  -9   50.11    2.90   0
   4   8 -11    1.74    2.97   0
   4  12 -14   36.25    3.17   0
   4  14 -15    0.41    2.86   0
   5  11 -13    2.24    2.66   0
   5  15 -15    1.43    2.69   0
   5  19 -16    0.00    1.89   0
   6   0   3   -0.57    3.59   0
   6   8 -10    2.96    2.67   0
   6  16 -15   -2.69    2.68   0
   6  20 -16   -0.28    0.98   0
   6  20 -16    0.25    0.94   0
   7   5  -6   68.55    2.82   0
   7  11 -12   41.37    2.84   0
   7  15 -14   10.16    2.60   0
   7  17 -15   -0.08    1.85   0
   8  12 -12   17.36    2.35   0
   8  14 -13    0.41    2.29   0
   8  16 -14    1.45    1.75   0
   9  -1  13    9.73    2.35   0
   9  -1  25    1.42    2.42   0
   9   1   4    3.15    2.12   0
   9   5  -4    2.55    2.54   0
   9   9  -9    2.86    1.84   0
   9  13 -12   13.39    2.03   0
   9  15 -13    0.85    1.73   0
   9  19 -14   -0.95    1.78   0
  10   0  10   29.36    2.26   0
  10   2   3   15.79    1.96   0
  10   8  -7   22.53    2.06   0
  10  10  -9   16.34    2.06   0
  10  18 -13    2.34    1.85   0
  11   1   9    9.49    2.46   0
  11   3   3   -0.69    2.56   0
  11  13 -10   -1.11    1.73   0
  11  15 -11   -1.53    1.73   0
  12   2   8    0.69    1.70   0
  12   8  -4   13.50    2.60   0
  12  12  -8   -0.27    1.96   0
  12  16 -10   -0.41    2.28   0
  12  18 -11   -1.53    1.12   0
  13   3   8    4.47    2.25   0
  13   7  -1   10.25    2.56   0
  13  11  -6    1.88    1.72   0
  14   4   8    2.08    1.70   0
  14  10  -3    6.44    2.52   0
  14  12  -5    2.33    2.19   0
  15   5   9    3.97    2.19   0
  15   7   3    2.57    1.76   0
  15   9   0   -0.48    1.84   0
  15  11  -2    2.21    2.32   0
  15  13  -4   -3.16    2.31   0
  16   6  10    8.64    1.84   0
  16   6  11    0.40    2.29   0
  16   8   5    3.65    2.28   0
  16  10   1   -2.23    1.83   0
  16  14  -3   -2.46    1.79   0
  17   7  12    0.23    1.72   0
  17   7  13    2.25    2.07   0
  17   7  13    0.21    1.23   0
  17   9   6   -2.45    1.67   0
  17   9   7    7.42    2.38   0
  17  11   3    1.82    1.99   0
  17  13   0    1.29    1.29   0
  17  13   0    1.48    1.15   0
 -18   8  11   -0.84    2.27   0
 -18   8  12   -1.35    1.23   0
 -18   8  12   -0.30    1.24   0
 -18  10   7    2.18    1.68   0
 -17   5  16   -2.07    2.11   0
 -17   5  18    0.06    1.77   0
 -17   5  19   -0.62    1.26   0
 -17   7   9    0.14    2.39   0
 -17   9   5    0.57    2.34   0
 -16   4  14    6.05    2.34   0
 -16   4  15    3.13    2.39   0
 -16   4  16    0.65    1.75   0
 -16   4  17   -0.51    1.76   0
 -16   6   8    1.95    1.62   0
 -16   8   4    1.71    1.68   0
 -16  10   1   -1.34    2.36   0
 -16  12  -1    0.06    2.25   0
 -15   3  14   -2.53    2.70   0
 -15   3  15    0.73    1.94   0
 -15   5   7   24.13    2.42   0
 -15   7   3   -0.75    1.73   0
 -15   9   0   -2.15    2.38   0
 -15  11  -2    1.39    1.70   0
 -15  15  -5   -0.37    2.28   0
 -14   2  15    1.20    1.82   0
 -14   4   7    1.39    1.70   0
 -14   6   2    1.07    2.11   0
 -14  10  -3    1.59    2.47   0
 -14  12  -5    0.16    2.32   0
 -14  14  -6    2.81    1.90   0
 -14  16  -7   -0.50    1.19   0
 -13   1  14    4.85    2.49   0
 -13   1  15    2.74    1.86   0
 -13   1  16    1.12    1.63   0
 -13   1  26   -1.81    1.78   0
 -13   1  27   -0.25    1.19   0
 -13   3   7   13.88    2.04   0
 -13   5   2   23.51    2.62   0
 -13   7  -1   13.01    1.78   0
 -13  13  -7   -0.88    2.69   0
 -13  15  -8    0.01    2.44   0
 -12   0  15    1.30    2.24   0
 -12   0  16   52.74    2.92   0
 -12   0  17    2.55    1.68   0
 -12   0  18    1.46    1.67   0
 -12   0  23   -0.56    1.81   0
 -12   0  24    8.05    2.11   0
 -12   0  25   -0.93    1.83   0
 -12   0  26    2.14    2.53   0
 -12   2   7    0.14    1.91   0
 -12   8  -4    0.76    2.45   0
 -12  10  -6    7.65    2.55   0
 -12  14  -9   -0.72    2.13   0
 -11  -1  19    8.16    2.30   0
 -11  -1  23    3.89    2.31   0
 -11   1   8    7.32    1.90   0
 -11   7  -4   20.52    1.96   0
 -11  11  -8    0.61    1.94   0
 -10   0   9    2.03    1.85   0
 -10   2   3    2.59    2.01   0
 -10   4  -1    2.17    1.99   0
 -10   6  -4    9.90    1.95   0
 -10  14 -11    2.65    2.08   0
  -9  -1  30   -0.65    1.70   0
  -9  -1  31   -0.52    2.56   0
  -9   1   4    2.87    2.14   0
  -9   5  -4   10.81    3.09   0
  -9  17 -13   -0.36    2.61   0
  -8  -2  13   -1.26    2.67   0
  -8  -2  27   -0.37    1.77   0
  -8  -2  28   -1.89    2.54   0
  -8   0   5    0.46    2.23   0
  -8   2   0    9.34    3.18   0
  -8  18 -14   -0.31    3.00   0
  -7  -1   7   41.98    2.68   0
  -6  -2   9   85.37    3.93   0
  -6  -2  32   -0.99    2.30   0
  -5  -3  13   37.85    3.35   0
  -5  -3  27    1.47    2.00   0
  -5  -3  28   -1.38    2.46   0
  -4  -2   7    3.55    2.97   0
  -4  -2  34    0.62    2.23   0
  -4   0   1    1.35    4.58   0
  -4   2  -3  366.05    7.07   0
  -3  -3  30    1.17    2.51   0
  -3  17 -16   -0.22    2.09   0
  -2  -4  19    2.09    2.27   0
  -2  -4  20    6.05    2.65   0
  -2  -4  21   22.30    2.82   0
  -2  -4  22   -0.45    2.11   0
   0  -4  18    0.57    2.65   0
   0  -4  19   -0.13    2.17   0
   0  -4  20    6.33    2.24   0
   0  -4  21    3.22    2.46   0
   0  -4  22    5.38    2.93   0
   0   4  -7   30.18    5.01   0
   1  -3  30   -0.60    2.67   0
   3   3  -5   36.46    4.36   0
   3   9 -12    2.14    2.46   0
   4  18 -16   -0.11    2.11   0
   5  -3  17   12.29    3.36   0
   5  -3  22    0.30    3.87   0
   5  -1   5    0.86    1.94   0
   5   3  -4   10.18    3.44   0
   5   5  -7    5.55    2.34   0
   6  -2  11    8.71    2.23   0
   6  -2  28    1.06    3.47   0
   6   4  -5  200.64    3.97   0
   6  12 -13   13.00    2.00   0
   6  14 -14    3.72    2.22   0
   7  -1   8   58.76    2.98   0
   7   7  -8    3.64    2.75   0
   7   9 -10    6.09    2.68   0
   7  13 -13    1.05    1.80   0
   7  19 -15   -0.20    1.41   0
   8   0   6   60.82    2.91   0
   8   4  -3    4.88    3.03   0
   8   6  -6    5.05    2.67   0
   8  10 -10   21.80    2.90   0
   8  18 -14   -2.25    2.39   0
   9  -1  14   62.54    3.17   0
   9  -1  24    0.13    2.47   0
   9   1   5    5.58    2.86   0
   9   3   0    0.33    2.88   0
   9  11 -10   24.11    2.78   0
   9  17 -13    0.88    2.10   0
  10   0  11    0.99    1.67   0
  10   0  12    1.87    2.26   0
  10   0  27    0.88    2.41   0
  10   2   4    8.67    2.68   0
  10   6  -4   -1.43    1.79   0
  10  12 -10    1.19    1.68   0
  10  14 -11    0.21    2.20   0
  10  16 -12   -1.01    1.80   0
  11   1  10    0.19    2.29   0
  11   1  28    1.19    2.22   0
  11   5  -1    1.75    1.71   0
  11   9  -6   34.21    2.69   0
  11  11  -8    2.07    1.69   0
  11  17 -11    4.39    2.27   0
  12   2   9   -0.58    1.82   0
  12   4   3   -1.11    1.95   0
  12   6  -1   -1.52    1.77   0
  12  10  -6    0.89    1.77   0
  12  14  -9   -0.10    1.80   0
  13   3   9   28.18    2.14   0
  13   5   3    1.65    1.71   0
  13   9  -3    4.00    2.40   0
  13  11  -5    0.41    2.42   0
  13  13  -7    1.46    1.63   0
  13  15  -8    0.24    1.64   0
  13  17  -9   -0.00    1.49   0
  14   4   9   -0.81    1.77   0
  14   4  10    2.14    2.47   0
  14   6   4    1.23    2.43   0
  14   8   0    1.12    1.54   0
  14  14  -6    0.25    1.62   0
  15   5  10   -2.43    1.75   0
  15   5  11   10.25    2.39   0
  15   7   5    7.57    2.39   0
  15   9   1   -0.10    1.67   0
  15  11  -1    1.75    2.60   0
  15  13  -3    1.80    2.52   0
  15  15  -5   -1.14    1.71   0
  16   6  12    0.87    1.70   0
  16   6  13    1.10    2.17   0
  16   8   6   -2.62    1.98   0
  16  10   2    3.87    1.85   0
  16  12   0    3.42    2.01   0
  16  14  -2   -2.89    1.71   0
  17   7  14    3.44    1.75   0
  17   7  15   -0.12    1.90   0
  17   9   8    2.37    1.98   0
  17  11   4   -1.72    1.66   0
 -18   8   9    1.94    2.03   0
 -18   8  10    0.50    1.63   0
 -18  10   6    3.09    1.18   0
 -18  10   6    1.30    1.21   0
 -17   5  13   -1.68    2.29   0
 -17   5  14    2.72    2.53   0
 -17   5  15    1.78    1.70   0
 -17   7   8   -0.47    1.68   0
 -17   9   4    1.88    2.36   0
 -16   4  12   -0.12    2.29   0
 -16   4  13   -1.93    1.86   0
 -16   6   7   -0.73    1.54   0
 -16   8   3    0.16    1.73   0
 -16  10   0    1.37    2.05   0
 -16  12  -2    1.10    2.06   0
 -16  14  -3    0.19    1.06   0
 -16  14  -3    0.25    1.09   0
 -15   3  12    2.21    2.56   0
 -15   3  13    0.46    1.94   0
 -15   5   6    1.50    1.65   0
 -15   7   2    1.87    2.19   0
 -15  11  -3   -1.65    2.29   0
 -14   2  12   -2.76    2.65   0
 -14   2  13    0.52    1.91   0
 -14   4   6    6.63    1.77   0
 -14   8  -1    1.03    1.61   0
 -13   1  12    1.05    2.54   0
 -13   1  13   16.54    2.00   0
 -13   3   6    5.28    2.00   0
 -13   9  -4    0.67    1.75   0
 -13  11  -6   -2.63    2.47   0
 -12   0  13    3.64    2.24   0
 -12   0  14    5.21    1.90   0
 -12   0  27    0.18    1.86   0
 -12   0  28    1.41    2.50   0
 -12   0  29   -1.56    2.29   0
 -12   2   6    2.97    1.98   0
 -12   6  -2   11.20    2.50   0
 -12  12  -8    1.00    2.45   0
 -12  16 -10   -0.19    2.09   0
 -11  -1  16    7.28    2.58   0
 -11  -1  17    2.16    1.81   0
 -11  -1  18    2.38    1.75   0
 -11  -1  24   -0.59    1.75   0
 -11  -1  25    0.04    1.83   0
 -11  -1  26    0.64    2.48   0
 -11   1   7   15.37    1.93   0
 -11   3   2   12.01    2.11   0
 -11   5  -2    2.84    2.34   0
 -10   0   8    4.59    1.88   0
 -10  12 -10   -0.60    2.12   0
 -10  16 -12    5.20    2.28   0
  -9  -1  10   36.46    2.33   0
  -9   3  -1   30.01    2.49   0
  -8  -2  12   18.45    2.83   0
  -8  -2  29    0.49    1.90   0
  -8  -2  30    1.55    2.16   0
  -7  -3  17    0.65    2.67   0
  -7  -3  18    3.55    1.91   0
  -7  -3  19    7.32    2.05   0
  -7  -3  20   11.02    2.04   0
  -7  -3  21   22.94    2.18   0
  -7  -3  22    1.54    1.89   0
  -7  -3  23    1.18    1.85   0
  -7  -3  24   -0.45    2.35   0
  -7  -3  25    0.03    2.16   0
  -7  -1   6   10.14    3.32   0
  -7   1   1    3.54    2.46   0
  -7   3  -3  123.60    4.07   0
  -7   5  -6    8.16    2.65   0
  -7  13 -13    0.76    2.73   0
  -6  -2  33    1.19    2.14   0
  -6   2  -2   68.33    3.49   0
  -6   8 -10    4.12    2.46   0
  -6  12 -13    1.57    2.94   0
  -6  14 -14   11.84    4.83   0
  -5  -3  29    2.56    2.61   0
  -5  -1   4  195.41    5.30   0
  -3  -3  31    0.65    2.28   0
  -3  -1   3   53.70    4.39   0
  -2  -4  17    0.80    2.23   0
  -2  -4  18    0.08    2.18   0
  -2  -4  23   -0.54    2.58   0
  -2  -4  24    1.01    2.33   0
  -1  -3  31    1.01    2.52   0
   0  -4  17   -0.55    2.84   0
   0  -4  23    4.30    2.56   0
   0  -4  24   -0.46    2.82   0
   0  10 -13   -0.07    1.99   0
   0  16 -16    3.62    1.62   0
   2  -2  34   -0.35    2.65   0
   3   7 -10    0.85    2.22   0
   4  -2   8    0.18    3.08   0
   4   4  -6   50.63    3.39   0
   4  20 -16    1.67    2.23   0
   5  -3  18    5.02    3.08   0
   5  -3  21   17.66    4.28   0
   5   1   0   24.41    2.98   0
   5   7  -9   86.39    3.62   0
   5   9 -11   -0.79    1.90   0
   5  17 -15    1.00    2.16   0
   6   2  -1   -1.31    3.51   0
   6  18 -15    0.96    1.36   0
   6  20 -15   -1.44    1.89   0
   7   1   2   10.14    2.11   0
   7   3  -2  111.13    3.94   0
   7  17 -14    0.67    2.52   0
   8   0   7    2.89    2.97   0
   8   2   1    6.74    2.29   0
   8  12 -11    2.33    2.42   0
   8  20 -14   -0.18    1.01   0
   9  -1  15    1.07    1.53   0
   9  -1  16    6.49    2.08   0
   9  -1  23    0.83    2.08   0
   9   5  -3   56.68    3.17   0
   9   7  -6    1.85    1.72   0
   9   9  -8    7.37    1.89   0
   9  13 -11   -0.51    1.73   0
   9  19 -13   -1.15    1.77   0
   9  19 -13    0.08    1.17   0
  10   0  13   -0.66    2.14   0
  10   0  26    1.17    2.19   0
  10   4   0   13.62    2.01   0
  10   8  -6    3.58    1.88   0
  10  10  -8    0.18    1.87   0
  10  18 -12    0.09    1.73   0
  11   1  11   -0.64    1.81   0
  11   1  27    0.67    2.43   0
  11   3   4   -1.39    1.89   0
  11   5   0    2.14    2.46   0
  11   7  -3    4.60    2.54   0
  11  13  -9   -2.33    1.62   0
  11  15 -10    4.67    1.73   0
  12   2  10    0.91    1.82   0
  12   2  11   26.20    2.78   0
  12   4   4    0.32    1.86   0
  12   8  -3    1.91    1.67   0
  12  10  -5   15.21    2.54   0
  12  12  -7    1.26    1.59   0
  12  16  -9    0.60    2.06   0
  12  18 -10   -0.52    1.45   0
  13   3  10    2.10    1.63   0
  13   3  11   38.39    2.64   0
  13   5   4    0.52    1.78   0
  13   7   0    0.02    1.74   0
  13  13  -6    1.06    1.95   0
  13  15  -7   -0.37    2.24   0
  13  17  -8    3.50    1.93   0
  14   4  11    2.57    2.16   0
  14   6   5    0.96    2.31   0
  14   8   1   -0.57    1.66   0
  14  10  -2    1.84    1.81   0
  14  14  -5   -1.69    2.07   0
  14  16  -6   -2.63    1.97   0
  15   5  12    0.47    1.66   0
  15   5  13    2.13    2.29   0
  15   7   6   -1.71    2.22   0
  15   9   2    0.12    1.68   0
  15  15  -4   -0.31    1.59   0
  16   6  14    3.28    1.69   0
  16   6  15    1.17    2.19   0
  16   6  16    1.29    2.37   0
  16   6  17    2.11    2.50   0
  16   6  18    0.37    2.35   0
  16   8   7    1.45    1.73   0
  16   8   8    0.91    2.36   0
  16  10   3    5.90    1.92   0
  16  10   4    7.92    2.63   0
  16  12   1   -1.51    2.04   0
  16  14  -1   -1.11    1.72   0
  17   9   9   -0.84    1.58   0
  17   9  10   -0.55    2.19   0
  17  11   5   -0.16    1.71   0
 -18   6  13   -0.48    2.40   0
 -18   6  14    0.23    1.74   0
 -18   6  15    1.23    1.26   0
 -18   8   8   -0.15    1.56   0
 -18  10   5    0.94    1.55   0
 -17   5  12    0.38    1.91   0
 -17   7   7    0.45    1.63   0
 -17   9   3   -0.69    2.21   0
 -17  11   1    8.05    1.99   0
 -16   4  11   -0.18    2.02   0
 -16   6   6    0.49    1.57   0
 -16   8   2    4.09    2.38   0
 -15   3  10    5.12    2.56   0
 -15   3  11   -0.05    1.87   0
 -15   5   5    3.67    1.55   0
 -15   9  -1   -0.53    1.68   0
 -15  13  -5    1.42    2.06   0
 -15  15  -6    1.45    2.72   0
 -14   2  10    9.74    2.78   0
 -14   2  11    6.10    1.82   0
 -14   4   5   40.30    2.32   0
 -14   6   1    3.05    1.59   0
 -14   8  -2   -1.65    2.06   0
 -14  10  -4    4.99    2.39   0
 -14  14  -7   -0.46    2.19   0
 -14  16  -8   -0.58    1.94   0
 -13   1  11    3.38    1.77   0
 -13   3   5   59.62    2.55   0
 -13   5   1   24.20    2.03   0
 -13   7  -2    7.76    1.78   0
 -12   0  12   30.62    2.66   0
 -12   2   5   27.04    2.74   0
 -12   4   1   72.23    2.64   0
 -12   8  -5    3.97    2.25   0
 -11  -1  14   -0.64    1.90   0
 -11  -1  15    1.28    1.79   0
 -11  -1  28    2.88    2.53   0
 -11  -1  29    0.35    2.31   0
 -11   1   6    2.88    1.77   0
 -11   3   1    6.56    2.72   0
 -11   7  -5    4.43    2.44   0
 -11   9  -7   -0.80    2.35   0
 -11  13 -10    9.52    2.20   0
 -11  15 -11   -0.71    2.40   0
 -10  -2  17   -2.42    2.60   0
 -10  -2  18   15.19    2.83   0
 -10  -2  19    2.06    1.80   0
 -10  -2  20    2.07    1.78   0
 -10  -2  21   10.41    1.82   0
 -10  -2  22    1.40    1.79   0
 -10  -2  23    0.49    1.86   0
 -10  -2  25   -0.08    2.22   0
 -10   0   7    1.53    1.89   0
 -10   2   2   38.53    2.34   0
 -10   4  -2   59.74    3.22   0
 -10   8  -7    4.70    2.58   0
 -10  10  -9   53.51    2.92   0
  -9  -1   9    1.70    1.95   0
  -9   7  -7   -1.32    2.56   0
  -9   9  -9   10.85    2.15   0
  -8  -2  11    3.48    2.02   0
  -8  -2  31    0.57    2.41   0
  -8   0   4    0.78    2.15   0
  -8   4  -4   25.97    3.20   0
  -7  -3  15    9.92    2.74   0
  -7  -3  16   21.28    2.10   0
  -7  -3  26    1.98    1.80   0
  -7  -3  27    3.03    2.69   0
  -6  -2   8   12.18    2.51   0
  -6   0   2   -0.51    2.80   0
  -6   6  -8   53.79    3.47   0
  -5  -3  11   63.40    3.70   0
  -5  -3  30    1.22    2.70   0
  -4  -4  18    2.25    2.44   0
  -4  -4  19    3.92    2.79   0
  -4  -4  20    0.55    2.63   0
  -4  -4  21   16.81    2.82   0
  -4  -4  22    7.77    2.61   0
  -4  -2   6   18.63    4.13   0
  -4  20 -16    0.17    2.43   0
  -3   5  -8   82.35    7.71   0
  -2  -4  16    4.93    2.39   0
  -2  -4  25    1.92    2.51   0
  -2   0   0  139.53    7.35   0
  -2  14 -15    0.66    2.25   0
  -1  -3   9   33.46    4.04   0
  -1  -3  32    0.03    2.83   0
   0  -4  16    0.72    2.91   0
   0  -4  25   -0.23    2.81   0
   1  -3  31    2.09    2.89   0
   1  17 -16    4.95    1.91   0
   3  -3  12    4.92    5.12   0
   3  11 -13   14.15    2.85   0
   3  15 -15    6.40    1.86   0
   3  19 -16    1.15    1.23   0
   4  10 -12    2.34    2.01   0
   4  16 -15    1.17    1.98   0
   5  -3  19   22.92    3.96   0
   5  -3  20   12.14    3.82   0
   6  -2  12   13.31    2.40   0
   6   0   4   52.34    3.74   0
   6   6  -7   32.68    2.48   0
   6   8  -9   32.71    2.92   0
   6  10 -11    0.84    1.90   0
   7  -1   9    4.52    2.06   0
   7   5  -5   93.74    2.99   0
   7  11 -11   -0.34    1.82   0
   7  13 -12    5.00    2.19   0
   7  15 -13    1.45    2.36   0
   7  19 -14   -0.40    2.11   0
   8   6  -5    2.50    2.73   0
   8  14 -12    2.83    1.64   0
   8  18 -13    0.00    2.29   0
   9  -1  17   11.77    2.07   0
   9  -1  18    9.66    2.17   0
   9  -1  19    0.79    2.22   0
   9  -1  20   32.03    2.92   0
   9  -1  21    6.47    2.40   0
   9  -1  22    2.52    1.94   0
   9   3   1   29.81    2.92   0
   9  11  -9    3.24    2.55   0
   9  17 -12   -1.96    2.48   0
  10   0  14   11.50    2.34   0
  10   0  25   -1.07    2.29   0
  10   2   5   62.46    2.52   0
  10   6  -3    7.52    1.78   0
  10  12  -9    2.70    1.74   0
  10  14 -10    2.47    2.08   0
  10  16 -11    0.08    1.72   0
  11   1  12   59.92    2.52   0
  11   1  13    5.23    2.41   0
  11   1  26   -0.00    2.15   0
  11   3   5    3.10    2.58   0
  11   9  -5   36.65    2.63   0
  11  11  -7    3.48    1.73   0
  11  17 -10    1.57    2.11   0
  12   2  12    5.16    2.22   0
  12   2  27   -0.40    1.48   0
  12   2  27    0.35    1.04   0
  12   4   5  106.50    3.37   0
  12   6   1   83.93    2.96   0
  12   8  -2    1.94    2.31   0
  12  12  -6    4.53    2.28   0
  13   3  12   29.50    2.45   0
  13   5   5    7.38    1.89   0
  13   7   1   11.23    1.88   0
  13   9  -2    1.86    1.70   0
  13  11  -4    0.42    1.67   0
  14   4  12    1.57    1.76   0
  14   4  13   -0.58    2.08   0
  14   6   6   -1.07    2.12   0
  14   8   2    0.30    2.06   0
  14  10  -1    2.47    1.82   0
  14  14  -4    3.46    2.58   0
  15   5  14   -0.72    1.55   0
  15   5  15    6.30    2.08   0
  15   5  16   -0.29    2.43   0
  15   5  17    0.80    2.12   0
  15   7   7    2.41    1.57   0
  15   9   3    4.40    1.80   0
  15  11   0    2.42    1.90   0
  15  13  -2    2.51    1.85   0
  15  15  -3    1.15    1.69   0
  16   6  19    0.96    1.11   0
  16   8   9   -2.08    2.08   0
  16  10   5    2.61    2.34   0
  16  12   2    1.19    2.14   0
  16  14   0    2.19    1.79   0
  17   9  11    0.66    1.63   0
  17   9  12    3.87    1.96   0
  17  11   7    1.77    2.05   0
 -18   6  12    0.51    1.64   0
 -18   8   7    2.75    1.69   0
 -18  10   4    0.51    1.55   0
 -17   5  11   -1.70    1.77   0
 -17   7   5    1.45    2.18   0
 -17   7   6   -0.31    1.61   0
 -17   9   2    3.61    2.11   0
 -17  11   0    3.31    2.51   0
 -16   2  19    0.56    2.31   0
 -16   2  20    3.05    2.38   0
 -16   2  21    2.23    2.55   0
 -16   2  22   -0.66    2.52   0
 -16   4   9   -0.21    2.38   0
 -16   4  10    5.71    1.95   0
 -16   6   5    1.63    1.59   0
 -16   8   1    6.83    2.11   0
 -16  12  -3    0.51    2.38   0
 -16  14  -4   -0.53    1.19   0
 -16  14  -4   -1.06    1.13   0
 -15   1  19    0.27    2.16   0
 -15   1  21    0.96    2.45   0
 -15   1  22    0.34    2.40   0
 -15   1  23   -1.01    1.96   0
 -15   1  24    1.39    2.01   0
 -15   3   9    2.45    1.87   0
 -15   5   4    4.19    2.29   0
 -15   7   1   11.01    1.81   0
 -15  11  -4    2.71    2.16   0
 -14   4   4   16.32    2.01   0
 -14   6   0   -0.30    2.03   0
 -14  12  -6   12.86    2.62   0
 -13   3   4    5.79    1.94   0
 -13   9  -5    7.32    2.31   0
 -13  13  -8    0.80    2.58   0
 -13  15  -9    0.69    2.41   0
 -12   0  10    3.80    2.34   0
 -12   0  11    0.31    1.81   0
 -12   2   4   42.06    2.59   0
 -12   4   0    5.20    2.43   0
 -12   6  -3    2.36    2.18   0
 -12  10  -7    9.53    2.62   0
 -11  -1  12    1.39    2.48   0
 -11  -1  13   -0.11    1.82   0
 -11  -1  30    1.81    2.48   0
 -11   1   5    2.70    2.58   0
 -11  11  -9    1.74    2.22   0
 -10  -2  15   14.74    2.69   0
 -10  -2  16    1.13    1.87   0
 -10  -2  26   -2.77    1.68   0
 -10  -2  27    0.45    2.51   0
 -10  -2  28   -0.89    2.17   0
 -10   0   6    2.12    2.70   0
 -10   2   1   22.74    2.67   0
  -9  -1   8    2.66    2.00   0
  -8  -2  10   16.08    2.15   0
  -8  -2  32   -0.52    2.68   0
  -8   2  -1    6.83    3.16   0
  -8   8  -9   34.11    2.72   0
  -8  12 -12   34.69    3.50   0
  -8  14 -13    1.42    2.41   0
  -7  -3  13    2.40    2.46   0
  -7  -3  14   32.54    2.32   0
  -7  -3  28    2.23    2.07   0
  -7  -3  29   -1.31    2.33   0
  -7  -1   5   66.75    3.64   0
  -7   1   0    9.34    2.99   0
  -7  11 -12   10.66    2.74   0
  -7  15 -14    7.59    3.75   0
  -5  -3  31   -0.13    2.67   0
  -4  -4  16    0.88    2.40   0
  -4  -4  17    1.02    2.70   0
  -4  -4  24    1.42    2.02   0
  -4  -4  25   -2.21    2.75   0
  -3  -3   9    1.21    3.17   0
  -3   1  -2   38.86    5.37   0
  -2  -4  15   28.67    2.87   0
  -2  -4  26   -0.73    2.54   0
  -2  12 -14    0.27    1.94   0
  -1   9 -12   20.28    3.30   0
  -1  17 -16    3.60    1.60   0
   0  -4  26    3.20    2.79   0
   0  12 -14    2.39    2.23   0
   0  14 -15    0.90    1.56   0
   3  -3  29    0.63    4.18   0
   3   1  -1   20.43    3.87   0
   3  13 -14    1.21    1.76   0
   4   0   2   -0.27    2.94   0
   4   6  -8   12.78    3.14   0
   4   8 -10   39.96    3.37   0
   4  12 -13   -0.52    2.58   0
   5  -1   6    1.13    2.43   0
   5  11 -12    7.03    1.94   0
   5  13 -13    4.01    2.71   0
   5  15 -14    1.63    1.87   0
   5  19 -15    0.88    1.52   0
   6   4  -4   89.55    3.22   0
   6  12 -12    1.78    1.98   0
   6  14 -13    6.59    2.25   0
   7  -1  30   -0.07    3.39   0
   7   1   3  144.96    4.19   0
   7   7  -7    2.18    1.90   0
   7   9  -9   16.70    2.03   0
   8   0   8  100.39    3.67   0
   8   2   2   -0.73    2.21   0
   8   4  -2    3.04    2.16   0
   8   8  -7    2.55    2.60   0
   8  10  -9   -2.87    1.86   0
   8  20 -13   -0.93    1.79   0
   9   1   7   16.45    2.98   0
   9   5  -2   32.36    2.94   0
   9   7  -5   10.76    1.87   0
   9   9  -7   28.31    2.51   0
   9  13 -10   -2.02    2.07   0
   9  15 -11    0.63    2.12   0
   9  19 -12   -1.11    2.20   0
  10   0  15   -1.12    1.53   0
  10   0  16    2.64    2.01   0
  10   0  17   -0.30    2.00   0
  10   0  23    1.84    2.21   0
  10   0  24   -0.68    1.99   0
  10   4   1    1.32    1.88   0
  10   6  -2   -1.71    2.52   0
  10   8  -5    7.85    1.96   0
  10  10  -7    0.58    1.72   0
  10  18 -11   -2.19    1.78   0
  11   1  14   27.54    2.40   0
  11   1  15    1.17    2.09   0
  11   1  25   -1.14    2.14   0
  11   3   6    0.93    2.60   0
  11   5   1   79.78    2.49   0
  11   7  -2    1.40    1.83   0
  11  13  -8    0.30    1.67   0
  11  15  -9    0.91    1.75   0
  11  19 -10   -2.44    1.71   0
  12   2  13    1.51    1.69   0
  12   2  14   -1.56    2.23   0
  12   2  25    1.55    2.19   0
  12   2  26    0.76    1.55   0
  12   2  26   -0.09    1.15   0
  12   4   6   49.01    3.06   0
  12  10  -4   14.54    1.84   0
  12  14  -7    4.97    1.72   0
  12  16  -8    0.43    1.64   0
  13   3  13   29.98    2.10   0
  13   3  14    8.88    2.08   0
  13   3  15   20.46    2.43   0
  13   3  24    2.88    2.22   0
  13   3  25    8.79    2.33   0
  13   5   6   -1.17    1.74   0
  13   9  -1    0.88    1.84   0
  13  11  -3   -0.13    2.01   0
  13  13  -5   -1.59    1.58   0
  13  15  -6   -2.25    1.61   0
  13  17  -7    1.39    1.54   0
  14   4  14    3.58    1.64   0
  14   4  15   -1.37    1.50   0
  14   4  16    0.85    2.22   0
  14   4  17    2.70    2.23   0
  14   4  22    1.42    2.09   0
  14   4  23    2.61    1.65   0
  14   4  23   -0.18    0.96   0
  14   6   7   10.49    1.75   0
  14   8   3    3.17    2.11   0
  14  10   0    3.01    1.81   0
  14  12  -2    3.44    2.25   0
  14  16  -5    1.14    1.70   0
  15   5  18    1.89    1.69   0
  15   5  19    0.86    1.61   0
  15   5  20    0.41    1.48   0
  15   5  21    1.67    1.00   0
  15   5  21    0.45    1.01   0
  15   7   8    0.83    1.59   0
  15   7   9    1.75    2.31   0
  15   9   4   -2.23    1.67   0
  15  11   1    1.89    1.80   0
  15  13  -1    4.05    1.67   0
  15  15  -2    2.01    2.19   0
  16   8  10   -0.74    1.67   0
  16   8  11    5.51    2.23   0
  16  10   6    0.79    1.93   0
  16  14   1    1.49    1.61   0
  17  11   8    1.91    1.60   0
  17  11   9    1.01    2.11   0
 -18   6  10    0.44    1.66   0
 -18   8   6    3.67    1.76   0
 -18  10   3    2.55    1.82   0
 -17   3  16    3.33    2.33   0
 -17   3  17    0.25    1.79   0
 -17   3  18   -0.90    1.84   0
 -17   3  19    0.40    1.78   0
 -17   5   9   -0.59    1.69   0
 -17   7   4    2.51    2.16   0
 -17  11  -1    1.15    2.22   0
 -16   2  16   -1.75    2.48   0
 -16   2  17   -0.55    1.91   0
 -16   2  18   -1.82    1.91   0
 -16   4   8   -2.34    2.40   0
 -16   6   4    0.49    1.62   0
 -15   1  15    3.87    2.26   0
 -15   1  16   -5.10    2.44   0
 -15   1  17   -0.78    1.87   0
 -15   1  18    4.14    1.76   0
 -15   3   8   -1.60    1.65   0
 -15   7   0   -2.99    2.27   0
 -14   0  17    2.19    2.40   0
 -14   0  18   16.60    2.08   0
 -14   0  19    0.29    1.60   0
 -14   0  20    0.39    1.73   0
 -14   0  21   -0.41    1.74   0
 -14   0  22    0.91    1.81   0
 -14   0  23    0.99    1.73   0
 -14   0  24    1.63    1.62   0
 -14   0  25   -0.83    1.68   0
 -14   0  26    2.27    2.30   0
 -14   2   8   -1.73    1.85   0
 -14   4   3   12.64    2.71   0
 -14   8  -3    5.72    2.11   0
 -14  10  -5    1.55    2.45   0
 -13  -1  20   -0.43    2.06   0
 -13  -1  21   -0.46    2.30   0
 -13  -1  22    0.58    2.07   0
 -13  -1  23    2.54    2.22   0
 -13   1   8    9.81    2.31   0
 -13   3   3   13.96    2.58   0
 -13   7  -3   -1.00    1.66   0
 -13  11  -7    5.97    2.59   0
 -12   0   9   -2.97    2.50   0
 -12  14 -10    0.12    1.98   0
 -11  -1  11   15.98    2.04   0
 -11   3   0   15.79    2.71   0
 -11   5  -3   34.97    2.34   0
 -11  17 -12    1.03    2.32   0
 -10  -2  13    6.80    2.40   0
 -10  -2  14   -0.81    1.91   0
 -10  -2  29    0.68    2.68   0
 -10  -2  30    1.36    2.20   0
 -10  18 -13    0.59    2.42   0
  -9  -3  18   13.96    2.65   0
  -9  -3  19    2.83    2.62   0
  -9  -3  20    1.54    1.78   0
  -9  -3  21   -1.44    1.86   0
  -9  -3  22    1.65    1.76   0
  -9  -3  23   -0.50    1.65   0
  -9  -3  24   -1.13    2.45   0
  -9  -3  25   -1.09    1.98   0
  -9  -1   7    6.19    2.03   0
  -9   3  -2   52.67    2.66   0
  -9   5  -5    2.74    2.05   0
  -9  13 -12    0.66    2.50   0
  -8  -2   9   34.65    3.17   0
  -8   0   3    0.70    2.22   0
  -8   6  -7   -0.10    1.85   0
  -7  -3  12   -0.10    2.77   0
  -7  -3  30    3.79    2.47   0
  -6  -4  19   26.20    2.88   0
  -6  -4  20   16.53    2.84   0
  -6  -4  21    0.27    2.54   0
  -6  -4  22   12.24    2.75   0
  -6  -4  23    2.49    2.48   0
  -6  -2   7   77.40    3.09   0
  -5  -3  10  213.17    4.20   0
  -5  -3  32    3.25    2.76   0
  -5  -1   3    9.38    3.91   0
  -4  -4  15    8.23    3.08   0
  -4  -4  26    1.39    1.97   0
  -4  -4  27    5.01    2.68   0
  -4   6  -9    0.96    3.79   0
  -3  -3  33    1.56    2.33   0
  -3  19 -16   -0.15    1.98   0
  -2  -4  14    9.15    2.66   0
  -2  -4  27   -0.70    2.44   0
  -2  -2   5  404.57    7.73   0
  -2  18 -16    1.79    1.93   0
  -1  -3  33    0.36    2.65   0
   0  -4  15    2.66    2.57   0
   0  18 -16    1.36    1.65   0
   1  15 -15   -0.58    1.82   0
   1  19 -16    0.90    1.67   0
   1  21 -16   -0.16    1.85   0
   3  -1   4  170.93    5.82   0
   3   5  -7  124.99    4.42   0
   3  17 -15    7.72    2.00   0
   4   2  -2   13.41    3.15   0
   4  18 -15   -0.56    1.54   0
   4  20 -15    0.99    2.15   0
   5   1   1  319.01    6.26   0
   5   3  -3    7.57    2.50   0
   5   5  -6    3.51    1.97   0
   5   9 -10    1.15    2.84   0
   6  -2  13    8.15    2.38   0
   6  -2  27    1.57    3.53   0
   6  20 -14   -1.14    1.66   0
   6  20 -14   -0.31    0.96   0
   7  -1  10   55.22    2.40   0
   7   3  -1   34.19    2.56   0
   7  11 -10    1.21    2.43   0
   7  17 -13    1.28    1.76   0
   8  14 -11    0.85    2.46   0
   8  16 -12   -0.21    1.60   0
   9  17 -11   -0.89    2.36   0
  10   0  18    1.11    1.89   0
  10   0  19   -0.01    2.09   0
  10   0  20    6.68    2.19   0
  10   0  21   -0.04    2.03   0
  10   0  22   -0.18    1.94   0
  10   2   7   10.09    2.73   0
  10   4   2   56.79    2.96   0
  10   8  -4    2.81    2.54   0
  10  12  -8    5.25    1.80   0
  10  14  -9   -0.33    2.15   0
  10  16 -10   -1.08    1.82   0
  11   1  16   19.16    2.12   0
  11   1  17   10.60    2.35   0
  11   1  18    5.77    2.20   0
  11   1  22    6.89    2.22   0
  11   1  23   -0.18    2.21   0
  11   1  24    3.73    1.98   0
  11   5   2   -0.79    2.33   0
  11   9  -4    0.17    1.67   0
  11  11  -6   14.94    1.93   0
  11  13  -7   -3.08    2.17   0
  11  15  -8    4.57    2.28   0
  11  17  -9    0.93    1.72   0
  12   2  15    5.72    1.70   0
  12   2  16   23.47    2.29   0
  12   2  17    6.60    2.19   0
  12   2  22   -0.13    2.02   0
  12   2  23    0.88    2.18   0
  12   2  24   -0.34    1.87   0
  12   4   7   55.41    3.03   0
  12   6   2   12.66    1.94   0
  12   8  -1    6.91    1.81   0
  12  10  -3   -2.10    2.41   0
  12  12  -5   -0.99    1.65   0
  12  16  -7    2.01    2.26   0
  12  18  -8   -0.05    1.61   0
  13   3  16   14.60    1.91   0
  13   3  17    2.28    2.05   0
  13   3  18    1.42    2.26   0
  13   3  19    6.45    2.31   0
  13   3  20    1.31    2.08   0
  13   3  21   -0.53    2.12   0
  13   3  22   -2.22    2.02   0
  13   3  23    0.75    1.88   0
  13   5   7    0.35    1.77   0
  13   9   0    6.46    2.40   0
  13  13  -4    2.26    2.04   0
  13  17  -6    1.99    1.89   0
  14   4  18    1.44    1.70   0
  14   4  19    3.77    1.82   0
  14   4  20    1.66    1.69   0
  14   4  21   -0.75    1.47   0
  14   6   8    1.12    1.59   0
  14   8   4   -2.69    1.99   0
  14  10   1    4.79    2.19   0
  14  12  -1   -4.12    2.37   0
  14  14  -3   -1.18    1.77   0
  15   7  10    1.47    2.06   0
  15   9   5    1.75    1.59   0
  15  11   2    3.68    1.79   0
  15  13   0    1.49    1.64   0
  16   8  12   -0.52    1.63   0
  16   8  13    1.73    2.03   0
  16   8  14    1.37    2.32   0
  16  10   7    1.39    1.72   0
  16  10   8    1.02    2.16   0
  16  12   4    1.97    1.91   0
  16  14   2   -1.72    1.65   0
 -18   4  14    2.25    2.30   0
 -18   4  15    1.58    1.79   0
 -18   4  16    0.42    1.86   0
 -18   6   8   -0.26    2.17   0
 -18   6   9    1.78    1.68   0
 -18   8   5    2.28    1.80   0
 -18  10   2   -0.46    1.21   0
 -18  10   2   -1.74    1.24   0
 -17   3  13   -0.97    2.21   0
 -17   3  14    0.53    1.75   0
 -17   3  15   -3.64    1.71   0
 -17   5   7   -1.93    1.98   0
 -17   5   8    0.46    1.62   0
 -17   9   1    0.19    1.65   0
 -16   2  13    0.01    2.63   0
 -16   2  14   -0.46    1.97   0
 -16   4   7   -2.55    1.76   0
 -16   6   3    3.14    1.75   0
 -16   8   0    2.06    1.63   0
 -16  10  -2   -0.73    1.64   0
 -16  12  -4    1.61    2.48   0
 -16  14  -5   -0.82    1.03   0
 -16  14  -5    0.51    1.26   0
 -15   1  13    3.69    2.41   0
 -15   1  14   -0.56    1.83   0
 -15   3   7    1.03    1.77   0
 -15   9  -3    2.51    2.20   0
 -15  13  -6    1.31    1.75   0
 -15  15  -7    1.52    1.36   0
 -15  15  -7    0.30    1.24   0
 -14   0  14    2.26    2.46   0
 -14   0  15    0.12    1.82   0
 -14   0  16    0.43    1.88   0
 -14   2   7   16.73    2.01   0
 -14   6  -1   -0.94    2.24   0
 -14  12  -7    0.03    2.23   0
 -14  14  -8    2.50    2.45   0
 -13  -1  16    2.50    2.38   0
 -13  -1  18   -0.90    1.77   0
 -13  -1  19   -2.15    1.77   0
 -13  -1  24    1.09    1.78   0
 -13  -1  25    4.34    1.88   0
 -13  -1  26    0.67    1.81   0
 -13  -1  27   -1.06    2.36   0
 -13   5  -1    9.51    2.25   0
 -12  -2  20   -2.28    2.13   0
 -12  -2  21    0.26    2.17   0
 -12  -2  22   -0.97    2.17   0
 -12  -2  23    2.33    2.21   0
 -12   0   8    3.36    2.50   0
 -12   2   3    0.65    1.73   0
 -12   4  -1    7.45    2.35   0
 -12   8  -6    1.22    2.34   0
 -12  12  -9   -0.17    1.88   0
 -12  16 -11   -0.10    1.89   0
 -11  -1  10    1.85    1.91   0
 -11   1   4    3.96    1.91   0
 -11   7  -6    0.48    2.51   0
 -11   9  -8    7.06    2.23   0
 -10  -2  12    3.11    1.76   0
 -10   0   5   -0.13    1.92   0
 -10   4  -3   58.84    2.57   0
 -10  14 -12    1.10    2.26   0
  -9  -3  15   -1.63    2.57   0
  -9  -3  16   -1.67    1.92   0
  -9  -3  17   -0.97    1.91   0
  -9  -3  26    2.36    1.80   0
  -9  -3  28    0.62    2.11   0
  -9  -1   6   16.78    3.00   0
  -9   1   1   -0.20    2.88   0
  -9  11 -11    1.05    2.04   0
  -9  15 -13    0.06    2.17   0
  -8  -2   8    2.96    2.81   0
  -8  10 -11    1.73    2.32   0
  -7  -3  11    3.38    2.71   0
  -7  -3  31    1.30    2.61   0
  -7  -1   4   41.04    3.64   0
  -7   7  -9   -1.25    2.40   0
  -6  -4  16   15.90    2.54   0
  -6  -4  17   27.14    2.94   0
  -6  -4  18   -0.01    1.79   0
  -6  -4  25   -2.66    2.55   0
  -6  -4  26   -0.54    2.61   0
  -6  -2   6   35.65    3.51   0
  -6   0   1    0.84    2.76   0
  -6   2  -3    5.17    3.15   0
  -6   4  -6   21.92    3.14   0
  -5  -3   9    2.94    2.94   0
  -5  -3  33   -2.54    2.80   0
  -5   3  -5  123.48    4.80   0
  -4  -4  14   13.98    3.18   0
  -4  -4  28    0.91    2.58   0
  -4  -2   5  450.36    7.03   0
  -4   0   0  879.79   10.19   0
  -2  -4  28    3.34    2.45   0
  -2   2  -4   80.58    7.79   0
  -2  20 -16   -0.32    1.65   0
  -1  19 -16    0.40    1.57   0
  -1  21 -16    1.86    1.85   0
   0  -4  27    4.53    2.54   0
   0  20 -16    0.41    1.66   0
   1  -3  32    0.14    2.77   0
   1  11 -13    2.97    2.11   0
   1  13 -14    3.25    2.41   0
   2  -4  20    6.91    3.59   0
   2  -4  21    6.36    3.72   0
   2  -4  22   13.12    4.25   0
   2   2  -3  340.69    8.13   0
   3   9 -11   23.55    2.38   0
   4   4  -5   72.18    3.54   0
   5  17 -14    0.76    1.61   0
   6   0   5    1.31    2.91   0
   6   6  -6   -0.28    3.04   0
   6  10 -10   -1.32    1.87   0
   6  16 -13    5.87    2.20   0
   7  -1  11   11.66    2.17   0
   7   1   4   91.43    3.71   0
   7  13 -11    9.70    2.22   0
   7  15 -12    2.41    1.70   0
   7  19 -13   -1.14    1.70   0
   8   0   9    0.03    1.74   0
   8   0  31    0.52    2.63   0
   8   2   3   -2.20    2.16   0
   8   4  -1   69.52    2.79   0
   8   6  -4    7.13    2.01   0
   8  10  -8   -2.31    2.52   0
   8  18 -12    1.41    1.66   0
   8  20 -12    1.29    2.42   0
   9   1   8    9.60    2.06   0
   9   5  -1    3.16    2.72   0
   9   7  -4    3.43    1.83   0
   9   9  -6   15.05    2.51   0
   9  11  -8   66.17    2.55   0
   9  13  -9    7.17    2.39   0
   9  15 -10   13.49    2.60   0
   9  19 -11    3.27    2.53   0
  10   6  -1   13.26    2.63   0
  10  10  -6    9.05    1.87   0
  10  18 -10    0.47    1.67   0
  11   1  19    2.68    1.60   0
  11   1  20    0.42    1.86   0
  11   1  21    1.82    1.68   0
  11   3   7   -0.17    1.56   0
  11   7  -1    4.26    1.89   0
  11   9  -3    7.86    2.40   0
  11  11  -5    2.75    2.27   0
  11  19  -9    1.63    1.67   0
  12   2  18    2.45    1.66   0
  12   2  19   -1.26    1.65   0
  12   2  20    3.97    2.11   0
  12   2  21   -0.06    1.54   0
  12   4   8   44.96    3.05   0
  12   6   3   -0.26    1.88   0
  12   8   0   34.74    2.55   0
  12  18  -7    2.38    2.17   0
  13   5   8    2.18    1.80   0
  13   5   9   38.27    2.80   0
  13   7   4    2.22    2.31   0
  13   9   1    0.48    2.33   0
  13  11  -2    4.82    1.80   0
  13  13  -3   -1.16    2.27   0
  13  17  -5    0.56    2.07   0
  14   6   9   -1.96    1.72   0
  14   6  10    2.03    2.36   0
  14   8   5    7.97    2.01   0
  14  10   2    0.20    2.46   0
  14  12   0    3.00    2.50   0
  14  14  -2   -1.36    1.92   0
  14  16  -3   -1.47    2.06   0
  15   7  11    1.36    1.71   0
  15   7  12    0.04    2.07   0
  15   9   6   -0.12    1.68   0
  15   9   7    2.69    2.19   0
  15  11   3   -1.58    1.87   0
  15  13   1   -1.20    1.60   0
  15  15   0    1.64    2.47   0
  16   8  15   -2.60    1.72   0
  16   8  16   -3.10    2.20   0
  16   8  17   -0.29    2.00   0
  16  10   9   -3.83    1.96   0
  16  12   5    0.92    1.70   0
  16  12   6    5.71    2.37   0
  16  14   3    0.25    1.71   0
 -18   4  12   -1.12    2.57   0
 -18   4  13   -1.04    1.83   0
 -18   6   7    2.90    2.24   0
 -18   8   4    0.96    1.70   0
 -18  10   1    2.74    2.47   0
 -17   3  11    4.55    2.35   0
 -17   3  12    0.42    1.83   0
 -17   7   3    0.31    1.65   0
 -17   9   0    4.04    2.49   0
 -17  11  -2   -3.51    2.42   0
 -16   2  12    3.54    2.02   0
 -16   4   6    3.60    1.65   0
 -16   6   2    0.12    2.31   0
 -16   8  -1    0.55    1.94   0
 -16  10  -3    6.51    2.17   0
 -15   1  12    2.16    1.86   0
 -15   3   6   -0.26    1.78   0
 -15   5   2    6.51    1.72   0
 -15   7  -1    0.47    1.65   0
 -15  11  -5   -0.70    1.61   0
 -14   0  12   21.05    2.48   0
 -14   0  13    0.75    1.77   0
 -14   2   6   16.07    2.11   0
 -14   4   2    3.66    1.91   0
 -14   8  -4   -1.45    2.14   0
 -13  -1  14    4.81    2.52   0
 -13  -1  15    2.38    1.74   0
 -13   1   6    4.35    2.29   0
 -13   3   2   -1.05    1.96   0
 -13   7  -4    0.84    1.81   0
 -13   9  -6    4.94    1.81   0
 -13  13  -9    6.98    2.71   0
 -13  15 -10    3.48    2.45   0
 -12  -2  16    1.03    2.21   0
 -12  -2  17   -0.62    2.45   0
 -12  -2  18    0.06    1.65   0
 -12  -2  19    2.03    1.69   0
 -12  -2  24   -0.88    1.78   0
 -12  -2  25   -0.41    1.72   0
 -12  -2  26    0.23    2.31   0
 -12  -2  27    0.82    2.26   0
 -12   0   7   -2.22    2.49   0
 -12   2   2    7.42    2.47   0
 -12   6  -4   -0.43    1.66   0
 -12  10  -8    6.85    2.66   0
 -11  -1   9   28.71    2.06   0
 -11   1   3    1.24    2.48   0
 -11   3  -1    0.67    2.64   0
 -11   5  -4   33.43    2.95   0
 -10  -2  11    3.72    1.73   0
 -10   0   4    3.63    2.77   0
 -10   2   0   18.04    2.02   0
 -10   6  -6   10.46    1.92   0
 -10  12 -11    5.43    2.20   0
  -9  -3  14    1.80    1.85   0
  -9   3  -3    5.94    2.89   0
  -9   7  -8    3.55    2.19   0
  -8   0   2   27.40    2.51   0
  -8   2  -2    2.89    3.16   0
  -8   4  -5   49.96    2.70   0
  -8  16 -14    2.98    3.05   0
  -7  -3  32    1.06    1.22   0
  -7  -3  32    0.70    1.15   0
  -7   1  -1   10.76    3.25   0
  -7   5  -7   97.18    3.58   0
  -6  -4  15   -2.88    2.65   0
  -6  -4  27   -0.32    2.09   0
  -6  -4  28    1.61    2.44   0
  -6  10 -12   19.40    3.04   0
  -5  -3  34   -1.61    2.16   0
  -4  -4  13   36.29    3.32   0
  -4  -4  29    1.55    2.66   0
  -3  -3  34   -1.06    2.20   0
  -3  -3  34    0.41    1.28   0
  -3  -1   2   32.05    4.17   0
  -3  15 -15    2.76    2.09   0
  -2  -4  13    5.47    2.74   0
  -2  -4  29   -0.56    2.31   0
  -1  -3  34   -0.09    2.55   0
  -1  -1   2    4.02    5.62   0
  -1   5  -8   99.48    7.12   0
  -1  15 -15    3.43    1.62   0
   0  -4  14    7.21    3.43   0
   0  -4  28    3.51    2.69   0
   0   6  -9   14.88    3.54   0
   2  -4  19   11.34    4.09   0
   2  -4  23    0.31    3.60   0
   2   4  -6   21.06    2.90   0
   3   3  -4   58.06    3.73   0
   3   7  -9    2.64    2.26   0
   3  11 -12    5.40    2.80   0
   3  15 -14   16.41    2.96   0
   3  19 -15    0.18    1.57   0
   3  21 -15    0.81    1.38   0
   3  21 -15   -0.05    1.06   0
   4  -2   9   58.48    4.19   0
   4  10 -11    2.77    2.06   0
   5  -1   7    2.88    2.37   0
   5  11 -11    7.03    2.38   0
   5  13 -12   -0.40    2.57   0
   5  15 -13    3.25    2.29   0
   5  19 -14   -0.12    1.51   0
   5  21 -14    2.31    1.50   0
   5  21 -14    0.25    1.07   0
   6  -2  14   13.88    2.49   0
   6   4  -3    4.12    2.44   0
   6   8  -8   21.71    2.30   0
   6  12 -11    3.54    1.91   0
   6  14 -12    1.28    1.88   0
   6  18 -13    2.12    2.65   0
   7  -1  29    1.05    2.84   0
   7   3   0    5.76    3.24   0
   7   7  -6   18.65    2.09   0
   7   9  -8   -0.55    1.89   0
   7  17 -12   -1.15    2.18   0
   8   0  10   92.27    3.35   0
   8  14 -10    4.20    2.39   0
   8  16 -11    1.71    2.16   0
   9   1   9   40.83    3.05   0
   9   3   3    3.97    1.99   0
   9  17 -10    5.85    2.39   0
  10   2   8   17.72    1.97   0
  10   4   3   59.20    2.38   0
  10   8  -3    2.05    2.54   0
  10  10  -5   -0.24    2.46   0
  10  12  -7    2.83    1.74   0
  10  14  -8   11.81    1.95   0
  10  16  -9    1.33    1.71   0
  11   3   8    4.80    1.75   0
  11   5   3   34.80    2.03   0
  11   7   0    0.82    2.45   0
  11  13  -6    0.70    2.07   0
  11  15  -7   -1.32    1.93   0
  11  17  -8    2.67    1.71   0
  11  19  -8    0.11    2.15   0
  12   4   9   44.23    2.97   0
  12   6   4   -1.89    2.45   0
  12  10  -2   14.70    1.91   0
  12  12  -4    0.46    1.69   0
  12  14  -5    0.23    2.00   0
  12  16  -6    3.06    1.76   0
  13   5  10   10.71    2.49   0
  13   7   5   23.93    2.58   0
  13  11  -1   15.35    1.87   0
  13  15  -4    1.03    1.59   0
  14   6  11    5.92    1.79   0
  14   6  12    4.91    2.38   0
  14   8   6    1.05    1.52   0
  14  10   3   -1.50    2.30   0
  14  14  -1    1.81    2.08   0
  14  16  -2    1.37    2.23   0
  15   7  13    2.17    1.66   0
  15   7  14   -0.97    1.62   0
  15   7  15    4.73    2.27   0
  15   9   8    1.58    2.04   0
  15  11   4    2.71    1.86   0
  15  11   5   -2.86    2.31   0
  15  15   1    0.83    2.24   0
  16  10  10    2.09    1.54   0
  16  10  11   -1.91    1.93   0
  16  12   7    1.85    1.72   0
  16  14   4    0.23    1.67   0
  16  14   5    2.03    2.23   0
 -19   7   7   -2.18    1.64   0
 -18   4  10   -0.34    2.06   0
 -18   4  11   -0.07    1.75   0
 -18   8   3    1.73    1.75   0
 -18  10   0    1.31    1.95   0
 -17   3  10   -0.17    2.69   0
 -17   5   5   10.24    2.37   0
 -17   7   2   -0.42    1.69   0
 -16   2  10   -0.49    1.80   0
 -16   4   5    0.58    1.59   0
 -16   6   1    4.84    2.08   0
 -16  12  -5    0.95    2.39   0
 -15   1  11   -1.57    1.92   0
 -15   3   5    7.13    1.74   0
 -15   5   1    7.51    2.31   0
 -15   7  -2    1.29    1.98   0
 -15   9  -4   -1.49    2.35   0
 -15  13  -7    1.83    2.51   0
 -14   0  11   -1.45    1.66   0
 -14   2   5   41.04    2.25   0
 -14   4   1   26.60    2.19   0
 -14   6  -2   -0.48    2.15   0
 -14  10  -6    1.95    1.90   0
 -13  -1  12    4.75    2.52   0
 -13  -1  13   15.07    1.98   0
 -13   3   1   12.68    2.82   0
 -13   5  -2    5.65    2.32   0
 -13  11  -8   10.69    2.69   0
 -12  -2  14    5.65    2.29   0
 -12  -2  15    3.13    1.75   0
 -12  -2  28    1.73    1.83   0
 -12   4  -2   46.60    2.85   0
 -11  -3  18   -0.54    2.26   0
 -11  -3  20    1.84    2.49   0
 -11  -3  21   -0.06    2.39   0
 -11  -3  22    0.82    1.87   0
 -11  -3  23   -1.27    2.41   0
 -11  -3  24   -0.05    2.44   0
 -11  -3  25    1.40    2.19   0
 -11  -1   8   11.25    1.84   0
 -11  11 -10    0.07    2.50   0
 -11  13 -11    5.60    2.25   0
 -10  -2  10   -3.09    1.73   0
 -10   4  -4  192.77    4.02   0
 -10  10 -10    0.68    2.21   0
  -9  -3  12    2.24    2.43   0
  -9  -3  13    3.15    1.91   0
  -9  -3  30   -1.02    1.85   0
  -9  -3  31    3.61    2.54   0
  -9  -1   5    6.20    2.13   0
  -9   5  -6   -0.32    2.78   0
  -8  -4  17   -0.63    2.21   0
  -8  -4  18    3.57    2.41   0
  -8  -4  19    2.09    1.82   0
  -8  -4  20   14.99    1.96   0
  -8  -4  21    0.21    1.56   0
  -8  -4  22   17.82    2.13   0
  -8  -4  23    5.88    1.85   0
  -8  -4  24    1.77    1.83   0
  -8  -4  25    2.93    2.54   0
  -8  -4  26   -0.40    2.27   0
  -8  -2   7    5.96    2.19   0
  -7  -3  10    8.17    2.05   0
  -7  -3  33    0.56    1.23   0
  -7  -3  33   -0.56    1.32   0
  -7  -1   3   15.24    3.43   0
  -7   9 -11   -0.03    1.99   0
  -6  -4  14   22.01    2.25   0
  -6  -4  29   -0.67    2.57   0
  -5  -3   8    4.39    3.15   0
  -5   1  -2  250.57    5.28   0
  -4  -4  12    8.47    2.94   0
  -4  -4  30    1.51    2.68   0
  -4   2  -4  528.68    8.85   0
  -2  -4  12   18.38    2.95   0
  -2  -4  30   -0.05    2.52   0
  -2   8 -11    7.24    3.52   0
  -1  -3   8   18.77    3.97   0
  -1   7 -10    0.79    3.37   0
  -1  11 -13   10.80    2.80   0
   0  -2   5   11.78    5.23   0
   0  16 -15    0.80    1.57   0
   1  17 -15    5.02    1.91   0
   2  -4  18    1.07    4.33   0
   3  13 -13   -1.43    2.26   0
   4   0   3    1.18    4.05   0
   4   6  -7    0.03    3.02   0
   4   8  -9   67.51    3.74   0
   4  12 -12   19.99    2.22   0
   4  18 -14   -1.36    1.84   0
   5   3  -2  217.69    5.28   0
   5   5  -5    6.00    2.94   0
   6  -2  15   18.97    2.63   0
   6  -2  26    1.24    3.16   0
   6   2   1   41.60    3.75   0
   6  20 -13    0.33    1.05   0
   6  20 -13   -0.13    1.00   0
   7  -1  12    1.82    1.93   0
   7   5  -3    0.52    2.14   0
   7  11  -9    6.42    2.48   0
   7  15 -11    1.24    2.24   0
   7  19 -12    0.78    2.11   0
   7  21 -12   -1.81    1.83   0
   8   0  30    0.34    2.50   0
   8   2   4   35.92    2.47   0
   8   4   0   36.25    3.10   0
   8   6  -3    5.99    2.81   0
   8  18 -11   -1.85    2.22   0
   8  20 -11   -0.76    2.44   0
   9   1  10   22.99    2.69   0
   9   5   0    4.75    2.76   0
   9   7  -3   -1.33    1.77   0
   9   9  -5    6.81    2.34   0
   9  11  -7   90.48    2.84   0
   9  13  -8    9.89    2.45   0
   9  15  -9    4.99    2.40   0
   9  19 -10    2.43    2.14   0
  10   2   9    7.32    1.95   0
  10   4   4  179.66    3.76   0
  10   6   0    8.63    1.91   0
  10  12  -6    0.83    2.45   0
  10  16  -8    0.58    2.27   0
  10  18  -9   -1.10    1.69   0
  11   3   9   12.81    1.85   0
  11   5   4   33.45    2.01   0
  11   9  -2    9.87    1.84   0
  11  11  -4   -1.28    1.74   0
  11  17  -7   -1.51    2.27   0
  12   4  10   30.68    2.86   0
  12   6   5    4.32    2.37   0
  12  10  -1    3.25    2.42   0
  12  12  -3   -0.49    1.70   0
  12  16  -5    3.18    2.19   0
  12  18  -6   -0.29    1.55   0
  13   5  11    8.08    1.74   0
  13   7   6    0.46    2.42   0
  13   9   2    9.84    1.83   0
  13  11   0    1.82    1.80   0
  13  13  -2    0.73    1.76   0
  13  15  -3    0.81    1.66   0
  13  17  -4   -0.01    1.68   0
  14   6  13    6.12    1.78   0
  14   6  14   -0.13    2.36   0
  14   8   7    3.92    1.64   0
  14  10   4    5.36    2.28   0
  14  12   1    1.78    1.88   0
  14  14   0    3.56    2.10   0
  14  16  -1   -0.82    2.31   0
  15   7  16    1.33    1.80   0
  15   7  17    2.66    1.83   0
  15   7  18   -2.02    1.71   0
  15   7  18    0.31    1.08   0
  15   7  19    0.72    2.08   0
  15   7  20    1.57    1.58   0
  15   7  20   -0.14    1.15   0
  15   9   9    0.04    1.76   0
  15   9  10   -1.90    2.22   0
  15  11   6   -2.34    1.95   0
  15  13   3    8.59    1.83   0
  15  15   2    2.10    2.00   0
  16  10  12    1.68    1.62   0
  16  10  13    0.67    1.56   0
  16  10  14   -0.07    2.12   0
  16  12   8   -1.62    1.65   0
  16  12   9    0.42    2.19   0
 -19   5  10   -0.17    2.39   0
 -19   7   6    1.20    1.48   0
 -18   2  16    0.41    2.14   0
 -18   2  17    2.64    2.64   0
 -18   4   9   -1.17    2.26   0
 -18   6   5    2.12    1.72   0
 -18   8   2   -1.52    1.74   0
 -17   1  16   -2.04    2.32   0
 -17   1  17   -2.84    2.50   0
 -17   1  18   -0.24    1.91   0
 -17   1  19   -0.07    1.71   0
 -17   1  20   -1.48    1.79   0
 -17   3   9    1.40    1.72   0
 -17   5   4    5.68    2.38   0
 -17   7   1    0.96    2.32   0
 -17   9  -1    0.45    1.71   0
 -17  11  -3    1.59    1.76   0
 -16   0  17    0.74    2.67   0
 -16   0  18    2.13    2.56   0
 -16   0  19   -1.63    1.76   0
 -16   0  20    0.25    1.82   0
 -16   0  21    1.05    1.67   0
 -16   0  22   -0.48    1.64   0
 -16   2   9    6.72    1.82   0
 -16   4   4    1.60    1.59   0
 -16   8  -2    2.06    2.24   0
 -16  10  -4   11.54    2.52   0
 -15  -1  19    3.11    2.19   0
 -15  -1  20   -0.24    2.48   0
 -15  -1  21   -0.35    2.36   0
 -15  -1  22    0.11    2.29   0
 -15  -1  23   -1.90    2.28   0
 -15  -1  24    2.32    2.28   0
 -15   1   9   -1.32    1.90   0
 -15   3   4   -0.48    1.82   0
 -15  11  -6    0.05    2.40   0
 -14   0  10   21.46    2.08   0
 -14   2   4    1.43    2.48   0
 -14  12  -8   -0.83    2.19   0
 -14  14  -9    1.02    2.44   0
 -13  -1  11    4.00    1.97   0
 -13   1   5    3.75    1.88   0
 -13   7  -5   21.73    2.53   0
 -13   9  -7    7.15    2.33   0
 -12  -2  13   10.47    1.96   0
 -12   0   6   -1.49    1.88   0
 -12   2   1   24.68    2.67   0
 -12   6  -5    7.62    2.26   0
 -12   8  -7   -1.04    2.30   0
 -12  12 -10   -0.41    2.09   0
 -11  -3  16    4.58    2.62   0
 -11  -3  17    5.42    1.89   0
 -11  -3  26    3.61    1.82   0
 -11  -3  27   -1.38    1.89   0
 -11  -3  28    0.78    2.72   0
 -11  -1   7   10.75    1.89   0
 -11   1   2   56.24    2.37   0
 -11   3  -2   -2.05    2.31   0
 -11  15 -12    1.53    1.99   0
 -10  -2   9    3.36    1.86   0
 -10   0   3    0.68    1.96   0
 -10   2  -1    2.05    2.03   0
 -10  16 -13   -0.13    2.58   0
  -9  -3  11    7.51    2.63   0
  -9   1   0    3.77    2.09   0
  -9   9 -10   73.58    3.29   0
  -8  -4  15   13.50    2.48   0
  -8  -4  16   15.93    2.02   0
  -8  -4  27   -0.26    1.94   0
  -8  -4  28    1.14    2.55   0
  -8   0   1    1.74    3.19   0
  -8   6  -8    1.08    1.96   0
  -7  -3   9   34.92    2.44   0
  -6  -4  13   13.86    2.21   0
  -6  -4  30   -0.15    1.91   0
  -6  -2   5    2.50    2.55   0
  -6   0   0  302.44    5.15   0
  -6  18 -15   -0.12    3.04   0
  -5   7 -10   11.36    3.47   0
  -4  -4  31    0.85    2.50   0
  -4  16 -15    4.32    2.42   0
  -2  -4  31    2.14    2.58   0
  -1  13 -14    0.52    1.47   0
   0  -4  29    0.06    2.78   0
   1  -3  33    0.27    3.22   0
   1  19 -15   -0.53    1.90   0
   2  -4  24    4.69    3.96   0
   2   6  -8   35.69    3.30   0
   3  17 -14    1.51    2.04   0
   4  20 -14    0.23    1.09   0
   4  20 -14    0.33    1.01   0
   5   1   2  251.69    5.95   0
   5   7  -7   58.65    3.45   0
   5   9  -9    4.12    1.96   0
   5  17 -13    0.62    1.90   0
   5  19 -13    3.99    2.13   0
   5  21 -13    3.15    2.04   0
   6  -2  16    0.68    2.53   0
   6   0   6  532.59    6.49   0
   6   6  -5   16.38    3.24   0
   6  10  -9   18.33    2.01   0
   6  16 -12    3.43    1.83   0
   7  -1  13    2.80    1.85   0
   7  -1  28    0.16    2.66   0
   7   1   5    9.80    2.34   0
   7   7  -5   11.75    2.77   0
   7   9  -7    4.89    2.49   0
   7  13 -10   -1.00    1.71   0
   8   0  11    0.89    1.62   0
   8   8  -5    1.43    1.78   0
   8  10  -7    4.24    1.76   0
   8  16 -10   10.08    2.50   0
   9   1  30    0.54    2.64   0
   9  17  -9    2.18    2.35   0
  10   2  10    2.06    1.91   0
  10   8  -2    8.19    2.46   0
  10  10  -4   41.49    2.80   0
  10  14  -7    6.54    1.63   0
  10  18  -8    1.77    2.37   0
  11   3  10   39.80    2.36   0
  11   5   5    3.53    2.57   0
  11  13  -5    0.47    1.57   0
  11  15  -6   -0.99    1.55   0
  11  19  -7    1.53    1.62   0
  12   4  11   13.74    1.89   0
  12   6   6   -1.83    2.33   0
  12   8   2    0.19    1.78   0
  12  12  -2    1.52    2.33   0
  12  14  -4   -0.16    1.65   0
  12  18  -5    5.79    2.02   0
  13   5  12    2.26    1.79   0
  13   5  13   12.78    2.44   0
  13   7   7    8.29    2.51   0
  13   9   3    4.99    1.83   0
  13  11   1   -0.90    2.38   0
  13  13  -1    3.64    1.82   0
  13  15  -2   -3.09    2.41   0
  13  17  -3    1.42    1.65   0
  14   6  15   -0.05    1.65   0
  14   6  16    6.63    1.99   0
  14   6  17   -2.63    2.33   0
  14   6  18    2.80    2.17   0
  14   8   8    1.53    1.63   0
  14   8   9    1.25    2.26   0
  14  12   2    2.13    1.78   0
  14  14   1   -0.76    2.39   0
  14  16   0    1.67    2.38   0
  15   9  11    4.64    1.73   0
  15   9  12    0.64    2.27   0
  15  11   7   -0.23    1.63   0
  15  13   4    2.04    1.77   0
  15  13   5   -0.87    2.53   0
  15  15   3   -1.02    1.87   0
  16  12  10    2.18    1.56   0
  16  12  11    2.08    2.33   0
 -19   5   9    1.24    1.62   0
 -18   2  14   -1.11    2.29   0
 -18   2  15   -0.94    1.68   0
 -18   4   8   -3.08    1.59   0
 -18   6   4   -0.23    1.65   0
 -18   8   1   -0.76    2.26   0
 -18  10  -1   -0.79    1.71   0
 -17   1  14    2.77    2.32   0
 -17   1  15    1.49    1.75   0
 -17   3   7    0.02    2.08   0
 -17   3   8    4.73    1.83   0
 -17   5   3   -0.50    2.04   0
 -17   9  -2    0.58    2.18   0
 -16   0  14   -0.73    2.29   0
 -16   0  15    1.57    1.85   0
 -16   0  16    1.16    1.95   0
 -16   2   7    1.10    2.22   0
 -16   2   8    2.44    2.01   0
 -16   4   3   -2.12    2.05   0
 -16   6   0    7.61    1.80   0
 -16  12  -6    5.12    2.19   0
 -15  -1  16   -1.03    2.28   0
 -15  -1  17    2.05    1.77   0
 -15  -1  18    3.33    1.76   0
 -15   1   8    6.02    1.87   0
 -15   3   3    5.66    2.44   0
 -15   5   0   -1.73    1.71   0
 -15   9  -5    0.09    2.53   0
 -14  -2  18   -0.73    1.99   0
 -14  -2  19    0.26    2.30   0
 -14  -2  20    5.15    2.51   0
 -14  -2  21    0.83    1.78   0
 -14  -2  22    1.25    1.75   0
 -14  -2  23    0.16    1.73   0
 -14  -2  24   -0.78    2.44   0
 -14  -2  25   -0.64    2.47   0
 -14  -2  26   -2.56    1.95   0
 -14   0   8   15.09    2.43   0
 -14   0   9   -0.65    1.80   0
 -14   4   0    4.26    1.91   0
 -14   6  -3   18.13    2.31   0
 -14   8  -5    8.39    1.84   0
 -14  10  -7   -1.88    2.64   0
 -13  -1  10    2.40    1.81   0
 -13   1   4   22.47    2.17   0
 -13   5  -3    3.49    2.26   0
 -12  -2  11    6.00    2.40   0
 -12  -2  12    9.54    2.02   0
 -12   0   5    0.75    1.92   0
 -12  10  -9    0.69    2.20   0
 -12  14 -11   -0.08    2.07   0
 -11  -3  14    7.72    2.41   0
 -11  -3  15   10.00    2.07   0
 -11  -3  29    0.17    1.78   0
 -11   9  -9   25.90    2.76   0
 -10  -4  19   12.67    2.38   0
 -10  -4  20   -0.59    2.46   0
 -10  -4  21   -2.26    2.31   0
 -10  -4  22   -1.12    2.47   0
 -10  -4  23   -1.87    2.46   0
 -10  -4  24   -0.58    2.32   0
 -10  -4  25    1.42    2.19   0
 -10  -2   8    1.08    1.82   0
 -10   6  -7    2.77    2.42   0
  -9  -3  10   21.23    2.72   0
  -9  -1   4    2.81    2.07   0
  -8  -4  14    4.66    2.61   0
  -8  -4  29   -0.67    1.81   0
  -8  -4  30    1.32    2.17   0
  -8   2  -3   -0.65    2.93   0
  -8   8 -10    4.37    2.25   0
  -7  -3   8   58.48    3.51   0
  -7   3  -5   27.57    3.20   0
  -6  -4  12    8.95    2.19   0
  -6  -4  31    0.26    1.93   0
  -6  -4  32    1.37    2.19   0
  -5  -5  19    5.14    2.35   0
  -5  -5  20    0.11    2.54   0
  -5  -5  21   -0.56    2.62   0
  -5  -5  22   11.10    2.63   0
  -5  -5  23    2.23    2.50   0
  -5  -5  24   -2.04    2.69   0
  -5  -3   7   14.86    3.37   0
  -5   5  -8   22.00    3.23   0
  -4  -4  11  131.06    4.13   0
  -4  -4  32    1.50    2.50   0
  -4  -2   4    2.34    2.83   0
  -4   4  -7   22.55    4.25   0
  -3  -5  19    2.12    2.64   0
  -3  -5  20    7.79    2.72   0
  -3  -5  21   20.61    2.77   0
  -3  -5  22    0.36    2.50   0
  -3  -5  23    4.70    2.56   0
  -3  -5  24    4.73    2.47   0
  -3  11 -13   -0.22    2.12   0
  -3  13 -14   13.71    2.61   0
  -2  -2   4  479.98    9.26   0
  -2  16 -15    2.31    1.56   0
  -1  17 -15    0.43    1.70   0
   0  -4  13   33.92    3.65   0
   0  10 -12   24.72    2.68   0
   0  14 -14    1.93    1.62   0
   0  18 -15   -0.13    1.78   0
   2  -4  25    0.52    4.22   0
   3   1   0  470.85    8.05   0
   3   9 -10    2.69    2.90   0
   3  19 -14   -0.47    2.07   0
   3  21 -14   -0.99    1.90   0
   3  21 -14   -0.03    1.10   0
   4   2  -1  107.73    4.18   0
   4   4  -4   -2.42    3.45   0
   4  16 -13    1.10    2.35   0
   5  11 -10    5.01    2.66   0
   5  15 -12    8.35    2.21   0
   6  -2  17   60.45    3.78   0
   6  -2  25    1.21    2.54   0
   6   4  -2  166.15    3.76   0
   6   8  -7   21.40    2.25   0
   6  12 -10    3.14    1.90   0
   6  14 -11    2.20    1.91   0
   6  18 -12    1.77    1.83   0
   6  20 -12   -1.24    2.11   0
   7   3   1    3.38    2.24   0
   7  17 -11    0.80    1.67   0
   7  19 -11    2.15    2.15   0
   7  21 -11    1.33    2.24   0
   8   0  12   70.54    3.13   0
   8   0  29   -0.03    2.56   0
   8   2   5    7.39    2.09   0
   8   6  -2   19.80    2.86   0
   8  12  -8   -1.81    1.87   0
   8  14  -9   -1.87    1.63   0
   8  18 -10    1.50    2.04   0
   8  20 -10   -2.68    2.45   0
   9   1  11   25.25    2.00   0
   9   3   5   98.46    3.23   0
   9   5   1   -1.89    2.44   0
   9   7  -2    1.56    1.84   0
   9   9  -4   -3.69    2.30   0
   9  11  -6    7.62    1.92   0
   9  13  -7   16.11    2.61   0
   9  15  -8    5.83    2.34   0
   9  19  -9   -1.03    1.99   0
  10   2  11   13.70    1.94   0
  10   4   5  133.36    3.02   0
  10   6   1    4.46    1.84   0
  10  12  -5    1.43    2.28   0
  10  16  -7   -0.27    2.28   0
  10  20  -8    1.49    1.64   0
  11   3  11    0.88    1.85   0
  11   3  12   28.13    2.74   0
  11   7   2   -2.99    2.28   0
  11   9  -1    7.72    1.84   0
  11  11  -3   -1.63    1.71   0
  11  13  -4   14.79    2.35   0
  11  15  -5   -2.48    2.24   0
  11  19  -6   -2.07    2.20   0
  12   4  12    1.74    1.64   0
  12   4  13   -0.78    2.15   0
  12   6   7   -1.91    2.52   0
  12   8   3    2.78    2.22   0
  12  14  -3    3.00    1.62   0
  12  16  -4    3.85    1.60   0
  13   5  14    0.61    1.67   0
  13   5  15    2.13    2.03   0
  13   5  16    0.08    2.08   0
  13   5  25    3.81    2.03   0
  13   7   8   -0.86    2.05   0
  13   9   4    1.96    1.62   0
  13  11   2   -3.64    2.38   0
  13  13   0   -2.50    2.13   0
  13  15  -1    6.22    2.47   0
  13  17  -2   -0.69    2.34   0
  14   6  19   -0.98    1.50   0
  14   6  20    3.45    1.72   0
  14   6  21    1.86    1.69   0
  14   6  22   -0.65    1.05   0
  14   6  22    0.12    1.08   0
  14   8  10    5.21    2.15   0
  14  10   6   -1.51    1.60   0
  14  12   3    3.33    1.87   0
  14  14   2    1.16    2.27   0
  14  16   1   -1.53    2.44   0
  15   9  13    0.83    1.60   0
  15   9  14    0.92    2.34   0
  15  11   8    1.70    1.57   0
  15  11   9    2.61    2.26   0
  15  13   6    0.68    2.23   0
  15  15   4    3.02    1.69   0
 -19   5   7    2.33    1.95   0
 -19   7   4   -1.12    1.65   0
 -18   2  12    3.15    2.76   0
 -18   2  13   -1.40    1.76   0
 -18   6   3    2.43    2.20   0
 -18   8   0   -2.81    2.12   0
 -18  10  -2   -0.89    2.14   0
 -17   1  12    1.04    2.51   0
 -17   1  13    3.58    1.90   0
 -17   3   6    1.86    2.19   0
 -17   7   0    0.11    1.85   0
 -17  11  -4    3.92    1.86   0
 -16   0  13    1.82    1.84   0
 -16   2   6   -0.49    2.22   0
 -16   4   2   17.79    2.11   0
 -16   6  -1    1.87    2.13   0
 -16   8  -3    1.25    2.20   0
 -16  10  -5    1.23    2.19   0
 -15  -1  14    0.42    1.74   0
 -15  -1  15    0.42    1.85   0
 -15   1   7    6.54    1.83   0
 -15   3   2   -0.91    2.29   0
 -15  11  -7   -0.32    2.17   0
 -15  13  -8    0.77    2.57   0
 -14  -2  15    3.30    2.26   0
 -14  -2  16    2.57    2.45   0
 -14  -2  17    0.73    1.68   0
 -14   0   7   -0.86    2.26   0
 -14   2   3   12.63    2.03   0
 -14   4  -1   -0.69    2.53   0
 -13  -3  19   -0.76    1.99   0
 -13  -3  20   -0.63    2.35   0
 -13  -3  21   -2.25    2.45   0
 -13  -3  22    0.40    2.64   0
 -13  -3  23   -1.29    2.47   0
 -13  -3  24   -1.80    2.50   0
 -13  -3  25    2.61    2.29   0
 -13  -1   9   19.76    2.00   0
 -13   1   3   17.40    2.72   0
 -13  11  -9    1.84    2.22   0
 -13  13 -10    1.98    2.32   0
 -12  -2  10    1.32    2.39   0
 -12   0   4    3.97    2.38   0
 -12   2   0   33.56    2.21   0
 -12   4  -3    1.20    1.93   0
 -12  16 -12   -0.11    2.29   0
 -11  -3  12    5.96    2.46   0
 -11  -3  13    2.03    1.70   0
 -11  -1   5    1.81    2.33   0
 -11   1   1    4.17    1.83   0
 -10  -4  16    3.73    2.46   0
 -10  -4  17    3.42    2.59   0
 -10  -4  18    5.25    1.90   0
 -10  -4  26   -0.38    1.64   0
 -10  -4  27    0.85    2.27   0
 -10  -4  28   -1.65    2.08   0
 -10  -2   7    1.59    2.61   0
 -10   0   2   13.76    2.12   0
 -10   2  -2   -0.10    2.69   0
 -10   8  -9   -0.42    2.16   0
  -9  -3   9    0.44    2.46   0
  -9  -1   3   41.74    3.03   0
  -9   1  -1   14.40    2.94   0
  -9   3  -4   43.99    2.54   0
  -9  17 -14   -0.29    2.89   0
  -8  -4  13   14.71    2.04   0
  -8  -4  31   -0.98    2.40   0
  -8  -2   5    5.53    3.11   0
  -8   4  -6   13.78    2.87   0
  -7  -5  20   -0.37    2.50   0
  -7  -5  21    2.56    2.56   0
  -7  -5  22    0.84    2.54   0
  -7  -5  24   -0.87    2.21   0
  -7  -1   2   58.56    2.97   0
  -7   1  -2   10.75    2.47   0
  -6  -4  11   75.96    3.48   0
  -6  -4  33   -0.56    2.23   0
  -6  -2   4    2.06    2.62   0
  -6   2  -4    3.17    3.10   0
  -6   6  -9    1.81    2.87   0
  -5  -5  17   -1.06    2.71   0
  -5  -5  18    2.71    1.89   0
  -5  -5  25    3.38    1.96   0
  -5  -5  26    0.83    2.45   0
  -5  17 -15    1.27    2.31   0
  -4  -4  33    2.02    2.21   0
  -4   0  -1    0.75    4.52   0
  -3  -5  17    6.58    2.58   0
  -3  -5  18    1.45    2.57   0
  -3  -5  25    0.50    2.36   0
  -3  -5  26   -0.30    2.15   0
  -2  -4  11    8.06    2.95   0
  -2  -4  32    1.29    2.54   0
   0  -4  30   -0.72    2.66   0
   0  12 -13    3.20    1.99   0
   0  20 -15    1.41    1.59   0
   2  18 -14    0.61    2.09   0
   3   5  -6    1.53    2.33   0
   3  15 -13    1.36    2.43   0
   4  -2  10   10.10    3.34   0
   4  10 -10   32.22    2.38   0
   4  12 -11   47.16    3.06   0
   4  14 -12   -1.02    2.55   0
   4  18 -13    1.38    2.20   0
   4  20 -13    1.37    2.19   0
   5  -1   8   32.17    2.51   0
   5  17 -12    1.42    2.62   0
   6  -2  18   46.70    3.59   0
   6  -2  24    4.62    2.87   0
   6   0   7    1.72    2.53   0
   6   2   2   63.60    3.97   0
   6  16 -11    0.18    2.45   0
   7  -1  14   38.48    2.16   0
   7  -1  27    0.42    2.57   0
   7  11  -8    0.72    1.72   0
   7  13  -9    3.40    2.37   0
   7  15 -10    1.63    1.61   0
   8   0  13    0.49    2.11   0
   8   0  28    1.00    2.50   0
   8   8  -4    0.74    2.52   0
   8  10  -6   26.51    2.13   0
   8  16  -9    0.27    2.39   0
   9   1  12    1.71    1.58   0
   9   1  29   -0.15    1.99   0
   9   1  29   -0.54    1.06   0
   9  17  -8    0.65    2.39   0
  10   2  12   53.59    2.32   0
  10   2  29    0.32    1.69   0
  10   2  29   -0.01    1.07   0
  10   4   6    4.29    2.54   0
  10   8  -1   -0.49    1.81   0
  10  10  -3   98.30    2.62   0
  10  14  -6   -0.24    1.69   0
  10  18  -7    4.36    1.80   0
  10  20  -7    0.97    2.09   0
  11   3  13   40.26    2.62   0
  11   3  28    0.78    2.01   0
  11   3  28    1.18    1.12   0
  11   7   3   16.30    2.52   0
  11   9   0    9.55    2.27   0
  11  11  -2   14.34    2.21   0
  11  17  -5    3.54    2.20   0
  12   4  14    7.10    1.73   0
  12   4  15    1.73    2.13   0
  12   4  26    0.69    2.20   0
  12   4  27    0.57    1.12   0
  12   6   8   -0.93    2.48   0
  12   8   4   -1.17    2.33   0
  12  10   1   -0.83    1.65   0
  12  12  -1    3.97    1.75   0
  12  14  -2    2.65    2.18   0
  12  16  -3    4.07    2.02   0
  12  18  -4    1.34    1.54   0
  13   5  17    2.14    1.58   0
  13   5  19   -0.68    1.91   0
  13   5  20    1.04    2.19   0
  13   5  21    0.62    2.13   0
  13   5  22    3.20    2.00   0
  13   5  23   -0.18    1.43   0
  13   5  23    1.38    1.01   0
  13   5  24   -0.18    1.00   0
  13   5  24   -0.14    1.00   0
  13   7   9    6.18    1.67   0
  13   9   5    6.82    1.71   0
  13  11   3    1.16    2.43   0
  13  13   1   -0.85    2.40   0
  13  17  -1    2.64    2.23   0
  14   8  11    7.14    1.78   0
  14   8  12    8.54    2.29   0
  14  10   7   -1.54    1.64   0
  14  12   4    2.29    1.66   0
  14  12   5    2.25    2.49   0
  14  14   3    2.12    2.25   0
  14  16   2   -0.65    2.40   0
  15   9  15    1.10    1.73   0
  15   9  16    2.62    1.58   0
  15   9  17    0.46    2.02   0
  15   9  18    1.84    2.46   0
  15  11  10   -0.88    1.64   0
  15  11  11    0.82    2.20   0
  15  13   7   -0.00    1.71   0
  15  15   5   -0.19    1.72   0
  15  15   6    1.45    2.39   0
 -19   3  11   -1.02    2.44   0
 -19   3  12    0.27    1.80   0
 -19   5   6    1.58    2.12   0
 -19   7   3   -0.30    1.68   0
 -18   2  10    0.78    2.47   0
 -18   4   6    1.91    1.71   0
 -17   3   5    2.01    2.09   0
 -17   5   2    0.50    1.67   0
 -17   7  -1    2.45    2.22   0
 -17   9  -3    0.00    2.17   0
 -16   0  11   -0.25    2.73   0
 -16   0  12   16.08    2.30   0
 -16   2   5    1.46    2.17   0
 -15  -1  12    1.67    2.51   0
 -15  -1  13    6.21    2.02   0
 -15   1   6   12.53    2.09   0
 -15   7  -4    1.21    2.16   0
 -14  -2  14    2.28    1.88   0
 -14   2   2   26.67    2.25   0
 -14   6  -4    1.52    2.05   0
 -14   8  -6   -1.21    2.39   0
 -14  12  -9   -2.00    2.12   0
 -13  -3  16    2.13    2.15   0
 -13  -3  18    4.50    1.75   0
 -13  -3  26    0.84    1.89   0
 -13  -3  27    1.13    1.90   0
 -13  -1   8    5.58    1.92   0
 -13   3  -1   11.08    2.10   0
 -13   5  -4   -0.66    2.34   0
 -13  15 -11   -0.25    2.25   0
 -12  -2   9   18.87    2.62   0
 -12   6  -6    1.36    2.45   0
 -12   8  -8    2.56    2.17   0
 -11  -3  11    6.23    2.49   0
 -11   3  -3    0.10    1.80   0
 -11  17 -13    1.61    2.50   0
 -10  -4  15   21.79    2.19   0
 -10  -4  29   -0.49    2.52   0
 -10  -4  30   -1.29    2.05   0
 -10  -2   6   33.34    2.90   0
 -10   4  -5  137.94    3.34   0
  -9   5  -7    4.06    2.72   0
  -9   7  -9   44.86    2.92   0
  -8  -4  12   54.06    2.55   0
  -8  -4  32    1.82    2.08   0
  -8  -4  32    0.14    1.17   0
  -8   0   0   64.29    2.83   0
  -7  -5  17    5.57    2.58   0
  -7  -5  18    2.42    2.68   0
  -7  -5  19   29.39    2.43   0
  -7  -5  25   -0.12    1.85   0
  -7  -5  26    1.37    2.81   0
  -7  -5  27    1.79    2.45   0
  -7  -3   7    9.52    2.28   0
  -6  -4  10   52.14    3.49   0
  -6  20 -15    0.07    2.58   0
  -5  -5  16    1.26    2.63   0
  -5  -5  27    1.35    1.95   0
  -5  -5  28   -0.50    2.67   0
  -5  -1   1   12.34    2.88   0
  -4  -4  10   21.75    2.54   0
  -3  -5  16   12.63    2.61   0
  -3  -5  27    0.40    2.53   0
  -3  -1   1   23.09    5.54   0
  -3  17 -15    2.28    1.91   0
  -2  18 -15    0.25    1.71   0
  -1  -5  20   -0.01    2.64   0
  -1  -5  21    2.48    2.36   0
  -1  -5  22    2.93    2.32   0
  -1  -5  23    5.89    2.76   0
  -1  19 -15    1.96    1.72   0
  -1  21 -15    0.43    1.13   0
  -1  21 -15   -0.06    0.80   0
   1  -3   9    5.76    5.54   0
   2  12 -12   -2.07    2.49   0
   2  14 -13    0.53    1.68   0
   2  20 -14    2.11    1.81   0
   3  -3  13    4.47    4.74   0
   3  -1   5   13.20    3.89   0
   3   3  -3  575.78    8.36   0
   3  11 -11   18.60    2.24   0
   3  13 -12    8.12    2.50   0
   4   6  -6    3.96    3.11   0
   4   8  -8  126.84    4.06   0
   5   3  -1    0.61    2.98   0
   5   5  -4    0.80    2.46   0
   5   9  -8    2.53    2.82   0
   5  19 -12    0.63    2.16   0
   5  21 -12    0.01    1.40   0
   5  21 -12   -0.87    0.98   0
   6  -2  19    7.23    2.57   0
   6  -2  20   -0.29    2.63   0
   6  -2  21    4.39    2.91   0
   6  -2  22    5.76    2.95   0
   6  -2  23    6.09    2.98   0
   6   6  -4   21.78    3.29   0
   6   8  -6    0.63    2.77   0
   6  10  -8   -0.07    1.78   0
   6  12  -9    4.65    2.66   0
   6  14 -10   -0.26    2.37   0
   7  -1  15    7.15    1.90   0
   7  -1  26   11.94    2.95   0
   7   3   2   88.88    3.83   0
   7   7  -4   47.13    2.54   0
   7   9  -6    0.92    1.91   0
   7  17 -10   -1.76    1.84   0
   7  21 -10   -0.02    2.30   0
   8   0  14   14.40    2.40   0
   8   2   6   86.09    2.87   0
   8   4   2   97.74    3.55   0
   8  12  -7    9.81    1.93   0
   8  14  -8   12.79    1.84   0
   8  18  -9   -2.10    2.07   0
   8  20  -9    1.59    2.43   0
   9   1  13   12.00    1.74   0
   9   1  28    1.47    2.30   0
   9   5   2    0.09    1.92   0
   9   7  -1   10.71    1.90   0
   9   9  -3   -0.61    2.38   0
   9  11  -5   34.01    2.16   0
   9  13  -6   10.16    2.57   0
   9  15  -7   -0.05    1.91   0
   9  19  -8   -0.41    1.57   0
  10   2  13   14.51    1.80   0
  10   2  14    1.01    2.13   0
  10   2  28    0.68    1.83   0
  10   4   7   -1.56    2.40   0
  10   8   0    4.12    2.44   0
  10  14  -5    3.57    2.25   0
  10  16  -6    6.15    1.66   0
  11   3  14    1.12    1.66   0
  11   3  15    4.42    2.17   0
  11   3  26    1.63    2.17   0
  11   3  27   -0.83    2.01   0
  11   5   7    5.97    1.86   0
  11   9   1    6.12    2.35   0
  11  13  -3    6.60    1.57   0
  11  15  -4    3.25    1.70   0
  12   4  16   13.55    1.84   0
  12   4  17    9.64    2.03   0
  12   4  18    1.78    2.11   0
  12   4  19    2.50    2.09   0
  12   4  20   12.10    2.40   0
  12   4  21    3.11    2.22   0
  12   4  22    2.47    2.06   0
  12   4  23    3.56    2.14   0
  12   4  24    1.11    1.83   0
  12   4  25   -0.23    1.01   0
  12   4  25   -0.24    1.01   0
  12   6   9   -0.64    2.53   0
  12   8   5    7.17    2.36   0
  12  10   2    8.63    2.21   0
  12  12   0   14.62    2.19   0
  12  16  -2   -1.24    2.19   0
  12  18  -3    1.49    1.54   0
  13   7  10   -1.50    1.71   0
  13   7  11    5.61    2.32   0
  13   9   6    3.29    1.70   0
  13  11   4   -0.82    2.33   0
  13  13   2   -0.21    2.57   0
  13  15   0   12.23    2.01   0
  13  17   0    0.58    2.21   0
  14   8  13    2.10    1.66   0
  14   8  14    1.28    2.07   0
  14   8  15   -2.12    2.18   0
  14  10   8    1.90    1.70   0
  14  12   6   12.82    2.62   0
  14  14   4   -1.45    2.04   0
  14  16   3    5.80    2.36   0
  15  11  12    0.22    1.57   0
  15  11  13    4.96    2.19   0
  15  13   8    0.18    1.72   0
  15  13   9    4.52    2.07   0
  15  15   7    0.62    1.95   0
 -19   3   9   -1.85    2.26   0
 -19   3  10    0.66    1.87   0
 -19   5   5   -2.62    2.15   0
 -19   7   2    1.10    2.27   0
 -18   0  17    0.21    2.13   0
 -18   2   9   -4.14    2.64   0
 -18   4   5    1.09    1.62   0
 -18   8  -1   -0.06    1.85   0
 -18  10  -3    0.29    2.32   0
 -17  -1  18   -0.59    2.23   0
 -17  -1  19    1.79    2.57   0
 -17  -1  20   -2.37    2.60   0
 -17   1   9    1.10    2.67   0
 -17   1  10    2.57    1.91   0
 -17   3   4    2.72    2.20   0
 -17   5   1    3.22    2.28   0
 -17  11  -5    0.31    1.07   0
 -17  11  -5    1.36    1.20   0
 -16  -2  22    2.14    2.07   0
 -16   0  10    1.83    1.85   0
 -16   4   1   -1.33    1.48   0
 -16   6  -2    3.39    2.37   0
 -16   8  -4    2.20    1.67   0
 -16  12  -7    0.35    2.53   0
 -15  -1  11    0.40    1.90   0
 -15   1   5    3.38    1.70   0
 -15   3   1    1.31    1.80   0
 -15   5  -2    6.16    2.36   0
 -15   9  -6    0.36    1.85   0
 -14  -2  13   -0.05    1.74   0
 -14   0   6  131.12    3.18   0
 -14   4  -2   -1.12    2.50   0
 -14  10  -8    1.44    2.61   0
 -14  14 -10    0.09    2.16   0
 -13  -3  14   -0.67    2.36   0
 -13  -3  15    5.74    1.73   0
 -13  -1   7   11.27    1.91   0
 -13   1   2   -1.70    1.92   0
 -13   9  -8    2.72    1.79   0
 -12  -4  18   -1.13    2.14   0
 -12  -4  19   -1.86    2.27   0
 -12  -4  20    0.81    2.33   0
 -12  -4  21    0.66    1.80   0
 -12  -4  22    1.78    1.80   0
 -12  -4  23   -1.15    1.78   0
 -12  -4  24   -3.03    2.43   0
 -12  -4  25    6.03    2.42   0
 -12  -4  26    1.80    2.29   0
 -12  -2   8   25.36    2.78   0
 -12   0   3   -0.36    1.66   0
 -12   2  -1    2.87    1.81   0
 -12   4  -4   -2.76    2.66   0
 -11  -3  10    8.71    2.62   0
 -11  -1   4    0.96    1.78   0
 -11   1   0   12.52    2.18   0
 -11   5  -6    1.40    2.67   0
 -11   7  -8    2.44    2.42   0
 -11  13 -12    0.43    2.22   0
 -10  -4  13    1.27    2.40   0
 -10  -4  14   -0.13    1.97   0
 -10   0   1   -1.93    1.95   0
 -10  10 -11    0.21    2.36   0
 -10  12 -12   13.60    2.61   0
  -9  -5  19   -2.52    2.07   0
  -9  -5  21   -2.21    2.29   0
  -9  -5  22    1.39    2.28   0
  -9  -5  23   -1.23    2.25   0
  -9  -5  24    0.01    2.47   0
  -9  -3   8   46.71    2.43   0
  -9  -1   2   48.83    3.10   0
  -9  11 -12    3.07    3.29   0
  -9  13 -13    7.95    2.56   0
  -8  -4  11   58.76    2.53   0
  -8  -2   4   15.60    3.35   0
  -7  -5  16    2.08    1.87   0
  -7  -5  28    1.02    2.58   0
  -7   5  -8    9.39    2.34   0
  -6   0  -1    0.72    2.76   0
  -6   4  -7   49.09    3.42   0
  -5  -5  15    6.28    2.02   0
  -5  -5  29   -1.38    2.70   0
  -5   1  -3  339.60    6.56   0
  -5   3  -6   32.14    3.73   0
  -4  -4  34   -0.63    2.12   0
  -4  -4  34    0.48    1.23   0
  -4  -2   3  101.02    5.07   0
  -3  -5  15    0.34    2.56   0
  -3  -5  28    1.12    2.57   0
  -3  -3   6  150.36    5.34   0
  -3  21 -15    0.41    1.86   0
  -2  -4  10    1.14    3.10   0
  -2  -4  33    0.29    2.33   0
  -2  20 -15    0.08    1.73   0
  -1  -5  18    0.13    2.51   0
  -1  -5  19    2.18    2.18   0
  -1  -5  24    0.46    2.42   0
  -1  -5  25    0.97    2.81   0
  -1  -3   7    5.10    3.93   0
   0  -4  31   -0.64    2.72   0
   1  -3  34    0.16    3.17   0
   2  -4  17    3.46    5.53   0
   2  -4  26    0.65    4.56   0
   2   4  -5   81.14    4.75   0
   3  17 -13    5.32    1.64   0
   3  19 -13   -2.20    2.14   0
   3  21 -13    0.08    2.21   0
   4   0   4    5.45    3.71   0
   4  16 -12    1.21    2.53   0
   5   1   3  356.48    5.76   0
   5   7  -6    7.14    2.13   0
   5  11  -9   -0.34    2.64   0
   5  15 -11    2.30    2.20   0
   6   4  -1   21.64    2.63   0
   6  20 -11    1.85    1.61   0
   7  -1  16    4.29    1.87   0
   7  -1  25   -0.44    2.55   0
   7   1   7   38.17    2.53   0
   7   5  -1   10.06    2.31   0
   7  11  -7   14.92    2.53   0
   7  15  -9   11.96    2.17   0
   7  19 -10   -0.29    1.62   0
   8   0  15   -0.80    2.12   0
   8   0  27    1.31    1.99   0
   8   2   7   -0.78    2.84   0
   8   6  -1   27.05    2.24   0
   8   8  -3    4.27    2.65   0
   8  10  -5    2.75    2.38   0
   8  16  -8    1.23    2.19   0
   9   1  14   63.16    2.46   0
   9   1  15    1.28    2.06   0
   9   1  27    0.61    2.16   0
   9   3   7    1.57    2.63   0
   9  17  -7    0.41    2.24   0
  10   2  15   29.65    2.40   0
  10   2  16    0.26    2.04   0
  10   2  26    3.16    2.42   0
  10   2  27   -0.52    1.69   0
  10   6   3   13.52    1.83   0
  10  10  -2   31.82    2.11   0
  10  18  -6    1.06    1.65   0
  10  20  -6   -0.06    1.10   0
  10  20  -6   -0.70    1.03   0
  11   3  16   22.93    1.79   0
  11   3  17    7.78    2.00   0
  11   3  18    1.67    1.99   0
  11   3  23   -0.44    2.04   0
  11   3  24    4.69    2.20   0
  11   3  25    5.61    2.02   0
  11   5   8    1.94    1.88   0
  11   7   4   20.94    2.00   0
  11  11  -1   20.24    1.92   0
  11  13  -2    5.90    2.32   0
  11  15  -3   -0.67    2.20   0
  11  17  -4    1.52    1.63   0
  11  19  -4   -1.07    2.07   0
  12   6  10    2.35    2.48   0
  12   8   6   -0.70    2.13   0
  12  12   1   -6.21    2.39   0
  12  18  -2    0.91    1.87   0
  13   7  12   -0.06    1.58   0
  13   7  13   -0.78    2.27   0
  13   9   8    0.40    2.18   0
  13  11   5    1.24    2.32   0
  13  13   3    3.00    2.43   0
  13  15   1    2.57    1.82   0
  14   8  16   -0.02    1.62   0
  14   8  18    0.02    2.38   0
  14   8  19    0.38    2.33   0
  14   8  20   -1.42    2.35   0
  14   8  21    1.30    2.36   0
  14  10  10    4.29    1.67   0
  14  12   7    1.74    1.53   0
  14  14   5    2.61    1.61   0
  14  16   4   -0.75    1.99   0
  15  11  14    1.25    1.55   0
  15  11  15   -0.98    1.87   0
  15  11  16    1.06    2.14   0
  15  13  11    3.35    2.16   0
  15  15   8    2.35    1.23   0
 -19   3   8   -0.13    2.36   0
 -19   5   4    1.69    2.22   0
 -19   7   1   -0.05    2.00   0
 -18   0  14    2.43    2.18   0
 -18   0  15    2.12    2.43   0
 -18   0  16   -0.15    1.89   0
 -18   2   8    1.57    1.87   0
 -18   4   4    0.90    1.73   0
 -18   6   1    2.02    1.64   0
 -18   8  -2   -0.84    2.18   0
 -17  -1  15   -1.64    2.34   0
 -17  -1  16    0.21    2.00   0
 -17  -1  17    0.88    1.77   0
 -17   1   8    3.75    2.56   0
 -17   5   0   -0.04    2.07   0
 -17   7  -2    1.98    1.62   0
 -17   9  -4    0.26    1.61   0
 -16  -2  17   -1.33    2.48   0
 -16  -2  18   -2.95    1.71   0
 -16  -2  19    2.19    1.86   0
 -16  -2  20    0.46    1.77   0
 -16  -2  21   -1.83    1.80   0
 -16   0   8   11.74    2.38   0
 -16   0   9    1.35    1.86   0
 -16   4   0   -0.78    2.31   0
 -16  10  -6    1.64    1.68   0
 -15  -3  21    0.74    2.11   0
 -15  -3  22   -1.25    2.03   0
 -15  -3  24    2.83    1.95   0
 -15  -1   9   -2.74    2.64   0
 -15  -1  10   -2.78    1.86   0
 -15   1   4   -3.10    2.44   0
 -15   3   0    7.73    2.24   0
 -15   7  -5    5.19    2.19   0
 -15  11  -8    0.79    2.53   0
 -15  13  -9    1.09    2.64   0
 -14   0   5    0.94    1.91   0
 -14   6  -5    3.51    2.01   0
 -13  -1   6    1.17    1.85   0
 -12  -4  16    0.47    2.35   0
 -12  -4  17    2.24    1.80   0
 -12  -4  27    1.19    1.94   0
 -12  -4  28   -0.01    1.80   0
 -12  -2   7    1.21    2.51   0
 -12   0   2  123.68    3.36   0
 -12  10 -10   13.85    2.35   0
 -12  12 -11    2.21    2.21   0
 -11  -3   9    1.82    2.60   0
 -11   3  -4    3.76    2.35   0
 -11   9 -10    4.16    2.53   0
 -10   2  -3   18.62    2.18   0
 -10   6  -8    5.76    2.71   0
 -10  14 -13   -0.65    2.15   0
  -9  -5  16    3.40    2.40   0
  -9  -5  17    2.46    2.46   0
  -9  -5  18   -0.98    1.75   0
  -9  -5  26    1.08    1.88   0
  -9  -5  27    0.80    2.56   0
  -9  -5  28    2.43    2.18   0
  -9  -3   7   -1.31    1.99   0
  -9   1  -2   65.19    2.77   0
  -9   3  -5  110.40    3.77   0
  -8  -4  10   63.59    2.48   0
  -8   2  -4   37.39    2.61   0
  -8  12 -13    0.53    2.35   0
  -7  -5  14    1.14    2.56   0
  -7  -5  30   -2.33    2.60   0
  -7  -3   6    2.68    2.36   0
  -7  -1   1    1.44    2.47   0
  -7   7 -10   -0.42    1.99   0
  -6  -4   9   14.02    2.33   0
  -6  -2   3   20.02    2.89   0
  -6   8 -11   22.39    3.20   0
  -5  -5  14    0.13    1.99   0
  -5  -5  30    1.52    2.67   0
  -5  19 -15    0.82    2.24   0
  -4  18 -15    0.43    1.69   0
  -4  20 -15    0.08    1.82   0
  -3  -5  14    9.51    2.69   0
  -3  -5  29    0.68    2.51   0
  -3   1  -3   11.11    3.54   0
  -3  19 -15    0.63    1.60   0
  -2   0  -1    1.82    3.79   0
  -2   6  -9    0.47    4.72   0
  -1  -5  17    0.87    2.67   0
  -1  -5  26   10.27    3.28   0
   0  -4  12   21.23    3.53   0
   0  16 -14    0.83    1.60   0
   2   8  -9   14.93    2.71   0
   2  16 -13    2.63    2.19   0
   4   2   0  208.85    5.07   0
   4  14 -11   15.69    2.82   0
   4  18 -12    0.98    2.28   0
   4  20 -12    0.80    2.15   0
   4  22 -12    0.43    1.09   0
   5  -1   9   34.44    2.49   0
   5  -1  33    0.13    3.39   0
   5  17 -11   -1.20    2.48   0
   6   0   8  218.47    4.24   0
   6   2   3    3.98    3.41   0
   6  10  -7   -3.28    2.55   0
   6  16 -10    0.64    1.61   0
   7  -1  19    1.48    2.63   0
   7  -1  23    0.70    2.98   0
   7  -1  24    0.48    2.25   0
   7   9  -5   28.49    2.68   0
   7  17  -9   -0.20    2.30   0
   7  21  -9   -0.68    2.38   0
   8   0  16    3.02    2.03   0
   8   0  17    1.02    2.06   0
   8   0  25    1.06    2.48   0
   8   0  26   -0.15    2.04   0
   8   4   3   63.04    3.33   0
   8  14  -7    1.90    1.67   0
   8  18  -8   -1.46    2.01   0
   8  20  -8   -0.39    2.36   0
   9   1  16    1.45    2.14   0
   9   1  17    7.71    2.13   0
   9   1  25    0.08    2.27   0
   9   1  26   -0.01    1.99   0
   9   3   8   20.37    2.71   0
   9   5   3   -1.80    1.84   0
   9   9  -2    3.42    2.20   0
   9  13  -5   -1.68    2.22   0
   9  15  -6   -2.17    1.68   0
   9  19  -7    0.18    1.63   0
  10   2  17    0.09    1.78   0
  10   2  18    1.50    1.93   0
  10   2  23   -0.61    2.08   0
  10   2  24   -0.72    2.41   0
  10   2  25   -0.39    2.08   0
  10   4   8    3.33    1.90   0
  10   8   1    0.52    1.79   0
  10  10  -1   -3.07    2.28   0
  10  14  -4   -0.77    1.50   0
  10  16  -5   -1.58    1.52   0
  10  18  -5   -0.47    2.00   0
  10  20  -5    1.90    2.20   0
  11   3  20    1.57    1.58   0
  11   5   9    0.59    1.83   0
  11   9   2    1.49    1.68   0
  11  11   0   -0.45    1.72   0
  11  17  -3    2.06    1.92   0
  12   6  11   -1.44    1.73   0
  12   8   7    1.52    2.44   0
  12  10   4    2.07    2.35   0
  12  12   2    0.60    2.43   0
  12  14   0   -0.73    1.68   0
  12  16  -1    0.80    1.63   0
  12  18  -1    1.26    2.16   0
  13   7  14   -0.93    1.78   0
  13   7  15    1.14    2.28   0
  13   9   9    3.12    2.17   0
  13  11   6    1.42    2.40   0
  13  13   4    2.60    2.49   0
  13  15   2   -1.44    1.71   0
  14  10  12   -2.42    2.01   0
  14  10  13    0.84    2.40   0
  14  12   8   -0.07    1.63   0
  14  12   9    0.54    2.22   0
  14  14   6    1.80    1.79   0
  14  16   5   -1.28    1.58   0
  15  13  12   -0.13    1.57   0
  15  13  13    2.15    1.61   0
 -19   1  12   -1.15    2.28   0
 -19   1  13    2.96    1.84   0
 -19   3   7    0.95    1.66   0
 -19   5   3    0.47    2.27   0
 -18   0  12    2.50    2.07   0
 -18   0  13   -1.13    1.69   0
 -18   4   3   -0.64    1.67   0
 -18   6   0    1.48    1.68   0
 -18  10  -4   -0.21    1.91   0
 -18  10  -4   -0.77    1.08   0
 -17  -1  13   -1.92    2.53   0
 -17  -1  14    2.79    1.77   0
 -17   1   7    1.24    1.76   0
 -17   3   3   -0.52    1.67   0
 -17   7  -3   -0.44    2.02   0
 -17  11  -6    1.45    2.29   0
 -16  -2  14    0.70    2.35   0
 -16  -2  15   -1.19    1.93   0
 -16  -2  16   -0.84    1.82   0
 -16   0   7   -3.48    2.50   0
 -16   2   3   -0.15    1.61   0
 -16   6  -3    1.47    2.27   0
 -16   8  -5    9.58    2.55   0
 -16  12  -8    0.31    2.22   0
 -15  -3  17    1.49    2.39   0
 -15  -3  18   -2.25    1.71   0
 -15  -3  19    4.72    1.82   0
 -15  -3  20    0.16    1.70   0
 -15  -1   8    6.71    2.40   0
 -15   1   3    0.32    2.48   0
 -15   5  -3    1.06    1.60   0
 -15   9  -7   -0.33    2.58   0
 -14  -2   9    3.07    2.33   0
 -14  -2  10    8.88    2.02   0
 -14   0   4    8.85    1.97   0
 -14   2   0    0.15    2.54   0
 -14   4  -3    5.78    2.38   0
 -14   8  -7    2.75    1.89   0
 -13  -3  11   31.57    2.83   0
 -13  -3  12    8.90    1.79   0
 -13  -1   5    5.09    1.92   0
 -13   5  -5    5.41    1.75   0
 -13   7  -7    7.78    1.84   0
 -13  11 -10   -0.03    2.55   0
 -13  13 -11   -0.23    2.02   0
 -12  -4  14   20.73    2.69   0
 -12  -4  15    1.47    1.77   0
 -12  -2   6    4.65    2.53   0
 -12   2  -2    3.77    2.41   0
 -12   6  -7    0.12    2.57   0
 -12  14 -12    3.48    2.22   0
 -11  -5  19    1.55    2.19   0
 -11  -5  20    1.30    2.51   0
 -11  -5  21    2.29    2.42   0
 -11  -5  22   -0.73    2.43   0
 -11  -5  23   -0.19    2.36   0
 -11  -5  24    1.93    2.18   0
 -11  -5  25   -2.91    2.51   0
 -11  -5  26   -0.37    2.19   0
 -11  -3   8    2.01    2.34   0
 -11  -1   3    3.28    1.80   0
 -11   1  -1   52.52    2.39   0
 -11  15 -13    0.40    2.21   0
 -10  -4  11    2.14    1.69   0
 -10  -2   4    7.47    2.54   0
 -10   0   0   32.11    2.19   0
 -10   4  -6    1.00    1.87   0
 -10   8 -10    5.62    2.60   0
  -9  -5  15   17.04    2.78   0
  -9  -5  29   -0.97    1.83   0
  -9  -5  30    2.25    2.05   0
  -9  -3   6   -1.25    2.59   0
  -9   9 -11   11.82    2.19   0
  -8  -4   9   31.26    2.95   0
  -8  -2   3   57.36    3.52   0
  -8   0  -1   -0.24    2.23   0
  -8   4  -7    0.98    2.45   0
  -8   6  -9   30.39    2.53   0
  -8  10 -12   68.04    3.77   0
  -7  -5  13    7.80    2.69   0
  -7  -5  31   -1.38    2.55   0
  -7   1  -3  139.65    3.75   0
  -7   3  -6   71.09    3.45   0
  -6  -4   8   -0.57    2.92   0
  -5  -5  13    5.18    2.15   0
  -5  -5  31   -0.99    2.45   0
  -5  -3   5    0.55    2.71   0
  -3  -5  30   -0.34    2.46   0
  -3   3  -6   50.09    5.70   0
  -2  -4  34   -0.65    2.36   0
  -2  10 -12    5.30    2.76   0
  -2  12 -13    0.86    2.72   0
  -1  -5  27    2.25    2.89   0
   0   8 -10    7.84    2.84   0
   0  18 -14    0.00    1.90   0
   0  20 -14    0.19    1.97   0
   1  -1   3   73.68   10.91   0
   2  -2   7   14.24    6.67   0
   2   6  -7  212.67    5.12   0
   2  18 -13    1.96    2.22   0
   2  20 -13    0.05    2.24   0
   2  22 -13    0.17    0.97   0
   2  22 -13    0.19    1.09   0
   3   9  -9    1.80    2.16   0
   3  15 -12    1.12    1.85   0
   4  -2  11    3.47    3.43   0
   4   4  -3   23.68    2.76   0
   4  12 -10    1.58    1.86   0
   5   5  -3   11.96    3.03   0
   5   9  -7   32.02    2.97   0
   5  21 -11    1.39    1.62   0
   6   6  -3   18.19    2.35   0
   6   8  -5   12.46    2.71   0
   6  12  -8  206.26    4.05   0
   6  14  -9   12.76    1.93   0
   6  18 -10    1.98    1.67   0
   6  20 -10    0.94    1.66   0
   7  -1  20    5.83    2.31   0
   7  -1  21    6.55    2.47   0
   7  -1  22   -0.41    2.35   0
   7   1   8   61.27    2.58   0
   7   3   3  123.64    3.31   0
   7   5   0    1.42    3.11   0
   7  15  -8    5.08    2.40   0
   7  19  -9   -1.18    1.74   0
   8   0  18    8.01    2.26   0
   8   0  19   -0.65    2.22   0
   8   0  22    1.15    2.65   0
   8   0  23   -0.47    2.34   0
   8   0  24    5.17    2.36   0
   8   2   8    2.39    2.58   0
   8   6   0    8.03    2.06   0
   8  10  -4   36.82    2.69   0
   8  16  -7    2.07    2.14   0
   9   1  18    6.96    1.86   0
   9   1  19    1.66    2.08   0
   9   1  20   30.51    2.79   0
   9   1  21    6.58    2.40   0
   9   1  22    1.15    2.39   0
   9   1  23    1.13    2.29   0
   9   1  24    1.37    2.13   0
   9   5   4    5.79    2.72   0
   9   7   1    0.23    2.56   0
   9  11  -3   56.76    2.86   0
   9  17  -6    2.16    1.64   0
   9  19  -6    2.77    2.34   0
   9  21  -6    0.60    1.94   0
  10   2  19    1.99    1.53   0
  10   2  20    1.28    1.48   0
  10   2  21    0.48    1.56   0
  10   2  22    2.39    1.53   0
  10   4   9   62.02    2.38   0
  10   6   5   49.76    2.68   0
  10   8   2    5.34    2.43   0
  10  12  -2    0.58    2.29   0
  10  14  -3   10.32    2.27   0
  10  16  -4    0.60    1.89   0
  11   5  11    4.69    2.59   0
  11   7   6   -0.28    2.35   0
  11   9   3    1.00    2.17   0
  11  11   1   -1.76    2.35   0
  11  13  -1    1.48    1.65   0
  11  15  -2    0.80    1.61   0
  11  19  -3    0.37    1.55   0
  12   6  12    0.30    1.63   0
  12   6  13    3.07    2.34   0
  12   8   8    3.59    2.34   0
  12  14   1    5.29    1.85   0
  12  16   0   -0.71    1.68   0
  12  18   0   -0.85    2.29   0
  13   7  16    1.42    1.59   0
  13   7  17    0.18    1.85   0
  13   7  18    0.56    2.20   0
  13   7  19    6.12    2.35   0
  13   7  20    0.06    2.03   0
  13   7  21    8.68    2.19   0
  13   7  22    0.60    2.10   0
  13   7  23    0.40    2.05   0
  13   7  24    0.24    1.37   0
  13   7  24   -0.23    0.88   0
  13   9  10   -0.05    1.59   0
  13  11   7    2.37    2.06   0
  13  13   5    0.66    2.39   0
  13  17   2   -2.36    1.74   0
  13  17   3   -0.56    2.43   0
  14  10  14   -1.59    1.64   0
  14  10  15    3.65    2.31   0
  14  12  10    0.43    1.64   0
  14  14   8    1.77    2.48   0
  14  16   6    0.05    1.61   0
 -19   1  11    3.66    1.97   0
 -19   3   6    4.92    1.64   0
 -19   5   2    1.15    1.93   0
 -19   7   0   -0.15    1.15   0
 -19   7   0    0.63    1.23   0
 -18   0  11    3.34    2.42   0
 -18   4   2   -1.60    2.32   0
 -18   6  -1    0.41    1.80   0
 -18   8  -3    0.21    2.49   0
 -17  -1  12    2.37    1.89   0
 -17   1   6    1.93    1.69   0
 -17   3   2    1.71    1.70   0
 -17   5  -1    0.05    1.59   0
 -17   9  -5    0.78    1.83   0
 -16  -2  13   -0.71    1.93   0
 -16   0   6    1.64    2.58   0
 -16   2   2    6.14    2.41   0
 -16   4  -1    1.35    1.69   0
 -16  10  -7    2.29    2.43   0
 -15  -3  15   -0.22    1.63   0
 -15   3  -1   23.66    2.65   0
 -14  -4  18   -2.74    2.34   0
 -14  -4  19    1.33    2.47   0
 -14  -4  20    2.11    1.89   0
 -14  -4  21   -0.61    1.76   0
 -14  -4  22    0.04    1.77   0
 -14  -4  23   -0.73    1.71   0
 -14  -4  24    2.18    1.80   0
 -14  -4  25    1.90    1.67   0
 -14  -2   8    2.64    2.42   0
 -14   0   3   -0.31    2.42   0
 -14  10  -9    2.36    2.26   0
 -14  12 -10    0.09    2.46   0
 -13  -3  10   13.72    2.69   0
 -13  -1   4   22.57    2.44   0
 -13   1   0    1.09    2.48   0
 -13   3  -3   17.27    2.07   0
 -13   9  -9    2.45    2.45   0
 -12  -4  12    3.03    2.33   0
 -12  -4  13   15.36    1.91   0
 -12   0   1    3.02    1.71   0
 -12   8  -9   13.26    2.77   0
 -11  -5  17    2.37    2.49   0
 -11  -5  18    4.61    1.78   0
 -11  -5  27   -1.43    1.92   0
 -11  -5  28   -0.76    2.58   0
 -11  -1   2   60.51    3.01   0
 -11   5  -7    5.49    2.59   0
 -10  -4  10    0.47    1.65   0
 -10  18 -14   -0.11    2.91   0
  -9  -5  13    2.63    2.26   0
  -9  -5  14    0.11    1.93   0
  -9  -5  31    1.12    2.41   0
  -9  -1   1   -0.40    2.09   0
  -8  -4   8   14.01    2.77   0
  -7  -5  12    0.23    2.59   0
  -7  -5  32   -1.09    1.86   0
  -7  -3   5  277.05    4.39   0
  -7  -1   0   14.46    3.55   0
  -6  -6  20    0.04    2.64   0
  -6  -6  21   -3.71    2.38   0
  -6  -6  22    5.96    2.61   0
  -6  -6  23    5.33    2.83   0
  -6  -6  24    0.35    2.55   0
  -6  -6  25    1.23    2.33   0
  -6  -2   2  259.47    5.25   0
  -6   2  -5   -0.08    2.77   0
  -5  -5  12    4.40    2.23   0
  -5  -5  32    1.00    2.43   0
  -5  -1   0   22.91    2.99   0
  -4  -4   8    2.98    2.15   0
  -4  14 -14    4.04    2.31   0
  -3  -5  13   87.30    3.60   0
  -3  -5  31   -1.35    2.33   0
  -2  -4   9    1.09    3.23   0
  -2  -2   3  336.18    8.31   0
  -1  -5  16   18.71    2.77   0
  -1  -5  28   -0.68    2.57   0
  -1   9 -11    1.73    2.31   0
  -1  13 -13    8.96    2.59   0
  -1  17 -14   -0.04    1.62   0
  -1  21 -14    0.61    1.84   0
   0  -4  32    0.62    2.80   0
   0  14 -13   11.92    2.61   0
   2  10 -10    0.45    2.60   0
   2  14 -12    4.76    2.24   0
   3   1   1 1859.51   14.97   0
   3   7  -7   18.17    2.85   0
   3  11 -10   14.42    2.24   0
   3  13 -11    5.25    1.94   0
   3  17 -12    2.60    2.33   0
   3  21 -12    3.21    1.99   0
   4   6  -5  250.65    4.99   0
   4   8  -7   -0.08    2.75   0
   4  16 -11   12.38    2.41   0
   4  22 -11    2.45    2.19   0
   5  -1  10   11.05    2.63   0
   5   1   4  108.41    3.77   0
   5   3   0   89.98    3.68   0
   5   7  -5   31.56    3.09   0
   5  11  -8    3.65    2.59   0
   5  15 -10    0.30    1.82   0
   6   0   9    1.24    1.91   0
   6   4   0   68.72    3.00   0
   6  16  -9    2.29    2.22   0
   7  11  -6    0.49    1.77   0
   7  13  -7   27.22    2.12   0
   7  17  -8   -0.08    2.32   0
   7  21  -8   -0.64    2.42   0
   8   0  20    2.91    2.10   0
   8   0  21    1.00    1.97   0
   8   2   9   23.56    2.89   0
   8   4   4   22.37    3.02   0
   8   8  -2   42.10    2.20   0
   8  12  -5    3.61    1.85   0
   8  14  -6    2.73    1.69   0
   8  18  -7    0.10    1.73   0
   8  20  -7    0.09    1.59   0
   9   3   9    2.20    1.90   0
   9   9  -1    4.97    1.69   0
   9  13  -4    0.06    1.65   0
   9  15  -5    2.44    1.54   0
  10   4  10    7.02    1.85   0
  10  10   0   19.35    1.87   0
  10  18  -4   -0.47    1.65   0
  10  20  -4   -0.69    1.56   0
  11   5  12    2.79    2.36   0
  11   7   7    5.95    2.34   0
  11  15  -1    1.15    1.63   0
  11  17  -2    4.07    1.62   0
  11  19  -2    3.80    1.58   0
  12   6  14    0.69    1.67   0
  12   6  15   13.05    2.45   0
  12   6  26    1.89    1.99   0
  12   8   9   14.78    2.46   0
  12  10   6    5.21    2.50   0
  12  12   3   30.28    2.07   0
  12  14   2   11.26    2.23   0
  12  16   1   -0.91    1.83   0
  12  18   1    1.21    2.20   0
  13   9  11    0.07    1.61   0
  13   9  12    0.21    1.93   0
  13  11   8    4.92    1.67   0
  13  17   4    0.61    2.44   0
  14  10  16   -0.86    1.66   0
  14  10  17    1.04    1.67   0
  14  10  18   -0.65    1.65   0
  14  10  18    1.11    1.14   0
  14  10  19    0.61    1.98   0
  14  10  20    1.89    1.82   0
  14  12  11    1.06    1.65   0
  14  12  12    0.89    1.95   0
  14  14   9    0.04    1.67   0
  14  14  10    0.61    2.22   0
  14  16   7   -0.13    1.77   0
  14  16   8    3.23    1.99   0
 -19   1   9    2.04    2.09   0
 -19   1  10   -0.36    1.87   0
 -19   3   5   -0.03    1.61   0
 -19   7  -1    2.95    2.46   0
 -18   0   9    1.17    2.33   0
 -18   0  10    3.39    2.04   0
 -18   2   5   -0.27    1.77   0
 -18   4   1   -2.89    2.36   0
 -18  10  -5    0.95    1.98   0
 -18  10  -5    1.02    1.15   0
 -17  -1  10   -3.29    2.53   0
 -17  -1  11    0.05    1.87   0
 -17   1   5   -0.41    1.77   0
 -17   7  -4    0.13    2.22   0
 -17  11  -7    4.82    2.59   0
 -16  -2  11    1.96    2.66   0
 -16  -2  12    2.11    2.01   0
 -16   0   5   -0.59    2.21   0
 -16   2   1    1.80    2.16   0
 -16   6  -4    0.87    1.44   0
 -15  -3  13    1.53    2.43   0
 -15  -3  14   -0.39    1.78   0
 -15  -1   6   14.16    2.58   0
 -15   1   2    9.15    1.85   0
 -15   5  -4    9.64    1.67   0
 -15   7  -6   -0.39    1.65   0
 -15  11  -9    0.74    2.57   0
 -15  13 -10    2.97    2.40   0
 -14  -4  15    1.21    2.16   0
 -14  -4  16    1.50    1.74   0
 -14  -4  17   -0.16    1.81   0
 -14  -2   7   20.53    2.72   0
 -14   2  -1   47.83    2.42   0
 -14   4  -4   23.36    2.56   0
 -14   6  -6   -0.90    1.72   0
 -14   8  -8    1.24    2.25   0
 -14  14 -11    1.16    2.29   0
 -13  -5  23   -0.75    2.12   0
 -13  -5  24    2.60    2.08   0
 -13  -3   9   39.53    2.21   0
 -13  15 -12    1.81    2.25   0
 -12  -4  11    1.35    2.47   0
 -12  -2   5   29.41    2.16   0
 -12   2  -3    2.16    2.62   0
 -11  -5  15    3.89    1.93   0
 -11  -5  16    1.79    1.80   0
 -11  -5  29   -0.32    1.32   0
 -11  -5  29   -0.90    1.21   0
 -11   1  -2   26.93    2.15   0
 -11   3  -5   -0.36    2.65   0
 -11   7  -9    6.39    2.47   0
 -10  -4   9    0.21    1.73   0
 -10  -2   3    0.37    2.69   0
 -10   0  -1   -0.19    2.59   0
 -10   2  -4   11.65    2.04   0
  -9  -5  12    4.77    2.53   0
  -9  -3   5    2.13    2.82   0
  -9   1  -3    2.20    2.12   0
  -9   5  -8    0.17    1.81   0
  -8  -6  18   -0.12    2.31   0
  -8  -6  19    0.95    2.51   0
  -8  -6  20   11.31    1.85   0
  -8  -6  21    1.12    1.81   0
  -8  -6  22    1.32    1.70   0
  -8  -6  23    2.08    1.76   0
  -8  -6  24   -0.37    1.85   0
  -8  -6  25    2.86    2.67   0
  -8  -6  26    1.25    2.62   0
  -8  -6  27    0.51    2.24   0
  -8  -2   2    1.43    3.09   0
  -7  -5  11    1.48    2.81   0
  -6  -6  17    4.39    2.40   0
  -6  -6  18   -0.28    2.63   0
  -6  -6  19   -0.65    1.90   0
  -6  -6  26    0.88    2.53   0
  -6  -4   7  188.55    4.64   0
  -6   0  -2  133.96    3.83   0
  -5  -5  11    5.01    3.03   0
  -5  -5  33   -0.19    2.58   0
  -4  -6  19    5.86    2.78   0
  -4  -6  20    2.36    2.42   0
  -4  -6  21    0.40    2.47   0
  -4  -6  22    8.46    2.67   0
  -4  -6  23    0.72    2.58   0
  -4  -6  24    1.02    2.38   0
  -4  -6  25    1.50    2.59   0
  -4  -2   2   11.72    3.21   0
  -4   0  -2    0.94    4.15   0
  -4   2  -5  119.35    5.31   0
  -3  -5  12    3.84    2.48   0
  -3  -5  32    1.04    2.69   0
  -3  -3   5   37.20    3.35   0
  -2  16 -14    1.11    1.80   0
  -1  -5  15   47.96    3.76   0
  -1  11 -12    5.50    2.62   0
  -1  19 -14    2.31    1.81   0
   0   6  -8    6.49    3.26   0
   0  10 -11    3.37    2.61   0
   1  19 -13    4.68    2.22   0
   1  21 -13    2.60    2.06   0
   2   0   2    1.97    4.47   0
   2  12 -11    2.41    2.35   0
   4  18 -11   11.70    2.43   0
   4  20 -11    1.13    1.95   0
   5  13  -9   13.07    1.97   0
   5  17 -10    5.99    1.79   0
   5  19 -10   -2.31    2.33   0
   5  21 -10   -1.80    1.53   0
   6   0  33   -0.84    2.52   0
   6   2   4    4.41    2.54   0
   6  10  -6   37.17    2.69   0
   6  14  -8   10.18    2.33   0
   6  18  -9    0.52    1.93   0
   6  20  -9    1.28    1.95   0
   7   1   9    3.75    1.77   0
   7   3   4   62.11    2.87   0
   7   7  -2   -0.43    1.99   0
   7   9  -4    4.39    1.83   0
   7  15  -7    1.76    2.22   0
   7  19  -8    0.09    1.65   0
   8   6   1   11.54    2.06   0
   8  10  -3   27.58    2.46   0
   9   3  10    7.84    2.29   0
   9   5   5    2.27    1.77   0
   9   7   2    7.36    2.41   0
   9  11  -2    1.36    2.38   0
   9  15  -4    3.54    2.26   0
   9  19  -5    0.88    1.63   0
   9  21  -5    1.11    1.50   0
  10   4  11   34.26    2.28   0
  10   6   6    9.34    1.77   0
  10   8   3    1.78    1.85   0
  10  10   1   32.16    2.56   0
  10  12  -1   15.70    1.82   0
  10  14  -2    5.20    1.68   0
  10  16  -3   -2.59    1.53   0
  10  18  -3    3.99    2.04   0
  10  20  -3    0.80    1.95   0
  11   5  13   23.17    2.01   0
  11   5  14   -2.29    2.26   0
  11   9   5   15.89    2.40   0
  11  11   2   -0.49    1.64   0
  11  13   1   -0.92    2.27   0
  11  15   0   -1.82    2.29   0
  11  17  -1   -0.31    1.56   0
  11  19  -1    1.28    1.58   0
  12   6  16    1.49    1.72   0
  12   6  17    2.58    1.59   0
  12   6  18    0.57    2.00   0
  12   6  19    5.28    2.14   0
  12   6  20   -0.59    1.98   0
  12   6  21    2.08    1.98   0
  12   6  22    0.73    2.06   0
  12   6  23   -0.02    2.10   0
  12   6  24    1.09    1.99   0
  12   6  25    0.65    1.39   0
  12   8  10    4.36    1.85   0
  12  10   7   10.71    2.28   0
  12  12   4    1.37    1.75   0
  12  14   3    2.72    2.16   0
  12  16   2    4.49    1.87   0
  12  18   2   -0.45    2.28   0
  13   9  13    2.92    1.71   0
  13   9  14    1.53    2.02   0
  13  11   9   -0.07    1.61   0
  13  11  10   -0.18    2.20   0
  13  13   7   -1.00    1.82   0
  13  15   5    4.63    1.72   0
  13  15   6   -0.42    2.26   0
  13  17   5    0.69    1.91   0
  14  12  13    1.92    1.70   0
  14  12  14   -1.56    1.60   0
  14  14  11    0.02    1.67   0
  14  14  12    5.45    2.33   0
 -19   1   8    2.03    2.41   0
 -19   3   4   -2.15    1.61   0
 -19   5   1    1.40    1.76   0
 -18  -2  16    3.72    2.66   0
 -18  -2  17    1.36    1.67   0
 -18   0   8    9.15    2.95   0
 -18   2   4    5.40    1.87   0
 -18   6  -2    0.91    2.53   0
 -18   8  -4    0.69    2.47   0
 -17  -3  18    1.22    2.52   0
 -17  -3  19    3.19    1.81   0
 -17  -1   9   -0.08    1.87   0
 -17   1   4    2.46    1.85   0
 -17   5  -2    0.11    1.62   0
 -17   9  -6   -0.64    2.40   0
 -16  -2  10    0.05    1.89   0
 -16   4  -2    2.01    1.78   0
 -16  12  -9    0.20    2.06   0
 -15  -3  12    1.47    1.85   0
 -15  -1   5    1.98    2.52   0
 -15   1   1   -0.10    2.50   0
 -15   3  -2    0.45    1.74   0
 -15   9  -8    4.22    2.61   0
 -14  -4  14    1.92    1.79   0
 -14  -2   6   14.15    2.45   0
 -14   0   2   19.34    1.98   0
 -13  -5  17   -0.54    2.12   0
 -13  -5  19    3.03    1.70   0
 -13  -5  20   -0.05    1.77   0
 -13  -5  25    0.33    1.82   0
 -13  -5  26   -0.04    1.78   0
 -13  -3   8    8.09    1.84   0
 -13  -1   3   13.21    1.94   0
 -13   1  -1    3.55    1.91   0
 -13   3  -4   29.04    2.67   0
 -13   7  -8    0.74    1.81   0
 -12  -4  10    3.05    2.49   0
 -12  -2   4   42.14    2.90   0
 -12   0   0   23.51    2.18   0
 -12   4  -6   50.37    2.86   0
 -12  16 -13    0.51    2.16   0
 -11  -5  13    3.05    2.51   0
 -11  -5  14    3.33    1.85   0
 -11  -3   6   19.73    1.93   0
 -11  -1   1    4.14    2.54   0
 -10  -6  19   14.33    2.67   0
 -10  -6  20    1.35    2.39   0
 -10  -6  21    2.00    2.43   0
 -10  -6  22   -1.29    1.63   0
 -10  -6  24   -0.52    2.30   0
 -10  -6  25   -0.89    2.34   0
 -10  -6  26   -2.64    2.14   0
 -10  -4   8   54.01    2.96   0
 -10   4  -7   -0.26    2.46   0
  -9  -5  11   12.03    2.69   0
  -9  -1   0    1.88    2.11   0
  -9   3  -6   31.99    2.41   0
  -9   7 -10    7.75    2.01   0
  -9  15 -14    2.08    2.53   0
  -8  -6  16    0.34    2.44   0
  -8  -6  17    1.55    1.76   0
  -8  -6  28    1.30    2.45   0
  -8  -6  29   -0.73    2.17   0
  -8  -4   7    6.33    2.16   0
  -8   0  -2  287.10    4.53   0
  -8   2  -5    6.69    2.22   0
  -8   8 -11   39.04    2.52   0
  -8  14 -14    1.40    3.05   0
  -7  -5  10   11.72    2.70   0
  -7  -3   4  294.78    4.41   0
  -7   1  -4   97.42    4.05   0
  -7  11 -13    0.18    2.48   0
  -6  -6  16    0.86    2.62   0
  -6  -6  28   -1.27    2.67   0
  -6  -6  29   -0.20    2.31   0
  -6  14 -14    8.93    3.86   0
  -5  -3   4   10.68    2.96   0
  -4  -6  17   -1.33    2.42   0
  -4  -6  26   -2.10    2.52   0
  -4  -6  27    1.14    2.24   0
  -4  -4   7   56.15    3.76   0
  -3  -1   0  451.38    8.81   0
  -3  15 -14   -0.01    1.84   0
  -2  20 -14    0.40    2.01   0
  -1  -5  29    1.16    2.28   0
   0  -4  11    3.51    4.01   0
   0  12 -12   12.17    2.31   0
   2  16 -12   -1.98    2.57   0
   2  20 -12   -0.57    2.13   0
   2  22 -12    3.01    1.28   0
   3   3  -2  140.14    4.76   0
   3  15 -11   -0.73    2.40   0
   4  -2  31   -0.02    3.65   0
   4   0   5    0.77    2.03   0
   4  10  -8   17.51    2.19   0
   4  12  -9   30.41    2.90   0
   5  -1  32    0.85    3.20   0
   5   9  -6    3.18    2.74   0
   5  15  -9   23.06    2.74   0
   6   0  10    2.62    1.98   0
   6   6  -2   34.65    2.59   0
   6   8  -4   13.11    2.59   0
   6  12  -7    0.15    1.71   0
   7   1  10   57.87    2.94   0
   7   5   1   43.17    2.49   0
   7  13  -6    0.86    2.23   0
   7  17  -7    0.86    2.26   0
   7  21  -7   -0.10    2.33   0
   8   2  10    0.26    1.71   0
   8   4   5   50.70    2.43   0
   8  12  -4    0.25    1.83   0
   8  14  -5    5.84    1.79   0
   8  18  -6    1.45    1.65   0
   8  20  -6    1.54    1.57   0
   9   3  11    0.13    2.43   0
   9   5   6   -0.52    2.48   0
   9   9   0    0.03    1.70   0
   9  13  -3    0.32    1.67   0
   9  17  -4    0.27    1.97   0
   9  19  -4    0.44    2.18   0
   9  21  -4    2.11    1.86   0
  10   4  12   36.11    2.25   0
  10   4  13    1.23    2.50   0
  10   6   7    1.42    1.84   0
  10   8   4   30.44    2.64   0
  10  12   0   88.23    2.97   0
  10  16  -2    0.90    1.56   0
  10  18  -2   -1.22    2.18   0
  10  20  -2    1.50    2.05   0
  11   5  15   12.15    2.11   0
  11   5  16    1.02    2.12   0
  11   5  26   -0.85    2.06   0
  11   5  27   -0.71    1.66   0
  11   7   9    2.69    2.34   0
  11  11   3   -0.47    1.68   0
  11  13   2    1.56    2.29   0
  11  15   1    3.92    2.25   0
  11  17   0   -0.63    1.53   0
  11  19   0    2.40    1.90   0
  12   8  11   -0.72    1.63   0
  12   8  12    2.29    2.30   0
  12  10   8    5.47    2.20   0
  12  12   5    1.79    1.72   0
  12  14   4    6.32    2.23   0
  12  16   3    3.42    2.07   0
  12  18   3    0.57    2.46   0
  13   9  15    0.74    1.74   0
  13   9  16   -0.47    1.65   0
  13   9  17   -0.16    1.97   0
  13   9  18    2.79    2.20   0
  13  11  11   -0.05    1.62   0
  13  13   8   -0.25    1.76   0
  13  13   9    4.83    2.12   0
  13  15   7   -1.28    2.00   0
  13  17   6   -0.29    1.59   0
  14  12  16    0.92    1.54   0
  14  12  17    0.12    1.43   0
  14  14  13    1.47    1.55   0
 -19  -1  13   -0.28    2.48   0
 -19   1   7    1.53    1.76   0
 -19   3   3    1.25    1.57   0
 -19   5   0    1.09    2.31   0
 -19   7  -2    0.61    1.15   0
 -19   7  -2    0.88    1.13   0
 -18  -2  13   -0.23    2.06   0
 -18  -2  14   -2.25    1.79   0
 -18  -2  15    1.10    1.95   0
 -18   0   7    2.09    2.58   0
 -18   2   3    5.20    1.93   0
 -18   4   0   -0.21    1.57   0
 -17  -3  15   -2.36    2.72   0
 -17  -3  16    2.17    1.82   0
 -17  -3  17    0.71    1.70   0
 -17  -1   8    4.23    1.93   0
 -17   1   3    2.22    2.30   0
 -17   3   0   -4.62    1.71   0
 -17   5  -3    1.07    2.11   0
 -17   7  -5   -1.50    2.21   0
 -16  -4  18    1.73    2.40   0
 -16  -4  20    1.12    1.59   0
 -16  -4  21    2.55    1.73   0
 -16  -4  22    0.27    1.18   0
 -16  -2   9    7.93    1.99   0
 -16   0   4    4.39    1.71   0
 -16   2   0    4.38    1.83   0
 -16   4  -3   -0.23    2.09   0
 -16   6  -5    0.39    2.26   0
 -16  10  -8    2.16    1.86   0
 -15  -3  10    2.96    2.51   0
 -15  -1   4   -1.13    2.18   0
 -15   5  -5    5.30    2.21   0
 -15   7  -7    1.20    2.46   0
 -14   0   1   -0.26    2.48   0
 -14   2  -2    8.42    1.97   0
 -14   6  -7    9.70    2.04   0
 -13  -5  15   -0.14    2.31   0
 -13  -5  16   -1.47    1.65   0
 -13  -3   7   16.25    2.00   0
 -13  -1   2    1.38    2.56   0
 -13   9 -10    2.01    2.17   0
 -13  11 -11    0.27    2.12   0
 -12  -4   9   13.31    2.43   0
 -12  10 -11    0.80    2.04   0
 -12  12 -12   -0.08    1.99   0
 -11  -5  12    8.99    1.80   0
 -11  -3   5    3.99    2.46   0
 -11   1  -3    1.42    2.56   0
 -11   9 -11    0.64    1.74   0
 -11  11 -12    6.03    1.94   0
 -10  -6  16    1.05    2.27   0
 -10  -6  17   -4.01    2.37   0
 -10  -6  18   -0.95    1.91   0
 -10  -6  27   -0.53    1.78   0
 -10  -6  28   -0.88    2.62   0
 -10  -6  29    1.11    2.18   0
 -10  -4   7   14.03    2.65   0
 -10  -2   2   40.65    2.32   0
 -10   0  -2   35.38    2.83   0
 -10   6  -9   18.43    2.06   0
 -10  16 -14   -0.13    2.56   0
  -9  -5  10    1.40    2.45   0
  -9  -3   4   63.75    2.60   0
  -8  -6  15   36.00    3.02   0
  -8  -6  30   -1.14    2.55   0
  -8  -4   6    4.01    2.74   0
  -7  -1  -1   13.13    3.29   0
  -6  -6  15    1.64    1.89   0
  -6  -6  30   -0.11    2.72   0
  -6  -4   6   79.75    3.96   0
  -6  -2   1    4.91    3.59   0
  -5  -5  10   35.36    2.67   0
  -5   1  -4  108.09    3.91   0
  -4  -6  16   10.02    2.89   0
  -4  -6  28   -0.26    2.53   0
  -3  -5  11    1.38    2.69   0
  -3  -5  33    0.16    2.34   0
  -3  21 -14    0.04    1.86   0
  -2  18 -14    0.40    1.66   0
  -1  -5  14    3.97    3.09   0
  -1  -5  30    0.86    2.49   0
  -1  -3   6   50.55    4.99   0
   0  -4  33    0.66    3.26   0
   2   8  -8    4.84    2.90   0
   2  18 -12    0.23    1.67   0
   3  -1   6   20.50    4.04   0
   3   9  -8   26.42    2.45   0
   3  13 -10   -1.84    2.50   0
   3  17 -11    1.53    2.66   0
   3  19 -11   -0.03    2.23   0
   3  21 -11    1.13    1.57   0
   4  -2  12  133.65    5.55   0
   4   4  -2   12.52    3.08   0
   4  16 -10   16.08    2.32   0
   4  20 -10   -1.42    2.17   0
   4  22 -10    0.65    1.01   0
   4  22 -10   -0.36    1.07   0
   5  -1  11   12.13    2.68   0
   5   1   5    1.55    3.15   0
   5   3   1  100.63    3.45   0
   5   5  -2   39.48    2.86   0
   5   7  -4    3.49    3.08   0
   5  17  -9    0.56    2.22   0
   5  19  -9   -1.14    2.23   0
   5  21  -9   -0.46    1.92   0
   6   0  32    0.76    2.71   0
   6   2   5   -0.58    3.09   0
   6   4   1   96.72    3.27   0
   6  16  -8    2.09    1.58   0
   6  18  -8   -1.78    2.23   0
   6  20  -8   -0.46    2.08   0
   7   1  32    0.95    2.61   0
   7   3   5   28.09    2.48   0
   7   7  -1   22.56    2.82   0
   7   9  -3    4.42    1.84   0
   7  19  -7    1.37    1.69   0
   8   2  11   32.85    2.65   0
   8   6   2   37.75    2.26   0
   8   8   0    4.63    2.55   0
   8  10  -2    6.36    2.34   0
   8  16  -5    3.04    1.90   0
   8  18  -5    3.23    2.23   0
   8  20  -5   -2.14    2.29   0
   9   3  12   -0.12    2.40   0
   9   3  30    2.72    2.29   0
   9   7   3    2.28    1.69   0
   9   9   1   21.20    2.46   0
   9  11  -1    2.07    1.82   0
   9  15  -3   -2.08    1.57   0
   9  21  -3   -0.18    2.08   0
  10   4  14   74.57    3.10   0
  10   4  28    1.41    2.32   0
  10   4  29    0.60    1.00   0
  10   4  29   -0.01    1.07   0
  10   6   8    7.74    1.81   0
  10   8   5   34.20    2.62   0
  10  10   2    5.81    1.80   0
  10  16  -1    2.81    2.22   0
  11   5  17    0.79    1.47   0
  11   5  18    1.07    1.91   0
  11   5  19    3.42    2.11   0
  11   5  20   -2.22    2.04   0
  11   5  21   -0.58    2.13   0
  11   5  22    2.27    2.09   0
  11   5  23    1.04    2.03   0
  11   5  24    1.60    2.00   0
  11   5  25    2.25    1.87   0
  11   7  10   19.82    2.03   0
  11   9   6   10.84    1.81   0
  11  11   4   36.49    2.03   0
  11  17   1   -0.26    2.01   0
  11  19   1    2.77    2.28   0
  12   8  13   -0.07    1.54   0
  12   8  14    6.49    2.21   0
  12  10   9    1.73    1.51   0
  12  12   6   18.99    1.94   0
  12  14   5    8.73    2.24   0
  12  16   4    4.02    1.74   0
  12  18   4    0.35    2.43   0
  13   9  19    0.41    1.61   0
  13   9  20    0.32    1.64   0
  13   9  21    1.71    1.63   0
  13   9  22   -0.50    1.59   0
  13  11  12   -0.40    1.65   0
  13  11  13    0.67    1.70   0
  13  11  14    0.48    2.27   0
  13  13  10    0.46    1.55   0
  13  15   8    1.22    1.86   0
  13  15   9   -1.28    2.47   0
  13  17   7    1.56    1.68   0
  13  17   8    4.07    2.34   0
 -20   2   6   -1.01    1.17   0
 -20   2   6    0.18    1.14   0
 -20   4   2   -0.49    1.84   0
 -19  -1  11    0.99    2.57   0
 -19  -1  12    1.24    1.74   0
 -19   1   6   -0.90    1.79   0
 -19   3   2    1.08    2.24   0
 -19   5  -1    0.69    2.21   0
 -19   7  -3   -0.43    2.31   0
 -18  -2  12   -0.04    2.33   0
 -18   0   6    1.83    2.49   0
 -18   2   2    0.58    2.54   0
 -18   4  -1   -1.35    2.23   0
 -18   6  -3   -0.34    1.76   0
 -18   8  -5    0.18    2.35   0
 -17  -3  13    2.04    2.62   0
 -17  -3  14    3.47    1.98   0
 -17  -1   7    2.25    1.87   0
 -17   3  -1    2.79    2.32   0
 -17   9  -7    6.56    2.52   0
 -17  11  -8   -0.55    2.22   0
 -17  11  -8    0.30    1.15   0
 -16  -4  15    1.79    2.38   0
 -16  -4  16    0.75    1.70   0
 -16  -4  17   -0.43    1.72   0
 -16  -2   7    0.10    2.29   0
 -16  -2   8    3.56    1.90   0
 -16   0   3    0.97    1.57   0
 -15  -5  19    0.78    2.14   0
 -15  -5  20    0.61    2.35   0
 -15  -5  21   -0.18    2.29   0
 -15  -5  22    1.21    1.75   0
 -15  -5  23   -0.97    1.62   0
 -15  -3   9    1.28    1.87   0
 -15   1   0    4.35    1.79   0
 -15   3  -3   -0.51    1.70   0
 -15  11 -10    0.91    2.17   0
 -14  -4  11   -0.97    1.75   0
 -14   4  -5    1.69    1.73   0
 -14  10 -10    4.20    2.72   0
 -14  12 -11    0.75    2.17   0
 -13  -5  13   12.27    2.30   0
 -13  -3   6    7.97    2.50   0
 -13   1  -2   -0.12    1.91   0
 -13   5  -7    1.75    2.37   0
 -13  13 -12    0.31    2.04   0
 -12  -6  18    9.41    2.32   0
 -12  -6  19    0.63    2.43   0
 -12  -6  20    0.19    1.74   0
 -12  -6  21    2.16    1.81   0
 -12  -6  22    0.03    1.77   0
 -12  -6  23    1.80    1.85   0
 -12  -6  24    1.91    1.95   0
 -12  -6  25   -0.74    1.91   0
 -12  -6  26    1.02    2.65   0
 -12  -6  27   -1.44    2.51   0
 -12  -4   8    2.49    2.39   0
 -12  -2   3    1.02    1.99   0
 -12   0  -1   -0.18    2.01   0
 -12   2  -4   55.14    2.40   0
 -12   8 -10    5.77    2.49   0
 -11  -5  11   17.48    2.15   0
 -11  -1   0   13.24    1.97   0
 -11   3  -6    3.61    2.54   0
 -11   5  -8   -0.01    2.39   0
 -11  13 -13    1.15    1.98   0
 -10  -6  15   -1.86    2.56   0
 -10   2  -5   62.30    2.58   0
 -10  10 -12    0.27    1.77   0
 -10  12 -13   -0.47    2.03   0
  -9  -5   9    3.87    2.49   0
  -9  -1  -1   18.28    3.05   0
  -9   1  -4    0.61    2.11   0
  -8  -6  14    5.05    1.97   0
  -8  -6  31    0.09    2.55   0
  -8  -2   1   57.45    2.75   0
  -8   4  -8    2.16    2.28   0
  -7  -5   9    5.26    1.99   0
  -7  -3   3   22.92    2.48   0
  -7   3  -7    3.22    2.49   0
  -7   5  -9   18.98    2.62   0
  -7   9 -12    5.13    2.05   0
  -6  -6  14    1.35    1.90   0
  -6  -6  31    0.73    2.73   0
  -6   4  -8    7.14    2.81   0
  -5  -5   9   -0.86    2.99   0
  -5  -1  -1  321.27    6.34   0
  -4  -6  15   -0.03    2.83   0
  -4  -6  29   -0.47    2.41   0
  -3  -3   4   60.59    4.92   0
  -3   7 -10   10.17    6.24   0
  -3  17 -14    1.02    1.79   0
  -3  19 -14    0.87    1.76   0
  -2  -6  20    5.91    2.62   0
  -2  -6  21    4.16    2.33   0
  -2  -6  22    5.31    2.40   0
  -2  -6  23    4.83    2.40   0
  -2  -6  24    1.58    2.74   0
  -2  -4   8   62.59    3.47   0
  -1  15 -13    2.20    1.79   0
   1  21 -12    0.67    2.30   0
   2   4  -4  135.89    5.36   0
   2  14 -11    7.96    2.34   0
   2  22 -11    0.58    2.08   0
   3  -3  14   38.17    5.40   0
   3  11  -9   47.54    2.55   0
   4   6  -4   12.68    3.29   0
   4   8  -6   -1.01    2.31   0
   4  18 -10   -1.91    1.81   0
   6   0  11   -0.46    1.89   0
   6   6  -1   13.82    3.15   0
   6  10  -5   67.70    2.47   0
   6  12  -6   75.91    2.99   0
   6  14  -7    5.73    1.66   0
   6  22  -7    1.95    1.83   0
   7   1  11   10.46    2.14   0
   7   5   2    0.53    2.09   0
   7  11  -4   -0.58    1.78   0
   7  15  -6    0.02    1.65   0
   7  17  -6    3.57    2.16   0
   7  19  -6    0.69    2.31   0
   8   2  12   19.52    2.39   0
   8   2  31    0.87    1.69   0
   8   2  31    1.06    1.14   0
   8   4   6   13.29    2.00   0
   8   6   3    6.24    2.67   0
   8  12  -3    1.15    1.72   0
   8  14  -4    3.93    1.79   0
   9   3  13    8.11    2.03   0
   9   3  29   -0.15    2.40   0
   9   5   7    6.34    1.97   0
   9   7   4    0.96    2.40   0
   9  11   0   46.77    2.63   0
   9  17  -3    3.86    1.55   0
   9  19  -3    1.29    1.68   0
  10   4  15   26.63    2.11   0
  10   4  16   13.27    2.19   0
  10   4  26    5.79    2.18   0
  10   4  27    1.24    1.92   0
  10   6   9   21.28    2.39   0
  10  10   3    1.41    1.68   0
  10  12   1    5.07    1.80   0
  10  14   0    3.13    1.70   0
  10  18  -1    2.62    1.55   0
  10  20  -1    1.36    1.49   0
  11   7  11    3.82    1.76   0
  11   7  12   -0.36    2.38   0
  11   9   7   -1.88    1.71   0
  11  11   5    2.39    1.67   0
  11  13   3    2.46    1.67   0
  11  15   2    0.75    1.61   0
  11  17   2   -1.02    2.22   0
  11  19   2   -1.74    2.34   0
  12   8  15    1.05    1.68   0
  12   8  16    2.26    2.26   0
  12  10  10   15.24    1.78   0
  12  10  11   -0.74    2.06   0
  12  12   8    2.96    2.44   0
  12  14   6    0.72    1.81   0
  12  16   5    0.87    1.63   0
  12  18   5    2.66    2.18   0
  13  11  15    0.47    1.71   0
  13  11  17    0.45    2.18   0
  13  13  11   -1.06    1.55   0
  13  13  12   -2.00    2.00   0
  13  15  10    1.38    2.05   0
  13  17   9    0.09    1.77   0
 -20   2   5   -0.09    1.53   0
 -19  -1  10    1.55    1.85   0
 -19   1   5    1.86    1.68   0
 -19   3   1    0.22    1.98   0
 -18  -2  10    0.11    2.37   0
 -18  -2  11   -0.55    1.77   0
 -18   0   5    3.77    2.42   0
 -18   2   1    1.02    2.26   0
 -18   6  -4   -1.49    2.00   0
 -17  -3  11    1.98    2.24   0
 -17  -3  12    0.53    1.76   0
 -17  -1   6   -0.64    1.83   0
 -17   5  -4   -0.48    2.16   0
 -16  -4  13    0.41    2.76   0
 -16  -4  14    1.82    1.94   0
 -16  -2   6    0.04    2.24   0
 -16   0   2   12.75    2.48   0
 -16   2  -1    0.52    1.67   0
 -16   4  -4    1.91    2.34   0
 -16   6  -6    4.33    2.43   0
 -16  10  -9   -1.03    2.21   0
 -15  -5  16    3.57    2.36   0
 -15  -5  17    0.22    1.69   0
 -15  -5  18   -0.49    1.69   0
 -15  -3   8   -1.54    1.93   0
 -15  -1   3    4.95    1.71   0
 -15   5  -6    0.24    1.99   0
 -15   9  -9    1.85    2.59   0
 -15  13 -11   -0.13    1.98   0
 -14  -4   9    0.07    2.09   0
 -14  -4  10    2.80    1.85   0
 -14  -2   4    2.92    1.78   0
 -14   0   0   22.87    2.10   0
 -14   2  -3    1.70    1.85   0
 -14   8  -9    2.03    1.87   0
 -13  -5  12    3.21    2.48   0
 -13  -3   5   52.57    2.77   0
 -13  -1   1   68.60    2.58   0
 -13   3  -5   18.03    2.10   0
 -13   7  -9    5.83    2.67   0
 -12  -6  16    6.21    2.47   0
 -12  -6  17    0.12    1.65   0
 -12  -4   7    3.10    2.46   0
 -12  -2   2    5.30    2.42   0
 -12   4  -7   52.53    2.92   0
 -12  14 -13    1.07    2.23   0
 -11  -5  10    1.54    1.88   0
 -11  -3   4    9.33    1.85   0
 -11   7 -10   17.96    2.51   0
 -10  -6  14    3.28    1.92   0
 -10  -4   6    0.36    1.83   0
 -10  -2   1   17.65    2.12   0
 -10   8 -11    4.32    1.84   0
  -9  -3   3    1.44    2.04   0
  -9   5  -9   -0.50    2.09   0
  -8  -6  12    0.62    2.31   0
  -8  -6  13    7.25    1.88   0
  -8  -4   5   11.06    3.08   0
  -8   0  -3   -0.46    2.15   0
  -8   6 -10   26.28    2.82   0
  -7  -7  21    4.11    2.19   0
  -7  -7  22   -1.96    2.23   0
  -7  -7  23   -0.59    2.29   0
  -7  -7  24    0.76    2.32   0
  -6  -6  13   20.47    2.22   0
  -6  -6  32   -0.22    2.70   0
  -6   0  -3   -0.25    2.30   0
  -6   6 -10   69.42    4.19   0
  -5  -3   3    4.63    2.51   0
  -5   5  -9   40.95    4.12   0
  -4  -6  14    5.17    2.91   0
  -4  -6  30   -0.57    2.28   0
  -4  -4   6   56.26    3.06   0
  -4  -2   1  117.46    5.33   0
  -3  -5  34    0.51    2.39   0
  -2  -6  19    8.04    2.46   0
  -2  -6  25    8.36    2.59   0
  -2  -6  26    0.04    2.67   0
  -1  -5  31    0.70    2.56   0
  -1  21 -13   -1.43    1.58   0
   1  17 -12   16.42    2.23   0
   1  19 -12   -0.77    2.03   0
   2   6  -6    1.81    3.00   0
   2  10  -9   24.51    3.00   0
   2  12 -10    4.27    2.70   0
   2  16 -11    2.15    2.57   0
   2  20 -11    0.64    2.20   0
   3  -3  29    1.37    4.30   0
   3   5  -4    0.82    2.45   0
   3   7  -6   23.61    2.77   0
   3  15 -10   43.94    3.01   0
   3  21 -10    2.97    2.26   0
   4  10  -7   43.37    3.12   0
   4  12  -8   -0.88    2.55   0
   4  22  -9    0.40    1.52   0
   5  -1  31    0.18    3.12   0
   5   9  -5   -0.65    2.75   0
   5  15  -8   19.96    2.32   0
   5  21  -8    2.91    1.98   0
   6   0  31    0.28    2.68   0
   6   4   2    2.55    3.34   0
   6  16  -7   -0.45    1.69   0
   6  18  -7    0.89    2.31   0
   7   1  12    0.04    2.16   0
   7   1  31   -0.42    1.94   0
   7   1  31   -0.17    1.12   0
   7   3   6   69.30    2.85   0
   7   7   0    4.57    2.81   0
   7   9  -2    2.59    2.55   0
   8   2  13    1.09    2.19   0
   8   2  30    1.58    2.26   0
   8   4   7    0.43    2.68   0
   8   8   1    4.14    2.52   0
   8  10  -1    7.30    1.71   0
   8  14  -3    8.17    2.56   0
   8  16  -4    5.30    1.69   0
   8  18  -4   10.43    2.09   0
   8  20  -4    0.78    1.70   0
   9   3  14    2.09    1.46   0
   9   3  15    2.05    2.07   0
   9   3  28   -0.95    2.16   0
   9   5   8   -1.51    1.76   0
   9   9   2   29.07    1.92   0
   9  13  -1    3.49    1.75   0
   9  15  -2    0.57    1.64   0
   9  17  -2    0.65    1.87   0
   9  19  -2    1.40    1.89   0
   9  21  -2   -0.90    1.44   0
  10   4  17    6.49    1.53   0
  10   4  18    0.85    1.71   0
  10   4  19    4.28    1.89   0
  10   4  20   -0.36    1.87   0
  10   4  21   -0.20    2.08   0
  10   4  22    2.25    2.22   0
  10   4  23    4.51    2.21   0
  10   4  24   -0.50    2.02   0
  10   4  25    0.64    1.75   0
  10   6  10    0.73    2.35   0
  10   8   6   11.22    1.90   0
  10  10   4   59.09    2.76   0
  10  12   2    0.57    1.68   0
  10  14   1   -0.42    2.02   0
  10  16   0    3.97    1.70   0
  10  18   0    0.63    1.54   0
  10  20   0   -0.98    1.45   0
  11   7  13   32.34    2.41   0
  11  11   6    6.55    1.70   0
  11  15   3   -2.21    1.57   0
  11  17   3    2.55    2.46   0
  11  19   3    0.84    2.25   0
  12   8  17    3.17    1.63   0
  12   8  18    1.11    1.54   0
  12   8  19    1.47    1.53   0
  12   8  20    1.90    1.88   0
  12   8  21   -0.94    1.91   0
  12   8  22    0.50    1.83   0
  12   8  23    1.17    1.92   0
  12   8  24    2.63    1.49   0
  12   8  25    0.79    1.03   0
  12  10  12    1.00    1.53   0
  12  14   7    3.66    1.71   0
  12  16   6    1.38    1.59   0
  12  18   6    1.91    1.70   0
  13  11  18    0.41    1.72   0
  13  11  19   -0.14    1.57   0
  13  11  20    0.75    1.61   0
  13  11  21   -0.35    1.12   0
  13  13  13    0.78    1.52   0
  13  13  14    0.52    1.56   0
  13  13  15   -1.43    2.13   0
  13  15  11   -0.80    1.66   0
  13  15  12    1.66    2.05   0
 -20   2   4    0.81    1.51   0
 -20   4   1    0.01    1.43   0
 -19  -1   8    0.89    2.48   0
 -19  -1   9   -2.49    1.92   0
 -19   1   4    0.17    1.69   0
 -19   5  -2    1.05    2.33   0
 -19   7  -4    2.27    2.36   0
 -18  -2   9   -2.16    2.39   0
 -18   0   4    1.79    2.39   0
 -18   4  -2    0.77    1.68   0
 -18   8  -6   -0.01    2.44   0
 -17  -3  10    2.71    2.56   0
 -17  -1   5   -0.21    1.66   0
 -17   1   1    1.01    1.62   0
 -17   3  -2    0.61    1.63   0
 -16  -4  12    0.97    1.83   0
 -16   0   1    1.14    2.15   0
 -16   2  -2    0.27    2.36   0
 -16   8  -8   -0.17    2.33   0
 -16  12 -10   -0.27    1.21   0
 -16  12 -10   -0.18    1.19   0
 -15  -5  14    2.90    2.34   0
 -15  -5  15    2.28    1.77   0
 -15  -3   7   -0.49    1.99   0
 -15  -1   2    7.42    2.56   0
 -15   3  -4    1.45    1.86   0
 -15   7  -8    1.69    2.53   0
 -14  -6  18   -0.47    2.18   0
 -14  -6  19    0.87    2.58   0
 -14  -6  20    0.32    1.78   0
 -14  -6  21   -2.02    1.76   0
 -14  -6  22   -2.17    1.82   0
 -14  -6  23    0.50    1.70   0
 -14  -6  24   -2.84    1.78   0
 -14  -6  25   -1.50    1.32   0
 -14  -4   8   17.22    2.44   0
 -14  -2   3   21.75    2.51   0
 -14   0  -1    1.29    2.33   0
 -14   4  -6   -2.79    2.40   0
 -13  -5  11   -2.03    1.84   0
 -13  -1   0    1.02    2.29   0
 -13   1  -3    0.72    2.64   0
 -12  -6  15   -0.09    1.78   0
 -12  -4   6   -0.11    2.47   0
 -12   0  -2    2.21    1.82   0
 -12   6  -9    1.05    2.34   0
 -11  -7  22   -1.57    2.14   0
 -11  -7  23    3.55    2.17   0
 -11  -5   9   32.38    2.21   0
 -11  -3   3   37.37    2.75   0
 -11  -1  -1   49.47    2.92   0
 -11   1  -4    4.06    1.88   0
 -11  17 -14    1.14    2.60   0
 -10  -6  12    0.92    2.50   0
 -10  -4   5    2.12    2.66   0
 -10   0  -3   -0.07    2.71   0
 -10   4  -8    6.29    2.72   0
  -9  -7  18    4.08    2.21   0
  -9  -7  19   -2.48    2.20   0
  -9  -7  20   -0.93    1.63   0
  -9  -7  21   -0.30    1.65   0
  -9  -7  22   -0.06    1.73   0
  -9  -7  23   -0.28    1.87   0
  -9  -7  24   -0.29    1.93   0
  -9  -7  25   -0.28    1.80   0
  -9  -7  26   -1.09    2.46   0
  -9  -7  27    2.22    2.25   0
  -9  -5   8   11.29    2.02   0
  -9   3  -7    4.53    2.00   0
  -9   9 -12    0.03    1.63   0
  -9  11 -13   16.69    2.51   0
  -8  -6  11   29.19    2.63   0
  -8  -2   0   12.11    3.25   0
  -8   2  -6   84.91    3.09   0
  -7  -7  18    0.60    2.55   0
  -7  -7  19    0.72    2.58   0
  -7  -7  20    0.82    1.81   0
  -7  -7  25    1.65    2.08   0
  -7  -7  26    2.13    2.68   0
  -7  -7  27    3.13    2.26   0
  -7  -3   2  114.70    3.97   0
  -6  -6  12   12.78    2.19   0
  -6   2  -6  181.32    4.76   0
  -5  -7  22    2.96    2.39   0
  -5  -7  23   -0.50    2.46   0
  -5  -5   8   -0.09    3.13   0
  -5   3  -7    0.06    3.12   0
  -5  15 -14   -0.36    2.00   0
  -4  -6  31    0.73    2.42   0
  -4  12 -13    1.49    2.10   0
  -4  16 -14    1.88    1.81   0
  -4  18 -14    6.55    2.23   0
  -4  20 -14    0.74    1.52   0
  -3  -5  10    0.37    2.28   0
  -3  13 -13    1.02    1.95   0
  -2  -6  18   27.05    2.63   0
  -2  -6  27    2.06    2.65   0
  -2  22 -13    0.08    1.29   0
  -1  -5  13   17.27    3.03   0
  -1   7  -9  172.72    6.35   0
  -1  17 -13    1.48    1.74   0
  -1  19 -13    0.57    1.70   0
   0  22 -12    0.38    1.13   0
   0  22 -12   -0.43    1.09   0
   2   2  -1  126.96    6.11   0
   2  18 -11    0.12    2.05   0
   3   1   2   38.70    3.86   0
   3  19 -10   -0.54    2.30   0
   4  -2  13  110.26    5.14   0
   4   0   6   92.59    3.99   0
   4  16  -9    1.22    1.73   0
   4  18  -9   -0.58    2.32   0
   4  20  -9   -1.14    1.67   0
   5  -1  12   31.33    2.87   0
   5   1   6    3.25    2.82   0
   5   5  -1   14.64    2.63   0
   5   7  -3   96.96    3.82   0
   5  13  -7   31.34    2.58   0
   5  17  -8    0.08    1.51   0
   5  19  -8    1.61    1.62   0
   6   0  12    1.76    1.93   0
   6   2   6  177.29    4.01   0
   6  10  -4   -0.44    2.50   0
   6  12  -5    2.83    2.45   0
   6  14  -6    1.43    2.28   0
   6  22  -6   -0.67    1.10   0
   6  22  -6   -0.27    1.05   0
   7   1  30    0.14    2.62   0
   7   5   3  124.49    3.57   0
   7  11  -3   -0.41    2.25   0
   7  13  -4    4.48    2.57   0
   7  15  -5   -0.23    1.68   0
   7  21  -5    0.67    1.65   0
   8   2  14    0.14    2.03   0
   8   2  29   -1.11    2.33   0
   8   6   4   55.23    2.92   0
   8  20  -3    1.70    2.34   0
   9   3  16   17.10    2.28   0
   9   3  26    0.48    2.23   0
   9   3  27   -1.17    1.91   0
   9   5   9    1.47    2.22   0
   9   7   5   -0.93    1.65   0
   9   9   3    5.14    2.28   0
   9  11   1   81.32    2.47   0
   9  13   0   34.95    2.52   0
   9  15  -1    2.87    1.54   0
   9  19  -1    3.03    2.14   0
   9  21  -1   -0.85    1.39   0
  10   6  11    1.34    1.82   0
  10   8   7    2.29    1.87   0
  10  10   5   -0.06    2.24   0
  10  12   3   11.84    2.17   0
  10  14   2   -0.96    2.16   0
  10  16   1    3.12    1.64   0
  10  18   1    0.61    1.97   0
  10  20   1   -0.14    1.59   0
  11   7  14    3.31    1.57   0
  11   7  15   14.64    2.39   0
  11   9  10    6.20    2.14   0
  11  11   7    1.52    1.81   0
  11  15   4    0.20    1.72   0
  11  17   4    3.03    2.18   0
  11  19   4    1.91    2.00   0
  12  10  13    2.51    1.58   0
  12  10  14   -1.08    1.93   0
  12  10  15    3.23    2.19   0
  12  12  10   -0.53    1.67   0
  12  12  11   -3.55    2.10   0
  12  14   8    2.08    1.76   0
  12  14   9    0.79    2.41   0
  12  16   8    1.91    2.21   0
  12  18   7   -1.82    1.58   0
  12  18   8   -1.05    2.35   0
  13  13  16    0.73    1.58   0
  13  13  17    0.68    1.47   0
  13  13  18   -0.54    1.78   0
  13  15  13   -1.75    1.56   0
  13  15  14    0.10    1.65   0
 -20   0   7   -0.88    1.85   0
 -20   2   3    3.28    1.74   0
 -20   4   0    0.66    1.57   0
 -19  -1   7    2.23    2.53   0
 -19   1   3    2.51    1.73   0
 -19   3   0   -0.01    1.67   0
 -18  -4  15    2.41    2.47   0
 -18  -4  16    0.34    1.84   0
 -18  -2   8    2.10    1.96   0
 -18   0   3   -1.74    2.28   0
 -18   2   0    1.37    1.94   0
 -18   4  -3   -0.60    1.90   0
 -18   6  -5    1.24    1.88   0
 -17  -5  18   -0.16    2.15   0
 -17  -3   9    3.07    1.94   0
 -17  -1   4    3.46    1.89   0
 -17   1   0    2.72    2.31   0
 -17   3  -3   -1.63    1.94   0
 -17   5  -5    3.68    2.23   0
 -17   9  -8    2.77    1.31   0
 -17   9  -8    0.12    1.21   0
 -16  -4  10    5.89    2.68   0
 -16  -4  11    2.52    1.91   0
 -16  -2   5    3.26    1.84   0
 -16   4  -5   -1.41    2.18   0
 -16   6  -7   -1.25    2.25   0
 -15  -5  12    3.99    2.29   0
 -15  -5  13   -1.11    1.67   0
 -15  -3   6   -1.45    1.80   0
 -15  -1   1    3.45    2.14   0
 -14  -6  16   -3.13    2.23   0
 -14  -6  17    3.74    1.80   0
 -14  -4   7   -1.54    2.52   0
 -14   2  -4   10.78    1.96   0
 -14  10 -11    2.95    2.32   0
 -13  -5  10    8.27    1.83   0
 -13  -3   4    6.34    1.87   0
 -13   3  -6    1.99    2.51   0
 -13   5  -8    2.32    2.43   0
 -13   9 -11    0.62    2.00   0
 -13  15 -13   -0.61    1.92   0
 -12  -6  13    1.51    1.76   0
 -12  -2   1   26.36    2.13   0
 -11  -7  18    1.46    2.43   0
 -11  -7  19    2.19    1.91   0
 -11  -7  21    4.93    1.82   0
 -11  -7  24   -0.80    1.78   0
 -11  -7  25    1.08    1.70   0
 -11  -7  26    0.07    1.79   0
 -11  -7  27    1.32    2.52   0
 -11  -7  28   -0.05    2.06   0
 -11  -5   8    3.00    1.90   0
 -11   3  -7    1.58    2.27   0
 -10  -6  11    7.69    2.50   0
 -10  -2   0   18.82    2.14   0
 -10   2  -6   18.25    2.75   0
 -10   6 -10   -0.46    2.31   0
  -9  -7  16   -1.01    2.54   0
  -9  -7  17   -0.85    1.80   0
  -9  -7  28    0.70    1.77   0
  -9  -7  29    1.87    2.39   0
  -9  -5   7    6.72    1.91   0
  -9  -3   2    3.92    2.10   0
  -9  -1  -2   61.72    3.33   0
  -9   1  -5    3.40    2.81   0
  -8  -4   4    2.42    3.00   0
  -7  -7  16    9.83    2.66   0
  -7  -7  17    3.68    1.93   0
  -7  -7  28    0.12    2.49   0
  -7  -7  29   -0.37    2.24   0
  -7  -5   7   48.71    2.58   0
  -7  -1  -2    9.63    2.51   0
  -7   1  -5    9.69    2.52   0
  -7   7 -11   23.08    3.09   0
  -6  -6  11   85.80    3.52   0
  -6  -2   0   15.75    2.48   0
  -5  -7  19    2.04    2.76   0
  -5  -7  20    4.19    2.52   0
  -5  -7  21   12.26    2.17   0
  -5  -7  24    1.39    1.97   0
  -5  -7  25   -0.28    2.70   0
  -5  -7  26    1.22    2.41   0
  -4  -6  13   84.79    3.19   0
  -4  -6  32   -0.92    2.03   0
  -2  -6  17    2.55    2.18   0
  -2  -6  28    1.06    2.48   0
  -2  -4   7  101.88    4.77   0
  -2  -2   2  133.84    5.61   0
  -2  20 -13    0.35    1.88   0
  -1  13 -12    0.97    2.20   0
   0  -4  10    0.89    3.80   0
   0  -4  34    0.09    3.62   0
   1  21 -11    1.54    2.33   0
   2  22 -10   -0.66    1.45   0
   2  22 -10    0.29    1.11   0
   3   3  -1   84.45    5.20   0
   3   9  -7   42.96    2.73   0
   3  11  -8    3.39    2.69   0
   3  13  -9   13.38    2.06   0
   4  -2  30    0.32    3.08   0
   4   2   2   26.56    3.21   0
   4   4  -1   32.92    2.90   0
   4   8  -5    2.05    3.05   0
   4  14  -8   -0.80    2.51   0
   5  21  -7   -1.08    1.92   0
   6   0  13   -0.37    1.86   0
   6   0  30    0.75    2.51   0
   6   6   0  198.73    3.65   0
   6   8  -2   -1.81    2.74   0
   6  16  -6    1.27    1.66   0
   6  18  -6    3.45    2.30   0
   7   1  13    3.45    1.56   0
   7   1  29   -2.85    2.38   0
   7   3   7    4.23    2.00   0
   7   7   1    0.43    2.74   0
   7  15  -4   14.12    2.42   0
   7  21  -4    1.75    2.06   0
   8   2  15    0.50    2.05   0
   8   2  28   -0.60    1.67   0
   8   2  28   -0.64    1.11   0
   8   4   8    3.29    1.93   0
   8   8   2   -0.63    1.73   0
   8  12  -1   -3.84    2.29   0
   8  14  -2    0.38    2.16   0
   8  18  -3    1.25    1.53   0
   9   3  17    9.55    1.76   0
   9   3  18   30.98    2.28   0
   9   3  19   52.80    2.64   0
   9   3  20    6.63    1.95   0
   9   3  21    1.89    2.01   0
   9   3  22    9.26    2.17   0
   9   3  23    0.22    1.91   0
   9   3  24   -1.60    2.19   0
   9   3  25    0.17    1.97   0
   9   5  10   68.46    2.79   0
   9   7   6    0.32    1.66   0
   9  11   2   21.40    2.43   0
   9  15   0    2.08    2.05   0
   9  17  -1    0.58    1.51   0
   9  21   0    0.63    1.89   0
  10   6  12   12.34    1.90   0
  10   6  13    5.50    2.53   0
  10   8   8   -1.92    1.81   0
  10  12   4    8.36    2.30   0
  10  14   3    1.47    2.26   0
  10  16   2    1.06    1.68   0
  10  18   2   -2.14    1.91   0
  11   7  16    9.09    1.82   0
  11   7  17   -0.08    1.60   0
  11   7  18    1.94    2.22   0
  11   7  19   -0.74    1.98   0
  11   7  20    2.05    2.11   0
  11   7  23    2.07    1.87   0
  11   7  24    1.54    1.90   0
  11   7  25    4.41    1.96   0
  11   7  26   -0.50    0.96   0
  11   7  26    1.07    1.02   0
  11   9  11    0.34    1.67   0
  11  11   8   -0.03    1.78   0
  11  13   6   -1.50    1.72   0
  11  13   7    2.18    2.20   0
  11  17   5    2.28    1.99   0
  11  19   5    0.43    1.72   0
  12  10  16    3.25    1.70   0
  12  10  17   11.56    2.24   0
  12  10  18   -1.55    2.21   0
  12  10  19    2.27    2.21   0
  12  10  23    2.73    2.09   0
  12  12  12    1.24    1.58   0
  12  12  13    2.59    2.20   0
  12  14  10    0.07    1.65   0
  12  18   9   -1.71    1.99   0
 -20   0   6    0.82    1.26   0
 -20   0   6   -1.86    1.25   0
 -20   2   2    2.91    2.03   0
 -19  -3  12    2.21    1.75   0
 -19  -1   6    1.19    1.83   0
 -19   1   2   -0.18    2.31   0
 -19   3  -1    3.63    2.46   0
 -19   5  -3    2.11    1.82   0
 -19   7  -5    1.13    1.21   0
 -19   7  -5    0.51    1.10   0
 -18  -4  13    1.03    2.61   0
 -18  -4  14    1.06    1.99   0
 -18  -2   7    4.62    2.15   0
 -18   0   2   10.15    2.30   0
 -18   2  -1    0.77    2.48   0
 -18   8  -7    1.38    2.39   0
 -17  -5  15    1.19    2.18   0
 -17  -5  16    0.30    1.83   0
 -17  -5  17    0.89    1.77   0
 -17  -3   8    3.37    1.96   0
 -17  -1   3   -0.37    1.68   0
 -17   7  -7    1.94    1.78   0
 -16  -6  19   -0.12    1.96   0
 -16  -6  20    0.77    2.27   0
 -16  -4   9    0.22    2.55   0
 -16  -2   4    3.21    1.92   0
 -16   0   0   15.20    2.05   0
 -16   2  -3    6.34    1.87   0
 -16  10 -10    1.56    2.23   0
 -15  -5  11    0.32    2.39   0
 -15   3  -5    2.23    1.65   0
 -15   5  -7    1.96    1.66   0
 -15   9 -10    0.82    2.51   0
 -15  11 -11    0.74    2.26   0
 -14  -6  14   -1.10    2.36   0
 -14  -6  15   -1.06    1.66   0
 -14  -4   6    4.03    2.18   0
 -14  -2   2   29.07    2.14   0
 -14   0  -2    3.51    2.59   0
 -14   4  -7   15.66    2.29   0
 -14   8 -10    1.97    2.34   0
 -14  12 -12    0.93    1.87   0
 -13  -7  19    2.17    2.22   0
 -13  -7  20   -4.24    2.37   0
 -13  -7  21    0.70    2.34   0
 -13  -7  22   -1.69    1.77   0
 -13  -7  23   -0.03    1.78   0
 -13  -7  24    2.31    2.58   0
 -13  -7  25    2.11    2.51   0
 -13  -5   8   -0.78    2.21   0
 -13  -5   9   20.89    2.01   0
 -13  -3   3   13.36    1.93   0
 -13  -1  -1    3.20    2.62   0
 -13   1  -4    7.59    2.44   0
 -13   7 -10   -0.47    2.17   0
 -13  11 -12    0.61    2.07   0
 -12  -6  11    9.55    2.41   0
 -12  -6  12   -2.09    1.70   0
 -12  -4   5    1.68    1.89   0
 -12   0  -3    0.91    1.77   0
 -12   8 -11    1.89    2.14   0
 -12  10 -12    0.49    1.76   0
 -11  -7  16    0.79    2.39   0
 -11  -7  17    3.71    1.72   0
 -11  -5   7   -3.97    1.95   0
 -11  -3   2   11.90    1.88   0
 -11  -1  -2   31.09    2.84   0
 -11   5  -9   -0.39    1.92   0
 -10  -6  10   20.62    2.27   0
 -10  -4   4    0.10    1.87   0
 -10  14 -14   -0.28    2.12   0
  -9  -7  15   19.01    2.04   0
  -9  -7  30    0.08    1.25   0
  -9  -7  30    0.53    1.14   0
  -9  -5   6    2.05    2.52   0
  -9   7 -11   18.61    2.28   0
  -8  -6  10    6.10    1.91   0
  -8   0  -4  283.94    4.90   0
  -7  -7  15   19.78    2.74   0
  -7  -7  30    1.41    2.58   0
  -6  -6  10   27.53    3.06   0
  -6  -4   4   87.96    3.24   0
  -6  20 -14    0.24    2.15   0
  -5  -7  17   28.44    2.99   0
  -5  -7  18    4.24    2.10   0
  -5  -7  27    2.80    2.71   0
  -5  -5   7    2.98    3.26   0
  -5  -3   2  217.06    4.76   0
  -5  19 -14    1.38    1.93   0
  -4  -6  12    0.11    2.91   0
  -4  -4   5   71.92    3.70   0
  -4   0  -3   -0.61    2.90   0
  -3  -5   9   60.45    3.75   0
  -3   1  -4  178.70    6.96   0
  -3  21 -13   -0.58    2.08   0
  -2  -6  16    6.25    2.32   0
  -2  -6  29    0.18    2.58   0
  -2  16 -13    2.99    1.78   0
  -1  -5  12    4.10    3.32   0
  -1  -5  32   -0.09    2.82   0
   0  -2   4   17.93    6.63   0
   1  -5  22    1.31    3.51   0
   1  15 -11    1.62    2.11   0
   1  17 -11    2.33    2.17   0
   1  19 -11    1.11    2.45   0
   2  14 -10    1.26    1.73   0
   2  20 -10    1.28    2.27   0
   3  15  -9   15.91    2.55   0
   3  21  -9    1.50    1.76   0
   4   6  -3   77.60    3.24   0
   4  10  -6   36.47    2.99   0
   4  12  -7   -2.55    2.53   0
   4  16  -8    5.25    2.37   0
   4  20  -8    0.02    1.82   0
   5  -1  13   22.68    2.77   0
   5  -1  30    0.33    2.70   0
   5   9  -4   29.75    2.83   0
   5  17  -7    1.79    1.98   0
   5  19  -7    3.39    1.67   0
   6   2   7   57.06    3.27   0
   6   4   3   38.26    2.63   0
   6  10  -3   -1.38    2.47   0
   6  22  -5    4.10    1.61   0
   7   1  14   46.55    2.25   0
   7   1  28    0.35    2.56   0
   7   3   8  128.54    3.78   0
   7  11  -2   -3.60    2.10   0
   7  13  -3    0.89    2.13   0
   7  17  -4    6.96    1.67   0
   7  19  -4    0.31    1.63   0
   8   2  16    4.93    1.86   0
   8   2  17    2.91    2.13   0
   8   2  26    0.97    2.43   0
   8   2  27   -0.51    2.07   0
   8   4   9    1.51    1.87   0
   8   6   5   18.62    2.12   0
   8  10   1   53.36    2.67   0
   8  18  -2    3.72    1.94   0
   8  20  -2   -1.09    1.63   0
   9   5  11    1.00    2.17   0
   9   7   7    2.80    2.29   0
   9   9   4   -0.28    1.77   0
   9  13   1    2.87    1.68   0
   9  17   0   -1.22    1.59   0
   9  19   0    2.23    1.58   0
   9  21   1    1.50    2.04   0
  10   6  14   -0.31    2.14   0
  10   6  28    0.58    1.88   0
  10   8   9   -1.66    1.71   0
  10  10   6    4.58    1.79   0
  10  12   5   10.28    2.45   0
  10  16   3   -1.16    2.00   0
  10  18   3    0.90    2.35   0
  10  20   3    0.93    1.61   0
  11   7  21    1.59    1.44   0
  11   7  22    0.47    1.39   0
  11   9  12    1.10    1.75   0
  11   9  13   11.73    2.12   0
  11  11   9   -1.23    1.59   0
  11  11  10   -0.44    2.09   0
  11  13   8    3.37    2.30   0
  11  15   6   -0.47    1.81   0
  11  15   7    1.45    2.36   0
  11  17   6    0.79    1.56   0
  11  19   6    0.94    1.69   0
  12  10  20    3.20    1.55   0
  12  10  21    0.15    1.70   0
  12  10  22   -1.25    1.63   0
  12  12  14   -1.28    1.56   0
  12  12  15    0.88    2.01   0
  12  14  12    1.26    1.61   0
  12  14  13    1.89    2.11   0
  12  16  10   -0.70    1.75   0
  12  16  11    1.49    2.06   0
 -20   0   5   -0.36    1.08   0
 -20   0   5    0.15    1.14   0
 -20   2   1   -1.38    2.09   0
 -19  -3  11    2.05    1.79   0
 -19  -1   5   -2.69    1.81   0
 -19   1   1   -2.71    2.32   0
 -19   5  -4    1.65    2.39   0
 -18  -4  11   -0.09    2.18   0
 -18  -4  12   -4.37    1.82   0
 -18  -2   6    2.32    2.07   0
 -18   4  -4    2.65    2.44   0
 -18   6  -6    3.18    2.04   0
 -17  -5  13    0.36    2.73   0
 -17  -5  14   -0.86    1.77   0
 -17  -3   7    0.26    1.86   0
 -17  -1   2    3.33    2.40   0
 -17   1  -1    1.17    1.75   0
 -17   3  -4    0.11    2.15   0
 -17   5  -6    2.06    2.21   0
 -17   9  -9   -2.40    2.10   0
 -16  -6  16    0.66    2.17   0
 -16  -6  17   -2.24    1.69   0
 -16  -6  18   -0.49    1.68   0
 -16  -4   8   -2.36    1.94   0
 -16  -2   3   -1.26    1.71   0
 -16   0  -1    4.17    2.11   0
 -16  12 -11   -0.25    2.41   0
 -15  -5  10   -1.29    1.76   0
 -15  -3   4    0.44    1.79   0
 -15  -1   0   -0.66    1.85   0
 -15   1  -3    3.10    1.74   0
 -15   7  -9    1.52    2.59   0
 -15  13 -12   -0.20    1.82   0
 -14  -6  12    0.23    2.46   0
 -14  -2   1    8.52    1.86   0
 -14   2  -5   -1.46    1.75   0
 -14   6  -9   -0.69    2.55   0
 -13  -7  16    1.82    2.11   0
 -13  -7  17   -0.58    2.41   0
 -13  -7  18    2.05    1.77   0
 -13  -3   2   -0.94    2.24   0
 -13  13 -13    0.32    2.03   0
 -12  -6  10    3.47    2.41   0
 -12  -4   4   29.41    2.16   0
 -12  -2   0   32.45    2.08   0
 -12   2  -6    9.88    1.94   0
 -12   4  -8   45.47    2.50   0
 -12  12 -13    0.08    1.68   0
 -11  -7  14    2.27    2.52   0
 -11  -7  15   19.89    2.04   0
 -11  -5   6    5.09    2.51   0
 -11   1  -5   15.40    1.97   0
 -11   9 -12    1.00    1.81   0
 -11  11 -13    0.48    1.84   0
 -11  15 -14    1.24    2.46   0
 -10  -6   9    1.61    2.39   0
 -10  -4   3   19.68    2.80   0
 -10  -2  -1    1.23    2.79   0
 -10   0  -4   35.25    2.37   0
  -9  -7  13    3.03    2.67   0
  -9  -7  14    1.54    1.94   0
  -9  -3   1   28.27    2.33   0
  -8  -6   9    7.20    1.97   0
  -8  -4   3    3.55    3.04   0
  -8  -2  -1    5.92    2.27   0
  -7  -7  14   13.66    2.04   0
  -7  -7  31    0.27    2.71   0
  -7  -5   6   72.42    2.80   0
  -7  -3   1   28.94    2.59   0
  -6   0  -4   52.83    3.75   0
  -5  -7  16   -1.03    2.68   0
  -5  -7  29   -0.41    2.49   0
  -5   1  -5    1.79    3.27   0
  -5  17 -14    3.15    1.96   0
  -4  -6  33   -0.55    2.47   0
  -4   4  -8    0.65    4.06   0
  -3  -3   3  564.06    7.80   0
  -3  -1  -1 1859.70   15.11   0
  -2  -6  15    1.61    2.32   0
  -2  12 -12    2.11    2.21   0
  -1  -3   5  205.35    7.34   0
  -1   9 -10   44.94    3.71   0
  -1  11 -11   49.84    3.00   0
   0  22 -11    2.89    1.74   0
   0  22 -11    0.44    1.24   0
   1  -5  21   16.55    4.19   0
   2   8  -7    8.55    2.38   0
   2  12  -9   61.25    3.32   0
   2  16 -10    6.02    1.78   0
   2  18 -10    1.89    2.10   0
   3  -1   7   61.09    4.65   0
   3   5  -3  155.25    4.84   0
   3  17  -9    2.01    2.06   0
   3  19  -9    2.62    1.71   0
   3  23  -8    1.21    1.17   0
   4  -2  14    0.95    2.98   0
   4  18  -8    0.07    1.53   0
   4  22  -7    2.43    2.06   0
   5   1   7    0.95    2.55   0
   5   3   3    2.50    3.53   0
   5   7  -2    1.78    3.06   0
   5  11  -5   10.95    1.92   0
   5  13  -6    5.69    1.79   0
   5  21  -6   -2.85    2.07   0
   6   0  14   64.10    3.02   0
   6   0  29    0.83    2.12   0
   6   6   1   18.68    2.97   0
   6  12  -4   23.53    1.97   0
   6  16  -5   11.82    1.81   0
   6  20  -5   -0.06    1.70   0
   6  22  -4    2.25    2.31   0
   7   1  15    7.12    1.66   0
   7   1  27   -0.04    2.60   0
   7   7   2    3.21    2.68   0
   7   9   0   12.95    2.62   0
   7  15  -3   43.70    2.75   0
   7  19  -3    7.90    2.42   0
   7  21  -3    7.26    1.85   0
   8   2  18   22.59    2.18   0
   8   2  19    0.44    1.91   0
   8   2  20    5.40    2.15   0
   8   2  21    1.79    2.26   0
   8   2  22    1.83    2.33   0
   8   2  23    2.40    2.33   0
   8   2  24    1.78    2.28   0
   8   2  25   -0.40    2.15   0
   8   4  10   16.32    2.62   0
   8   6   6   14.53    2.77   0
   8   8   3   26.23    2.05   0
   8  12   0   95.95    2.57   0
   8  14  -1   11.36    1.76   0
   8  16  -1   13.71    2.31   0
   8  18  -1    2.33    2.13   0
   8  20  -1    0.34    1.88   0
   9   5  12    1.23    2.19   0
   9   7   8    7.08    2.41   0
   9   9   5    2.92    1.86   0
   9  11   3    8.39    1.73   0
   9  13   2   15.93    1.82   0
   9  15   1    2.57    1.60   0
   9  17   1    8.93    2.07   0
   9  19   1    0.36    1.62   0
   9  21   2   -1.76    2.18   0
  10   6  15    1.82    1.61   0
  10   6  16   16.92    2.14   0
  10   6  17    4.13    2.09   0
  10   6  26   -2.49    1.93   0
  10   6  27    0.09    1.34   0
  10   8  10   11.47    1.86   0
  10   8  11    2.64    2.47   0
  10  10   7    4.31    1.75   0
  10  12   6    6.87    2.42   0
  10  14   4    3.09    1.81   0
  10  16   4   -0.64    1.98   0
  10  18   4    3.25    2.15   0
  10  20   4    2.36    1.73   0
  11   9  14    3.75    1.64   0
  11   9  15    0.47    1.88   0
  11   9  16   -0.41    2.17   0
  11  11  11    3.94    2.03   0
  11  13   9   -0.29    2.04   0
  11  15   8   -1.95    2.09   0
  11  17   7   -1.93    1.60   0
  11  19   7    0.23    1.68   0
  12  12  16    1.16    1.59   0
  12  12  17    2.95    1.65   0
  12  12  18    1.58    1.63   0
  12  12  19    0.94    1.93   0
  12  12  20   -2.70    2.12   0
  12  12  21   -1.61    2.19   0
  12  14  14    0.20    1.54   0
  12  14  15   -0.39    2.12   0
  12  16  12    0.37    1.69   0
  12  16  13    1.00    1.68   0
  12  16  14    0.98    2.33   0
 -20   0   4    2.98    1.80   0
 -20   2   0    0.70    1.87   0
 -19  -3   9   -2.65    1.80   0
 -19  -1   4    0.31    1.77   0
 -19   3  -2    0.16    1.74   0
 -19   7  -6    0.79    1.17   0
 -18  -4  10    1.41    2.33   0
 -18  -2   5   -0.16    1.92   0
 -18   0   1    0.86    1.79   0
 -18   2  -2    2.08    1.61   0
 -17  -5  12   -1.30    1.97   0
 -17   7  -8   -0.83    2.27   0
 -16  -6  14    1.17    2.36   0
 -16  -6  15    0.52    1.76   0
 -16  -4   7   -0.68    1.98   0
 -16  -2   2    3.55    2.37   0
 -16   2  -4   -0.73    1.77   0
 -16   6  -8    6.29    2.57   0
 -15  -7  18   -1.22    2.06   0
 -15  -7  19   -1.22    2.41   0
 -15  -7  20   -2.74    2.40   0
 -15  -7  21    0.70    1.76   0
 -15  -7  22   -0.46    1.58   0
 -15  -5   8    0.03    2.18   0
 -15  -5   9   -1.02    1.78   0
 -15  -3   3    8.86    2.45   0
 -15   3  -6    4.23    2.30   0
 -15   5  -8   -3.08    2.09   0
 -14  -6  11   -1.98    1.70   0
 -14  -4   5   37.96    2.27   0
 -14   0  -3   -0.79    2.55   0
 -14  14 -13    1.57    2.31   0
 -13  -7  14   -1.10    2.04   0
 -13  -7  15    1.04    1.81   0
 -13  -1  -2   -1.17    2.71   0
 -13   3  -7   18.94    2.02   0
 -13   5  -9   44.13    2.71   0
 -12  -6   9    1.97    2.38   0
 -12  -4   3   33.72    2.69   0
 -12  -2  -1    8.54    2.36   0
 -12   0  -4   34.15    2.65   0
 -12   6 -10    2.52    1.72   0
 -11  -7  13   -0.24    1.81   0
 -11  -3   1    6.14    1.78   0
 -11   7 -11    3.67    1.95   0
 -10  -8  19   14.37    2.21   0
 -10  -8  20    1.71    2.36   0
 -10  -8  21    0.43    2.27   0
 -10  -8  22   -0.29    2.35   0
 -10  -8  23   -0.33    2.37   0
 -10  -8  24   -1.88    2.46   0
 -10  -8  25    0.02    2.52   0
 -10  -8  26    0.46    2.22   0
 -10  -6   8   26.15    2.66   0
 -10   2  -7    9.64    2.79   0
 -10   4  -9   58.65    3.27   0
  -9  -7  12   10.59    2.74   0
  -9  -5   5   45.32    2.38   0
  -9  -1  -3    0.46    1.96   0
  -9   3  -8   19.35    2.28   0
  -8  -8  20    9.35    2.47   0
  -8  -8  21    1.38    2.39   0
  -8  -8  22    2.04    2.44   0
  -8  -8  23   -2.11    2.53   0
  -8  -8  24   -0.15    2.72   0
  -8  -8  25    0.01    2.34   0
  -8  -6   8   -1.90    2.66   0
  -8   2  -7    1.24    2.81   0
  -8   4  -9   -0.02    2.25   0
  -8   8 -12   21.37    2.34   0
  -7  -7  13    1.67    1.89   0
  -7  -5   5  104.25    3.59   0
  -7  -1  -3  134.03    4.12   0
  -7   3  -8  129.52    4.10   0
  -6  -6   9   17.60    2.39   0
  -6  -4   3    3.11    3.45   0
  -6  -2  -1   33.87    2.69   0
  -5  -7  30    1.00    2.45   0
  -4  -6  11   -0.03    2.17   0
  -4  -2   0  206.02    5.13   0
  -4   2  -6   11.53    3.66   0
  -3  -7  22    1.38    2.46   0
  -3  -7  23   -0.62    2.41   0
  -3  -7  24   -0.80    2.17   0
  -3  -5   8    2.32    3.28   0
  -3  11 -12   10.94    2.77   0
  -3  15 -13   12.19    2.34   0
  -3  19 -13    7.82    2.00   0
  -2  -6  30   -0.38    2.51   0
  -2   0  -2    1.55    5.17   0
  -2   8 -10   72.40    4.82   0
  -1  15 -12   21.13    2.19   0
   0  20 -11   -0.39    2.33   0
   1  13 -10   75.34    3.37   0
   1  21 -10    0.54    2.19   0
   2  10  -8    0.66    1.97   0
   2  22  -9    0.27    1.14   0
   2  22  -9    0.95    1.10   0
   3  21  -8    0.62    1.93   0
   4   0   7    1.39    2.49   0
   4  14  -7    2.93    2.53   0
   4  20  -7    0.18    2.13   0
   5  -1  14   16.11    2.60   0
   5  -1  29   -0.48    2.49   0
   5  15  -6   27.71    2.03   0
   5  17  -6    3.29    2.07   0
   5  19  -6    2.25    1.75   0
   6   0  15   -0.77    1.92   0
   6   0  28   -1.61    2.43   0
   6   2   8   82.74    3.29   0
   6   4   4   76.02    2.95   0
   6   8  -1    4.70    2.04   0
   6  14  -4   25.72    2.70   0
   6  20  -4    0.35    2.09   0
   7   1  16    2.85    1.59   0
   7   1  17   15.65    2.48   0
   7   1  26   11.52    2.85   0
   7   3   9    1.94    2.55   0
   7  13  -2   -0.35    1.70   0
   7  17  -3    2.16    1.61   0
   7  21  -2   -3.05    1.89   0
   8   4  11   34.83    2.77   0
   8   8   4    6.12    2.50   0
   8  10   2    1.16    2.10   0
   8  20   0    0.42    2.19   0
   9   5  13   26.77    2.08   0
   9   5  14    9.23    2.51   0
   9   5  29    0.65    2.03   0
   9   7   9   42.79    2.69   0
   9   9   6   18.94    2.50   0
   9  13   3   -0.33    2.40   0
   9  17   2   -0.58    2.12   0
   9  19   2   -0.01    1.49   0
  10   6  18    1.06    1.46   0
  10   6  19    2.70    1.71   0
  10   6  20   -0.94    1.56   0
  10   6  21    2.51    1.96   0
  10   6  22   -2.81    1.97   0
  10   6  23    1.53    1.80   0
  10   6  24    0.78    1.50   0
  10   6  25   -0.73    1.44   0
  10   8  12   -1.18    2.41   0
  10  10   8    6.89    1.73   0
  10  10   9   68.87    2.66   0
  10  12   7    1.48    2.27   0
  10  14   5   -0.19    1.74   0
  10  16   5    1.86    2.07   0
  10  18   5   -0.99    2.24   0
  10  20   5   -0.21    1.68   0
  10  20   6    3.58    2.22   0
  11   9  17    0.64    1.64   0
  11   9  18   -0.39    1.92   0
  11   9  19    1.81    2.16   0
  11   9  20    5.11    2.17   0
  11   9  21    0.77    2.20   0
  11   9  22    0.95    2.29   0
  11   9  23    0.66    2.21   0
  11   9  24   -0.08    1.54   0
  11   9  24   -0.49    1.04   0
  11   9  25   -0.85    1.51   0
  11  11  12    5.60    1.65   0
  11  11  13    1.61    2.12   0
  11  13  10    7.81    1.72   0
  11  13  11    4.41    2.16   0
  11  15   9    0.16    1.65   0
  12  14  16   -1.19    1.53   0
  12  14  17   -1.06    1.51   0
  12  14  18    1.42    1.71   0
  12  14  19   -0.19    1.41   0
  12  16  15    1.52    1.14   0
 -20   0   3    0.84    1.72   0
 -19  -3   8    0.01    1.89   0
 -19  -1   3   -1.67    2.32   0
 -19   1   0    3.80    1.90   0
 -19   3  -3   -0.79    2.33   0
 -19   5  -5    0.54    2.40   0
 -18   0   0   -1.28    1.79   0
 -18   2  -3    2.09    2.20   0
 -18   4  -5   -0.58    1.79   0
 -18   6  -7    1.55    2.15   0
 -17  -5  10    0.01    2.49   0
 -17  -5  11    0.91    1.83   0
 -17  -3   5    5.17    2.01   0
 -17   3  -5    1.80    2.25   0
 -17   5  -7    0.13    2.01   0
 -16  -6  12    2.51    2.26   0
 -16  -6  13    3.44    1.74   0
 -16  -4   6    1.81    1.72   0
 -16  -2   1    1.33    1.94   0
 -16   0  -2   -0.49    2.37   0
 -15  -7  17   -0.37    1.67   0
 -15  -5   7   19.20    2.45   0
 -15  -1  -1    3.54    1.93   0
 -15   1  -4    5.78    1.89   0
 -15   9 -11    7.25    2.36   0
 -14  -6  10    2.25    1.70   0
 -14  -2   0   -0.48    1.76   0
 -14   2  -6   -0.54    2.24   0
 -14   4  -8    0.10    2.25   0
 -14   8 -11    7.97    2.23   0
 -13  -7  13    4.33    1.82   0
 -13  -5   6    3.25    1.78   0
 -13  -3   1   10.50    2.01   0
 -12  -8  18   -0.26    2.15   0
 -12  -8  19   -0.70    2.55   0
 -12  -8  20   -0.07    1.72   0
 -12  -8  21   -1.28    1.80   0
 -12  -8  22   -1.28    1.80   0
 -12  -8  23   -1.85    1.95   0
 -12  -8  24    0.61    1.90   0
 -12  -8  26    2.00    2.61   0
 -12  -6   8    3.37    2.53   0
 -11  -7  11   11.46    2.50   0
 -11  -7  12    2.39    1.86   0
 -11  -5   5   11.87    2.03   0
 -11  -3   0   18.76    2.66   0
 -11  -1  -3   -0.68    1.86   0
 -11   3  -8    0.03    1.75   0
 -10  -8  17    0.77    2.37   0
 -10  -8  18   -0.59    1.79   0
 -10  -8  27   -0.32    1.80   0
 -10  -8  28    1.38    2.52   0
 -10  -6   7    5.93    2.29   0
 -10  -4   2   15.43    2.78   0
 -10   8 -12    1.10    1.56   0
  -9  -7  11    5.38    2.56   0
  -9  -3   0    1.29    2.13   0
  -9   1  -6   19.90    2.26   0
  -9   5 -10   66.66    3.31   0
  -8  -8  17    7.86    2.32   0
  -8  -8  18   16.67    2.00   0
  -8  -8  19    5.10    1.90   0
  -8  -8  26   -0.08    1.86   0
  -8  -8  27   -1.56    2.49   0
  -8  -8  28    0.48    2.17   0
  -8  -4   2    6.17    3.05   0
  -7  -7  12   -0.18    1.87   0
  -7   1  -6  112.01    3.95   0
  -6  -8  21    0.44    2.30   0
  -6  -8  22    0.12    2.47   0
  -6  -8  23    2.12    2.28   0
  -6  -8  24   -0.05    2.32   0
  -6  -6   8   60.56    3.23   0
  -5  -7  14    0.64    1.91   0
  -5  -7  31    1.30    2.35   0
  -5  -5   6    0.95    2.37   0
  -5  -3   1    3.86    3.97   0
  -4  -4   4   -0.25    2.46   0
  -3  -7  19   26.88    2.82   0
  -3  -7  20    3.20    1.79   0
  -3  -7  25    8.20    2.53   0
  -3  -7  26    0.38    2.08   0
  -3  17 -13    1.82    1.65   0
  -2  -6  14    4.12    2.44   0
  -2  -4   6   25.82    3.99   0
  -2  10 -11   25.65    2.86   0
   0  18 -11    1.24    2.20   0
   1  19 -10    1.57    2.30   0
   1  23  -9    1.27    1.54   0
   2   4  -3   56.81    3.61   0
   2   6  -5    8.09    2.41   0
   2  14  -9    1.54    2.54   0
   2  20  -9   -0.10    2.04   0
   3   9  -6    9.98    2.24   0
   3  11  -7    9.40    2.50   0
   3  19  -8    1.40    2.34   0
   3  23  -7   -0.22    1.07   0
   3  23  -7    0.84    1.06   0
   4   2   3  370.78    6.02   0
   4   4   0  221.30    4.55   0
   4   8  -4    2.60    2.09   0
   4  12  -6    8.94    2.55   0
   4  16  -7   13.99    1.76   0
   4  18  -7   -0.09    1.56   0
   4  22  -6    0.40    1.75   0
   5  11  -4   40.68    2.78   0
   5  21  -5    0.23    1.75   0
   6   0  16   41.91    2.76   0
   6  10  -2   42.22    2.28   0
   6  16  -4    5.54    1.63   0
   6  18  -4    0.21    1.69   0
   6  22  -3   -0.18    1.68   0
   7   1  18   19.78    2.51   0
   7   1  19    2.44    2.24   0
   7   1  20    4.69    2.24   0
   7   1  23    1.36    2.20   0
   7   1  24    1.61    2.18   0
   7   1  25    1.59    2.08   0
   7   3  10    4.21    2.44   0
   7   7   3   36.46    3.00   0
   7   9   1    0.98    2.37   0
   7  17  -2   22.68    2.21   0
   7  19  -2    4.45    1.73   0
   8   4  12    6.59    2.44   0
   8   4  31   -0.72    1.90   0
   8   4  31   -0.30    1.09   0
   8   6   7    3.16    1.79   0
   8  12   1    0.53    1.70   0
   8  16   0    0.22    1.60   0
   8  18   0    2.42    1.48   0
   8  20   1    0.94    2.13   0
   9   5  15   -1.38    2.39   0
   9   5  27    0.04    1.91   0
   9   5  28    0.53    1.77   0
   9   9   7    2.83    2.19   0
   9  11   5   81.35    2.86   0
   9  13   4   -0.31    2.37   0
   9  15   3   -1.45    2.01   0
   9  17   3    2.85    2.13   0
   9  19   3   -0.28    1.58   0
   9  21   4    0.08    2.28   0
  10   8  13    0.60    1.71   0
  10   8  14   -0.52    2.27   0
  10  10  10    1.03    2.39   0
  10  12   8   72.49    2.96   0
  10  14   6    1.32    1.78   0
  10  14   7    1.21    2.32   0
  10  18   6   -0.68    1.89   0
  10  20   7   -0.79    1.99   0
  11  11  14    0.12    1.50   0
  11  11  15    1.67    1.87   0
  11  11  16    5.11    2.22   0
  11  13  12    3.03    1.59   0
  11  13  13   -0.52    2.05   0
  11  15  10   -1.88    1.86   0
  11  15  11   -0.02    2.15   0
  11  17  10   -0.19    1.61   0
  11  17  11    1.50    2.34   0
 -20  -2   6    0.60    1.89   0
 -20   0   2    0.60    1.74   0
 -20   2  -1   -1.11    1.47   0
 -19  -3   7    2.65    1.86   0
 -19   1  -1    1.07    1.78   0
 -18  -4   8   -1.46    1.79   0
 -18  -2   3    1.15    1.83   0
 -17  -3   4    0.48    1.74   0
 -17  -1   0   -0.02    1.69   0
 -17   1  -3   -0.33    1.79   0
 -16  -6  11    1.36    2.00   0
 -16  -4   5    3.48    1.92   0
 -16   2  -5    6.01    1.92   0
 -16   4  -7   -0.18    1.58   0
 -15  -7  15    0.28    1.73   0
 -14  -8  22    1.23    1.71   0
 -14  -8  23   -0.62    1.86   0
 -14  -6   9   14.19    1.98   0
 -13  -7  12   -0.02    1.63   0
 -13  -5   5   11.84    1.93   0
 -12  -4   2   99.99    2.79   0
 -12   2  -7   -1.14    1.84   0
 -11  -5   4   35.21    2.06   0
 -11   5 -10    1.07    1.83   0
 -10  -2  -2   -0.51    1.93   0
 -10   0  -5   -1.48    1.96   0
  -9  -5   4    1.36    1.94   0
  -8  -8  16   -0.15    1.80   0
  -8  -6   7   -1.42    1.98   0
  -8  -2  -2    3.54    2.18   0
  -8   0  -5    1.50    2.30   0
  -7  -7  11    3.96    1.88   0
  -7  -3   0    8.65    2.42   0
  -6  -8  20    0.65    1.77   0
  -6  -8  25    0.48    1.91   0
  -5  -7  13   11.79    2.16   0
  -3  -7  18   -0.12    1.82   0
   0  22 -10    0.76    1.26   0
   0  22 -10    0.58    1.09   0
   1  11  -9   19.98    2.06   0
   1  15 -10    1.72    1.72   0
   2   0   3    0.38    2.62   0
   2  18  -9    0.70    1.68   0
   3   1   3   12.68    3.35   0
   3  17  -8   -1.63    1.66   0
   4   6  -2  134.24    3.61   0
   4  10  -5    9.67    2.07   0
   5  15  -5    2.83    1.78   0
   5  19  -5    0.78    1.58   0
   6   6   2   28.64    2.38   0
   6   8   0   25.83    2.22   0
   6  20  -3   -0.33    1.66   0
   7   5   6    7.28    1.97   0
   7  11   0    1.03    1.61   0
   8   6   8    2.96    1.66   0
   8   8   5    7.78    1.77   0
   8  10   3   30.49    1.89   0
   8  12   2   86.18    2.47   0
   8  14   1    9.34    1.73   0
   9   5  16   14.42    1.90   0
   9  19   4    8.30    1.78   0
  10   8  15    3.39    1.67   0
  10  10  11   -0.39    1.67   0
  10  16   7    1.56    1.80   0
  10  18   7    1.21    1.67   0
  10  20   8   -1.02    1.10   0
  11  11  17    3.77    1.78   0
  11  11  18    0.29    1.65   0
  11  13  14    0.94    1.66   0
  11  15  12   -0.73    1.79   0
  11  17  12    2.45    1.83   0
;
_shelx_hkl_checksum              5296
_shelx_res_file
;
    fa01037.res created by SHELXL-2014/7
TITL fa01037 in C2/c mit Methanol aber umgedreht
CELL  0.71073   15.1825  17.7557  26.2236   90.000   92.283   90.000
ZERR        8    0.0008   0.0007   0.0013    0.000    0.004    0.000
REM Gitterkonstanten aus 7245 Reflexen mit 2.3-27.9 Grad V=7063.6(6)
REM farbloser Block
LATT   7
SYMM             - X ,              Y ,    0.50000 - Z
SFAC  C   H   F   N   O   S
UNIT  336  248   8  48  48   8
L.S. 15
FMAP 2
PLAN -20 .5 -.5
SIZE 0.072  0.076  0.090
TEMP -80
EQIV $1 x, y-1, z
HTAB O15 N46_$1
EQIV $2 -x+3/2, -y+1/2, -z+1
HTAB O16 O21_$2
EQIV $3 x-1/2, y+1/2, z
HTAB C22 O15_$3
EQIV $4 -x+1, y, -z+1/2
HTAB C24 S29_$4
HTAB N26 O15_$3
EQIV $5 -x+1/2, y-1/2, -z+1/2
HTAB N28 N38_$5
EQIV $6 -x+1/2, -y+1/2, -z+1
HTAB C34 O1L_$6
EQIV $7 -x+1/2, y+1/2, -z+1/2
HTAB N36 S29_$7
EQIV $8 -x+1, -y+1, -z+1
HTAB C40 O2L_$8
HTAB C45 O17_$2
EQIV $9 x+1/2, y+1/2, z
HTAB C53 S29_$9
HTAB C1L O21
EQIV $10 -x+1, -y, -z+1
HTAB O1L S29_$10
ACTA
BOND $H
CONF
WGHT    0.110000
EXTI    0.001014
FVAR       0.09780
C1    1    0.714575    0.041573    0.458259    11.00000    0.03517    0.04403 =
         0.05704   -0.00636   -0.00482    0.00364
C2    1    0.744620   -0.038737    0.454776    11.00000    0.03635    0.04198 =
         0.05237   -0.00219   -0.00588    0.00469
C3    1    0.685392   -0.098028    0.451579    11.00000    0.03423    0.04329 =
         0.06979   -0.00174    0.00300    0.00172
AFIX  43
H3    2    0.624159   -0.087438    0.452646    11.00000   -1.20000
AFIX   0
C4    1    0.711970   -0.171725    0.446913    11.00000    0.03910    0.03823 =
         0.06759   -0.00262   -0.00376   -0.00176
AFIX  43
H4    2    0.669784   -0.211265    0.445703    11.00000   -1.20000
AFIX   0
C5    1    0.802129   -0.187770    0.443964    11.00000    0.04424    0.03416 =
         0.06085   -0.00249   -0.00289    0.00395
C6    1    0.862324   -0.129757    0.448881    11.00000    0.03538    0.04271 =
         0.07241   -0.00337   -0.00291    0.00467
AFIX  43
H6    2    0.923667   -0.140155    0.448429    11.00000   -1.20000
AFIX   0
C7    1    0.833328   -0.056298    0.454482    11.00000    0.03612    0.04529 =
         0.05881   -0.00572   -0.00398   -0.00055
O8    5    0.899472   -0.002981    0.459728    11.00000    0.03626    0.03614 =
         0.08730   -0.00413   -0.00704    0.00019
C9    1    0.876557    0.072295    0.457709    11.00000    0.04269    0.03453 =
         0.06226   -0.00521   -0.00508   -0.00020
C10   1    0.946120    0.122108    0.458713    11.00000    0.03537    0.04690 =
         0.07287   -0.00866   -0.00350    0.00257
AFIX  43
H10   2    1.005007    0.104077    0.461750    11.00000   -1.20000
AFIX   0
C11   1    0.929577    0.198828    0.455258    11.00000    0.04257    0.04515 =
         0.06930   -0.00603   -0.00193   -0.00475
C12   1    0.843198    0.224339    0.450379    11.00000    0.04541    0.04193 =
         0.08546   -0.00446   -0.00453    0.00450
AFIX  43
H12   2    0.831357    0.276664    0.446899    11.00000   -1.20000
AFIX   0
C13   1    0.774752    0.173427    0.450607    11.00000    0.04071    0.04040 =
         0.07514   -0.00504   -0.00764    0.00396
AFIX  43
H13   2    0.715830    0.191460    0.448056    11.00000   -1.20000
AFIX   0
C14   1    0.789676    0.096201    0.454479    11.00000    0.03838    0.04106 =
         0.05631   -0.00995   -0.00282    0.00255
O15   5    0.833040   -0.257816    0.436315    11.00000    0.04301    0.03612 =
         0.08467   -0.00863   -0.00482    0.00584
AFIX 143
H15   2    0.791690   -0.285622    0.425392    11.00000   -1.50000
AFIX   0
O16   5    0.999683    0.246002    0.456156    11.00000    0.04093    0.04250 =
         0.10718   -0.01202    0.00252   -0.00426
AFIX 143
H16   2    0.984531    0.288307    0.467152    11.00000   -1.50000
AFIX   0
O17   5    0.675519    0.053071    0.510475    11.00000    0.03895    0.04745 =
         0.05412   -0.00312   -0.00500    0.00635
C18   1    0.593656    0.083041    0.505441    11.00000    0.03692    0.04314 =
         0.05516   -0.00586   -0.00508    0.00500
C19   1    0.567374    0.086567    0.451473    11.00000    0.03689    0.04090 =
         0.05802   -0.00089    0.00134    0.00243
C20   1    0.635840    0.059900    0.423406    11.00000    0.03847    0.03970 =
         0.05423   -0.00234    0.00148    0.00232
O21   5    0.553896    0.102669    0.542873    11.00000    0.05142    0.05212 =
         0.05876   -0.00436    0.00181    0.00473
C22   1    0.489122    0.112666    0.428334    11.00000    0.03711    0.04623 =
         0.05493   -0.00226   -0.00100    0.00643
AFIX  43
H22   2    0.442126    0.130474    0.447934    11.00000   -1.20000
AFIX   0
C23   1    0.482741    0.111570    0.375832    11.00000    0.03396    0.04545 =
         0.06093   -0.00183   -0.00483    0.00106
C24   1    0.551255    0.083123    0.347148    11.00000    0.04423    0.04560 =
         0.05625   -0.00488   -0.00340   -0.00101
AFIX  43
H24   2    0.544654    0.081410    0.310989    11.00000   -1.20000
AFIX   0
C25   1    0.628461    0.057504    0.371101    11.00000    0.03782    0.05115 =
         0.05737   -0.00617    0.00339    0.00349
AFIX  43
H25   2    0.675274    0.038692    0.351766    11.00000   -1.20000
AFIX   0
N26   4    0.407508    0.146196    0.351155    11.00000    0.04293    0.04552 =
         0.05978   -0.00540   -0.00941    0.00639
AFIX   3
H26   2    0.398870    0.200130    0.370273    11.00000   -1.20000
AFIX   0
C27   1    0.361954    0.121932    0.308496    11.00000    0.04199    0.04825 =
         0.05633    0.00224   -0.00776   -0.00017
N28   4    0.306352    0.173194    0.286960    11.00000    0.04571    0.04133 =
         0.06898   -0.00092   -0.01597    0.00278
AFIX   3
H28   2    0.259036    0.141141    0.258331    11.00000   -1.20000
AFIX   0
S29   6    0.369432    0.034754    0.284696    11.00000    0.05431    0.04539 =
         0.07365   -0.00271   -0.01441    0.00107
C30   1    0.310807    0.253158    0.294269    11.00000    0.04966    0.03941 =
         0.06325    0.00078   -0.01036    0.00152
C31   1    0.390207    0.291946    0.293869    11.00000    0.04359    0.05146 =
         0.08154    0.00002   -0.00700    0.00403
AFIX  43
H31   2    0.443760    0.264502    0.292402    11.00000   -1.20000
AFIX   0
C32   1    0.392803    0.369949    0.295569    11.00000    0.04430    0.04369 =
         0.08431   -0.00285   -0.00532    0.00116
AFIX  43
H32   2    0.447743    0.395524    0.295305    11.00000   -1.20000
AFIX   0
C33   1    0.314534    0.410810    0.297668    11.00000    0.04910    0.04142 =
         0.06288   -0.00542   -0.00594    0.00119
C34   1    0.235099    0.371550    0.298462    11.00000    0.04425    0.04367 =
         0.06950    0.00413   -0.00604   -0.00282
AFIX  43
H34   2    0.181213    0.398592    0.299537    11.00000   -1.20000
AFIX   0
C35   1    0.233849    0.294166    0.297707    11.00000    0.04495    0.04780 =
         0.06439    0.00907   -0.00539   -0.00093
AFIX  43
H35   2    0.179217    0.268426    0.299579    11.00000   -1.20000
AFIX   0
N36   4    0.309057    0.489575    0.294144    11.00000    0.04347    0.04399 =
         0.08273   -0.00570   -0.00779    0.00232
AFIX  43
H36   2    0.256209    0.506364    0.285039    11.00000   -1.20000
AFIX   0
C37   1    0.370608    0.545235    0.302227    11.00000    0.05023    0.04597 =
         0.06255   -0.00962   -0.00943   -0.00244
N38   4    0.343623    0.612358    0.283375    11.00000    0.07912    0.05061 =
         0.10664    0.01388   -0.03917   -0.00566
C39   1    0.397689    0.669642    0.292244    11.00000    0.11898    0.05784 =
         0.19234    0.04096   -0.10346   -0.03378
AFIX  43
H39   2    0.378329    0.718187    0.281474    11.00000   -1.20000
AFIX   0
C40   1    0.479500    0.664163    0.315799    11.00000    0.10787    0.06172 =
         0.16954    0.03869   -0.08063   -0.02946
AFIX  43
H40   2    0.517282    0.706806    0.317661    11.00000   -1.20000
AFIX   0
C41   1    0.507012    0.596202    0.336915    11.00000    0.06253    0.04990 =
         0.06783    0.00119   -0.02227   -0.00621
C42   1    0.450766    0.536064    0.329818    11.00000    0.05631    0.03973 =
         0.06171   -0.00378   -0.00655    0.00122
AFIX  43
H42   2    0.466321    0.488215    0.343659    11.00000   -1.20000
AFIX   0
C43   1    0.590594    0.596961    0.366592    11.00000    0.05477    0.04731 =
         0.05750    0.00859   -0.00734   -0.00430
N44   4    0.641749    0.536784    0.384048    11.00000    0.05381    0.04023 =
         0.05800    0.00094   -0.00789   -0.00273
C45   1    0.712354    0.566133    0.410220    11.00000    0.04769    0.04654 =
         0.07287   -0.00068   -0.01236   -0.00350
AFIX  43
H45   2    0.758380    0.536750    0.425691    11.00000   -1.20000
AFIX   0
N46   4    0.709680    0.640073    0.411690    11.00000    0.04897    0.04511 =
         0.06491   -0.00271   -0.01188   -0.00131
C47   1    0.635503    0.659309    0.384485    11.00000    0.05622    0.04702 =
         0.06053   -0.00225   -0.00658   -0.00629
AFIX  43
H47   2    0.616801    0.709709    0.378503    11.00000   -1.20000
AFIX   0
C48   1    0.634771    0.458009    0.374685    11.00000    0.05089    0.04347 =
         0.06223    0.00361   -0.00343   -0.00726
C49   1    0.589758    0.412707    0.406353    11.00000    0.07747    0.04875 =
         0.09198    0.00963    0.02711    0.00543
AFIX  43
H49   2    0.558448    0.434115    0.433455    11.00000   -1.20000
AFIX   0
C50   1    0.589451    0.335183    0.399166    11.00000    0.08045    0.04573 =
         0.11561    0.01057    0.02917   -0.00520
AFIX  43
H50   2    0.558251    0.303009    0.421075    11.00000   -1.20000
AFIX   0
C51   1    0.634059    0.307100    0.360739    11.00000    0.07383    0.03635 =
         0.09165   -0.00653   -0.00428   -0.00542
C52   1    0.681351    0.350539    0.329131    11.00000    0.13787    0.05302 =
         0.08492   -0.01640    0.03646   -0.01464
AFIX  43
H52   2    0.713909    0.328604    0.302733    11.00000   -1.20000
AFIX   0
C53   1    0.680697    0.427239    0.336485    11.00000    0.13303    0.05302 =
         0.06910   -0.01131    0.03307   -0.02661
AFIX  43
H53   2    0.712651    0.458956    0.314651    11.00000   -1.20000
AFIX   0
F54   3    0.633605    0.231121    0.352712    11.00000    0.10956    0.04165 =
         0.13035   -0.00465    0.00258   -0.00851
DFIX 1.4 0.001 C1L O1L C1L O2L
C1L   1    0.512246    0.131616    0.662543    11.00000    0.15061    0.11303 =
         0.10819    0.03871    0.02583    0.02887
PART 1 10.6
AFIX 137
H1M   2    0.462878    0.155399    0.643470    10.60000   -1.50000
H2M   2    0.542844    0.097131    0.640052    10.60000   -1.50000
H3M   2    0.553369    0.170506    0.675208    10.60000   -1.50000
AFIX 137
PART 2 10.4
H4M   2    0.576702    0.133664    0.661957    10.40000   -1.50000
H5M   2    0.486704    0.157264    0.632345    10.40000   -1.50000
H6M   2    0.492993    0.078934    0.662458    10.40000   -1.50000
AFIX   0
PART 1 10.6
O1L   5    0.480320    0.091355    0.703819    10.60000    0.09890    0.12175 =
         0.11053    0.02625   -0.00558    0.03591
AFIX 143
H1L   2    0.522073    0.068144    0.718769    10.60000   -1.50000
AFIX   0
PART 2 10.4
O2L   5    0.484143    0.167334    0.706669    10.40000    0.10752    0.05182 =
         0.08566    0.00695    0.02722    0.01778
AFIX  83
H2L   2    0.434129    0.186391    0.700779    10.40000   -1.50000
AFIX   0
HKLF 4
REM  fa01037 in C2/c mit Methanol aber umgedreht
REM R1 =  0.0701 for    3244 Fo > 4sig(Fo)  and  0.1938 for all    8960 data
REM    516 parameters refined using      2 restraints
END
WGHT      0.1065      0.0000
REM Highest difference peak  0.353,  deepest hole -0.377,  1-sigma level  0.091
Q1    1   0.2964  0.0827  0.2769  11.00000  0.05    0.35
Q2    1   0.4406  0.0734  0.3124  11.00000  0.05    0.34
Q3    1   0.7876 -0.3115  0.4518  11.00000  0.05    0.33
Q4    1   0.2935  0.0499  0.2577  11.00000  0.05    0.33
Q5    1   0.4574  0.0250  0.2959  11.00000  0.05    0.33
Q6    1   0.6001  0.1449  0.3501  11.00000  0.05    0.32
Q7    1   0.8411 -0.3986  0.4404  11.00000  0.05    0.32
Q8    1   0.6009  0.0032  0.5391  11.00000  0.05    0.31
Q9    1   0.3472 -0.0488  0.2893  11.00000  0.05    0.31
Q10   1   0.6453  0.1404  0.3901  11.00000  0.05    0.30
Q11   1   0.3940  0.4547  0.2902  11.00000  0.05    0.29
Q12   1   0.4804  0.1820  0.7226  11.00000  0.05    0.29
Q13   1   0.6641  0.0376  0.5576  11.00000  0.05    0.28
Q14   1   0.4637  0.1858  0.3014  11.00000  0.05    0.28
Q15   1   0.9198  0.1825  0.4804  11.00000  0.05    0.27
Q16   1   0.2571 -0.0026  0.2412  11.00000  0.05    0.27
Q17   1   0.3999 -0.0776  0.3174  11.00000  0.05    0.27
Q18   1   0.5991  0.1777  0.3819  11.00000  0.05    0.27
Q19   1   0.8596 -0.4456  0.4568  11.00000  0.05    0.27
Q20   1   0.3376  0.1757  0.2632  11.00000  0.05    0.26
;
_shelx_res_checksum              95474
loop_
_space_group_symop_operation_xyz
'x, y, z'
'-x, y, -z+1/2'
'x+1/2, y+1/2, z'
'-x+1/2, y+1/2, -z+1/2'
'-x, -y, -z'
'x, -y, z-1/2'
'-x+1/2, -y+1/2, -z'
'x+1/2, -y+1/2, z-1/2'
loop_
_atom_site_type_symbol
_atom_site_label
_atom_site_fract_x
_atom_site_fract_y
_atom_site_fract_z
_atom_site_U_iso_or_equiv
_atom_site_adp_type
_atom_site_calc_flag
_atom_site_occupancy
_atom_site_disorder_assembly
_atom_site_disorder_group
C C1 0.7146(3) 0.0416(2) 0.45826(18) 0.0456(10) Uani d 1 . .
C C2 0.7446(3) -0.0387(2) 0.45478(17) 0.0438(9) Uani d 1 . .
C C3 0.6854(3) -0.0980(2) 0.45158(19) 0.0491(11) Uani d 1 . .
H H3 0.6242 -0.0874 0.4526 0.059 Uiso calc 1 . .
C C4 0.7120(3) -0.1717(2) 0.44691(18) 0.0485(10) Uani d 1 . .
H H4 0.6698 -0.2113 0.4457 0.058 Uiso calc 1 . .
C C5 0.8021(3) -0.1878(2) 0.44396(18) 0.0466(10) Uani d 1 . .
C C6 0.8623(3) -0.1298(2) 0.44888(19) 0.0503(11) Uani d 1 . .
H H6 0.9237 -0.1402 0.4484 0.060 Uiso calc 1 . .
C C7 0.8333(3) -0.0563(2) 0.45448(18) 0.0469(10) Uani d 1 . .
O O8 0.89947(18) -0.00298(16) 0.45973(14) 0.0535(8) Uani d 1 . .
C C9 0.8766(3) 0.0723(2) 0.45771(19) 0.0467(10) Uani d 1 . .
C C10 0.9461(3) 0.1221(3) 0.45871(19) 0.0519(11) Uani d 1 . .
H H10 1.0050 0.1041 0.4617 0.062 Uiso calc 1 . .
C C11 0.9296(3) 0.1988(3) 0.4553(2) 0.0525(11) Uani d 1 . .
C C12 0.8432(3) 0.2243(3) 0.4504(2) 0.0578(12) Uani d 1 . .
H H12 0.8314 0.2767 0.4469 0.069 Uiso calc 1 . .
C C13 0.7748(3) 0.1734(2) 0.45061(19) 0.0523(11) Uani d 1 . .
H H13 0.7158 0.1915 0.4481 0.063 Uiso calc 1 . .
C C14 0.7897(3) 0.0962(2) 0.45448(18) 0.0454(10) Uani d 1 . .
O O15 0.83304(19) -0.25782(16) 0.43631(13) 0.0548(8) Uani d 1 . .
H H15 0.7917 -0.2856 0.4254 0.082 Uiso calc 1 . .
O O16 0.99968(19) 0.24600(18) 0.45616(15) 0.0636(9) Uani d 1 . .
H H16 0.9845 0.2883 0.4672 0.095 Uiso calc 1 . .
O O17 0.67552(18) 0.05307(17) 0.51047(12) 0.0470(7) Uani d 1 . .
C C18 0.5937(3) 0.0830(2) 0.50544(18) 0.0453(10) Uani d 1 . .
C C19 0.5674(3) 0.0866(2) 0.45147(18) 0.0453(10) Uani d 1 . .
C C20 0.6358(3) 0.0599(2) 0.42341(18) 0.0441(10) Uani d 1 . .
O O21 0.5539(2) 0.10267(18) 0.54287(13) 0.0541(8) Uani d 1 . .
C C22 0.4891(3) 0.1127(2) 0.42833(18) 0.0462(10) Uani d 1 . .
H H22 0.4421 0.1305 0.4479 0.055 Uiso calc 1 . .
C C23 0.4827(3) 0.1116(2) 0.37583(18) 0.0470(10) Uani d 1 . .
C C24 0.5513(3) 0.0831(2) 0.34715(19) 0.0488(11) Uani d 1 . .
H H24 0.5447 0.0814 0.3110 0.059 Uiso calc 1 . .
C C25 0.6285(3) 0.0575(3) 0.37110(19) 0.0487(11) Uani d 1 . .
H H25 0.6753 0.0387 0.3518 0.058 Uiso calc 1 . .
N N26 0.4075(2) 0.1462(2) 0.35115(15) 0.0497(9) Uani d 1 . .
H H26 0.3989 0.2001 0.3703 0.060 Uiso d 1 . .
C C27 0.3620(3) 0.1219(3) 0.30850(18) 0.0491(11) Uani d 1 . .
N N28 0.3064(2) 0.1732(2) 0.28696(16) 0.0525(9) Uani d 1 . .
H H28 0.2590 0.1411 0.2583 0.063 Uiso d 1 . .
S S29 0.36943(8) 0.03475(7) 0.28470(5) 0.0582(4) Uani d 1 . .
C C30 0.3108(3) 0.2532(2) 0.29427(19) 0.0511(11) Uani d 1 . .
C C31 0.3902(3) 0.2919(3) 0.2939(2) 0.0591(12) Uani d 1 . .
H H31 0.4438 0.2645 0.2924 0.071 Uiso calc 1 . .
C C32 0.3928(3) 0.3699(3) 0.2956(2) 0.0576(12) Uani d 1 . .
H H32 0.4477 0.3955 0.2953 0.069 Uiso calc 1 . .
C C33 0.3145(3) 0.4108(3) 0.29767(19) 0.0513(11) Uani d 1 . .
C C34 0.2351(3) 0.3715(3) 0.29846(19) 0.0527(11) Uani d 1 . .
H H34 0.1812 0.3986 0.2995 0.063 Uiso calc 1 . .
C C35 0.2338(3) 0.2942(3) 0.29771(19) 0.0526(11) Uani d 1 . .
H H35 0.1792 0.2684 0.2996 0.063 Uiso calc 1 . .
N N36 0.3091(2) 0.4896(2) 0.29414(17) 0.0570(10) Uani d 1 . .
H H36 0.2562 0.5064 0.2850 0.068 Uiso calc 1 . .
C C37 0.3706(3) 0.5452(3) 0.30223(19) 0.0532(11) Uani d 1 . .
N N38 0.3436(3) 0.6124(3) 0.2834(2) 0.0799(15) Uani d 1 . .
C C39 0.3977(5) 0.6696(4) 0.2922(4) 0.126(4) Uani d 1 . .
H H39 0.3783 0.7182 0.2815 0.151 Uiso calc 1 . .
C C40 0.4795(5) 0.6642(4) 0.3158(3) 0.115(3) Uani d 1 . .
H H40 0.5173 0.7068 0.3177 0.138 Uiso calc 1 . .
C C41 0.5070(3) 0.5962(3) 0.3369(2) 0.0607(13) Uani d 1 . .
C C42 0.4508(3) 0.5361(3) 0.32982(19) 0.0528(11) Uani d 1 . .
H H42 0.4663 0.4882 0.3437 0.063 Uiso calc 1 . .
C C43 0.5906(3) 0.5970(3) 0.36659(19) 0.0534(11) Uani d 1 . .
N N44 0.6417(2) 0.5368(2) 0.38405(15) 0.0509(9) Uani d 1 . .
C C45 0.7124(3) 0.5661(3) 0.4102(2) 0.0561(12) Uani d 1 . .
H H45 0.7584 0.5368 0.4257 0.067 Uiso calc 1 . .
N N46 0.7097(2) 0.6401(2) 0.41169(16) 0.0534(9) Uani d 1 . .
C C47 0.6355(3) 0.6593(3) 0.38449(19) 0.0548(11) Uani d 1 . .
H H47 0.6168 0.7097 0.3785 0.066 Uiso calc 1 . .
C C48 0.6348(3) 0.4580(3) 0.37468(19) 0.0523(11) Uani d 1 . .
C C49 0.5898(4) 0.4127(3) 0.4064(2) 0.0721(16) Uani d 1 . .
H H49 0.5584 0.4341 0.4335 0.087 Uiso calc 1 . .
C C50 0.5895(4) 0.3352(3) 0.3992(3) 0.0799(18) Uani d 1 . .
H H50 0.5583 0.3030 0.4211 0.096 Uiso calc 1 . .
C C51 0.6341(4) 0.3071(3) 0.3607(2) 0.0675(15) Uani d 1 . .
C C52 0.6814(5) 0.3505(3) 0.3291(3) 0.091(2) Uani d 1 . .
H H52 0.7139 0.3286 0.3027 0.109 Uiso calc 1 . .
C C53 0.6807(5) 0.4272(3) 0.3365(2) 0.084(2) Uani d 1 . .
H H53 0.7127 0.4590 0.3147 0.101 Uiso calc 1 . .
F F54 0.6336(3) 0.23112(17) 0.35271(16) 0.0939(11) Uani d 1 . .
C C1L 0.5122(6) 0.1316(5) 0.6625(3) 0.123(3) Uani d 1 . .
H H1M 0.4629 0.1554 0.6435 0.185 Uiso calc 0.6 A 1
H H2M 0.5428 0.0971 0.6401 0.185 Uiso calc 0.6 A 1
H H3M 0.5534 0.1705 0.6752 0.185 Uiso calc 0.6 A 1
H H4M 0.5767 0.1337 0.6620 0.185 Uiso calc 0.4 B 2
H H5M 0.4867 0.1573 0.6323 0.185 Uiso calc 0.4 B 2
H H6M 0.4930 0.0789 0.6625 0.185 Uiso calc 0.4 B 2
O O1L 0.4803(5) 0.0914(5) 0.7038(3) 0.111(3) Uani d 0.6 C 1
H H1L 0.5221 0.0681 0.7188 0.166 Uiso calc 0.6 C 1
O O2L 0.4841(7) 0.1673(5) 0.7067(3) 0.081(3) Uani d 0.4 C 2
H H2L 0.4341 0.1864 0.7008 0.122 Uiso calc 0.4 C 2
loop_
_atom_site_aniso_label
_atom_site_aniso_U_11
_atom_site_aniso_U_22
_atom_site_aniso_U_33
_atom_site_aniso_U_12
_atom_site_aniso_U_13
_atom_site_aniso_U_23
C1 0.0352(19) 0.044(2) 0.057(3) 0.0036(17) -0.0048(18) -0.006(2)
C2 0.0364(19) 0.042(2) 0.052(3) 0.0047(17) -0.0059(17) -0.002(2)
C3 0.0342(19) 0.043(2) 0.070(3) 0.0017(17) 0.0030(19) -0.002(2)
C4 0.039(2) 0.038(2) 0.068(3) -0.0018(17) -0.0038(19) -0.003(2)
C5 0.044(2) 0.034(2) 0.061(3) 0.0040(17) -0.003(2) -0.0025(19)
C6 0.035(2) 0.043(2) 0.072(3) 0.0047(17) -0.003(2) -0.003(2)
C7 0.036(2) 0.045(2) 0.059(3) -0.0005(17) -0.0040(19) -0.006(2)
O8 0.0363(14) 0.0361(15) 0.087(2) 0.0002(12) -0.0070(15) -0.0041(15)
C9 0.043(2) 0.035(2) 0.062(3) -0.0002(17) -0.005(2) -0.005(2)
C10 0.035(2) 0.047(2) 0.073(3) 0.0026(18) -0.004(2) -0.009(2)
C11 0.043(2) 0.045(2) 0.069(3) -0.0048(19) -0.002(2) -0.006(2)
C12 0.045(2) 0.042(2) 0.085(4) 0.0045(19) -0.005(2) -0.004(2)
C13 0.041(2) 0.040(2) 0.075(3) 0.0040(18) -0.008(2) -0.005(2)
C14 0.038(2) 0.041(2) 0.056(3) 0.0026(17) -0.0028(18) -0.010(2)
O15 0.0430(15) 0.0361(15) 0.085(2) 0.0058(13) -0.0048(15) -0.0086(16)
O16 0.0409(15) 0.0425(17) 0.107(3) -0.0043(13) 0.0025(17) -0.0120(18)
O17 0.0389(14) 0.0475(17) 0.0541(19) 0.0063(12) -0.0050(13) -0.0031(14)
C18 0.037(2) 0.043(2) 0.055(3) 0.0050(17) -0.0051(19) -0.006(2)
C19 0.037(2) 0.041(2) 0.058(3) 0.0024(17) 0.0013(19) -0.001(2)
C20 0.038(2) 0.040(2) 0.054(3) 0.0023(17) 0.0015(18) -0.0023(19)
O21 0.0514(17) 0.0521(19) 0.059(2) 0.0047(15) 0.0018(15) -0.0044(16)
C22 0.037(2) 0.046(2) 0.055(3) 0.0064(17) -0.0010(18) -0.002(2)
C23 0.0340(19) 0.045(2) 0.061(3) 0.0011(17) -0.0048(18) -0.002(2)
C24 0.044(2) 0.046(2) 0.056(3) -0.0010(18) -0.003(2) -0.005(2)
C25 0.038(2) 0.051(3) 0.057(3) 0.0035(18) 0.0034(19) -0.006(2)
N26 0.0429(18) 0.046(2) 0.060(2) 0.0064(16) -0.0094(17) -0.0054(18)
C27 0.042(2) 0.048(2) 0.056(3) -0.0002(18) -0.0078(19) 0.002(2)
N28 0.046(2) 0.041(2) 0.069(3) 0.0028(16) -0.0160(17) -0.0009(18)
S29 0.0543(6) 0.0454(6) 0.0736(9) 0.0011(5) -0.0144(6) -0.0027(6)
C30 0.050(2) 0.039(2) 0.063(3) 0.0015(19) -0.010(2) 0.001(2)
C31 0.044(2) 0.051(3) 0.082(4) 0.004(2) -0.007(2) 0.000(3)
C32 0.044(2) 0.044(2) 0.084(4) 0.0012(19) -0.005(2) -0.003(2)
C33 0.049(2) 0.041(2) 0.063(3) 0.0012(19) -0.006(2) -0.005(2)
C34 0.044(2) 0.044(2) 0.070(3) -0.0028(18) -0.006(2) 0.004(2)
C35 0.045(2) 0.048(3) 0.064(3) -0.0009(19) -0.005(2) 0.009(2)
N36 0.043(2) 0.044(2) 0.083(3) 0.0023(16) -0.0078(19) -0.006(2)
C37 0.050(2) 0.046(3) 0.063(3) -0.002(2) -0.009(2) -0.010(2)
N38 0.079(3) 0.051(3) 0.107(4) -0.006(2) -0.039(3) 0.014(3)
C39 0.119(6) 0.058(4) 0.192(9) -0.034(4) -0.103(6) 0.041(5)
C40 0.108(5) 0.062(4) 0.170(8) -0.029(4) -0.081(5) 0.039(4)
C41 0.063(3) 0.050(3) 0.068(3) -0.006(2) -0.022(2) 0.001(2)
C42 0.056(3) 0.040(2) 0.062(3) 0.001(2) -0.007(2) -0.004(2)
C43 0.055(3) 0.047(2) 0.057(3) -0.004(2) -0.007(2) 0.009(2)
N44 0.054(2) 0.0402(19) 0.058(2) -0.0027(17) -0.0079(17) 0.0009(18)
C45 0.048(2) 0.047(3) 0.073(3) -0.004(2) -0.012(2) -0.001(2)
N46 0.049(2) 0.045(2) 0.065(3) -0.0013(17) -0.0119(18) -0.0027(19)
C47 0.056(3) 0.047(3) 0.061(3) -0.006(2) -0.007(2) -0.002(2)
C48 0.051(2) 0.043(2) 0.062(3) -0.007(2) -0.003(2) 0.004(2)
C49 0.077(3) 0.049(3) 0.092(4) 0.005(3) 0.027(3) 0.010(3)
C50 0.080(4) 0.046(3) 0.116(5) -0.005(3) 0.029(4) 0.011(3)
C51 0.074(3) 0.036(2) 0.092(4) -0.005(2) -0.004(3) -0.007(3)
C52 0.138(6) 0.053(3) 0.085(5) -0.015(4) 0.036(4) -0.016(3)
C53 0.133(6) 0.053(3) 0.069(4) -0.027(3) 0.033(4) -0.011(3)
F54 0.110(3) 0.0416(17) 0.130(3) -0.0085(17) 0.003(2) -0.0046(18)
C1L 0.151(8) 0.113(6) 0.108(7) 0.029(6) 0.026(6) 0.039(5)
O1L 0.099(6) 0.122(7) 0.111(7) 0.036(5) -0.006(5) 0.026(6)
O2L 0.108(8) 0.052(6) 0.086(7) 0.018(5) 0.027(6) 0.007(5)
loop_
_atom_type_symbol
_atom_type_description
_atom_type_scat_dispersion_real
_atom_type_scat_dispersion_imag
_atom_type_scat_source
C C 0.0033 0.0016 'International Tables Vol C Tables 4.2.6.8 and 6.1.1.4'
H H 0.0000 0.0000 'International Tables Vol C Tables 4.2.6.8 and 6.1.1.4'
F F 0.0171 0.0103 'International Tables Vol C Tables 4.2.6.8 and 6.1.1.4'
N N 0.0061 0.0033 'International Tables Vol C Tables 4.2.6.8 and 6.1.1.4'
O O 0.0106 0.0060 'International Tables Vol C Tables 4.2.6.8 and 6.1.1.4'
S S 0.1246 0.1234 'International Tables Vol C Tables 4.2.6.8 and 6.1.1.4'
loop_
_geom_angle_atom_site_label_1
_geom_angle_atom_site_label_2
_geom_angle_atom_site_label_3
_geom_angle
C2 C1 C14 112.1(3)
C2 C1 C20 113.8(4)
C14 C1 C20 113.9(4)
C2 C1 O17 108.1(4)
C14 C1 O17 107.2(3)
C20 C1 O17 100.8(3)
C7 C2 C3 117.3(4)
C7 C2 C1 120.9(4)
C3 C2 C1 121.8(3)
C4 C3 C2 122.4(4)
C4 C3 H3 118.8
C2 C3 H3 118.8
C3 C4 C5 119.2(4)
C3 C4 H4 120.4
C5 C4 H4 120.4
O15 C5 C6 118.0(4)
O15 C5 C4 122.8(4)
C6 C5 C4 119.2(4)
C5 C6 C7 120.0(4)
C5 C6 H6 120.0
C7 C6 H6 120.0
O8 C7 C2 123.3(4)
O8 C7 C6 115.0(3)
C2 C7 C6 121.8(4)
C9 O8 C7 118.5(3)
C10 C9 O8 115.4(4)
C10 C9 C14 122.2(4)
O8 C9 C14 122.5(4)
C9 C10 C11 119.5(4)
C9 C10 H10 120.2
C11 C10 H10 120.2
O16 C11 C12 122.6(4)
O16 C11 C10 117.8(4)
C12 C11 C10 119.6(4)
C13 C12 C11 119.7(4)
C13 C12 H12 120.2
C11 C12 H12 120.2
C12 C13 C14 121.7(4)
C12 C13 H13 119.1
C14 C13 H13 119.1
C9 C14 C13 117.3(4)
C9 C14 C1 121.4(4)
C13 C14 C1 121.2(4)
C5 O15 H15 109.5
C11 O16 H16 109.5
C18 O17 C1 110.7(3)
O21 C18 O17 120.9(4)
O21 C18 C19 130.0(4)
O17 C18 C19 109.1(4)
C20 C19 C22 122.0(4)
C20 C19 C18 108.7(4)
C22 C19 C18 129.4(4)
C25 C20 C19 120.7(4)
C25 C20 C1 129.0(4)
C19 C20 C1 110.2(4)
C23 C22 C19 117.1(4)
C23 C22 H22 121.4
C19 C22 H22 121.4
C22 C23 C24 121.2(4)
C22 C23 N26 118.0(4)
C24 C23 N26 120.6(4)
C25 C24 C23 120.5(5)
C25 C24 H24 119.7
C23 C24 H24 119.7
C20 C25 C24 118.5(4)
C20 C25 H25 120.7
C24 C25 H25 120.7
C27 N26 C23 127.3(4)
C27 N26 H26 126.1
C23 N26 H26 106.1
N28 C27 N26 114.8(4)
N28 C27 S29 121.2(4)
N26 C27 S29 124.0(3)
C27 N28 C30 125.9(4)
C27 N28 H28 107.4
C30 N28 H28 126.4
C35 C30 C31 118.4(4)
C35 C30 N28 119.6(4)
C31 C30 N28 121.8(4)
C32 C31 C30 121.3(4)
C32 C31 H31 119.4
C30 C31 H31 119.4
C31 C32 C33 119.8(4)
C31 C32 H32 120.1
C33 C32 H32 120.1
C34 C33 C32 118.6(4)
C34 C33 N36 116.8(4)
C32 C33 N36 124.3(4)
C35 C34 C33 120.7(4)
C35 C34 H34 119.6
C33 C34 H34 119.6
C34 C35 C30 121.1(4)
C34 C35 H35 119.5
C30 C35 H35 119.5
C37 N36 C33 132.1(4)
C37 N36 H36 114.0
C33 N36 H36 114.0
N38 C37 N36 112.7(4)
N38 C37 C42 122.5(4)
N36 C37 C42 124.7(4)
C39 N38 C37 116.0(5)
N38 C39 C40 124.8(6)
N38 C39 H39 117.6
C40 C39 H39 117.6
C39 C40 C41 119.7(6)
C39 C40 H40 120.1
C41 C40 H40 120.1
C42 C41 C40 116.5(5)
C42 C41 C43 126.9(4)
C40 C41 C43 116.5(4)
C41 C42 C37 120.1(4)
C41 C42 H42 119.9
C37 C42 H42 119.9
C47 C43 N44 104.1(4)
C47 C43 C41 126.7(4)
N44 C43 C41 129.1(4)
C45 N44 C43 107.0(4)
C45 N44 C48 121.2(4)
C43 N44 C48 131.5(4)
N46 C45 N44 112.0(4)
N46 C45 H45 124.0
N44 C45 H45 124.0
C45 N46 C47 105.2(4)
N46 C47 C43 111.6(4)
N46 C47 H47 124.2
C43 C47 H47 124.2
C53 C48 C49 119.9(5)
C53 C48 N44 119.1(4)
C49 C48 N44 120.8(5)
C48 C49 C50 120.2(5)
C48 C49 H49 119.9
C50 C49 H49 119.9
C51 C50 C49 118.3(5)
C51 C50 H50 120.9
C49 C50 H50 120.9
C50 C51 C52 123.1(5)
C50 C51 F54 119.1(5)
C52 C51 F54 117.8(5)
C51 C52 C53 118.0(6)
C51 C52 H52 121.0
C53 C52 H52 121.0
C48 C53 C52 120.6(5)
C48 C53 H53 119.7
C52 C53 H53 119.7
O1L C1L H1M 109.5
O1L C1L H2M 109.5
H1M C1L H2M 109.5
O1L C1L H3M 109.5
H1M C1L H3M 109.5
H2M C1L H3M 109.5
O2L C1L H4M 109.5
O2L C1L H5M 109.5
H4M C1L H5M 109.5
O2L C1L H6M 109.5
H4M C1L H6M 109.5
H5M C1L H6M 109.5
C1L O1L H1L 109.5
C1L O2L H2L 109.5
loop_
_geom_bond_atom_site_label_1
_geom_bond_atom_site_label_2
_geom_bond_distance
C1 C2 1.501(6)
C1 C14 1.503(6)
C1 C20 1.511(6)
C1 O17 1.527(5)
C2 C7 1.383(5)
C2 C3 1.385(6)
C3 C4 1.376(6)
C3 H3 0.9500
C4 C5 1.403(6)
C4 H4 0.9500
C5 O15 1.347(5)
C5 C6 1.380(6)
C6 C7 1.386(6)
C6 H6 0.9500
C7 O8 1.383(5)
O8 C9 1.382(5)
C9 C10 1.377(6)
C9 C14 1.385(6)
C10 C11 1.387(6)
C10 H10 0.9500
C11 O16 1.354(5)
C11 C12 1.389(6)
C12 C13 1.378(6)
C12 H12 0.9500
C13 C14 1.393(6)
C13 H13 0.9500
O15 H15 0.8400
O16 H16 0.8400
O17 C18 1.354(5)
C18 O21 1.223(5)
C18 C19 1.456(7)
C19 C20 1.381(6)
C19 C22 1.392(6)
C20 C25 1.372(7)
C22 C23 1.376(6)
C22 H22 0.9500
C23 C24 1.402(6)
C23 N26 1.429(5)
C24 C25 1.384(6)
C24 H24 0.9500
C25 H25 0.9500
N26 C27 1.362(6)
N26 H26 1.0913
C27 N28 1.350(6)
C27 S29 1.675(5)
N28 C30 1.434(6)
N28 H28 1.1665
C30 C35 1.383(6)
C30 C31 1.389(6)
C31 C32 1.386(7)
C31 H31 0.9500
C32 C33 1.395(6)
C32 H32 0.9500
C33 C34 1.394(6)
C33 N36 1.404(6)
C34 C35 1.374(6)
C34 H34 0.9500
C35 H35 0.9500
N36 C37 1.371(6)
N36 H36 0.8800
C37 N38 1.348(6)
C37 C42 1.400(6)
N38 C39 1.322(7)
C39 C40 1.368(9)
C39 H39 0.9500
C40 C41 1.385(8)
C40 H40 0.9500
C41 C42 1.375(6)
C41 C43 1.462(7)
C42 H42 0.9500
C43 C47 1.373(6)
C43 N44 1.388(6)
N44 C45 1.354(6)
N44 C48 1.423(6)
C45 N46 1.314(6)
C45 H45 0.9500
N46 C47 1.353(6)
C47 H47 0.9500
C48 C53 1.358(7)
C48 C49 1.360(7)
C49 C50 1.389(7)
C49 H49 0.9500
C50 C51 1.333(8)
C50 H50 0.9500
C51 C52 1.358(8)
C51 F54 1.365(6)
C52 C53 1.376(8)
C52 H52 0.9500
C53 H53 0.9500
C1L O1L 1.3998(10)
C1L O2L 1.4009(10)
C1L H1M 0.9800
C1L H2M 0.9800
C1L H3M 0.9800
C1L H4M 0.9800
C1L H5M 0.9800
C1L H6M 0.9800
O1L H1L 0.8400
O2L H2L 0.8400
loop_
_geom_hbond_atom_site_label_D
_geom_hbond_atom_site_label_H
_geom_hbond_atom_site_label_A
_geom_hbond_site_symmetry_A
_geom_hbond_distance_DH
_geom_hbond_distance_HA
_geom_hbond_distance_DA
_geom_hbond_angle_DHA
O15 H15 N46 1_545 0.84 1.84 2.667(5) 168
O16 H16 O21 7_656 0.84 2.04 2.808(5) 153
C22 H22 O15 3_455 0.95 2.59 3.315(5) 133
C24 H24 S29 2_655 0.95 2.99 3.804(5) 145
N26 H26 O15 3_455 1.09 2.17 3.061(5) 138
N28 H28 N38 4_545 1.17 1.94 3.069(6) 162
C34 H34 O1L 7_556 0.95 2.46 3.334(9) 154
N36 H36 S29 4 0.88 2.64 3.437(4) 152
C40 H40 O2L 5_666 0.95 2.32 3.103(12) 139
C45 H45 O17 7_656 0.95 2.49 3.379(6) 155
C53 H53 S29 3 0.95 2.87 3.743(6) 153
C1L H2M O21 . 0.98 2.56 3.267(7) 129
O1L H1L S29 5_656 0.84 2.46 3.202(8) 147
loop_
_geom_torsion_atom_site_label_1
_geom_torsion_atom_site_label_2
_geom_torsion_atom_site_label_3
_geom_torsion_atom_site_label_4
_geom_torsion
C14 C1 C2 C7 7.2(6)
C20 C1 C2 C7 138.2(4)
O17 C1 C2 C7 -110.7(4)
C14 C1 C2 C3 -172.6(4)
C20 C1 C2 C3 -41.6(6)
O17 C1 C2 C3 69.5(5)
C7 C2 C3 C4 -1.7(7)
C1 C2 C3 C4 178.1(5)
C2 C3 C4 C5 -1.6(8)
C3 C4 C5 O15 -175.9(5)
C3 C4 C5 C6 3.8(7)
O15 C5 C6 C7 177.1(4)
C4 C5 C6 C7 -2.7(7)
C3 C2 C7 O8 -177.0(4)
C1 C2 C7 O8 3.2(7)
C3 C2 C7 C6 2.9(7)
C1 C2 C7 C6 -176.9(5)
C5 C6 C7 O8 179.2(4)
C5 C6 C7 C2 -0.7(8)
C2 C7 O8 C9 -9.8(7)
C6 C7 O8 C9 170.3(4)
C7 O8 C9 C10 -174.6(4)
C7 O8 C9 C14 4.9(7)
O8 C9 C10 C11 178.0(5)
C14 C9 C10 C11 -1.5(8)
C9 C10 C11 O16 -179.7(4)
C9 C10 C11 C12 -0.6(8)
O16 C11 C12 C13 -178.9(5)
C10 C11 C12 C13 2.0(8)
C11 C12 C13 C14 -1.5(8)
C10 C9 C14 C13 2.0(7)
O8 C9 C14 C13 -177.5(4)
C10 C9 C14 C1 -174.3(5)
O8 C9 C14 C1 6.2(7)
C12 C13 C14 C9 -0.5(8)
C12 C13 C14 C1 175.8(5)
C2 C1 C14 C9 -11.7(6)
C20 C1 C14 C9 -142.7(4)
O17 C1 C14 C9 106.7(5)
C2 C1 C14 C13 172.1(4)
C20 C1 C14 C13 41.2(6)
O17 C1 C14 C13 -69.4(5)
C2 C1 O17 C18 -127.2(4)
C14 C1 O17 C18 111.8(4)
C20 C1 O17 C18 -7.6(4)
C1 O17 C18 O21 -173.6(4)
C1 O17 C18 C19 6.0(5)
O21 C18 C19 C20 178.0(5)
O17 C18 C19 C20 -1.5(5)
O21 C18 C19 C22 -0.8(8)
O17 C18 C19 C22 179.6(4)
C22 C19 C20 C25 -0.7(7)
C18 C19 C20 C25 -179.6(4)
C22 C19 C20 C1 175.4(4)
C18 C19 C20 C1 -3.6(5)
C2 C1 C20 C25 -62.3(6)
C14 C1 C20 C25 67.8(6)
O17 C1 C20 C25 -177.8(4)
C2 C1 C20 C19 122.1(4)
C14 C1 C20 C19 -107.8(4)
O17 C1 C20 C19 6.6(4)
C20 C19 C22 C23 -0.6(6)
C18 C19 C22 C23 178.1(4)
C19 C22 C23 C24 1.9(6)
C19 C22 C23 N26 -172.8(4)
C22 C23 C24 C25 -2.0(7)
N26 C23 C24 C25 172.5(4)
C19 C20 C25 C24 0.7(7)
C1 C20 C25 C24 -174.6(4)
C23 C24 C25 C20 0.7(7)
C22 C23 N26 C27 -142.2(5)
C24 C23 N26 C27 43.1(7)
C23 N26 C27 N28 -166.0(4)
C23 N26 C27 S29 16.3(7)
N26 C27 N28 C30 20.6(7)
S29 C27 N28 C30 -161.7(4)
C27 N28 C30 C35 -141.9(5)
C27 N28 C30 C31 43.5(7)
C35 C30 C31 C32 -1.6(8)
N28 C30 C31 C32 173.1(5)
C30 C31 C32 C33 -0.1(9)
C31 C32 C33 C34 0.6(8)
C31 C32 C33 N36 -173.1(5)
C32 C33 C34 C35 0.6(8)
N36 C33 C34 C35 174.7(5)
C33 C34 C35 C30 -2.4(8)
C31 C30 C35 C34 2.8(8)
N28 C30 C35 C34 -172.0(5)
C34 C33 N36 C37 165.4(5)
C32 C33 N36 C37 -20.9(9)
C33 N36 C37 N38 165.5(5)
C33 N36 C37 C42 -18.5(9)
N36 C37 N38 C39 176.4(7)
C42 C37 N38 C39 0.3(9)
C37 N38 C39 C40 4.4(14)
N38 C39 C40 C41 -6.7(16)
C39 C40 C41 C42 4.0(12)
C39 C40 C41 C43 -173.0(8)
C40 C41 C42 C37 0.3(9)
C43 C41 C42 C37 176.9(5)
N38 C37 C42 C41 -2.5(8)
N36 C37 C42 C41 -178.2(5)
C42 C41 C43 C47 -162.3(5)
C40 C41 C43 C47 14.3(9)
C42 C41 C43 N44 16.3(9)
C40 C41 C43 N44 -167.1(6)
C47 C43 N44 C45 -0.4(5)
C41 C43 N44 C45 -179.2(5)
C47 C43 N44 C48 -173.9(5)
C41 C43 N44 C48 7.3(9)
C43 N44 C45 N46 1.1(6)
C48 N44 C45 N46 175.4(4)
N44 C45 N46 C47 -1.3(6)
C45 N46 C47 C43 1.1(6)
N44 C43 C47 N46 -0.4(6)
C41 C43 C47 N46 178.5(5)
C45 N44 C48 C53 -79.0(7)
C43 N44 C48 C53 93.6(7)
C45 N44 C48 C49 94.7(6)
C43 N44 C48 C49 -92.6(7)
C53 C48 C49 C50 -1.1(9)
N44 C48 C49 C50 -174.8(5)
C48 C49 C50 C51 0.0(10)
C49 C50 C51 C52 1.6(11)
C49 C50 C51 F54 -179.2(6)
C50 C51 C52 C53 -2.0(11)
F54 C51 C52 C53 178.8(6)
C49 C48 C53 C52 0.7(10)
N44 C48 C53 C52 174.5(6)
C51 C52 C53 C48 0.7(11)

_cod_database_fobs_code 1543371
