#------------------------------------------------------------------------------
#$Date: 2016-08-07 10:53:59 +0300 (Sun, 07 Aug 2016) $
#$Revision: 185108 $
#$URL: file:///home/coder/svn-repositories/cod/cif/1/54/30/1543095.cif $
#------------------------------------------------------------------------------
#
# This file is available in the Crystallography Open Database (COD),
# http://www.crystallography.net/
#
# All data on this site have been placed in the public domain by the
# contributors.
#
data_1543095
loop_
_publ_author_name
'Qin, Lei'
'Hartley, Anna'
'Turner, Peter'
'Elmes, Robert B. P.'
'Jolliffe, Katrina A.'
_publ_section_title
;
 Macrocyclic squaramides: anion receptors with high sulfate binding
 affinity and selectivity in aqueous media
;
_journal_issue                   7
_journal_name_full               'Chem. Sci.'
_journal_page_first              4563
_journal_paper_doi               10.1039/C6SC01011C
_journal_volume                  7
_journal_year                    2016
_chemical_formula_sum            'C28 H32 N4 O6 S2'
_chemical_formula_weight         584.69
_space_group_crystal_system      triclinic
_space_group_IT_number           2
_space_group_name_Hall           '-P 1'
_space_group_name_H-M_alt        'P -1'
_symmetry_cell_setting           triclinic
_symmetry_Int_Tables_number      2
_symmetry_space_group_name_Hall  '-P 1'
_symmetry_space_group_name_H-M   'P -1'
_atom_sites_solution_hydrogens   mixed
_audit_creation_method           SHELXL-2014/7
_audit_update_record
;
2016-03-03 deposited with the CCDC.
2016-04-01 downloaded from the CCDC.
;
_cell_angle_alpha                101.755(4)
_cell_angle_beta                 103.383(5)
_cell_angle_gamma                98.623(4)
_cell_formula_units_Z            1
_cell_length_a                   8.4474(5)
_cell_length_b                   8.6414(4)
_cell_length_c                   10.5047(6)
_cell_measurement_reflns_used    4050
_cell_measurement_temperature    150(1)
_cell_measurement_theta_max      75.7860
_cell_measurement_theta_min      4.4460
_cell_volume                     714.54(7)
_computing_cell_refinement
;
  CrysAlisPro, Agilent Technologies,
;
_computing_data_collection
;
  CrysAlisPro, Agilent Technologies,
;
_computing_data_reduction
;
  CrysAlisPro, Agilent Technologies,
;
_computing_molecular_graphics
;
  ORTEP3 for Windows (Farrugia, L., 1997)
  ORTEPIII  (Burnett, N.M., Johnson,C.K., 1996). 
  WinGX (Farrugia, 1999)
  shelXle (H\"i?1/2bschle,C.B., et al., 2011) 
;
_computing_structure_refinement  'SHELXL-2014 (Sheldrick, 2014)'
_computing_structure_solution    'SIR97 (Altomare, et. al. 1997)'
_diffrn_ambient_temperature      150(1)
_diffrn_crystal_treatment
;
attached with Exxon Paratone N to a nylon loop and quenched 
in a cold nitrogen gas stream from an Oxford Cryosystems Cryostream. 
;
_diffrn_detector                 'CCD plate'
_diffrn_detector_area_resol_mean 10.5861
_diffrn_detector_type            Atlas
_diffrn_measured_fraction_theta_full 0.996
_diffrn_measured_fraction_theta_max 0.979
_diffrn_measurement_device       'four-circle diffractometer'
_diffrn_measurement_device_type  'SuperNova, Dual, Cu at zero, Atlas'
_diffrn_measurement_method       \w
_diffrn_radiation_monochromator  mirror
_diffrn_radiation_type           'Cu K\a'
_diffrn_radiation_wavelength     1.5418
_diffrn_reflns_av_R_equivalents  0.0170
_diffrn_reflns_av_unetI/netI     0.0212
_diffrn_reflns_Laue_measured_fraction_full 0.996
_diffrn_reflns_Laue_measured_fraction_max 0.979
_diffrn_reflns_limit_h_max       10
_diffrn_reflns_limit_h_min       -10
_diffrn_reflns_limit_k_max       10
_diffrn_reflns_limit_k_min       -8
_diffrn_reflns_limit_l_max       10
_diffrn_reflns_limit_l_min       -13
_diffrn_reflns_number            6264
_diffrn_reflns_point_group_measured_fraction_full 0.996
_diffrn_reflns_point_group_measured_fraction_max 0.979
_diffrn_reflns_theta_full        67.679
_diffrn_reflns_theta_max         76.143
_diffrn_reflns_theta_min         4.466
_diffrn_source                   'SuperNova (Cu) X-ray Source'
_exptl_absorpt_coefficient_mu    2.098
_exptl_absorpt_correction_T_max  1.00
_exptl_absorpt_correction_T_min  0.917
_exptl_absorpt_correction_type   multi-scan
_exptl_absorpt_process_details
;
  CrysAlisPro, Agilent Technologies,
  Version 1.171.36.28
  Empirical absorption correction using spherical 
  harmonics, implemented in SCALE3 ABSPACK scaling algorithm.
;
_exptl_crystal_colour            'pale yellow'
_exptl_crystal_density_diffrn    1.359
_exptl_crystal_description       prismatic
_exptl_crystal_F_000             308
_exptl_crystal_size_max          0.168
_exptl_crystal_size_mid          0.139
_exptl_crystal_size_min          0.063
_refine_diff_density_max         0.375
_refine_diff_density_min         -0.292
_refine_diff_density_rms         0.045
_refine_ls_extinction_method     none
_refine_ls_goodness_of_fit_ref   1.323
_refine_ls_hydrogen_treatment    mixed
_refine_ls_matrix_type           full
_refine_ls_number_parameters     191
_refine_ls_number_reflns         2933
_refine_ls_number_restraints     0
_refine_ls_restrained_S_all      1.323
_refine_ls_R_factor_all          0.0350
_refine_ls_R_factor_gt           0.0328
_refine_ls_shift/su_max          0.000
_refine_ls_shift/su_mean         0.000
_refine_ls_structure_factor_coef Fsqd
_refine_ls_weighting_details
'w=1/[\s^2^(Fo^2^)+(0.04P)^2^+0.1P] where P=(Fo^2^+2Fc^2^)/3'
_refine_ls_weighting_scheme      calc
_refine_ls_wR_factor_gt          0.0880
_refine_ls_wR_factor_ref         0.0902
_reflns_Friedel_coverage         0.000
_reflns_number_gt                2716
_reflns_number_total             2933
_reflns_threshold_expression     'I > 2\s(I)'
_cod_data_source_file            c6sc01011c2.cif
_cod_data_source_block           1_kaj14pt1
_cod_depositor_comments
'Adding full bibliography for 1543095--1543098.cif.'
_cod_database_code               1543095
_shelx_shelxl_version_number     2014/7
_shelx_space_group_comment
;
The symmetry employed for this shelxl refinement is uniquely defined
by the following loop, which should always be used as a source of
symmetry information in preference to the above space-group names.
They are only intended as comments.
;
_shelx_res_file
;

    kaj14pt1.res created by SHELXL-2014/7


TITL kaj14pt1_x in P-1
CELL 1.54178   8.4474   8.6414  10.5047 101.755 103.383  98.623
ZERR    1.00   0.0005   0.0004   0.0006   0.004   0.005   0.004
LATT  1
SFAC C H N O S
UNIT 28 32 4 6 2
TEMP -123
MERG      2
L.S.      4
ACTA
BOND $H
CONF
HTAB
HTAB N1 O3
HTAB N2 O3
EQIV $1 -x+1, -y+1, -z+1
HTAB C5 O2_$1
EQIV $2 -x, -y, -z+1
HTAB C12 O1_$2
EQIV $3 x, y, z+1
HTAB C13 O2_$3
EQIV $4 -x+1, -y, -z+1
HTAB C13 O1_$4
HTAB C14 O1_$3
LIST      4
FMAP      2
PLAN     25
WGHT    0.040000    0.100000
FVAR       0.31663
O1    4    0.294525   -0.064152    0.120020    11.00000    0.03426    0.03057 =
         0.01881   -0.00074    0.00895    0.00398
O2    4    0.336446    0.321759    0.248285    11.00000    0.03819    0.02679 =
         0.02950    0.01029    0.01411    0.00554
N1    3    0.297308   -0.131413    0.417873    11.00000    0.02564    0.02146 =
         0.02020    0.00274    0.00769    0.00212
H1N   2    0.300011   -0.113213    0.501452    11.00000    0.03013
N2    3    0.302678    0.242570    0.536419    11.00000    0.02755    0.02106 =
         0.01961    0.00256    0.00921    0.00504
H2N   2    0.303601    0.190020    0.599126    11.00000    0.02749
C1    1    0.304192   -0.004871    0.364853    11.00000    0.01470    0.02170 =
         0.01824    0.00118    0.00464    0.00102
C2    1    0.306285    0.021085    0.231436    11.00000    0.01891    0.02441 =
         0.01929    0.00262    0.00580    0.00221
C3    1    0.321229    0.199056    0.289393    11.00000    0.01967    0.02372 =
         0.01996    0.00352    0.00629    0.00230
C4    1    0.310743    0.160854    0.417859    11.00000    0.01530    0.02104 =
         0.01924    0.00237    0.00453    0.00159
C5    1    0.290371    0.412861    0.563269    11.00000    0.02833    0.01910 =
         0.02938    0.00051    0.01309    0.00133
AFIX  23
H5A   2    0.245820    0.440657    0.476912    11.00000   -1.20000
H5B   2    0.402476    0.481720    0.606974    11.00000   -1.20000
AFIX   0
C6    1    0.177895    0.445601    0.653949    11.00000    0.02575    0.01870 =
         0.02297    0.00295    0.00816    0.00451
C7    1    0.235610    0.566524    0.773007    11.00000    0.02534    0.02565 =
         0.02852   -0.00362    0.00582   -0.00004
AFIX  43
H7    2    0.345788    0.628385    0.797230    11.00000   -1.20000
AFIX   0
C8    1    0.132598    0.597434    0.857006    11.00000    0.03450    0.03235 =
         0.02617   -0.00912    0.00706    0.00226
AFIX  43
H8    2    0.172746    0.680063    0.938565    11.00000   -1.20000

AFIX   0
C9    1   -0.028506    0.507909    0.821935    11.00000    0.03175    0.02833 =
         0.02495    0.00026    0.01196    0.00731
AFIX  43
H9    2   -0.098399    0.529727    0.879534    11.00000   -1.20000
AFIX   0
C10   1   -0.088596    0.386020    0.702618    11.00000    0.02470    0.01858 =
         0.02374    0.00483    0.00826    0.00519
C11   1    0.015555    0.355679    0.619497    11.00000    0.02613    0.01830 =
         0.02060   -0.00006    0.00642    0.00281
AFIX  43
H11   2   -0.024307    0.272649    0.538182    11.00000   -1.20000
AFIX   0
C12   1   -0.267930    0.295784    0.665096    11.00000    0.02598    0.01970 =
         0.03080    0.00305    0.01212    0.00414
AFIX  23
H12A  2   -0.301002    0.291585    0.748996    11.00000   -1.20000
H12B  2   -0.339803    0.356924    0.615597    11.00000   -1.20000
AFIX   0
REM *****************************************************************
REM DMSO solvate
REM *****************************************************************
S1    5    0.311761    0.011745    0.833450    11.00000    0.02513    0.03671 =
         0.01996    0.00989    0.00728    0.00590
O3    4    0.312460    0.012460    0.689226    11.00000    0.05148    0.03650 =
         0.02060    0.00750    0.01268    0.00944
C13   1    0.388931    0.216456    0.927365    11.00000    0.04430    0.03990 =
         0.02383    0.00253    0.01155    0.01070
AFIX 137
H13A  2    0.374670    0.227921    1.018560    11.00000   -1.50000
H13B  2    0.327306    0.286514    0.882140    11.00000   -1.50000
H13C  2    0.507276    0.247560    0.933062    11.00000   -1.50000
AFIX   0
C14   1    0.099832    0.001057    0.834918    11.00000    0.02486    0.08928 =
         0.04758    0.03063    0.01065    0.01239
AFIX 137
H14A  2    0.091413    0.013160    0.927783    11.00000   -1.50000
H14B  2    0.033115   -0.103716    0.778831    11.00000   -1.50000
H14C  2    0.058457    0.087849    0.798948    11.00000   -1.50000
AFIX   0
HKLF 4

REM  kaj14pt1_x in P-1
REM R1 =  0.0328 for    2716 Fo > 4sig(Fo)  and  0.0350 for all    2933 data
REM    191 parameters refined using      0 restraints

END

WGHT      0.0452      0.2649

REM Instructions for potential hydrogen bonds
HTAB N1 O3
HTAB N2 O3
HTAB C5 O2_$1
HTAB C12 O1_$2
HTAB C13 O2_$3
HTAB C13 O1_$4
HTAB C14 O1_$3

REM Highest difference peak  0.375,  deepest hole -0.292,  1-sigma level  0.045
Q1    1   0.3482  0.1159  0.8832  11.00000  0.05    0.38
Q2    1  -0.1777  0.3369  0.6841  11.00000  0.05    0.32
Q3    1   0.3148  0.0813  0.4135  11.00000  0.05    0.29
Q4    1   0.1964  0.0009  0.8321  11.00000  0.05    0.28
Q5    1   0.3109  0.1105  0.2478  11.00000  0.05    0.26
Q6    1   0.2162 -0.0028  0.6598  11.00000  0.05    0.25
Q7    1   0.3219  0.2005  0.3630  11.00000  0.05    0.25
Q8    1  -0.0590  0.4436  0.7621  11.00000  0.05    0.25
Q9    1   0.2918 -0.0160  0.2907  11.00000  0.05    0.23
Q10   1   0.2851 -0.2088  0.3822  11.00000  0.05    0.23
Q11   1   0.3434 -0.0641  0.8804  11.00000  0.05    0.22
Q12   1   0.2022  0.4977  0.7185  11.00000  0.05    0.21
Q13   1   0.2277  0.4330  0.6068  11.00000  0.05    0.21
Q14   1   0.0652  0.0549  0.7807  11.00000  0.05    0.19
Q15   1  -0.0532  0.3836  0.6494  11.00000  0.05    0.19
Q16   1   0.0972  0.4047  0.6442  11.00000  0.05    0.19
Q17   1   0.2888  0.3260  0.5422  11.00000  0.05    0.18
Q18   1   0.1643  0.5919  0.8000  11.00000  0.05    0.18
Q19   1  -0.3506  0.3274  0.6837  11.00000  0.05    0.17
Q20   1   0.2648  0.2640  0.2408  11.00000  0.05    0.16
Q21   1   0.0457  0.5822  0.8298  11.00000  0.05    0.16
Q22   1   0.2546 -0.0756  0.3839  11.00000  0.05    0.16
Q23   1   0.0707  0.5270  0.8550  11.00000  0.05    0.15
Q24   1   0.2916  0.1120  0.6826  11.00000  0.05    0.15
Q25   1   0.1694  0.7353  0.9022  11.00000  0.05    0.14
;
_shelx_res_checksum              95890
_shelx_hkl_file
;
   0   0  -1   67.13    0.63
   0   0   1   70.13    0.55
   0   0   2  325.20    1.72
   0   0  -2  326.50    1.99
   0   0  -3   56.15    1.04
   0   0   3   55.15    0.89
   0   0  -4   91.24    1.58
   0   0   4   90.08    1.35
   0   0   5    3.27    0.30
   0   0  -5    3.42    0.37
   0   0  -6    8.40    0.63
   0   0   6    8.04    0.53
   0   0  -7   21.22    1.10
   0   0  -8    6.49    0.29
   0   0  -8    6.59    0.66
   0   0  -8    6.52    0.30
   0   0  -8    6.37    0.32
   0   0  -8    6.40    0.33
   0   0  -9    3.46    0.22
   0   0  -9    3.67    0.26
   0   0  -9    3.35    0.23
   0   0 -10    6.79    0.35
   0   0 -10    6.78    0.31
   0   0 -10    7.03    0.35
   0   0 -11    0.05    0.05
   0   0 -11   -0.05    0.07
   0   0 -12    5.45    0.21
   0   1 -12    5.20    0.23
   0   1 -11    0.06    0.07
   0   1 -10    1.82    0.20
   0   1 -10    1.76    0.17
   0   1 -10    1.61    0.18
   0   1  -9    6.12    0.33
   0   1  -9    5.94    0.31
   0   1  -8    0.40    0.09
   0   1  -8    0.47    0.09
   0   1  -8    0.27    0.07
   0   1  -8    0.32    0.09
   0   1  -7    0.80    0.22
   0  -1   7    0.86    0.21
   0   1  -6   27.13    1.10
   0  -1   6   28.27    1.04
   0   1  -5    6.07    0.46
   0  -1   5    5.34    0.41
   0  -1   4   64.78    1.26
   0   1  -4   62.98    1.27
   0   1  -3  469.17    2.92
   0  -1   3  476.21    2.92
   0   1  -2   29.43    0.59
   0   1  -1   10.03    0.27
   0   1   0  128.67    0.86
   0  -1  -1   91.73    0.96
   0   1   1   91.16    0.49
   0   1   2   74.66    0.72
   0  -1  -2   77.04    1.11
   0   1   3   66.39    0.89
   0  -1  -3   69.10    1.27
   0  -1  -4   24.19    0.89
   0   1   4   23.98    0.64
   0  -1  -5    4.91    0.46
   0  -1  -6    3.83    0.45
   0  -1  -7   42.02    1.61
   0  -1  -8   16.11    0.51
   0  -1  -8   16.10    1.05
   0  -1  -8   16.88    0.52
   0  -1  -8   16.45    0.53
   0  -1  -9   10.96    0.45
   0  -1  -9   10.65    0.43
   0  -1  -9   11.01    0.43
   0  -1 -10    0.49    0.10
   0  -1 -10    0.57    0.10
   0  -1 -11    0.03    0.05
   0  -1 -11    0.06    0.05
   0   2 -12   10.34    0.33
   0   2 -12    9.53    0.24
   0   2 -11    1.83    0.16
   0   2 -11    2.19    0.20
   0   2 -11    1.91    0.17
   0   2 -10    5.72    0.31
   0   2 -10    5.75    0.33
   0   2 -10    5.37    0.30
   0   2  -9   17.36    0.56
   0   2  -9   15.85    0.51
   0   2  -9   17.41    0.54
   0   2  -9   16.84    0.52
   0   2  -8    1.97    0.17
   0   2  -8    2.28    0.19
   0   2  -8    1.80    0.16
   0  -2   8    2.47    0.38
   0  -2   7   21.60    1.06
   0  -2   6  129.00    2.38
   0  -2   5   17.46    0.80
   0  -2   4   33.42    0.98
   0  -2   3  101.12    1.51
   0   2  -2 1000.00    3.97
   0   2  -1   38.35    0.72
   0   2   0  286.67    0.95
   0   2   0  279.31    1.84
   0   2   1   93.07    0.56
   0   2   1   90.90    1.08
   0   2   2    3.83    0.23
   0  -2  -2    4.27    0.32
   0   2   2    4.05    0.12
   0  -2  -3   86.68    1.61
   0   2   3   84.58    0.58
   0   2   4  153.97    1.75
   0  -2  -4  156.27    2.46
   0  -2  -5   26.44    1.14
   0  -2  -6   59.02    1.87
   0  -2  -7    0.21    0.08
   0  -2  -7    0.11    0.06
   0  -2  -7    0.18    0.16
   0  -2  -7   -0.09    0.05
   0  -2  -8    0.62    0.12
   0  -2  -8    0.39    0.10
   0  -2  -8    0.55    0.10
   0  -2  -9    0.16    0.08
   0  -2  -9    0.03    0.07
   0  -2 -10    0.29    0.09
   0  -2 -10    0.03    0.05
   0  -2 -11    0.65    0.07
   0  -2 -11    0.65    0.09
   0   3 -12    0.64    0.08
   0   3 -11    0.07    0.06
   0   3 -11    0.11    0.07
   0   3 -11    0.08    0.07
   0   3 -10   14.76    0.51
   0   3 -10   15.54    0.53
   0   3 -10   14.16    0.47
   0   3  -9    0.53    0.11
   0   3  -9    0.42    0.09
   0   3  -9    0.53    0.11
   0   3  -9    0.47    0.09
   0  -3   8    4.58    0.56
   0   3  -8    4.43    0.25
   0   3  -8    4.07    0.26
   0   3  -8    4.36    0.26
   0  -3   7    1.54    0.30
   0  -3   6   98.75    2.25
   0  -3   5   11.11    0.69
   0  -3   4   21.77    0.87
   0  -3   3   12.74    0.61
   0   3  -3   13.19    0.61
   0   3  -3   13.20    0.60
   0   3  -2   65.37    1.24
   0   3  -2   65.89    1.27
   0   3  -1    0.26    0.11
   0   3  -1    0.27    0.11
   0   3   0  217.13    2.14
   0   3   0  217.02    1.08
   0   3   1   55.89    0.56
   0   3   1   56.52    1.04
   0   3   2  282.45    1.30
   0  -3  -2  281.28    2.97
   0   3   2  286.29    2.39
   0   3   3    0.68    0.13
   0   3   3    0.94    0.08
   0  -3  -3    0.66    0.19
   0  -3  -4    0.12    0.14
   0  -3  -5   12.84    0.86
   0  -3  -6   12.51    0.40
   0  -3  -6   12.22    0.90
   0  -3  -6   13.12    0.44
   0  -3  -7    1.33    0.14
   0  -3  -7    1.33    0.15
   0  -3  -7    1.24    0.15
   0  -3  -8   22.42    0.55
   0  -3  -8   21.81    0.62
   0  -3  -9    9.48    0.39
   0  -3 -10    3.66    0.21
   0  -3 -10    3.32    0.16
   0  -3 -11    1.08    0.08
   0   4 -12    6.61    0.24
   0   4 -11    1.41    0.15
   0   4 -11    1.17    0.14
   0   4 -10   11.50    0.41
   0   4 -10   11.54    0.44
   0   4 -10   11.82    0.43
   0   4  -9    4.48    0.26
   0   4  -9    4.32    0.28
   0   4  -9    4.39    0.27
   0   4  -8   32.35    0.68
   0  -4   8   35.32    1.59
   0   4  -8   30.14    0.67
   0   4  -8   36.04    1.55
   0   4  -8   32.27    0.68
   0   4  -8   30.89    0.71
   0  -4   7    9.57    0.80
   0   4  -7   10.67    0.82
   0  -4   6  162.74    3.07
   0   4  -6  166.61    3.03
   0   4  -5   29.25    1.19
   0  -4   5   29.39    1.21
   0   4  -4    0.04    0.13
   0  -4   4    0.15    0.12
   0  -4   3   50.68    1.30
   0   4  -3   49.48    1.33
   0   4  -3   51.44    1.33
   0   4  -2   78.63    1.57
   0   4  -2   78.47    1.60
   0   4  -1    0.73    0.17
   0   4  -1    0.86    0.18
   0  -4   1    0.73    0.14
   0   4   0   89.77    1.57
   0  -4  -1   93.70    1.83
   0   4   1   90.58    1.57
   0  -4  -2    2.10    0.31
   0   4   2    2.13    0.25
   0  -4  -3    9.34    0.68
   0  -4  -4    0.39    0.19
   0  -4  -5   31.87    0.67
   0  -4  -5   31.49    1.44
   0  -4  -6   21.65    0.59
   0  -4  -7    2.99    0.23
   0  -4  -8    0.09    0.06
   0  -4  -9    4.02    0.22
   0  -4 -10    1.92    0.12
   0   4  10    1.85    0.11
   0   5 -12    0.33    0.07
   0   5 -11    9.23    0.34
   0   5 -11    9.42    0.35
   0   5 -10    0.01    0.05
   0   5 -10   -0.02    0.07
   0   5 -10   -0.05    0.07
   0   5  -9   27.94    0.69
   0   5  -9   28.57    0.67
   0   5  -9   28.17    0.64
   0   5  -8    8.86    0.36
   0   5  -8    8.57    0.37
   0   5  -8    9.27    0.40
   0   5  -7    0.20    0.07
   0   5  -7    0.14    0.05
   0   5  -7    0.31    0.17
   0  -5   7    0.05    0.14
   0   5  -7    0.25    0.09
   0   5  -7    0.13    0.06
   0   5  -6   72.79    2.15
   0  -5   6   71.33    2.13
   0  -5   5    0.47    0.21
   0   5  -5    0.76    0.24
   0  -5   4    7.95    0.62
   0   5  -4    7.15    0.60
   0   5  -3   19.60    0.93
   0   5  -3   19.65    0.96
   0  -5   3   19.76    0.88
   0   5  -2   29.01    1.10
   0   5  -2   28.43    1.08
   0  -5   2   28.16    0.94
   0   5  -1   10.76    0.65
   0   5  -1   10.72    0.67
   0   5   0  116.46    2.06
   0  -5  -1   10.80    0.72
   0   5   1    9.92    0.60
   0  -5  -2    2.48    0.37
   0   5   2    2.25    0.28
   0  -5  -3    1.70    0.32
   0  -5  -4    1.75    0.15
   0  -5  -4    2.06    0.38
   0   5   4    1.57    0.16
   0  -5  -5    0.60    0.10
   0   5   5    0.49    0.09
   0  -5  -6    0.34    0.09
   0  -5  -7   15.11    0.47
   0  -5  -8    7.18    0.29
   0  -5  -9    1.90    0.12
   0   5   9    1.83    0.13
   0   6 -12   21.01    0.33
   0   6 -11    0.07    0.06
   0   6 -10    3.64    0.22
   0   6 -10    3.45    0.19
   0   6 -10    3.83    0.24
   0   6  -9   24.05    0.55
   0   6  -9   24.04    0.63
   0   6  -9   23.60    0.58
   0   6  -8    7.38    0.37
   0   6  -8    7.23    0.35
   0   6  -8    7.02    0.32
   0   6  -8    6.91    0.31
   0   6  -7    0.51    0.11
   0   6  -7    0.47    0.09
   0   6  -7    0.36    0.10
   0   6  -6   10.70    0.38
   0   6  -6   11.50    0.45
   0   6  -6   11.11    0.43
   0   6  -6   12.27    0.92
   0  -6   6   11.36    0.87
   0   6  -5   22.91    0.57
   0   6  -5   22.36    0.59
   0   6  -5   22.87    0.59
   0  -6   5   22.32    1.15
   0   6  -5   23.66    1.24
   0   6  -4    1.30    0.29
   0  -6   4    1.36    0.28
   0   6  -3    0.21    0.16
   0   6  -3    0.13    0.14
   0   6  -2  113.35    2.44
   0   6  -2  107.78    2.35
   0   6  -1    3.10    0.39
   0  -6   0   28.33    1.25
   0   6   0   28.83    1.15
   0  -6  -1    4.33    0.50
   0   6   1    4.15    0.42
   0  -6  -2    4.06    0.52
   0   6   2    4.05    0.24
   0   6   2    4.64    0.28
   0   6   2    4.45    0.26
   0   6   3    0.88    0.13
   0   6   3    0.97    0.12
   0  -6  -3    0.98    0.26
   0   6   3    0.99    0.14
   0   6   4    4.50    0.27
   0   6   4    4.51    0.24
   0   6   5   13.29    0.43
   0  -6  -6    3.44    0.20
   0   6   6    3.14    0.24
   0   6   7    0.06    0.06
   0   6   7    0.02    0.04
   0  -6  -7    0.06    0.05
   0   6   8    0.11    0.06
   0   6   8    0.05    0.04
   0  -6  -8    0.08    0.03
   0   7 -11    0.01    0.05
   0   7 -10    2.52    0.17
   0   7  -9    0.01    0.04
   0   7  -9    0.00    0.05
   0   7  -9   -0.06    0.07
   0   7  -8    8.45    0.34
   0   7  -8    8.00    0.31
   0   7  -7    0.97    0.15
   0   7  -7    1.03    0.15
   0   7  -6    3.12    0.25
   0   7  -6    2.74    0.23
   0   7  -5  111.91    1.39
   0   7  -5  113.63    1.41
   0   7  -5  111.52    1.35
   0   7  -4    7.13    0.34
   0   7  -4    7.51    0.72
   0   7  -4    7.33    0.34
   0   7  -3    5.23    0.26
   0   7  -3    5.33    0.30
   0   7  -3    5.47    0.27
   0   7  -3    5.44    0.30
   0   7  -3    5.12    0.25
   0   7  -2   30.31    0.69
   0   7  -2   28.54    0.61
   0   7  -2   28.36    0.64
   0   7  -2   28.86    1.29
   0   7  -2   28.03    0.63
   0   7  -2   28.02    0.68
   0   7  -1    1.47    0.16
   0   7  -1    1.51    0.15
   0   7  -1    2.01    0.19
   0  -7   1    1.28    0.28
   0   7  -1    1.53    0.16
   0   7  -1    1.40    0.15
   0   7   0   28.89    0.67
   0   7   0   28.17    0.66
   0   7   0   27.92    0.66
   0   7   0   29.26    0.69
   0  -7   0   27.54    1.30
   0   7   0   29.48    0.72
   0   7   1   10.90    0.45
   0   7   1   10.47    0.41
   0   7   1    9.99    0.41
   0   7   1   10.67    0.42
   0   7   1   10.75    0.41
   0   7   2    0.20    0.07
   0   7   2    0.10    0.07
   0   7   2    0.05    0.07
   0   7   2    0.09    0.05
   0   7   2    0.08    0.07
   0   7   3    0.01    0.06
   0   7   3   -0.01    0.07
   0   7   3    0.05    0.07
   0   7   3   -0.05    0.07
   0   7   3    0.10    0.07
   0   7   4    0.11    0.06
   0   7   4   -0.02    0.07
   0   7   4    0.04    0.08
   0   7   5    7.38    0.34
   0   7   5    6.76    0.31
   0   7   5    6.36    0.28
   0   7   6    5.68    0.25
   0   7   6    5.66    0.22
   0   7   6    6.04    0.27
   0   7   7    1.43    0.10
   0   7   7    1.60    0.11
   0   8  -9    7.19    0.25
   0   8  -8   22.12    0.54
   0   8  -7    1.28    0.16
   0   8  -7    1.22    0.12
   0   8  -6   30.87    0.72
   0   8  -5   14.01    0.49
   0   8  -5   13.66    0.48
   0   8  -5   12.83    0.43
   0   8  -4    3.71    0.22
   0   8  -4    3.38    0.25
   0   8  -3    0.55    0.10
   0   8  -3    0.57    0.13
   0   8  -3    0.50    0.12
   0   8  -2    0.08    0.07
   0   8  -2    0.20    0.08
   0   8  -2    0.10    0.07
   0   8  -1    5.37    0.29
   0   8  -1    5.46    0.31
   0   8  -1    5.41    0.32
   0   8  -1    5.58    0.30
   0   8   0    7.75    0.38
   0   8   0    7.61    0.35
   0   8   0    7.49    0.36
   0   8   0    7.75    0.36
   0   8   1    0.37    0.10
   0   8   1    0.30    0.09
   0   8   1    0.36    0.10
   0   8   1    0.39    0.10
   0   8   2    0.00    0.06
   0   8   2   -0.03    0.08
   0   8   2    0.04    0.06
   0   8   3   13.30    0.46
   0   8   3   13.03    0.42
   0   8   3   13.08    0.41
   0   8   4    0.93    0.11
   0   8   4    1.07    0.12
   0   8   4    0.98    0.13
   0   8   5    1.15    0.10
   0   8   5    1.17    0.12
   0   8   5    1.11    0.09
   0   9  -9    2.38    0.11
   0   9  -8    3.67    0.18
   0   9  -7    6.98    0.29
   0   9  -6    3.83    0.23
   0   9  -6    3.81    0.23
   0   9  -5    4.01    0.24
   0   9  -5    3.86    0.24
   0   9  -4    1.26    0.14
   0   9  -4    1.45    0.16
   0   9  -4    1.38    0.15
   0   9  -3    0.05    0.05
   0   9  -3    0.02    0.06
   0   9  -3   -0.09    0.08
   0   9  -2    1.23    0.15
   0   9  -2    1.22    0.15
   0   9  -2    1.34    0.14
   0   9  -1    7.01    0.33
   0   9  -1    6.81    0.32
   0   9  -1    7.07    0.32
   0   9   0    8.85    0.35
   0   9   0    9.04    0.37
   0   9   1    3.29    0.19
   0   9   1    3.38    0.22
   0   9   1    3.52    0.21
   0   9   2    3.42    0.21
   0   9   2    3.34    0.19
   0   9   2    3.44    0.18
   0   9   3   -0.01    0.06
   0   9   3    0.05    0.04
   0   9   3    0.00    0.05
   0   9   4    0.01    0.04
   0  10  -7    2.04    0.12
   0  10  -6    9.14    0.26
   0  10  -5    0.18    0.06
   0  10  -5    0.13    0.06
   0  10  -4    2.82    0.15
   0  10  -4    3.26    0.17
   0  10  -3   11.41    0.31
   0  10  -3   11.09    0.33
   0  10  -2    4.33    0.19
   0  10  -2    4.70    0.22
   0  10  -1    2.09    0.15
   0  10  -1    1.73    0.11
   0  10   0    5.00    0.20
   0  10   1    1.45    0.10
  -1  10   1    1.30    0.10
  -1  10   1    1.28    0.11
  -1  10   0    3.24    0.17
  -1  10  -1    2.35    0.15
  -1  10  -2    0.73    0.09
  -1  10  -3    0.14    0.05
  -1  10  -3    0.64    0.09
  -1  10  -4    1.89    0.12
  -1  10  -4    1.94    0.14
  -1  10  -5    4.66    0.20
  -1  10  -6    0.09    0.06
  -1  10  -7    4.49    0.17
  -1   9   4    0.12    0.06
  -1   9   4    0.17    0.05
  -1   9   3    0.40    0.08
  -1   9   3    0.57    0.09
  -1   9   2    1.85    0.16
  -1   9   2    1.90    0.16
  -1   9   1    5.29    0.28
  -1   9   1    5.42    0.27
  -1   9   1    5.06    0.27
  -1   9   0    0.15    0.08
  -1   9   0    0.08    0.08
  -1   9   0    0.17    0.08
  -1   9  -1   12.28    0.42
  -1   9  -1   11.85    0.44
  -1   9  -1   11.61    0.41
  -1   9  -2    3.05    0.21
  -1   9  -2    2.51    0.17
  -1   9  -2    2.95    0.21
  -1   9  -2    3.21    0.23
  -1   9  -3    1.26    0.13
  -1   9  -3    1.22    0.14
  -1   9  -3    1.19    0.13
  -1   9  -3    0.88    0.12
  -1   9  -4    5.06    0.23
  -1   9  -4    4.42    0.26
  -1   9  -4    4.30    0.24
  -1   9  -4    4.19    0.24
  -1   9  -5    2.48    0.18
  -1   9  -5    2.46    0.19
  -1   9  -6    0.38    0.09
  -1   9  -6    0.10    0.08
  -1   9  -7    6.48    0.27
  -1   9  -8    4.12    0.19
  -1   8   6    2.97    0.13
  -1   8   6    3.00    0.15
  -1   8   5   13.00    0.31
  -1   8   5   14.13    0.37
  -1   8   5   13.77    0.39
  -1   8   4    0.78    0.12
  -1   8   4    0.92    0.11
  -1   8   4    0.97    0.13
  -1   8   3    2.17    0.19
  -1   8   3    2.36    0.17
  -1   8   3    2.11    0.19
  -1   8   3    2.07    0.17
  -1   8   3    2.27    0.19
  -1   8   2    9.04    0.39
  -1   8   2    8.42    0.37
  -1   8   2    8.62    0.39
  -1   8   2    8.04    0.33
  -1   8   2    8.80    0.36
  -1   8   1    6.61    0.35
  -1   8   1    6.28    0.29
  -1   8   1    6.36    0.33
  -1   8   1    6.31    0.34
  -1   8   1    6.25    0.32
  -1   8   0    0.64    0.13
  -1   8   0    0.70    0.12
  -1   8   0    0.53    0.11
  -1   8   0    0.62    0.11
  -1   8  -1   12.08    0.44
  -1   8  -1   13.01    0.45
  -1   8  -1   12.36    0.47
  -1   8  -1   12.27    0.46
  -1   8  -2    3.45    0.23
  -1   8  -2    3.24    0.24
  -1   8  -2    2.88    0.23
  -1   8  -2    3.34    0.23
  -1   8  -2    2.92    0.21
  -1   8  -3    5.96    0.29
  -1   8  -3    6.11    0.32
  -1   8  -3    6.24    0.29
  -1   8  -3    6.69    0.35
  -1   8  -4    1.15    0.15
  -1   8  -4    1.20    0.13
  -1   8  -4    1.10    0.14
  -1   8  -4    1.25    0.15
  -1   8  -4    1.01    0.12
  -1   8  -5    2.14    0.19
  -1   8  -5    1.99    0.19
  -1   8  -6   13.74    0.48
  -1   8  -6   13.97    0.47
  -1   8  -7   20.54    0.55
  -1   8  -8    2.43    0.18
  -1   8  -9    0.13    0.05
  -1   8  -9    0.05    0.04
  -1   8 -10    1.41    0.11
  -1   7   7    2.59    0.14
  -1   7   7    2.83    0.17
  -1   7   7    2.81    0.15
  -1   7   6    2.09    0.18
  -1   7   6    2.01    0.15
  -1   7   6    2.03    0.16
  -1   7   5    3.63    0.23
  -1   7   5    3.53    0.22
  -1   7   5    4.00    0.25
  -1   7   5    3.67    0.25
  -1   7   4    1.16    0.13
  -1   7   4    1.14    0.16
  -1   7   4    1.18    0.15
  -1   7   4    1.27    0.15
  -1   7   4    1.13    0.14
  -1   7   3    7.12    0.35
  -1   7   3    7.60    0.33
  -1   7   3    7.36    0.37
  -1   7   3    7.21    0.36
  -1   7   3    6.56    0.32
  -1   7   2   51.91    0.97
  -1   7   2   52.67    0.89
  -1   7   2   52.74    0.94
  -1   7   2   52.92    0.90
  -1   7   2   52.33    0.96
  -1   7   1    1.81    0.17
  -1   7   1    1.81    0.16
  -1   7   1    1.20    0.25
  -1   7   1    1.64    0.17
  -1   7   1    1.79    0.18
  -1   7   1    1.76    0.18
  -1   7   1    1.70    0.18
  -1   7   0    4.35    0.26
  -1   7   0    3.97    0.25
  -1   7   0    4.26    0.27
  -1   7   0    4.34    0.27
  -1   7   0    4.14    0.49
  -1   7   0    4.42    0.26
  -1   7  -1   30.05    0.66
  -1   7  -1   30.26    0.69
  -1   7  -1   29.89    0.65
  -1   7  -1   30.14    0.69
  -1   7  -1   29.80    1.33
  -1   7  -1   31.25    0.65
  -1   7  -2    4.25    0.26
  -1   7  -2    4.33    0.26
  -1   7  -2    3.74    0.23
  -1   7  -2    4.27    0.25
  -1   7  -2    3.93    0.50
  -1   7  -3    4.29    0.27
  -1   7  -3    4.25    0.51
  -1   7  -3    4.13    0.23
  -1   7  -3    4.09    0.25
  -1   7  -3    4.19    0.25
  -1   7  -3    4.15    0.23
  -1   7  -4    0.37    0.18
  -1   7  -4    0.68    0.11
  -1   7  -4    0.57    0.10
  -1   7  -5   40.32    0.81
  -1   7  -6   12.97    0.47
  -1   7  -7   28.01    0.63
  -1   7  -8   11.53    0.40
  -1   7  -8   11.10    0.40
  -1   7  -9    3.59    0.22
  -1   7  -9    3.36    0.18
  -1   7 -10    5.19    0.23
  -1   7 -11    0.98    0.08
   1  -6  -8   15.51    0.34
  -1   6   8   15.73    0.40
  -1   6   8   14.97    0.35
   1  -6  -7   10.56    0.34
   1  -6  -6    0.39    0.08
  -1   6   6    0.31    0.08
  -1   6   5   40.53    0.79
   1  -6  -5   42.49    0.76
  -1   6   4    0.24    0.07
  -1   6   4    0.18    0.07
  -1   6   3    0.77    0.12
  -1   6   3    0.88    0.12
  -1   6   2   33.76    0.70
  -1   6   2   35.05    1.29
  -1   6   2   35.15    0.69
   1  -6  -2   34.02    1.36
  -1   6   2   34.76    0.74
  -1   6   2   34.83    0.68
   1  -6  -1    0.72    0.20
  -1   6   1    0.59    0.17
  -1   6   0    4.80    0.49
   1  -6   0    4.88    0.48
  -1   6  -1    8.94    0.68
  -1   6  -2  112.09    2.47
  -1   6  -2  106.52    2.38
   1  -6   3    1.10    0.24
  -1   6  -3    0.77    0.22
  -1   6  -3    1.19    0.26
  -1   6  -4    2.62    0.41
   1  -6   4    2.77    0.40
  -1   6  -5   26.26    0.62
  -1   6  -5   25.13    0.63
  -1   6  -5   27.21    1.33
   1  -6   5   25.68    1.29
  -1   6  -6    1.78    0.17
  -1   6  -6    1.99    0.19
  -1   6  -6    1.85    0.36
  -1   6  -6    1.90    0.18
   1  -6   6    1.79    0.35
  -1   6  -7   14.18    0.44
  -1   6  -7   14.13    0.49
  -1   6  -8    0.28    0.10
  -1   6  -8    0.34    0.09
  -1   6  -9    4.16    0.27
  -1   6 -10    2.31    0.18
  -1   6 -11    1.32    0.12
   1  -5  -9    0.30    0.07
   1  -5  -8    6.60    0.30
   1  -5  -7    3.71    0.24
  -1   5   6   10.05    0.38
   1  -5  -6   10.43    0.41
  -1   5   5    2.08    0.18
   1  -5  -5    2.09    0.37
  -1   5   4   20.84    0.53
   1  -5  -4   21.27    1.13
   1  -5  -3    3.05    0.41
  -1   5   3    3.63    0.39
  -1   5   2    5.51    0.48
   1  -5  -2    6.05    0.52
  -1   5   1  225.04    3.02
   1  -5  -1  234.68    3.07
  -1   5   0    2.14    0.29
  -1   5  -1   54.29    1.48
  -1   5  -1   55.65    1.53
  -1   5  -2   42.12    1.36
  -1   5  -2   42.44    1.33
  -1   5  -3   18.76    0.92
  -1   5  -3   18.39    0.93
  -1   5  -4   21.25    1.02
  -1   5  -4   22.26    1.07
   1  -5   4   24.67    1.13
  -1   5  -5   17.09    0.99
   1  -5   5   16.55    0.99
   1  -5   6    0.27    0.17
  -1   5  -6    0.22    0.07
  -1   5  -6    0.53    0.19
  -1   5  -7   20.37    0.55
  -1   5  -7   20.66    0.58
  -1   5  -7   21.94    1.19
   1  -5   7   20.24    1.21
  -1   5  -7   20.28    0.58
  -1   5  -8    3.81    0.27
  -1   5  -8    3.64    0.25
  -1   5  -9    0.05    0.07
  -1   5  -9    0.13    0.09
  -1   5 -10    5.87    0.31
  -1   5 -11   12.44    0.38
  -1   5 -12    1.07    0.09
   1  -4 -10    0.30    0.07
   1  -4  -9    8.78    0.35
   1  -4  -8    7.66    0.36
   1  -4  -8    7.60    0.31
   1  -4  -8    7.07    0.30
   1  -4  -7   32.59    0.75
   1  -4  -7   31.46    0.66
   1  -4  -6    6.71    0.67
  -1   4   6    6.74    0.29
   1  -4  -5   51.10    1.77
   1  -4  -4   61.20    1.77
  -1   4   4   59.50    1.48
   1  -4  -3   73.54    1.77
  -1   4   3   70.14    1.55
   1  -4  -2   14.42    0.71
  -1   4   2   14.73    0.69
   1  -4  -1    0.53    0.16
  -1   4   1    0.52    0.15
  -1   4   0   95.72    1.71
  -1   4  -1  100.14    1.81
  -1   4  -1   98.73    1.73
  -1   4  -2   32.92    1.06
  -1   4  -2   32.40    1.02
  -1   4  -3   20.11    0.85
  -1   4  -3   20.02    0.84
  -1   4  -4   20.19    0.88
  -1   4  -4   20.25    0.92
   1  -4   5    5.29    0.54
  -1   4  -5    5.82    0.53
   1  -4   6   48.81    1.71
  -1   4  -6   49.67    1.64
   1  -4   7   38.36    1.60
  -1   4  -7   33.63    0.67
  -1   4  -7   35.48    0.72
  -1   4  -7   37.15    1.49
  -1   4  -7   33.96    0.70
  -1   4  -8   33.75    0.75
  -1   4  -8   34.45    0.76
  -1   4  -8   33.14    0.65
  -1   4  -9   14.36    0.43
  -1   4  -9   14.06    0.50
  -1   4  -9   14.13    0.51
  -1   4  -9   14.16    0.50
  -1   4 -10    6.55    0.33
  -1   4 -10    6.59    0.34
  -1   4 -10    6.80    0.34
  -1   4 -11    6.15    0.28
  -1   4 -12    2.72    0.13
   1  -3 -11    1.54    0.09
   1  -3 -11    2.02    0.13
   1  -3 -10    0.82    0.12
   1  -3  -9    9.73    0.38
   1  -3  -9    9.84    0.37
   1  -3  -9   10.23    0.41
   1  -3  -8   97.09    1.22
   1  -3  -8   96.66    1.24
   1  -3  -8   97.63    1.30
   1  -3  -7   31.76    0.68
   1  -3  -7   31.44    0.67
   1  -3  -7   29.55    1.43
   1  -3  -6   20.68    1.13
  -1   3   5   44.31    1.23
   1  -3  -5   43.69    1.52
   1  -3  -4   44.70    1.39
  -1   3   4   45.87    1.19
   1  -3  -3   21.92    0.86
  -1   3   3   22.13    0.78
  -1   3   2    4.05    0.33
   1  -3  -2    4.15    0.34
  -1   3   1   70.80    1.27
   1  -3  -1   71.04    1.21
  -1   3   0   69.90    1.24
  -1   3   0   73.50    1.30
  -1   3  -1   20.56    0.69
  -1   3  -1   19.05    0.65
  -1   3  -2  148.29    1.85
  -1   3  -2  144.85    1.87
  -1   3  -2  144.58    0.70
  -1   3  -3  155.12    2.09
  -1   3  -3  156.12    0.90
  -1   3  -4  172.78    2.39
   1  -3   5   13.28    0.78
   1  -3   6   24.38    1.14
   1  -3   7   24.28    1.21
  -1   3  -8   57.74    0.97
  -1   3  -8   58.97    0.88
   1  -3   8   58.44    1.92
  -1   3  -8   58.52    1.00
  -1   3  -8   60.39    1.84
  -1   3  -9   22.13    0.65
  -1   3  -9   22.56    0.56
  -1   3  -9   21.47    0.62
  -1   3 -10    0.63    0.12
  -1   3 -10    0.78    0.13
  -1   3 -10    0.76    0.12
  -1   3 -11    3.11    0.21
  -1   3 -11    3.24    0.20
  -1   3 -12    0.58    0.06
   1  -2 -11    5.87    0.24
   1  -2 -11    5.87    0.24
   1  -2 -10    2.62    0.21
   1  -2 -10    2.95    0.21
   1  -2  -9    0.27    0.09
   1  -2  -9    0.29    0.09
   1  -2  -9    0.26    0.08
   1  -2  -8   54.56    0.95
   1  -2  -8   54.48    0.95
   1  -2  -8   54.16    0.93
   1  -2  -7   25.65    1.29
   1  -2  -7   24.96    0.60
   1  -2  -7   25.23    0.60
   1  -2  -6    2.07    0.34
   1  -2  -5   18.79    0.91
  -1   2   4    2.90    0.23
   1  -2  -4    3.14    0.34
   1  -2  -3   57.37    1.22
  -1   2   3   55.96    0.92
   1  -2  -2    0.20    0.09
  -1   2   2    0.16    0.06
  -1   2   1  147.30    1.51
   1  -2  -1  142.74    1.37
  -1   2   0   68.73    0.99
  -1   2  -1  667.40    3.11
  -1   2  -1  655.63    3.11
  -1   2  -2  141.19    1.50
  -1   2  -2  143.65    1.56
  -1   2  -2  141.84    0.71
  -1   2  -3   60.00    1.08
  -1   2  -3   59.97    0.57
  -1   2  -4   20.18    0.39
   1  -2   5   50.15    1.38
   1  -2   6    2.93    0.37
   1  -2   7   15.87    0.90
  -1   2  -8    7.21    0.33
  -1   2  -8    7.03    0.34
  -1   2  -8    7.02    0.31
  -1   2  -8    7.34    0.36
  -1   2  -9   16.71    0.53
  -1   2  -9   16.53    0.56
  -1   2 -10    0.96    0.12
  -1   2 -10    0.84    0.14
  -1   2 -11    9.43    0.30
  -1   2 -11    9.92    0.38
   1  -1 -12    1.10    0.10
   1  -1 -11   17.16    0.48
   1  -1 -11   16.61    0.42
   1  -1 -10   12.66    0.46
   1  -1 -10   12.80    0.47
   1  -1 -10   13.09    0.44
   1  -1  -9    9.66    0.41
   1  -1  -9    9.96    0.43
   1  -1  -9    9.99    0.40
   1  -1  -8   11.53    0.43
   1  -1  -8   12.12    0.44
   1  -1  -8   12.05    0.91
   1  -1  -7  112.21    2.58
   1  -1  -6   11.89    0.77
   1  -1  -5   20.52    0.89
  -1   1   5   19.60    0.73
   1  -1  -4   95.15    1.65
  -1   1   4   91.31    1.41
   1  -1  -3    2.00    0.22
  -1   1   3    2.09    0.19
  -1   1   2   61.86    0.87
   1  -1  -2   60.65    0.91
  -1   1   1    0.85    0.10
   1  -1  -1    0.80    0.08
  -1   1   0   87.95    0.82
  -1   1   0   88.99    0.84
  -1   1  -1   63.93    0.74
  -1   1  -1   67.62    0.72
  -1   1  -2  480.58    2.36
  -1   1  -2  482.00    1.30
  -1   1  -2  479.88    2.15
  -1   1  -3   18.03    0.31
  -1   1  -3   17.61    0.58
   1  -1   4  121.49    1.77
  -1   1  -4  121.56    1.80
  -1   1  -4  125.47    0.97
   1  -1   5   28.00    0.94
  -1   1  -5   29.91    1.04
   1  -1   6   77.63    1.72
  -1   1  -6   76.95    1.87
  -1   1  -7   76.35    2.05
  -1   1  -8   12.99    0.42
  -1   1  -8   13.04    0.46
  -1   1  -8   13.13    0.44
  -1   1  -9    3.01    0.21
  -1   1  -9    2.86    0.24
  -1   1  -9    2.83    0.20
  -1   1  -9    2.94    0.22
  -1   1 -10   32.97    0.62
  -1   1 -10   35.04    0.78
  -1   1 -11    1.71    0.16
   1   0 -12    0.00    0.05
   1   0 -11   11.12    0.34
   1   0 -11   11.53    0.42
   1   0 -11   11.95    0.43
   1   0 -10   23.54    0.65
   1   0 -10   24.15    0.57
   1   0 -10   24.38    0.56
   1   0 -10   24.97    0.67
   1   0  -9    0.85    0.12
   1   0  -9    0.73    0.13
   1   0  -9    0.75    0.13
   1   0  -9    0.71    0.11
   1   0  -8    0.08    0.05
   1   0  -8    0.06    0.06
   1   0  -8   -0.02    0.07
   1   0  -8   -0.09    0.05
   1   0  -7  144.69    2.83
  -1   0   7  140.09    2.50
  -1   0   6   29.95    1.08
   1   0  -6   29.44    1.15
  -1   0   5   59.25    1.37
   1   0  -5   57.86    1.42
  -1   0   4   10.29    0.51
   1   0  -4    9.92    0.51
  -1   0   3   17.32    0.57
   1   0  -3   18.16    0.58
  -1   0   2  261.02    1.88
   1   0  -2  272.41    1.74
  -1   0   1    0.69    0.09
  -1   0   0   16.43    0.33
  -1   0  -1    4.76    0.20
  -1   0  -2   72.38    1.02
  -1   0  -2   72.35    0.52
  -1   0  -3    1.60    0.10
  -1   0  -3    1.30    0.18
   1   0   4   81.48    1.27
  -1   0  -4   79.67    1.55
   1   0   5   13.87    0.58
  -1   0  -5   12.50    0.71
  -1   0  -6    9.68    0.70
  -1   0  -7   83.95    2.24
  -1   0  -8    2.27    0.38
  -1   0  -8    2.22    0.20
  -1   0  -8    2.33    0.19
  -1   0  -8    2.29    0.18
  -1   0  -9    0.46    0.10
  -1   0  -9    0.40    0.10
  -1   0 -10    9.03    0.35
  -1   0 -10    9.42    0.39
  -1   0 -11    4.85    0.20
  -1   0 -11    5.30    0.25
   1   1 -12    0.56    0.09
   1   1 -11    1.83    0.18
   1   1 -11    1.74    0.18
   1   1 -11    1.81    0.16
   1   1 -10   38.79    0.82
   1   1 -10   38.50    0.77
   1   1  -9   22.66    0.62
   1   1  -9   23.81    0.63
   1   1  -9   22.84    0.61
  -1  -1   8   19.69    1.06
   1   1  -8   19.89    0.53
   1   1  -8   19.84    0.54
   1   1  -8   20.38    0.54
  -1  -1   7   93.20    2.20
   1   1  -6    1.22    0.25
  -1  -1   6    1.18    0.23
   1   1  -5   42.98    1.21
  -1  -1   5   41.00    1.18
   1   1  -4   12.25    0.56
  -1  -1   4   13.23    0.59
  -1  -1   3  255.02    2.23
  -1  -1   2    1.30    0.14
  -1  -1   1    8.61    0.29
   1   1   0  483.40    1.60
   1   1   0  481.74    1.55
  -1  -1  -1   39.43    0.75
   1   1   1   39.73    0.36
  -1  -1  -2   11.70    0.48
   1   1   2   11.59    0.23
   1   1   2   11.33    0.24
  -1  -1  -2   11.85    0.21
  -1  -1  -3  116.11    0.81
  -1  -1  -3  113.70    1.75
  -1  -1  -4    3.23    0.35
  -1  -1  -5   17.03    0.89
  -1  -1  -6    2.23    0.38
  -1  -1  -7   20.47    0.53
  -1  -1  -7   20.77    0.56
  -1  -1  -7   21.76    1.19
  -1  -1  -7   19.89    0.56
  -1  -1  -8   42.41    0.85
  -1  -1  -8   43.89    0.88
  -1  -1  -9    0.43    0.09
  -1  -1  -9    0.46    0.11
  -1  -1 -10   15.99    0.45
  -1  -1 -10   15.68    0.45
  -1  -1 -11    4.32    0.19
  -1  -1 -11    4.38    0.18
   1   2 -12    0.06    0.05
   1   2 -12    0.14    0.07
   1   2 -12    0.20    0.06
   1   2 -11   36.08    0.71
   1   2 -11   36.86    0.73
   1   2 -11   36.45    0.76
   1   2 -10    2.19    0.20
   1   2 -10    2.03    0.19
   1   2 -10    2.55    0.22
   1   2 -10    2.32    0.20
   1   2  -9   16.78    0.53
   1   2  -9   17.34    0.52
  -1  -2   9   16.58    1.05
   1   2  -8   24.99    0.60
  -1  -2   8   24.99    1.28
  -1  -2   7   63.79    1.89
  -1  -2   6    6.05    0.54
  -1  -2   5   46.93    1.31
  -1  -2   4   11.61    0.59
  -1  -2   3   13.03    0.55
   1   2  -2   10.93    0.19
  -1  -2   2   11.39    0.44
   1   2  -1   81.02    0.55
   1   2  -1   81.35    1.05
  -1  -2   1   82.34    0.98
   1   2   0   20.24    0.47
   1   2   0   19.21    0.48
   1   2   0   19.43    0.29
  -1  -2   0   20.26    0.37
   1   2   1   67.61    0.57
   1   2   1   65.66    0.80
  -1  -2  -2   49.86    1.16
   1   2   2   50.48    0.69
   1   2   2   48.42    0.51
   1   2   3   71.21    0.63
  -1  -2  -3   69.52    1.54
  -1  -2  -4   11.73    0.71
   1   2   4   11.46    0.26
  -1  -2  -5   23.33    1.12
  -1  -2  -6   21.04    1.15
  -1  -2  -7   26.66    0.66
  -1  -2  -7   26.08    0.59
  -1  -2  -7   25.16    1.33
  -1  -2  -7   25.94    0.65
  -1  -2  -8   27.75    0.70
  -1  -2  -9    0.49    0.11
  -1  -2  -9    0.57    0.09
  -1  -2 -10    0.05    0.06
  -1  -2 -10    0.04    0.04
  -1  -2 -11    5.19    0.17
   1   3 -12   10.87    0.34
   1   3 -12   10.41    0.33
   1   3 -12   10.58    0.32
   1   3 -11    0.09    0.06
   1   3 -11    0.16    0.07
   1   3 -10   39.56    0.84
   1   3 -10   39.28    0.81
   1   3 -10   39.62    0.74
   1   3 -10   38.91    0.80
   1   3  -9   27.73    0.67
   1   3  -9   27.63    0.67
   1   3  -8   21.53    0.56
  -1  -3   8   22.64    1.26
  -1  -3   7   26.89    1.29
  -1  -3   6   13.88    0.85
  -1  -3   5    0.09    0.10
  -1  -3   4    7.71    0.52
  -1  -3   3   38.56    1.03
   1   3  -2   41.43    0.99
   1   3  -2   41.09    0.98
   1   3  -2   41.85    0.48
  -1  -3   2   41.38    0.93
  -1  -3   1    2.85    0.21
   1   3  -1    3.11    0.26
   1   3  -1    2.91    0.14
   1   3  -1    2.97    0.25
  -1  -3   0   24.03    0.44
   1   3   0   23.38    0.65
   1   3   0   22.37    0.66
   1   3   0   23.67    0.39
   1   3   1    4.65    0.28
   1   3   1    4.23    0.18
  -1  -3  -2   40.38    1.22
   1   3   2   39.99    0.54
   1   3   2   40.54    0.78
   1   3   3    5.75    0.21
  -1  -3  -3    5.81    0.51
   1   3   4    9.56    0.28
  -1  -3  -4    9.56    0.72
  -1  -3  -5   23.52    1.22
  -1  -3  -6   40.07    0.80
  -1  -3  -6   39.48    1.66
  -1  -3  -7   37.53    0.81
  -1  -3  -8   47.66    0.89
  -1  -3  -9   19.23    0.52
  -1  -3 -10   -0.02    0.05
   1   4 -12    2.96    0.18
   1   4 -12    3.07    0.18
   1   4 -11   11.82    0.42
   1   4 -11   10.97    0.38
   1   4 -11   11.21    0.36
   1   4 -10   12.34    0.47
   1   4 -10   11.81    0.41
   1   4 -10   12.30    0.44
   1   4  -9   24.29    0.63
   1   4  -9   24.87    0.62
   1   4  -9   24.53    0.59
   1   4  -8   30.01    0.68
   1   4  -8   30.54    0.69
  -1  -4   7    8.82    0.78
  -1  -4   6    3.47    0.46
  -1  -4   5    8.13    0.63
   1   4  -5    7.48    0.61
  -1  -4   4    0.24    0.14
   1   4  -4    0.06    0.11
   1   4  -3    5.65    0.46
  -1  -4   3    5.50    0.43
   1   4  -2   32.75    1.02
   1   4  -2   33.01    0.52
   1   4  -2   33.58    1.03
  -1  -4   2   34.42    0.92
  -1  -4   1   88.71    1.25
   1   4  -1   86.33    1.58
   1   4  -1   87.13    0.86
   1   4  -1   89.58    1.58
   1   4   0    1.64    0.21
   1   4   0    1.64    0.13
   1   4   1    5.17    0.22
   1   4   1    5.44    0.36
  -1  -4  -1    5.11    0.48
  -1  -4  -2   71.27    1.86
   1   4   2   72.33    0.85
   1   4   3   12.37    0.36
  -1  -4  -3   11.47    0.80
  -1  -4  -4   53.45    1.84
  -1  -4  -5   -0.18    0.14
  -1  -4  -5    0.20    0.07
  -1  -4  -6    4.53    0.28
  -1  -4  -7   10.86    0.42
  -1  -4  -8    0.87    0.12
  -1  -4  -9    0.26    0.07
   1   4   9    0.19    0.05
   1   5 -12    2.44    0.16
   1   5 -11    5.21    0.26
   1   5 -11    5.21    0.24
   1   5 -11    5.19    0.27
   1   5 -10    0.11    0.08
   1   5 -10    0.13    0.07
   1   5 -10    0.10    0.06
   1   5  -9    5.88    0.32
   1   5  -9    5.99    0.32
   1   5  -9    6.23    0.32
   1   5  -8   20.30    0.57
   1   5  -8   20.09    0.60
   1   5  -7   13.53    0.45
   1   5  -7   13.49    0.47
   1   5  -7   13.64    0.48
   1   5  -7   14.97    1.03
  -1  -5   7   14.08    1.01
   1   5  -6   10.39    0.82
  -1  -5   6   11.51    0.86
   1   5  -5    2.08    0.36
  -1  -5   5    2.07    0.34
   1   5  -4   18.86    0.97
  -1  -5   4   21.62    0.98
   1   5  -3    0.37    0.15
  -1  -5   3    0.40    0.13
   1   5  -2   41.06    1.29
   1   5  -2   39.19    1.26
   1   5  -1    2.29    0.29
   1   5   0   24.38    0.91
  -1  -5  -1   33.91    1.36
  -1  -5  -2    3.51    0.46
   1   5   3    2.75    0.19
   1   5   3    2.71    0.20
  -1  -5  -3    3.08    0.45
   1   5   4    8.78    0.35
  -1  -5  -4    8.80    0.80
  -1  -5  -5    9.33    0.37
  -1  -5  -6   17.29    0.50
  -1  -5  -7   11.38    0.38
   1   5   8   16.90    0.40
  -1  -5  -8   17.27    0.40
   1   5   9    1.80    0.10
   1   6 -12    3.53    0.15
   1   6 -11    0.18    0.06
   1   6 -11    0.16    0.07
   1   6 -11    0.21    0.06
   1   6 -10    6.17    0.28
   1   6 -10    6.36    0.30
   1   6 -10    6.31    0.29
   1   6  -9   14.30    0.46
   1   6  -9   14.42    0.50
   1   6  -9   14.67    0.46
   1   6  -8    3.46    0.26
   1   6  -8    3.69    0.25
   1   6  -8    3.60    0.27
   1   6  -8    3.68    0.23
   1   6  -7   20.77    0.60
   1   6  -7   21.48    0.63
  -1  -6   6    0.88    0.26
   1   6  -6    1.00    0.14
   1   6  -6    1.17    0.16
   1   6  -5   29.31    0.69
   1   6  -5   27.93    1.33
   1   6  -5   28.14    0.67
   1   6  -5   28.43    0.66
  -1  -6   5   28.23    1.28
   1   6  -4   12.43    0.85
   1   6  -3    1.18    0.27
   1   6  -1    5.79    0.51
   1   6   0   28.35    0.63
   1   6   0   28.56    0.62
   1   6   0   27.96    0.65
  -1  -6  -1    0.45    0.19
   1   6   1    0.47    0.10
   1   6   1    0.40    0.09
   1   6   1    0.22    0.07
   1   6   1    0.56    0.10
   1   6   1    0.47    0.09
   1   6   2   34.15    0.71
  -1  -6  -2   32.76    1.50
   1   6   2   34.32    0.73
   1   6   2   34.72    0.71
   1   6   2   35.24    0.78
   1   6   3    3.71    0.24
   1   6   3    3.38    0.25
   1   6   3    3.61    0.24
   1   6   4    0.02    0.05
   1   6   4    0.07    0.07
   1   6   5   20.24    0.50
   1   6   5   20.80    0.59
  -1  -6  -6    0.66    0.09
   1   6   6    0.58    0.10
   1   6   7    0.30    0.07
  -1  -6  -7    0.19    0.04
   1   6   7    0.27    0.08
   1   6   8   18.51    0.30
   1   7 -11    2.43    0.12
   1   7 -11    2.16    0.10
   1   7 -10    0.09    0.05
   1   7 -10    0.14    0.06
   1   7  -9    3.60    0.21
   1   7  -9    3.21    0.20
   1   7  -8    0.60    0.13
   1   7  -8    0.43    0.09
   1   7  -8    0.53    0.11
   1   7  -7   13.13    0.49
   1   7  -7   13.25    0.50
   1   7  -6    1.33    0.17
   1   7  -6    1.53    0.18
   1   7  -5    3.13    0.24
   1   7  -5    2.80    0.22
   1   7  -4    8.15    0.35
   1   7  -4    8.15    0.32
   1   7  -4    8.25    0.38
   1   7  -3    3.01    0.23
   1   7  -3    2.74    0.22
   1   7  -3    2.85    0.20
   1   7  -2    2.25    0.20
   1   7  -2    1.87    0.18
   1   7  -2    1.69    0.17
   1   7  -2    1.99    0.19
   1   7  -1    7.92    0.36
   1   7  -1    8.56    0.39
  -1  -7   1    7.17    0.70
   1   7  -1    8.34    0.36
   1   7  -1    8.24    0.36
   1   7   0   36.04    0.76
   1   7   0   36.61    0.82
   1   7   0   37.04    0.79
   1   7   0   36.90    0.77
   1   7   1   15.92    0.53
   1   7   1   15.91    0.51
   1   7   1   16.32    0.51
   1   7   1   15.78    0.54
   1   7   2   61.92    1.07
   1   7   2   60.12    1.03
   1   7   2   61.61    0.97
   1   7   3    0.71    0.12
   1   7   3    0.72    0.11
   1   7   3    0.71    0.13
   1   7   4    0.05    0.05
   1   7   4    0.14    0.08
   1   7   4    0.15    0.08
   1   7   5   12.71    0.32
   1   7   5   13.34    0.41
   1   7   5   13.66    0.41
   1   7   6    7.14    0.25
   1   7   6    6.90    0.24
   1   8 -10    2.49    0.11
   1   8 -10    3.49    0.15
   1   8  -9   -0.02    0.06
   1   8  -9    0.04    0.04
   1   8  -8    0.19    0.06
   1   8  -7   11.90    0.44
   1   8  -6    5.42    0.26
   1   8  -6    5.75    0.32
   1   8  -5    6.20    0.34
   1   8  -5    6.47    0.34
   1   8  -4    0.71    0.13
   1   8  -3    9.80    0.43
   1   8  -2   22.42    0.62
   1   8  -2   22.93    0.60
   1   8  -2   23.33    0.65
   1   8  -1    0.40    0.09
   1   8  -1    0.52    0.12
   1   8  -1    0.52    0.13
   1   8  -1    0.42    0.10
   1   8   0    0.53    0.12
   1   8   0    0.37    0.09
   1   8   0    0.23    0.09
   1   8   1    1.25    0.14
   1   8   1    1.40    0.17
   1   8   1    1.48    0.16
   1   8   2    3.97    0.25
   1   8   2    3.84    0.25
   1   8   2    3.70    0.22
   1   8   3    2.15    0.15
   1   8   3    2.17    0.17
   1   8   3    2.06    0.17
   1   8   4    0.02    0.05
   1   8   4    0.09    0.03
   1   8   4    0.05    0.05
   1   8   5    2.83    0.13
   1   8   5    2.71    0.13
   1   9  -9    2.92    0.13
   1   9  -8    0.55    0.08
   1   9  -8    0.49    0.06
   1   9  -7    1.72    0.15
   1   9  -7    1.54    0.12
   1   9  -6   10.56    0.37
   1   9  -5    7.77    0.34
   1   9  -4    0.11    0.07
   1   9  -4    0.02    0.07
   1   9  -3    0.22    0.06
   1   9  -3    0.52    0.11
   1   9  -2    4.37    0.26
   1   9  -1   17.33    0.47
   1   9  -1   17.64    0.50
   1   9   0   13.49    0.39
   1   9   0   13.93    0.43
   1   9   1    0.10    0.07
   1   9   1    0.02    0.05
   1   9   1    0.09    0.05
   1   9   2    6.38    0.20
   1   9   2    6.84    0.25
   1   9   2    6.44    0.23
   1   9   3   10.70    0.26
   1  10  -7    1.37    0.09
   1  10  -6    0.95    0.09
   1  10  -6    1.22    0.10
   1  10  -5    0.80    0.09
   1  10  -5    0.56    0.07
   1  10  -4    4.71    0.15
   1  10  -4    7.04    0.24
   1  10  -3    0.58    0.09
   1  10  -3    0.44    0.08
   1  10  -3    0.60    0.06
   1  10  -2    1.94    0.13
   1  10  -2    2.11    0.14
   1  10  -1    0.37    0.07
   1  10  -1    0.26    0.06
   1  10   0    7.86    0.22
  -2  10   2   12.75    0.28
  -2  10   1    0.02    0.05
  -2  10   1    0.03    0.04
  -2  10   0    8.15    0.28
  -2  10   0    8.48    0.28
  -2  10  -1    2.26    0.13
  -2  10  -1    2.78    0.17
  -2  10  -2    0.12    0.06
  -2  10  -3    3.10    0.16
  -2  10  -4    1.37    0.15
  -2  10  -5    1.66    0.14
  -2   9   4    1.38    0.11
  -2   9   4    1.36    0.11
  -2   9   3   15.55    0.41
  -2   9   3   14.96    0.38
  -2   9   2   12.75    0.38
  -2   9   2   13.42    0.42
  -2   9   2   13.18    0.39
  -2   9   1    1.73    0.17
  -2   9   1    1.69    0.15
  -2   9   1    1.81    0.16
  -2   9   0    9.20    0.37
  -2   9   0    8.77    0.36
  -2   9   0    8.83    0.34
  -2   9  -1    0.86    0.13
  -2   9  -1    0.88    0.11
  -2   9  -1    0.97    0.13
  -2   9  -2    1.62    0.15
  -2   9  -2    1.73    0.16
  -2   9  -2    1.88    0.18
  -2   9  -2    1.75    0.16
  -2   9  -2    1.68    0.16
  -2   9  -3    0.76    0.11
  -2   9  -3    0.69    0.10
  -2   9  -3    0.62    0.11
  -2   9  -4    0.12    0.06
  -2   9  -4    0.04    0.07
  -2   9  -4    0.17    0.06
  -2   9  -5   -0.04    0.09
  -2   9  -6   13.56    0.41
  -2   9  -7    0.98    0.11
  -2   8   6   11.27    0.29
  -2   8   6   10.68    0.28
  -2   8   5    1.63    0.14
  -2   8   5    1.48    0.13
  -2   8   5    1.50    0.14
  -2   8   4    1.77    0.17
  -2   8   4    1.80    0.17
  -2   8   4    1.86    0.17
  -2   8   4    1.71    0.14
  -2   8   3    0.11    0.08
  -2   8   3    0.09    0.07
  -2   8   3    0.17    0.06
  -2   8   3    0.19    0.07
  -2   8   2    1.38    0.16
  -2   8   2    1.44    0.16
  -2   8   2    1.41    0.15
  -2   8   2    1.32    0.16
  -2   8   1    8.44    0.39
  -2   8   1    8.33    0.37
  -2   8   1    8.33    0.37
  -2   8   1    8.29    0.37
  -2   8   1    8.21    0.37
  -2   8   0    1.50    0.17
  -2   8   0    1.45    0.17
  -2   8   0    1.41    0.16
  -2   8   0    1.63    0.17
  -2   8   0    1.70    0.17
  -2   8  -1    2.17    0.19
  -2   8  -1    2.13    0.19
  -2   8  -1    1.99    0.17
  -2   8  -1    2.26    0.20
  -2   8  -1    2.23    0.19
  -2   8  -1    2.28    0.18
  -2   8  -2    3.35    0.24
  -2   8  -2    3.38    0.23
  -2   8  -2    3.34    0.23
  -2   8  -2    3.53    0.23
  -2   8  -2    3.63    0.24
  -2   8  -3   28.89    0.64
  -2   8  -3   28.24    0.69
  -2   8  -3   29.39    0.64
  -2   8  -3   28.70    0.69
  -2   8  -4    1.77    0.18
  -2   8  -4    1.69    0.16
  -2   8  -4    1.71    0.18
  -2   8  -4    1.72    0.16
  -2   8  -5    8.84    0.39
  -2   8  -5    8.59    0.38
  -2   8  -5    8.44    0.34
  -2   8  -6    0.95    0.14
  -2   8  -6    0.70    0.12
  -2   8  -7    9.69    0.37
  -2   8  -8    4.98    0.22
  -2   8  -8    4.87    0.22
  -2   8  -9    1.88    0.13
  -2   8  -9    1.81    0.12
  -2   7   8    4.76    0.16
  -2   7   7    0.08    0.06
  -2   7   7    0.08    0.06
  -2   7   6    2.82    0.17
  -2   7   6    2.90    0.21
  -2   7   6    2.95    0.21
  -2   7   6    2.86    0.19
  -2   7   5    5.42    0.30
  -2   7   5    5.77    0.29
  -2   7   4    2.78    0.19
  -2   7   4    3.01    0.23
  -2   7   4    3.07    0.24
  -2   7   3    0.43    0.10
  -2   7   3    0.29    0.09
  -2   7   3    0.48    0.10
  -2   7   2   18.57    0.56
  -2   7   2   18.81    0.54
  -2   7   2   17.83    0.55
  -2   7   2   18.81    0.58
  -2   7   2   19.23    0.55
  -2   7   1    1.93    0.19
  -2   7   1    1.97    0.18
  -2   7   1    1.76    0.17
  -2   7   1    1.62    0.15
  -2   7   1    1.20    0.28
  -2   7   1    1.61    0.17
  -2   7   1    1.78    0.18
  -2   7   0   71.63    1.07
  -2   7   0   71.52    1.05
  -2   7   0   73.29    1.01
  -2   7   0   71.70    2.09
  -2   7   0   73.78    1.05
  -2   7   0   69.28    1.01
  -2   7  -1    6.78    0.32
  -2   7  -1    6.67    0.31
  -2   7  -1    6.78    0.32
  -2   7  -1    6.56    0.64
  -2   7  -1    7.15    0.30
  -2   7  -1    6.45    0.30
  -2   7  -1    6.43    0.30
  -2   7  -2   18.29    0.51
  -2   7  -2   19.68    0.54
  -2   7  -2   18.48    1.09
  -2   7  -2   18.25    0.51
  -2   7  -2   18.85    0.53
  -2   7  -3    1.77    0.17
  -2   7  -3    1.82    0.17
  -2   7  -3    2.10    0.17
  -2   7  -3    2.13    0.18
  -2   7  -3    1.87    0.35
  -2   7  -3    2.11    0.18
  -2   7  -3    1.82    0.16
  -2   7  -4    9.76    0.41
  -2   7  -4    9.77    0.37
  -2   7  -4    9.66    0.35
   2  -7   4    8.70    0.74
  -2   7  -5   74.15    1.13
  -2   7  -5   73.89    1.05
  -2   7  -6    2.97    0.23
  -2   7  -6    2.96    0.21
  -2   7  -7    0.26    0.08
  -2   7  -7    0.49    0.10
  -2   7  -8    0.38    0.08
  -2   7  -8    0.46    0.10
  -2   7  -9    3.33    0.21
  -2   7 -10    0.83    0.09
  -2   6   9    3.39    0.13
  -2   6   9    3.51    0.15
   2  -6  -8   18.25    0.41
  -2   6   8   17.85    0.45
  -2   6   7    0.08    0.05
   2  -6  -7    0.09    0.06
   2  -6  -6    3.67    0.23
  -2   6   6    3.69    0.24
  -2   6   5   17.74    0.54
  -2   6   4    4.11    0.26
  -2   6   4    4.11    0.24
  -2   6   3    6.00    0.31
  -2   6   3    5.90    0.30
  -2   6   3    5.46    0.55
  -2   6   3    6.18    0.29
  -2   6   3    5.95    0.29
  -2   6   2   21.60    0.54
  -2   6   2   21.69    0.55
  -2   6   2   21.60    0.53
  -2   6   2   21.77    1.08
  -2   6   2   21.37    0.54
  -2   6   1    2.88    0.39
  -2   6   0   45.93    1.57
  -2   6  -1    2.92    0.40
  -2   6  -2   22.01    1.10
  -2   6  -3    8.76    0.71
  -2   6  -3    7.74    0.66
  -2   6  -4    0.84    0.25
  -2   6  -4    1.13    0.27
  -2   6  -5   34.48    0.69
  -2   6  -5   34.40    0.69
  -2   6  -5   37.74    1.53
   2  -6   5   36.40    1.57
  -2   6  -6   11.27    0.42
  -2   6  -6   12.17    0.44
  -2   6  -7   18.71    0.52
  -2   6  -7   18.76    0.57
  -2   6  -8    5.82    0.32
  -2   6  -9   20.58    0.56
  -2   6 -10    0.10    0.07
  -2   6 -11    0.28    0.06
   2  -5 -10    3.00    0.13
  -2   5  10    2.95    0.14
   2  -5  -9    0.25    0.07
   2  -5  -8   11.30    0.40
   2  -5  -8   11.38    0.34
  -2   5   7    0.09    0.06
   2  -5  -7    0.06    0.05
   2  -5  -6    4.11    0.24
  -2   5   6    3.93    0.25
  -2   5   5    0.12    0.06
   2  -5  -5    0.46    0.17
  -2   5   4    0.05    0.05
  -2   5   4    0.06    0.07
  -2   5   3    4.94    0.49
   2  -5  -3    5.39    0.50
   2  -5  -2    5.91    0.48
  -2   5   2    5.63    0.51
  -2   5   1    0.01    0.08
   2  -5  -1    0.17    0.07
   2  -5   0   45.75    1.15
  -2   5   0   42.84    1.37
  -2   5  -1    3.27    0.39
  -2   5  -2    0.46    0.16
  -2   5  -2    0.38    0.15
  -2   5  -3   89.52    2.03
  -2   5  -3   94.28    2.11
  -2   5  -4    0.74    0.22
  -2   5  -4    0.90    0.22
  -2   5  -5   65.76    1.89
   2  -5   5   63.15    2.02
  -2   5  -6   16.22    0.46
  -2   5  -6   17.74    0.53
  -2   5  -6   17.31    0.48
   2  -5   6   17.25    1.10
  -2   5  -6   18.27    1.03
  -2   5  -7    3.53    0.25
  -2   5  -7    2.74    0.21
  -2   5  -8   10.14    0.43
  -2   5  -9   30.45    0.72
  -2   5 -10    0.12    0.08
  -2   5 -11    0.02    0.05
   2  -4 -10    0.06    0.05
   2  -4  -9    1.79    0.15
   2  -4  -9    1.95    0.18
   2  -4  -9    1.68    0.14
   2  -4  -8    0.13    0.06
   2  -4  -8   -0.01    0.04
  -2   4   7   22.55    0.55
   2  -4  -7   22.93    0.59
   2  -4  -6   24.39    0.58
   2  -4  -6   25.22    1.24
   2  -4  -5    1.01    0.25
  -2   4   5    1.31    0.27
  -2   4   4   52.49    1.52
   2  -4  -4   52.04    1.53
  -2   4   3    2.94    0.36
   2  -4  -3    3.30    0.35
   2  -4  -2   67.87    1.41
  -2   4   2   67.42    1.59
   2  -4  -1    1.66    0.20
  -2   4   1    1.65    0.26
   2  -4   0   17.04    0.59
  -2   4   0   16.51    0.74
  -2   4  -1    1.39    0.23
  -2   4  -1    1.78    0.26
  -2   4  -2   78.23    1.62
  -2   4  -2   83.38    0.64
  -2   4  -3   37.89    1.16
  -2   4  -3   38.68    0.51
  -2   4  -4   20.51    0.42
  -2   4  -4   19.99    0.87
  -2   4  -4   19.96    0.89
  -2   4  -5    1.94    0.30
   2  -4   6   50.01    1.79
  -2   4  -6   52.23    1.62
  -2   4  -7    1.84    0.32
  -2   4  -7    1.60    0.17
  -2   4  -7    1.58    0.17
   2  -4   7    2.29    0.39
  -2   4  -7    1.70    0.18
  -2   4  -8    6.99    0.35
  -2   4  -8    7.23    0.37
  -2   4  -8    7.38    0.37
  -2   4  -9    1.96    0.19
  -2   4 -10   19.42    0.52
  -2   4 -11    0.80    0.09
   2  -3 -11    0.77    0.09
   2  -3 -11    0.91    0.09
   2  -3 -10    2.55    0.18
   2  -3 -10    2.74    0.20
   2  -3 -10    2.46    0.18
   2  -3  -9    0.73    0.13
   2  -3  -9    0.73    0.12
   2  -3  -9    0.69    0.11
   2  -3  -8    9.64    0.40
   2  -3  -8    9.74    0.39
   2  -3  -7    9.56    0.38
   2  -3  -7   10.57    0.83
   2  -3  -7    9.31    0.37
  -2   3   6   60.31    1.67
   2  -3  -6   64.37    1.90
  -2   3   5    1.79    0.28
   2  -3  -5    1.64    0.28
   2  -3  -4    0.22    0.12
  -2   3   4    0.67    0.17
  -2   3   3    0.08    0.09
   2  -3  -3    0.17    0.10
  -2   3   3    0.26    0.09
   2  -3  -2   42.83    0.96
  -2   3   2   42.93    1.12
   2  -3  -1   65.39    1.01
  -2   3   1   65.04    1.32
  -2   3   0   19.19    0.69
  -2   3  -1   48.84    1.09
  -2   3  -1   49.09    0.44
  -2   3  -1   49.41    1.10
  -2   3  -2  325.32    2.89
  -2   3  -2  332.35    2.84
  -2   3  -2  327.64    1.31
  -2   3  -3   72.69    1.39
  -2   3  -3   72.88    0.72
  -2   3  -4    0.62    0.09
  -2   3  -4    0.67    0.16
  -2   3  -5    0.07    0.09
  -2   3  -6   35.30    1.23
   2  -3   6   36.26    1.42
  -2   3  -7   38.73    0.79
  -2   3  -7   39.03    0.78
   2  -3   7   38.53    1.53
  -2   3  -7   38.13    0.76
  -2   3  -8    0.00    0.06
  -2   3  -8   -0.03    0.05
  -2   3  -8   -0.04    0.06
  -2   3  -9   13.71    0.51
  -2   3  -9   13.86    0.48
  -2   3 -10    7.45    0.32
  -2   3 -11    0.64    0.08
   2  -2 -12    0.02    0.04
   2  -2 -11    7.54    0.28
   2  -2 -11    7.88    0.30
   2  -2 -10    0.01    0.07
   2  -2 -10    0.01    0.06
   2  -2 -10   -0.02    0.06
   2  -2  -9    5.32    0.31
   2  -2  -9    5.32    0.31
   2  -2  -8   22.81    0.61
   2  -2  -8   22.58    0.61
   2  -2  -8   23.53    1.25
   2  -2  -7   71.19    1.01
   2  -2  -7   67.03    2.00
   2  -2  -7   68.72    0.99
   2  -2  -6   30.81    1.25
  -2   2   5    8.83    0.53
   2  -2  -5   10.52    0.66
   2  -2  -4   31.22    0.98
  -2   2   4   32.11    0.95
  -2   2   3   82.40    1.41
   2  -2  -3   78.32    1.34
   2  -2  -2    5.07    0.28
  -2   2   2    4.97    0.33
  -2   2   1   11.73    0.49
   2  -2  -1   12.20    0.33
  -2   2   1   12.46    0.50
   2  -2   0   12.32    0.22
  -2   2   0   11.67    0.46
  -2   2  -1    0.51    0.11
  -2   2  -1    0.37    0.10
  -2   2  -1    0.49    0.05
  -2   2  -2   39.85    0.83
  -2   2  -2   40.66    0.83
  -2   2  -2   41.11    0.46
  -2   2  -3   17.60    0.61
  -2   2  -3   16.02    0.54
  -2   2  -3   17.25    0.34
  -2   2  -4   23.01    0.45
  -2   2  -4   23.22    0.76
  -2   2  -5    2.20    0.17
   2  -2   6    2.32    0.33
  -2   2  -7    5.28    0.28
  -2   2  -7    5.50    0.29
  -2   2  -7    4.82    0.28
  -2   2  -8   12.06    0.43
  -2   2  -8   11.60    0.44
  -2   2  -8   12.06    0.47
  -2   2  -9   17.81    0.51
  -2   2  -9   18.35    0.58
  -2   2 -10    1.85    0.18
  -2   2 -10    1.92    0.15
   2  -1 -12    6.92    0.25
   2  -1 -11    5.77    0.25
   2  -1 -11    6.08    0.30
   2  -1 -10   11.91    0.45
   2  -1 -10   11.45    0.41
   2  -1 -10   12.04    0.46
   2  -1  -9   31.65    0.75
   2  -1  -9   32.14    0.75
   2  -1  -8   23.95    0.62
   2  -1  -8   22.75    0.60
   2  -1  -8   22.25    1.20
   2  -1  -7   20.30    1.07
   2  -1  -6    2.07    0.32
  -2   1   6    2.01    0.29
  -2   1   5    0.25    0.12
   2  -1  -5    0.36    0.15
  -2   1   4   54.68    1.24
   2  -1  -4   59.27    1.27
   2  -1  -3   22.63    0.65
  -2   1   3   20.52    0.70
  -2   1   2  108.77    1.49
   2  -1  -2  117.93    1.17
   2  -1  -1    0.08    0.03
  -2   1   1    0.17    0.08
  -2   1   0  828.47    3.69
  -2   1   0  826.48    3.01
  -2   1  -1   17.38    0.31
  -2   1  -1   16.99    0.26
  -2   1  -1   16.50    0.40
  -2   1  -1   17.54    0.39
  -2   1  -2    4.40    0.21
  -2   1  -2    4.67    0.23
  -2   1  -2    4.57    0.24
  -2   1  -2    4.99    0.16
  -2   1  -3  130.82    0.95
  -2   1  -3  135.34    1.64
  -2   1  -4    0.43    0.13
  -2   1  -4    0.29    0.07
   2  -1   5   12.90    0.67
  -2   1  -5   12.91    0.69
  -2   1  -5   13.15    0.40
  -2   1  -6   11.70    0.75
  -2   1  -7   28.80    1.25
  -2   1  -7   28.59    0.63
  -2   1  -7   29.47    0.68
  -2   1  -7   28.26    0.61
  -2   1  -8    0.47    0.09
  -2   1  -8    0.58    0.12
  -2   1  -9   14.86    0.46
  -2   1  -9   14.46    0.51
  -2   1 -10    3.65    0.20
  -2   1 -10    3.92    0.25
   2   0 -12    8.87    0.31
   2   0 -11    2.04    0.19
   2   0 -10    1.56    0.17
   2   0 -10    1.63    0.15
   2   0 -10    1.79    0.19
   2   0 -10    1.68    0.15
   2   0  -9   48.42    0.91
   2   0  -9   50.21    0.93
   2   0  -8    3.22    0.22
   2   0  -8    3.32    0.23
   2   0  -8    3.22    0.22
  -2   0   7   24.46    1.10
   2   0  -7   25.25    1.16
  -2   0   6    8.54    0.62
   2   0  -6    9.70    0.65
  -2   0   5    0.15    0.11
   2   0  -5    0.09    0.09
  -2   0   4    5.21    0.41
   2   0  -4    5.00    0.36
  -2   0   3   13.98    0.59
   2   0  -3   14.20    0.50
  -2   0   2   89.35    1.31
  -2   0   1    3.77    0.26
  -2   0   0  983.19    3.68
  -2   0  -1  225.92    1.59
  -2   0  -1  222.50    0.93
  -2   0  -2    2.21    0.20
  -2   0  -2    2.29    0.11
  -2   0  -3    2.50    0.26
  -2   0  -3    2.44    0.14
   2   0   4    1.09    0.17
  -2   0  -4    1.09    0.11
  -2   0  -4    0.97    0.20
  -2   0  -5    0.53    0.17
  -2   0  -6    4.13    0.47
  -2   0  -7   83.40    1.12
  -2   0  -7   83.92    1.13
  -2   0  -8   -0.02    0.06
  -2   0  -8    0.07    0.06
  -2   0  -9    0.22    0.08
  -2   0  -9    0.42    0.10
  -2   0 -10   28.38    0.57
  -2   0 -10   30.42    0.61
  -2   0 -11    1.50    0.10
   2   1 -13    8.05    0.20
   2   1 -12    1.49    0.11
   2   1 -12    1.52    0.14
   2   1 -11   14.06    0.43
   2   1 -11   13.95    0.46
   2   1 -10    6.63    0.34
   2   1 -10    6.57    0.34
   2   1 -10    6.80    0.35
   2   1  -9   21.65    0.60
   2   1  -9   21.76    0.60
   2   1  -9   21.99    0.61
   2   1  -8    0.82    0.11
  -2  -1   8    0.86    0.24
  -2  -1   7   25.93    1.20
  -2  -1   6  106.08    2.24
  -2  -1   5  123.92    2.23
  -2  -1   4  171.60    2.36
  -2  -1   3   24.02    0.79
  -2  -1   2   15.49    0.57
  -2  -1   1    1.20    0.15
  -2  -1   0    6.11    0.28
  -2  -1  -1    0.38    0.11
  -2  -1  -1    0.36    0.05
  -2  -1  -2    0.54    0.13
  -2  -1  -2    0.99    0.08
  -2  -1  -3    0.21    0.05
  -2  -1  -3    0.57    0.19
  -2  -1  -4  102.58    2.03
  -2  -1  -4   96.01    0.95
  -2  -1  -5    3.35    0.42
  -2  -1  -6    8.07    0.69
  -2  -1  -7   46.60    0.88
  -2  -1  -7   43.17    1.65
  -2  -1  -7   44.21    0.80
  -2  -1  -8    0.04    0.07
  -2  -1  -8    0.06    0.05
  -2  -1  -9    0.83    0.13
  -2  -1  -9    0.74    0.11
  -2  -1 -10    0.36    0.08
  -2  -1 -10    0.32    0.06
  -2  -1 -11    3.70    0.13
   2   2 -12    1.53    0.13
   2   2 -12    1.47    0.13
   2   2 -11    4.21    0.24
   2   2 -11    4.57    0.27
   2   2 -11    4.46    0.26
   2   2 -10    0.05    0.05
   2   2 -10    0.11    0.08
   2   2  -9    3.63    0.25
   2   2  -9    3.57    0.23
   2   2  -9    3.36    0.23
  -2  -2   8   18.63    1.14
   2   2  -8   17.09    0.50
  -2  -2   7    8.55    0.73
  -2  -2   6    4.19    0.47
  -2  -2   5    0.71    0.19
   2   2  -4    0.98    0.06
  -2  -2   4    0.89    0.21
   2   2  -3    2.55    0.10
  -2  -2   3    2.61    0.29
   2   2  -2   42.74    0.45
  -2  -2   2   44.87    1.00
   2   2  -1   11.96    0.39
  -2  -2   1   13.04    0.46
  -2  -2   0  111.26    1.09
  -2  -2  -1  135.51    0.73
  -2  -2  -2   11.35    0.61
  -2  -2  -2   11.81    0.25
  -2  -2  -3   60.60    1.56
   2   2   3   61.71    0.71
  -2  -2  -3   62.66    0.67
  -2  -2  -4   23.96    1.08
   2   2   4   24.12    0.45
  -2  -2  -5    1.25    0.28
  -2  -2  -6    0.17    0.06
  -2  -2  -6    0.15    0.11
  -2  -2  -7    3.40    0.25
  -2  -2  -8   40.97    0.83
  -2  -2  -9    1.07    0.13
  -2  -2 -10    4.33    0.20
   2   3 -13    0.07    0.04
   2   3 -12   -0.02    0.05
   2   3 -12    0.03    0.05
   2   3 -11   12.44    0.45
   2   3 -11   12.12    0.43
   2   3 -11   12.92    0.41
   2   3 -10    9.98    0.41
   2   3 -10    9.32    0.37
   2   3  -9   27.03    0.68
   2   3  -9   27.00    0.63
   2   3  -8   48.25    0.86
  -2  -3   8   48.66    1.91
  -2  -3   7   62.35    2.04
  -2  -3   6  117.31    2.56
  -2  -3   5   11.21    0.73
   2   3  -4    0.65    0.07
  -2  -3   4    0.70    0.19
   2   3  -3   64.04    0.63
  -2  -3   3   66.15    1.44
   2   3  -2    7.60    0.42
  -2  -3   2    7.64    0.44
   2   3  -2    7.34    0.23
  -2  -3   1   17.95    0.56
   2   3  -1   18.16    0.37
   2   3  -1   17.78    0.58
   2   3   0   76.37    0.79
   2   3   1   44.18    0.62
  -2  -3  -2   13.97    0.78
   2   3   2   14.12    0.36
   2   3   3    2.12    0.15
  -2  -3  -3    1.98    0.33
  -2  -3  -4    2.62    0.40
   2   3   4    3.03    0.18
  -2  -3  -5   22.36    1.22
  -2  -3  -5   21.68    0.57
  -2  -3  -6    0.56    0.11
  -2  -3  -7    0.28    0.09
  -2  -3  -8   19.37    0.54
  -2  -3  -9   12.38    0.37
  -2  -3 -10    1.94    0.11
   2   4 -13    0.29    0.05
   2   4 -12    1.29    0.13
   2   4 -12    1.43    0.13
   2   4 -11    6.25    0.30
   2   4 -11    6.00    0.30
   2   4 -10    0.90    0.14
   2   4 -10    1.04    0.13
   2   4  -9    0.07    0.07
   2   4  -9   -0.02    0.06
   2   4  -8   13.05    0.47
  -2  -4   8   12.01    0.98
  -2  -4   7    5.52    0.62
  -2  -4   6   67.44    2.04
   2   4  -5    0.27    0.12
  -2  -4   5    0.01    0.10
  -2  -4   4    1.00    0.22
   2   4  -4    1.04    0.22
   2   4  -3    4.26    0.38
   2   4  -3    4.17    0.20
  -2  -4   3    3.80    0.37
   2   4  -2   48.47    1.21
  -2  -4   2   50.02    1.16
   2   4  -2   49.01    0.68
   2   4  -1   50.80    0.71
   2   4  -1   49.95    1.14
   2   4   0   52.42    0.75
  -2  -4  -1   31.05    1.24
   2   4   1   31.31    0.60
  -2  -4  -2   13.13    0.85
   2   4   2   13.12    0.40
  -2  -4  -3   10.89    0.82
   2   4   3   11.71    0.38
  -2  -4  -4   20.59    0.53
  -2  -4  -4   19.51    1.15
  -2  -4  -5   25.51    0.63
  -2  -4  -6   -0.04    0.07
  -2  -4  -7    5.57    0.29
  -2  -4  -8    6.21    0.27
   2   4   8    5.45    0.21
  -2  -4  -9    4.76    0.17
   2   5 -12    0.24    0.07
   2   5 -12    0.17    0.06
   2   5 -11    7.94    0.32
   2   5 -11    7.60    0.31
   2   5 -11    8.10    0.29
   2   5 -10    1.88    0.18
   2   5 -10    1.99    0.18
   2   5 -10    2.14    0.19
   2   5  -9    0.44    0.10
   2   5  -9    0.39    0.11
   2   5  -8    4.99    0.29
   2   5  -8    4.89    0.29
   2   5  -8    5.08    0.30
   2   5  -8    5.54    0.33
   2   5  -7    4.63    0.28
   2   5  -7    4.58    0.27
   2   5  -7    4.82    0.57
  -2  -5   7    4.74    0.62
   2   5  -6   36.79    1.50
   2   5  -6   33.69    0.70
  -2  -5   6   33.90    1.51
   2   5  -6   36.32    0.75
  -2  -5   5   10.12    0.77
   2   5  -5    9.41    0.72
   2   5  -4    0.61    0.17
  -2  -5   4    0.76    0.21
   2   5  -3   16.76    0.85
   2   5  -2   13.99    0.43
   2   5  -2   14.09    0.72
   2   5  -1   36.17    0.70
   2   5   0   22.28    0.56
  -2  -5  -1   31.02    1.38
   2   5   1   31.97    0.68
  -2  -5  -2   13.01    0.93
   2   5   2   13.36    0.45
   2   5   2   14.34    0.46
   2   5   3    2.35    0.20
  -2  -5  -3    2.06    0.37
   2   5   4    0.71    0.12
   2   5   5   -0.01    0.06
  -2  -5  -5    0.01    0.05
  -2  -5  -6    0.46    0.09
   2   5   6    0.39    0.09
  -2  -5  -7    8.56    0.29
   2   5   7    8.45    0.28
  -2  -5  -8    0.24    0.04
   2   5   8    0.23    0.05
   2   6 -12    3.61    0.14
   2   6 -11    0.06    0.05
   2   6 -11    0.08    0.05
   2   6 -11    0.03    0.05
   2   6 -10    0.44    0.10
   2   6 -10    0.36    0.08
   2   6 -10    0.37    0.09
   2   6  -9    2.18    0.18
   2   6  -9    1.79    0.18
   2   6  -9    2.02    0.20
   2   6  -8    0.16    0.07
   2   6  -8    0.14    0.08
   2   6  -7   10.68    0.44
   2   6  -7   10.42    0.42
   2   6  -7   10.08    0.44
   2   6  -6    1.50    0.17
   2   6  -6    1.30    0.15
  -2  -6   6    1.80    0.35
   2   6  -6    1.43    0.17
   2   6  -5   50.73    1.73
   2   6  -5   51.11    0.94
   2   6  -5   50.04    0.91
   2   6  -5   48.82    0.89
   2   6  -4    4.86    0.28
   2   6  -4    5.76    0.30
   2   6  -4    4.89    0.26
   2   6  -4    5.61    0.55
   2   6  -3    1.03    0.24
   2   6  -3    1.15    0.13
   2   6  -3    1.24    0.14
   2   6  -3    1.32    0.13
   2   6  -3    1.24    0.14
   2   6  -3    1.18    0.14
   2   6  -2   94.49    1.19
   2   6  -2   93.99    1.12
   2   6  -2   95.16    1.21
   2   6  -2   93.10    1.11
   2   6  -1    4.48    0.24
   2   6  -1    4.51    0.27
   2   6  -1    4.59    0.27
   2   6  -1    4.67    0.26
   2   6   0   11.16    0.38
   2   6   0   11.90    0.44
  -2  -6   0   11.57    0.89
   2   6   0   11.49    0.43
   2   6   1    0.18    0.06
   2   6   1    0.04    0.07
   2   6   1    0.19    0.08
  -2  -6  -1    0.27    0.20
   2   6   2   34.99    0.79
   2   6   2   35.87    0.78
   2   6   3    0.02    0.06
   2   6   4    2.76    0.21
   2   6   5    5.06    0.26
   2   6   5    5.51    0.29
   2   6   6    1.96    0.16
   2   6   6    2.02    0.14
   2   6   7    1.99    0.12
   2   7 -11    0.10    0.05
   2   7 -10    0.81    0.10
   2   7  -9    0.51    0.10
   2   7  -9    0.51    0.11
   2   7  -8   23.22    0.60
   2   7  -8   23.51    0.65
   2   7  -7   16.08    0.53
   2   7  -7   18.30    0.58
   2   7  -6   22.20    0.63
   2   7  -6   21.89    0.63
   2   7  -5   64.02    1.07
   2   7  -5   61.54    1.00
   2   7  -4   25.91    0.68
   2   7  -4   24.77    0.59
   2   7  -3    5.36    0.31
   2   7  -2   13.63    0.46
   2   7  -2   14.10    0.50
   2   7  -2   14.06    0.50
   2   7  -1    9.02    0.37
   2   7  -1    9.27    0.41
   2   7  -1    9.12    0.41
   2   7   0   39.08    0.75
   2   7   0   39.55    0.84
   2   7   0   40.15    0.85
   2   7   1    4.43    0.25
   2   7   1    4.33    0.29
   2   7   1    4.27    0.28
   2   7   2    5.71    0.26
   2   7   2    6.11    0.33
   2   7   2    5.96    0.32
   2   7   3    0.80    0.13
   2   7   3    0.77    0.12
   2   7   4    2.35    0.18
   2   7   4    2.42    0.17
   2   7   5    4.58    0.19
   2   7   5    4.70    0.22
   2   7   6    0.84    0.08
   2   8 -10    0.72    0.06
   2   8 -10    1.65    0.10
   2   8  -9    1.20    0.11
   2   8  -8    5.48    0.27
   2   8  -8    4.95    0.24
   2   8  -7   13.11    0.44
   2   8  -7   13.33    0.44
   2   8  -6    3.37    0.24
   2   8  -6    3.06    0.22
   2   8  -5    4.78    0.29
   2   8  -4    0.06    0.07
   2   8  -3    0.49    0.11
   2   8  -2    5.79    0.32
   2   8  -1   24.15    0.58
   2   8  -1   23.98    0.63
   2   8  -1   23.67    0.63
   2   8   0    7.16    0.30
   2   8   0    7.83    0.36
   2   8   0    8.04    0.36
   2   8   1   14.38    0.39
   2   8   1   15.24    0.47
   2   8   1   14.87    0.47
   2   8   2    3.52    0.21
   2   8   2    3.80    0.23
   2   8   3    0.16    0.06
   2   8   3    0.10    0.06
   2   8   4    2.61    0.14
   2   8   4    2.58    0.12
   2   9  -8    4.79    0.20
   2   9  -8    4.83    0.17
   2   9  -7    7.08    0.27
   2   9  -7    6.40    0.23
   2   9  -6    3.11    0.20
   2   9  -5    1.77    0.16
   2   9  -4    8.81    0.34
   2   9  -3    0.28    0.09
   2   9  -2   28.87    0.61
   2   9  -1    0.49    0.09
   2   9   0    7.23    0.27
   2   9   1    0.06    0.05
   2   9   2    1.33    0.09
   2  10  -6    2.40    0.12
   2  10  -5    1.70    0.11
   2  10  -4   -0.03    0.05
   2  10  -3   -0.01    0.05
   2  10  -2    1.66    0.11
   2  10  -2    1.78    0.10
  -3  10   2    4.82    0.17
  -3  10   1    0.92    0.09
  -3  10   1    0.82    0.09
  -3  10   0    3.28    0.17
  -3  10  -1    0.16    0.06
  -3  10  -2    7.56    0.25
  -3  10  -3    0.15    0.05
  -3   9   5    0.04    0.04
  -3   9   4    1.39    0.12
  -3   9   3    0.27    0.08
  -3   9   3    0.15    0.06
  -3   9   2    0.33    0.09
  -3   9   2    0.30    0.08
  -3   9   2    0.16    0.07
  -3   9   1    2.94    0.20
  -3   9   1    2.97    0.21
  -3   9   0    1.30    0.14
  -3   9   0    1.15    0.14
  -3   9   0    1.18    0.14
  -3   9  -1    5.84    0.29
  -3   9  -1    5.99    0.29
  -3   9  -1    5.76    0.28
  -3   9  -2    0.02    0.06
  -3   9  -2    0.04    0.05
  -3   9  -3    0.51    0.09
  -3   9  -3    0.79    0.11
  -3   9  -4    1.99    0.15
  -3   9  -4    2.56    0.21
  -3   9  -5    5.00    0.20
  -3   9  -5    6.05    0.29
  -3   9  -6    2.34    0.20
  -3   8   6    0.14    0.06
  -3   8   6    0.12    0.05
  -3   8   5    0.75    0.10
  -3   8   5    0.74    0.09
  -3   8   5    0.76    0.11
  -3   8   4    0.16    0.08
  -3   8   4    0.26    0.08
  -3   8   4    0.19    0.07
  -3   8   4    0.22    0.06
  -3   8   3    0.87    0.13
  -3   8   3    0.93    0.14
  -3   8   3    0.78    0.11
  -3   8   3    0.65    0.10
  -3   8   2    3.18    0.24
  -3   8   2    3.22    0.23
  -3   8   2    3.26    0.21
  -3   8   2    3.10    0.22
  -3   8   2    3.41    0.23
  -3   8   1    1.36    0.16
  -3   8   1    1.43    0.16
  -3   8   1    1.23    0.15
  -3   8   1    1.37    0.16
  -3   8   1    1.41    0.14
  -3   8   0    2.19    0.20
  -3   8   0    2.10    0.19
  -3   8   0    2.27    0.18
  -3   8   0    2.35    0.17
  -3   8   0    2.10    0.19
  -3   8  -1   27.11    0.62
  -3   8  -1   28.84    0.67
  -3   8  -1   28.22    0.67
  -3   8  -1   28.80    0.68
  -3   8  -2    4.99    0.28
  -3   8  -2    4.49    0.27
  -3   8  -2    4.77    0.27
  -3   8  -2    4.87    0.28
  -3   8  -3    1.46    0.16
  -3   8  -3    1.22    0.15
  -3   8  -3    1.29    0.14
  -3   8  -4    6.48    0.33
  -3   8  -4    6.79    0.31
  -3   8  -5   26.85    0.56
  -3   8  -5   27.45    0.66
  -3   8  -5   26.36    0.64
  -3   8  -6   51.18    0.85
  -3   8  -6   50.67    0.85
  -3   8  -6   48.55    0.73
  -3   8  -7   31.31    0.59
  -3   8  -7   29.48    0.55
  -3   8  -7   30.14    0.61
  -3   8  -8    6.50    0.24
  -3   8  -8    6.61    0.25
  -3   8  -9    0.00    0.04
  -3   7   8    2.37    0.12
  -3   7   7    5.18    0.24
   3  -7  -7    4.98    0.18
  -3   7   7    5.05    0.20
  -3   7   7    5.19    0.22
  -3   7   6    2.20    0.17
   3  -7  -6    2.13    0.14
  -3   7   6    2.16    0.17
  -3   7   5    3.08    0.22
  -3   7   5    3.03    0.21
  -3   7   4    1.51    0.17
  -3   7   4    1.36    0.15
  -3   7   4    1.52    0.15
  -3   7   3    0.73    0.12
  -3   7   3    0.63    0.12
  -3   7   3    0.63    0.11
  -3   7   3    0.86    0.14
  -3   7   3    0.72    0.11
  -3   7   3    0.73    0.12
  -3   7   2   14.31    0.47
  -3   7   2   13.20    0.48
  -3   7   2   13.67    0.48
  -3   7   2   13.47    0.44
  -3   7   2   13.55    0.47
  -3   7   2   13.47    0.45
  -3   7   1    7.76    0.35
  -3   7   1    7.91    0.34
  -3   7   1    7.76    0.36
  -3   7   1    7.68    0.35
  -3   7   1    8.01    0.37
  -3   7   0    8.41    0.34
  -3   7   0    7.57    0.32
  -3   7   0    8.40    0.36
  -3   7   0    7.71    0.34
  -3   7   0    8.01    0.72
  -3   7   0    7.43    0.32
  -3   7   0    7.76    0.35
  -3   7  -1    0.18    0.08
  -3   7  -1   -0.03    0.08
  -3   7  -1    0.17    0.06
  -3   7  -1    0.11    0.07
  -3   7  -1    0.20    0.06
  -3   7  -2   27.52    0.65
  -3   7  -2   25.94    0.64
  -3   7  -2   26.65    0.63
  -3   7  -2   26.38    0.60
  -3   7  -3    1.16    0.14
  -3   7  -3    0.82    0.13
  -3   7  -3    1.35    0.15
  -3   7  -3    1.21    0.13
  -3   7  -4    1.23    0.16
  -3   7  -4    1.43    0.15
  -3   7  -4    1.49    0.16
  -3   7  -5   13.14    0.42
  -3   7  -5   13.32    0.48
  -3   7  -5   13.08    0.44
  -3   7  -6    1.16    0.15
  -3   7  -6    1.40    0.15
  -3   7  -7    0.57    0.11
  -3   7  -7    0.20    0.08
  -3   7  -8    9.72    0.36
  -3   7  -9    0.52    0.09
  -3   7 -10    0.49    0.07
  -3   6   9    2.94    0.14
   3  -6  -9    3.03    0.13
  -3   6   9    2.97    0.14
  -3   6   8    5.55    0.21
   3  -6  -8    5.79    0.24
  -3   6   8    5.71    0.25
   3  -6  -7    0.16    0.05
  -3   6   7    0.20    0.07
   3  -6  -7    0.15    0.07
  -3   6   6    0.65    0.12
   3  -6  -6    0.72    0.10
   3  -6  -5    8.81    0.34
  -3   6   5    9.00    0.39
  -3   6   4    8.32    0.37
  -3   6   4    7.90    0.36
  -3   6   4    7.96    0.33
  -3   6   3    1.78    0.16
  -3   6   3    1.47    0.16
  -3   6   3    1.71    0.17
  -3   6   3    1.33    0.29
  -3   6   3    1.72    0.16
  -3   6   3    1.65    0.16
  -3   6   2    4.54    0.25
  -3   6   2    4.57    0.26
  -3   6   2    4.24    0.51
  -3   6   2    4.40    0.25
  -3   6   2    4.46    0.25
  -3   6   1   17.02    0.48
  -3   6   1   16.63    1.00
  -3   6   1   17.63    0.48
  -3   6   0   22.80    1.15
  -3   6  -1   -0.06    0.10
  -3   6  -2   80.06    2.13
  -3   6  -3    2.64    0.20
  -3   6  -3    2.93    0.20
  -3   6  -3    2.45    0.38
  -3   6  -4    8.93    0.37
  -3   6  -4    8.09    0.34
  -3   6  -4    8.85    0.71
  -3   6  -4    8.34    0.34
  -3   6  -4    9.77    0.75
  -3   6  -5   70.74    1.04
  -3   6  -5   68.34    0.96
   3  -6   5   67.48    2.23
  -3   6  -5   68.79    1.04
  -3   6  -6    1.39    0.15
  -3   6  -6    1.70    0.18
  -3   6  -7    5.16    0.26
  -3   6  -7    5.25    0.31
  -3   6  -8    0.27    0.09
  -3   6  -9   15.62    0.46
  -3   6 -10    0.90    0.10
   3  -5 -10    6.04    0.19
  -3   5  10    5.88    0.19
   3  -5  -9    4.77    0.20
   3  -5  -9    5.29    0.24
   3  -5  -8    1.15    0.13
  -3   5   8    1.11    0.12
  -3   5   7    7.00    0.32
   3  -5  -7    7.50    0.33
   3  -5  -6   17.93    0.52
  -3   5   5    0.38    0.09
  -3   5   5   -0.01    0.04
  -3   5   4    8.17    0.69
  -3   5   4    8.04    0.34
  -3   5   3    0.91    0.22
  -3   5   2    4.74    0.50
  -3   5   1   40.02    1.42
  -3   5   0   21.16    1.01
  -3   5  -1    9.36    0.66
  -3   5  -2    9.48    0.67
  -3   5  -3    4.14    0.45
  -3   5  -3    3.58    0.42
  -3   5  -4   -0.11    0.12
  -3   5  -4   -0.04    0.10
  -3   5  -5    2.65    0.19
  -3   5  -5    2.74    0.19
  -3   5  -5    2.97    0.22
  -3   5  -5    3.10    0.41
  -3   5  -6   45.47    0.76
   3  -5   6   47.93    1.87
  -3   5  -6   47.22    0.90
  -3   5  -7    4.12    0.28
  -3   5  -8   10.12    0.42
  -3   5  -9    0.70    0.12
  -3   5 -10    0.04    0.05
  -3   5 -11    1.26    0.09
   3  -4 -11    4.74    0.15
   3  -4 -10    8.71    0.30
   3  -4 -10    7.89    0.27
   3  -4  -9    3.38    0.22
   3  -4  -9    3.16    0.19
   3  -4  -9    3.18    0.22
  -3   4   8    1.53    0.14
   3  -4  -8    1.62    0.17
   3  -4  -8    1.67    0.15
   3  -4  -7   29.33    0.69
   3  -4  -7   29.69    0.64
   3  -4  -6   32.99    0.71
  -3   4   6   32.92    1.37
  -3   4   5  101.75    2.37
  -3   4   4   23.22    1.10
  -3   4   3    2.40    0.35
  -3   4   2   21.02    0.95
  -3   4   1   18.33    0.86
  -3   4   0  116.61    0.79
  -3   4   0  118.85    2.10
  -3   4  -1    3.27    0.14
  -3   4  -1    2.84    0.33
  -3   4  -2   13.18    0.69
  -3   4  -2   12.33    0.30
  -3   4  -2   13.47    0.69
  -3   4  -3   60.55    1.48
  -3   4  -3   62.68    0.75
  -3   4  -4    0.32    0.13
  -3   4  -4    0.37    0.12
  -3   4  -4    0.19    0.06
  -3   4  -5    7.90    0.58
  -3   4  -5    7.97    0.33
   3  -4   6   85.41    2.40
  -3   4  -6   81.29    1.14
  -3   4  -7    0.50    0.11
  -3   4  -8   19.07    0.58
  -3   4  -9    0.07    0.06
  -3   4 -10    0.60    0.09
  -3   4 -11    1.46    0.09
   3  -3 -11    0.22    0.06
   3  -3 -10    2.34    0.18
   3  -3 -10    2.36    0.18
   3  -3 -10    2.26    0.17
   3  -3  -9    6.67    0.33
   3  -3  -9    6.65    0.32
   3  -3  -8  121.00    1.44
   3  -3  -8  121.65    1.39
  -3   3   7   13.12    0.85
   3  -3  -7   13.61    0.47
   3  -3  -7   12.72    0.85
   3  -3  -7   13.51    0.45
   3  -3  -6    1.91    0.31
   3  -3  -5    3.38    0.38
   3  -3  -4    5.97    0.44
  -3   3   4    6.03    0.47
   3  -3  -3    0.45    0.12
  -3   3   3    0.66    0.16
  -3   3   2   37.18    1.14
  -3   3   1   13.16    0.65
  -3   3   0   69.69    1.41
  -3   3  -1    2.62    0.28
  -3   3  -1    3.03    0.14
  -3   3  -2   75.00    1.39
  -3   3  -2   73.77    0.73
  -3   3  -2   72.99    1.37
  -3   3  -3   24.17    0.81
  -3   3  -3   24.27    0.47
  -3   3  -3   25.80    0.85
  -3   3  -4   -0.04    0.07
  -3   3  -4    0.03    0.05
  -3   3  -5    2.75    0.20
   3  -3   6   37.55    1.50
  -3   3  -6   36.18    0.73
  -3   3  -6   35.85    0.76
  -3   3  -7    3.09    0.23
  -3   3  -7    3.25    0.25
  -3   3  -8    2.77    0.22
  -3   3  -9    7.97    0.34
  -3   3 -10    5.49    0.23
   3  -2 -12    1.67    0.11
   3  -2 -11    7.01    0.29
   3  -2 -11    6.79    0.26
   3  -2 -11    6.88    0.29
   3  -2 -10    0.10    0.08
   3  -2 -10    0.10    0.06
   3  -2 -10    0.11    0.07
   3  -2  -9   23.51    0.64
   3  -2  -9   23.49    0.64
   3  -2  -8    8.42    0.38
   3  -2  -8    8.35    0.37
   3  -2  -8    8.03    0.70
   3  -2  -7   47.33    0.84
   3  -2  -7   49.17    0.85
   3  -2  -7   50.36    1.67
  -3   2   6   28.35    1.13
   3  -2  -6   30.82    1.19
   3  -2  -5    0.26    0.11
  -3   2   5    0.35    0.14
   3  -2  -4   15.83    0.66
  -3   2   4   15.17    0.76
  -3   2   3  115.01    1.98
   3  -2  -3  121.98    1.51
   3  -2  -2    0.29    0.06
  -3   2   2    0.19    0.14
  -3   2   1  130.95    1.94
  -3   2   1  122.55    1.73
  -3   2   0   57.23    1.09
  -3   2  -1    2.25    0.12
  -3   2  -1    2.64    0.23
  -3   2  -2   18.61    0.57
  -3   2  -2   18.99    0.37
  -3   2  -2   19.55    0.58
  -3   2  -3    6.26    0.24
  -3   2  -3    6.85    0.36
  -3   2  -4   76.58    0.93
  -3   2  -5    1.94    0.17
   3  -2   6   15.46    0.88
  -3   2  -6   15.86    0.49
  -3   2  -7    1.36    0.14
  -3   2  -7    1.76    0.17
  -3   2  -7    1.76    0.18
  -3   2  -8    5.08    0.26
  -3   2  -8    5.54    0.28
  -3   2  -8    5.45    0.32
  -3   2  -9    0.19    0.06
   3  -1 -12    1.59    0.13
   3  -1 -12    1.86    0.14
   3  -1 -11    4.35    0.21
   3  -1 -11    4.45    0.26
   3  -1 -11    4.32    0.25
   3  -1 -10   12.38    0.46
   3  -1 -10   13.13    0.48
   3  -1 -10   12.63    0.42
   3  -1  -9    1.16    0.15
   3  -1  -9    0.87    0.13
   3  -1  -8   -0.06    0.06
   3  -1  -8    0.03    0.05
  -3   1   7   16.27    0.94
   3  -1  -7   16.56    0.94
  -3   1   6    6.02    0.54
   3  -1  -6    5.59    0.50
  -3   1   5   40.31    1.31
   3  -1  -5   40.77    1.17
  -3   1   4  105.27    1.99
   3  -1  -4  107.11    1.63
  -3   1   3  112.05    1.92
  -3   1   2   40.67    1.09
  -3   1   1    9.07    0.49
  -3   1   0  310.74    2.17
  -3   1   0  327.77    2.85
  -3   1  -1  135.54    1.23
  -3   1  -1  137.30    0.90
  -3   1  -2   31.04    0.64
  -3   1  -2   29.93    0.47
  -3   1  -3   44.01    0.96
  -3   1  -3   45.68    0.64
  -3   1  -4   33.11    0.98
  -3   1  -4   34.43    0.62
  -3   1  -5   16.52    0.48
  -3   1  -6   14.72    0.46
  -3   1  -7   12.09    0.44
  -3   1  -7   12.32    0.45
  -3   1  -8    0.13    0.06
  -3   1  -8    0.33    0.10
  -3   1  -9    1.59    0.15
  -3   1  -9    1.57    0.16
  -3   1 -10    0.46    0.08
   3   0 -12    3.73    0.20
   3   0 -12    3.78    0.20
   3   0 -11    2.55    0.17
   3   0 -11    2.49    0.20
   3   0 -11    2.43    0.19
   3   0 -10    3.04    0.23
   3   0 -10    3.10    0.24
   3   0  -9   13.38    0.47
   3   0  -9   13.76    0.49
   3   0  -9   13.45    0.47
   3   0  -8    1.83    0.17
   3   0  -8    1.69    0.16
  -3   0   8    1.28    0.28
   3   0  -8    1.57    0.15
  -3   0   7   87.28    2.20
  -3   0   6   12.09    0.77
  -3   0   5   38.30    1.27
  -3   0   4   13.95    0.71
  -3   0   3  164.10    2.27
  -3   0   2   65.55    1.35
  -3   0   1   83.36    1.42
  -3   0   0  980.08    4.67
  -3   0  -1   21.29    0.36
  -3   0  -1   21.48    0.56
  -3   0  -2   18.91    0.62
  -3   0  -2   17.90    0.36
  -3   0  -3    1.74    0.23
  -3   0  -3    2.05    0.14
  -3   0  -4   -0.10    0.08
  -3   0  -4    0.07    0.05
  -3   0  -5    1.75    0.28
  -3   0  -5    1.39    0.15
  -3   0  -6    0.56    0.10
  -3   0  -6    0.56    0.09
  -3   0  -7    0.03    0.05
  -3   0  -7    0.14    0.06
  -3   0  -8    4.32    0.27
  -3   0  -8    4.84    0.27
  -3   0  -9    3.60    0.23
  -3   0 -10    0.81    0.10
   3   1 -12    0.29    0.07
   3   1 -12    0.24    0.05
   3   1 -12    0.25    0.07
   3   1 -11    3.22    0.21
   3   1 -11    3.52    0.23
   3   1 -10    4.79    0.29
   3   1 -10    4.93    0.29
   3   1 -10    5.00    0.29
   3   1  -9    2.00    0.18
   3   1  -9    2.12    0.19
   3   1  -9    2.14    0.19
   3   1  -8    1.16    0.13
   3   1  -8    1.14    0.13
   3   1  -8    1.23    0.14
  -3  -1   8    1.57    0.33
  -3  -1   7   46.57    1.68
  -3  -1   6   46.62    1.57
  -3  -1   5   12.35    0.75
  -3  -1   4    2.45    0.32
  -3  -1   3  218.03    2.62
  -3  -1   2   34.97    0.97
  -3  -1   1   85.04    1.40
  -3  -1   0  219.76    2.05
  -3  -1  -1   16.62    0.62
  -3  -1  -1   16.23    0.32
  -3  -1  -2   16.96    0.69
  -3  -1  -2   16.60    0.35
  -3  -1  -3   18.16    0.81
  -3  -1  -3   18.33    0.41
  -3  -1  -4   37.56    1.30
  -3  -1  -4   37.25    0.65
  -3  -1  -5    0.16    0.10
  -3  -1  -6   14.31    0.49
  -3  -1  -6   15.24    0.93
  -3  -1  -7    7.76    0.38
  -3  -1  -8    9.53    0.40
  -3  -1  -9    0.57    0.10
  -3  -1 -10   -0.03    0.05
   3   2 -12    3.43    0.18
   3   2 -12    3.53    0.20
   3   2 -12    3.28    0.17
   3   2 -11    0.22    0.08
   3   2 -11    0.20    0.07
   3   2 -11    0.26    0.07
   3   2 -10    1.62    0.17
   3   2 -10    1.72    0.17
   3   2  -9   36.52    0.78
   3   2  -9   36.62    0.74
   3   2  -9   37.55    0.72
   3   2  -8    0.43    0.09
   3   2  -8    0.40    0.09
  -3  -2   8    0.28    0.19
  -3  -2   7    1.78    0.35
  -3  -2   6   71.14    2.03
  -3  -2   5   23.44    1.07
  -3  -2   4    4.86    0.47
   3   2  -4    5.16    0.16
  -3  -2   3   14.30    0.70
  -3  -2   2  127.07    1.85
  -3  -2   1   66.98    1.23
  -3  -2   0    0.14    0.07
  -3  -2   0    0.27    0.05
  -3  -2  -1    5.41    0.43
  -3  -2  -1    5.89    0.19
  -3  -2  -2   11.44    0.66
  -3  -2  -2   12.01    0.30
  -3  -2  -3   11.37    0.72
  -3  -2  -3   11.70    0.33
  -3  -2  -4    3.42    0.44
   3   2   4    3.96    0.21
  -3  -2  -5   17.87    1.03
  -3  -2  -5   19.52    0.55
  -3  -2  -6   10.71    0.43
  -3  -2  -7    8.02    0.38
  -3  -2  -8    5.46    0.29
  -3  -2  -9    0.31    0.08
  -3  -2 -10    0.04    0.04
   3   3 -13   17.38    0.30
   3   3 -13   16.39    0.30
   3   3 -12    3.87    0.21
   3   3 -11    0.08    0.08
   3   3 -10   30.28    0.72
   3   3 -10   30.37    0.66
   3   3  -9   15.59    0.52
  -3  -3   8    0.00    0.09
   3   3  -8    0.36    0.09
  -3  -3   7    2.65    0.43
  -3  -3   6   30.49    1.38
  -3  -3   5    9.59    0.72
   3   3  -4    0.08    0.04
  -3  -3   4    0.09    0.11
  -3  -3   3    8.86    0.57
   3   3  -3    9.02    0.50
   3   3  -3    9.55    0.28
   3   3  -2  161.67    1.79
  -3  -3   2  164.77    2.14
   3   3  -1    8.77    0.30
   3   3   0   83.80    0.95
  -3  -3  -1   21.41    0.97
   3   3   1   22.02    0.50
  -3  -3  -2   19.35    0.97
   3   3   2   18.17    0.47
  -3  -3  -3    3.91    0.46
   3   3   3    4.15    0.23
  -3  -3  -4    8.17    0.72
  -3  -3  -4    7.60    0.33
   3   3   4    8.12    0.31
  -3  -3  -5    6.74    0.33
  -3  -3  -6   18.81    0.57
  -3  -3  -7   11.33    0.42
  -3  -3  -8    0.41    0.09
  -3  -3  -9    0.11    0.05
   3   4 -12    0.13    0.05
   3   4 -12    0.23    0.06
   3   4 -11    0.08    0.07
   3   4 -11    0.14    0.08
   3   4 -11    0.12    0.06
   3   4 -10    1.71    0.18
   3   4 -10    1.72    0.17
   3   4  -9    5.76    0.32
   3   4  -8    6.59    0.32
   3   4  -8    6.74    0.34
  -3  -4   7    6.20    0.68
   3   4  -7    5.75    0.30
   3   4  -7    6.34    0.29
  -3  -4   6   45.08    1.72
  -3  -4   5   25.25    1.20
   3   4  -5   25.95    1.11
  -3  -4   4   14.84    0.84
   3   4  -4   16.34    0.80
   3   4  -4   15.62    0.39
   3   4  -3   40.03    1.13
  -3  -4   3   40.98    1.24
   3   4  -3   40.75    0.66
   3   4  -2    8.37    0.31
   3   4  -1   11.30    0.38
   3   4   0   14.96    0.45
  -3  -4  -1   46.43    1.61
   3   4   1   46.00    0.80
  -3  -4  -2   52.59    1.77
   3   4   2   51.68    0.86
  -3  -4  -3   13.24    0.93
   3   4   3   13.08    0.43
  -3  -4  -4   41.18    0.78
  -3  -4  -5    3.94    0.25
  -3  -4  -6   14.55    0.46
  -3  -4  -7    1.49    0.14
  -3  -4  -8    3.12    0.15
   3   4   8    2.93    0.14
   3   5 -12    1.65    0.12
   3   5 -12    1.61    0.12
   3   5 -12    1.39    0.12
   3   5 -11    5.93    0.27
   3   5 -11    6.04    0.27
   3   5 -11    5.93    0.26
   3   5 -10    0.73    0.13
   3   5 -10    0.66    0.12
   3   5  -9   20.92    0.56
   3   5  -9   21.02    0.60
   3   5  -9   21.21    0.63
   3   5  -8   16.51    0.53
   3   5  -8   16.19    0.50
   3   5  -7    4.63    0.29
   3   5  -7    4.62    0.27
  -3  -5   7    4.51    0.59
  -3  -5   6   28.91    1.38
   3   5  -6   28.16    0.69
   3   5  -6   29.40    0.65
   3   5  -6   27.75    1.26
   3   5  -5    0.28    0.08
   3   5  -5    0.22    0.07
  -3  -5   5    0.39    0.12
   3   5  -3    0.04    0.05
   3   5  -2   23.33    0.58
   3   5  -1   10.06    0.40
  -3  -5   0   14.43    0.96
   3   5   0   13.30    0.42
   3   5   0   13.56    0.47
   3   5   0   14.63    0.47
  -3  -5  -1    9.46    0.80
   3   5   1    9.25    0.38
   3   5   1    9.17    0.36
   3   5   1    9.15    0.39
   3   5   2   17.32    0.53
   3   5   2   17.87    0.51
   3   5   3    0.35    0.09
   3   5   3    0.20    0.07
   3   5   4    2.72    0.19
  -3  -5  -5    4.77    0.24
   3   5   5    4.72    0.23
  -3  -5  -6    0.32    0.06
   3   5   6    0.33    0.08
   3   5   7    0.12    0.05
  -3  -5  -7    0.14    0.04
   3   6 -11    0.01    0.05
   3   6 -11    0.00    0.04
   3   6 -11    0.01    0.05
   3   6 -11    0.04    0.05
   3   6 -10    0.00    0.06
   3   6 -10    0.11    0.06
   3   6 -10    0.05    0.06
   3   6  -9   22.53    0.60
   3   6  -9   23.39    0.63
   3   6  -8    0.10    0.08
   3   6  -8    0.20    0.08
   3   6  -8    0.12    0.08
   3   6  -7    3.10    0.25
   3   6  -7    3.16    0.23
   3   6  -7    3.06    0.25
   3   6  -6    4.64    0.25
   3   6  -6    4.60    0.30
   3   6  -6    4.28    0.27
   3   6  -6    4.53    0.29
   3   6  -5   14.51    0.52
   3   6  -5   14.45    0.50
   3   6  -5   14.95    0.50
   3   6  -4    0.08    0.07
   3   6  -4    0.02    0.05
   3   6  -4    0.12    0.06
   3   6  -3    3.18    0.23
   3   6  -3    3.35    0.24
   3   6  -3    3.61    0.25
   3   6  -2   27.87    0.62
   3   6  -2   29.32    0.70
   3   6  -2   28.88    0.67
   3   6  -1   13.89    0.49
   3   6  -1   13.61    0.47
   3   6   0   98.50    1.31
   3   6   0   97.78    1.25
   3   6   0   96.87    1.31
   3   6   1    1.01    0.15
   3   6   1    0.83    0.12
   3   6   2   78.31    1.17
   3   6   2   76.41    1.08
   3   6   3    2.84    0.23
   3   6   3    2.91    0.20
   3   6   4    3.46    0.23
   3   6   4    3.69    0.20
   3   6   5    6.02    0.26
   3   6   5    5.54    0.20
   3   6   6    9.53    0.26
   3   7 -11    1.40    0.10
   3   7 -10    0.08    0.06
   3   7 -10    0.03    0.05
   3   7  -9    0.11    0.06
   3   7  -9    0.16    0.08
   3   7  -8   11.71    0.40
   3   7  -8   11.52    0.44
   3   7  -7    0.30    0.08
   3   7  -7    0.48    0.11
   3   7  -6    0.13    0.08
   3   7  -6    0.11    0.07
   3   7  -6    0.18    0.07
   3   7  -6    0.22    0.08
   3   7  -5   52.49    0.98
   3   7  -5   53.89    0.97
   3   7  -5   53.34    0.89
   3   7  -4    2.45    0.21
   3   7  -4    2.65    0.22
   3   7  -3    2.16    0.20
   3   7  -2    0.08    0.06
   3   7  -2    0.10    0.07
   3   7  -1    3.22    0.25
   3   7  -1    3.22    0.23
   3   7   0    0.09    0.07
   3   7   0    0.17    0.08
   3   7   1    5.79    0.31
   3   7   1    5.63    0.29
   3   7   2    0.14    0.08
   3   7   2    0.09    0.06
   3   7   3    1.19    0.13
   3   7   3    1.07    0.11
   3   7   4    0.75    0.10
   3   7   4    0.85    0.08
   3   7   5   -0.02    0.03
   3   8 -10    1.00    0.08
   3   8  -9    7.29    0.24
   3   8  -8   10.08    0.32
   3   8  -8    9.07    0.31
   3   8  -8    9.53    0.33
   3   8  -7    0.00    0.06
   3   8  -7    0.00    0.05
   3   8  -6    3.44    0.22
   3   8  -6    3.39    0.20
   3   8  -5   10.67    0.35
   3   8  -4    1.25    0.15
   3   8  -3    1.89    0.18
   3   8  -2    0.08    0.07
   3   8  -1    2.53    0.19
   3   8   0   24.05    0.58
   3   8   0   23.74    0.53
   3   8   1    0.08    0.06
   3   8   1    0.05    0.05
   3   8   2    0.05    0.05
   3   8   2    0.06    0.04
   3   8   3    4.54    0.18
   3   9  -8    3.04    0.13
   3   9  -7    1.57    0.11
   3   9  -7    1.39    0.11
   3   9  -6    3.79    0.19
   3   9  -5    0.41    0.08
   3   9  -5    0.44    0.07
   3   9  -4    0.10    0.06
   3   9  -4    0.19    0.06
   3   9  -3    0.75    0.10
   3   9  -3    0.85    0.10
   3   9  -2    0.27    0.06
   3   9  -1    0.07    0.04
   3   9   0    5.06    0.17
  -4  10   2    8.64    0.19
  -4  10   1    0.07    0.05
  -4  10   0    2.13    0.13
  -4  10  -1    0.79    0.09
  -4  10  -2    0.19    0.06
  -4  10  -3    0.04    0.04
  -4   9   4    0.87    0.09
  -4   9   3    2.52    0.15
  -4   9   3    2.66    0.16
  -4   9   3    2.48    0.15
  -4   9   2    9.70    0.31
  -4   9   2    9.37    0.30
  -4   9   2    9.40    0.32
  -4   9   1    2.34    0.16
  -4   9   1    2.61    0.16
  -4   9   1    2.32    0.17
  -4   9   1    2.47    0.18
  -4   9   0    0.82    0.12
  -4   9   0    0.99    0.11
  -4   9   0    1.00    0.13
  -4   9  -1    5.39    0.27
  -4   9  -1    5.68    0.28
  -4   9  -2    3.40    0.22
  -4   9  -2    3.33    0.21
  -4   9  -3    2.69    0.18
  -4   9  -3    3.15    0.18
  -4   9  -4    2.98    0.18
  -4   9  -5    2.05    0.13
  -4   8   6    0.48    0.07
  -4   8   6    0.46    0.07
  -4   8   5    8.55    0.29
  -4   8   5    8.74    0.31
  -4   8   4    0.88    0.12
  -4   8   4    0.98    0.13
  -4   8   4    0.88    0.10
  -4   8   3    0.02    0.05
  -4   8   3    0.01    0.07
  -4   8   3    0.06    0.06
  -4   8   2    0.16    0.07
  -4   8   2    0.12    0.07
  -4   8   2    0.19    0.07
  -4   8   2    0.24    0.08
  -4   8   2    0.12    0.06
  -4   8   1    8.12    0.36
  -4   8   1    8.14    0.34
  -4   8   1    7.72    0.33
  -4   8   1    8.34    0.34
  -4   8   1    8.18    0.37
  -4   8   0    3.16    0.21
  -4   8   0    3.74    0.23
  -4   8   0    3.35    0.24
  -4   8   0    3.62    0.25
  -4   8  -1    8.91    0.33
  -4   8  -1    8.62    0.38
  -4   8  -1    8.70    0.38
  -4   8  -2    2.33    0.20
  -4   8  -2    2.35    0.20
  -4   8  -3   11.17    0.41
  -4   8  -3   11.21    0.39
  -4   8  -4    2.54    0.19
  -4   8  -4    4.60    0.30
  -4   8  -5    1.21    0.13
  -4   8  -5    1.18    0.12
  -4   8  -6    1.78    0.13
  -4   8  -6    1.65    0.14
  -4   8  -7    2.21    0.15
  -4   8  -8    0.03    0.05
  -4   7   8   19.13    0.31
  -4   7   7    4.20    0.20
  -4   7   7    4.07    0.19
   4  -7  -7    4.20    0.17
  -4   7   6    0.72    0.11
  -4   7   6    0.83    0.12
   4  -7  -5    5.01    0.23
  -4   7   5    5.05    0.28
  -4   7   4   22.84    0.61
  -4   7   4   24.60    0.64
  -4   7   4   24.34    0.57
  -4   7   3    0.62    0.12
  -4   7   3    0.71    0.11
  -4   7   3    0.63    0.12
  -4   7   3    0.73    0.13
  -4   7   3    0.63    0.11
  -4   7   2   89.45    1.17
  -4   7   2   90.56    1.17
  -4   7   2   90.60    1.19
  -4   7   2   88.95    1.19
  -4   7   2   90.07    1.22
  -4   7   1    2.05    0.19
  -4   7   1    1.72    0.16
  -4   7   1    1.71    0.17
  -4   7   1    1.78    0.17
  -4   7   1    1.78    0.18
  -4   7   0   18.04    0.54
  -4   7   0   17.46    0.51
  -4   7   0   18.54    0.56
  -4   7  -1    3.29    0.24
  -4   7  -1    3.32    0.22
  -4   7  -2    4.40    0.28
  -4   7  -2    3.92    0.26
  -4   7  -2    4.09    0.24
  -4   7  -2    4.48    0.27
  -4   7  -3    0.98    0.16
  -4   7  -3    0.83    0.13
  -4   7  -3    0.95    0.13
  -4   7  -3    0.92    0.12
  -4   7  -4    0.10    0.06
  -4   7  -4    0.12    0.07
  -4   7  -4    0.15    0.07
  -4   7  -5    4.41    0.25
  -4   7  -5    4.55    0.26
  -4   7  -5    4.14    0.26
  -4   7  -6   17.68    0.45
  -4   7  -6   18.27    0.49
  -4   7  -6   18.45    0.52
  -4   7  -7   21.03    0.48
  -4   7  -7   21.99    0.55
  -4   7  -8    0.78    0.08
  -4   7  -8    0.98    0.12
  -4   7  -9    3.24    0.16
  -4   6   9    0.00    0.05
   4  -6  -9    0.02    0.03
   4  -6  -8    6.67    0.23
  -4   6   8    6.82    0.24
   4  -6  -8    6.98    0.26
  -4   6   8    7.03    0.24
   4  -6  -7    4.70    0.23
  -4   6   7    4.66    0.25
  -4   6   7    4.80    0.23
   4  -6  -6   18.20    0.50
  -4   6   6   17.74    0.53
  -4   6   5   32.54    0.75
  -4   6   4   37.45    0.69
  -4   6   4   37.54    0.79
  -4   6   3    5.55    0.28
  -4   6   3    5.38    0.29
  -4   6   3    5.71    0.30
  -4   6   2   22.89    0.57
  -4   6   2   23.10    0.59
  -4   6   2   23.07    1.24
  -4   6   2   22.61    0.58
  -4   6   2   23.80    0.67
  -4   6   1   10.62    0.39
  -4   6   1   10.93    0.41
  -4   6   1   10.77    0.83
  -4   6   1   11.27    0.44
  -4   6   1   10.64    0.40
  -4   6   0   11.67    0.42
  -4   6   0   11.78    0.41
  -4   6   0   13.13    0.46
  -4   6   0   12.47    0.88
  -4   6   0   12.43    0.43
  -4   6  -1    0.60    0.11
  -4   6  -1    0.70    0.22
  -4   6  -1    0.71    0.11
  -4   6  -1    0.57    0.09
  -4   6  -1    0.45    0.09
  -4   6  -1    0.67    0.11
  -4   6  -2    9.61    0.38
  -4   6  -2    9.98    0.39
  -4   6  -2   10.05    0.76
  -4   6  -2   10.10    0.36
  -4   6  -2    9.56    0.37
  -4   6  -3    0.00    0.07
  -4   6  -3    0.01    0.05
  -4   6  -3    0.01    0.05
  -4   6  -3    0.00    0.05
  -4   6  -3    0.03    0.05
  -4   6  -4    0.08    0.08
  -4   6  -4    0.07    0.06
  -4   6  -4    0.09    0.06
  -4   6  -5   10.41    0.40
  -4   6  -5    9.65    0.38
  -4   6  -5   10.35    0.42
  -4   6  -6    2.85    0.20
  -4   6  -6    2.53    0.22
  -4   6  -7   14.73    0.49
  -4   6  -8    0.46    0.10
  -4   6  -9    9.78    0.32
  -4   6 -10    1.69    0.10
   4  -5 -10    0.21    0.05
   4  -5  -9    0.74    0.09
  -4   5   9    0.68    0.08
   4  -5  -9    0.91    0.11
   4  -5  -8    6.88    0.30
  -4   5   8    7.18    0.30
   4  -5  -7    3.50    0.24
   4  -5  -6    6.35    0.32
  -4   5   5   15.76    0.51
  -4   5   4   97.69    2.52
  -4   5   4  102.93    1.24
  -4   5   4  105.82    1.35
  -4   5   4   97.43    1.10
  -4   5   3   10.80    0.82
  -4   5   3   11.64    0.41
  -4   5   3   11.53    0.43
  -4   5   3   11.22    0.38
  -4   5   2    3.42    0.45
  -4   5   1   73.69    2.01
  -4   5   0    3.38    0.43
  -4   5  -1    8.70    0.66
  -4   5  -2   11.93    0.76
  -4   5  -3    3.25    0.40
  -4   5  -4    1.36    0.15
  -4   5  -4    1.37    0.15
  -4   5  -4    1.26    0.15
  -4   5  -4    1.33    0.13
  -4   5  -5    0.06    0.06
  -4   5  -5   -0.01    0.07
  -4   5  -6    0.03    0.06
  -4   5  -6    0.08    0.06
  -4   5  -7    7.15    0.36
  -4   5  -8    2.46    0.20
  -4   5  -9    0.11    0.06
  -4   5 -10    2.60    0.13
   4  -4 -10    1.79    0.14
   4  -4 -10    1.68    0.14
   4  -4 -10    1.58    0.11
   4  -4  -9    1.80    0.16
  -4   4   9    1.61    0.13
   4  -4  -9    1.55    0.13
   4  -4  -8   34.36    0.75
   4  -4  -8   33.13    0.67
   4  -4  -7   43.61    0.87
   4  -4  -7   45.33    0.80
  -4   4   6   90.34    1.16
   4  -4  -6   87.96    1.08
  -4   4   5    1.50    0.34
  -4   4   5    1.77    0.16
  -4   4   5    1.46    0.15
  -4   4   4   57.55    1.85
  -4   4   3    5.21    0.53
  -4   4   2   58.31    1.70
  -4   4   1    1.89    0.30
  -4   4   0    0.03    0.08
  -4   4   0    0.02    0.03
  -4   4  -1    4.89    0.21
  -4   4  -1    5.38    0.47
  -4   4  -2   10.70    0.64
  -4   4  -2   10.07    0.32
  -4   4  -3    5.59    0.26
  -4   4  -4    7.35    0.32
  -4   4  -5    3.46    0.24
  -4   4  -5    3.63    0.24
  -4   4  -6    3.78    0.26
  -4   4  -7   10.02    0.36
  -4   4  -7   11.08    0.44
  -4   4  -8   31.89    0.70
  -4   4  -9    5.97    0.27
  -4   4 -10    7.22    0.22
   4  -3 -11    1.39    0.11
   4  -3 -11    1.37    0.11
   4  -3 -11    1.50    0.12
   4  -3 -10    0.94    0.12
   4  -3 -10    0.98    0.12
   4  -3  -9   15.64    0.51
   4  -3  -9   15.68    0.49
   4  -3  -8   22.22    0.62
   4  -3  -8   22.76    0.61
   4  -3  -7   93.16    1.25
   4  -3  -7   92.16    1.20
  -4   3   6    0.45    0.08
   4  -3  -6    0.49    0.09
  -4   3   5   31.60    1.26
  -4   3   4    2.25    0.33
  -4   3   3   21.75    1.00
  -4   3   3   20.42    0.97
  -4   3   2    6.99    0.54
  -4   3   1   35.03    1.13
  -4   3   0   18.17    0.77
  -4   3   0   17.90    0.38
  -4   3  -1   51.20    1.24
  -4   3  -1   50.60    0.67
  -4   3  -2    0.06    0.08
  -4   3  -2    0.24    0.07
  -4   3  -3    1.64    0.15
  -4   3  -4   25.29    0.59
  -4   3  -5    2.12    0.18
  -4   3  -5    2.45    0.20
   4  -3   6    0.16    0.11
  -4   3  -6    0.56    0.11
  -4   3  -7   14.45    0.48
  -4   3  -8   14.77    0.46
  -4   3  -9   12.66    0.36
   4  -2 -12    1.98    0.11
   4  -2 -11   23.34    0.51
   4  -2 -11   22.20    0.45
   4  -2 -11   22.57    0.50
   4  -2 -10   12.83    0.45
   4  -2 -10   12.99    0.45
   4  -2  -9    0.75    0.13
   4  -2  -9    0.90    0.14
   4  -2  -8   85.31    1.21
   4  -2  -8   78.72    1.16
   4  -2  -7   22.15    0.59
   4  -2  -7   22.74    0.60
  -4   2   6    5.40    0.54
  -4   2   5    4.27    0.48
  -4   2   4   16.62    0.90
  -4   2   3   12.72    0.76
  -4   2   2   56.94    1.53
  -4   2   1   21.13    0.78
  -4   2   1   19.39    0.89
  -4   2   0    1.05    0.17
  -4   2  -1   44.33    0.62
  -4   2  -1   47.57    1.00
  -4   2  -2    0.53    0.09
  -4   2  -3    1.27    0.13
  -4   2  -4    1.06    0.13
  -4   2  -5   12.53    0.45
  -4   2  -6    0.56    0.10
  -4   2  -6    0.51    0.09
  -4   2  -7    7.12    0.33
  -4   2  -7    7.25    0.32
  -4   2  -8   15.21    0.45
  -4   2  -9    7.43    0.27
   4  -1 -12    0.07    0.05
   4  -1 -11    5.89    0.28
   4  -1 -11    6.27    0.29
   4  -1 -11    5.67    0.23
   4  -1 -10   12.74    0.45
   4  -1 -10   13.14    0.47
   4  -1  -9    7.86    0.37
   4  -1  -9    7.78    0.38
   4  -1  -8    0.81    0.12
   4  -1  -8    0.85    0.13
   4  -1  -7   31.46    0.66
   4  -1  -7   33.37    0.71
  -4   1   7   33.74    1.45
  -4   1   7   32.08    0.69
  -4   1   6    7.40    0.67
  -4   1   5   12.99    0.84
  -4   1   4    0.28    0.15
  -4   1   3   53.69    1.52
  -4   1   2   86.50    1.84
  -4   1   1   38.03    1.17
  -4   1   0   15.63    0.53
  -4   1  -1    1.30    0.11
  -4   1  -2   55.47    0.74
  -4   1  -3   48.68    0.76
  -4   1  -4    7.09    0.32
  -4   1  -5   34.30    0.70
  -4   1  -5   32.55    0.67
  -4   1  -6    2.45    0.20
  -4   1  -7   77.63    1.12
  -4   1  -8   11.27    0.41
  -4   1  -9    2.87    0.18
  -4   1 -10   11.11    0.23
   4   0 -12    0.43    0.08
   4   0 -11    1.63    0.14
   4   0 -11    1.86    0.17
   4   0 -11    1.87    0.16
   4   0 -10   26.27    0.64
   4   0 -10   25.08    0.66
   4   0  -9    7.36    0.34
   4   0  -9    7.19    0.33
   4   0  -9    7.53    0.37
   4   0  -8    5.29    0.28
  -4   0   8    5.80    0.64
   4   0  -8    5.34    0.27
   4   0  -8    5.28    0.30
  -4   0   8    5.51    0.30
  -4   0   7  131.06    2.92
  -4   0   6    5.78    0.59
  -4   0   5   63.42    1.82
  -4   0   4   26.98    1.13
  -4   0   3    1.63    0.28
  -4   0   2   25.87    0.98
  -4   0   1    0.05    0.09
  -4   0   0    3.79    0.36
  -4   0  -1  120.95    1.02
  -4   0  -2   45.30    0.67
  -4   0  -3    0.22    0.07
  -4   0  -4   31.58    0.67
  -4   0  -5    0.36    0.09
  -4   0  -5    0.28    0.09
  -4   0  -6    2.66    0.22
  -4   0  -7   23.47    0.63
  -4   0  -8    5.74    0.29
  -4   0  -9    1.93    0.15
   4   1 -12    0.35    0.06
   4   1 -12    0.37    0.08
   4   1 -12    0.25    0.06
   4   1 -11    1.48    0.15
   4   1 -11    1.31    0.13
   4   1 -10   18.79    0.52
   4   1 -10   19.03    0.54
   4   1 -10   19.25    0.56
   4   1  -9    0.09    0.07
   4   1  -9    0.17    0.06
   4   1  -9    0.06    0.05
   4   1  -8    5.02    0.26
  -4  -1   8    4.88    0.61
   4   1  -8    4.53    0.25
   4   1  -8    4.94    0.28
  -4  -1   8    4.89    0.27
  -4  -1   7   63.82    2.05
  -4  -1   6    7.61    0.68
  -4  -1   5   18.81    1.00
  -4  -1   4   11.59    0.74
  -4  -1   3   81.72    1.84
  -4  -1   2    3.53    0.36
  -4  -1   1   53.17    1.29
  -4  -1   0   22.70    0.74
  -4  -1   0   23.69    0.80
  -4  -1   0   22.42    0.41
  -4  -1  -1  126.36    1.84
  -4  -1  -1  128.13    1.05
  -4  -1  -2   10.26    0.58
  -4  -1  -2   10.77    0.33
  -4  -1  -3    1.31    0.13
  -4  -1  -4   25.07    0.60
  -4  -1  -4   25.72    0.59
  -4  -1  -5   65.77    1.05
  -4  -1  -6    0.04    0.08
  -4  -1  -7   31.72    0.73
  -4  -1  -8   12.41    0.42
  -4  -1  -9    1.55    0.13
   4   2 -12    0.27    0.07
   4   2 -12    0.33    0.07
   4   2 -11    4.11    0.24
   4   2 -11    4.38    0.23
   4   2 -10    0.84    0.13
   4   2 -10    0.83    0.12
   4   2  -9   45.59    0.85
   4   2  -9   44.66    0.82
  -4  -2   8   21.44    1.26
   4   2  -8   21.27    0.56
   4   2  -8   19.90    0.52
  -4  -2   8   20.72    0.53
  -4  -2   7   35.68    1.57
  -4  -2   6   11.68    0.85
  -4  -2   5   10.53    0.76
  -4  -2   4    4.32    0.46
   4   2  -4    4.44    0.18
  -4  -2   3   -0.14    0.11
  -4  -2   2    2.00    0.27
  -4  -2   1    0.27    0.11
  -4  -2   0    4.34    0.18
  -4  -2  -1   27.48    1.02
  -4  -2  -1   28.38    0.49
  -4  -2  -2   13.58    0.76
  -4  -2  -2   14.28    0.37
  -4  -2  -3   38.13    1.36
  -4  -2  -3   38.75    0.66
  -4  -2  -4    0.12    0.06
   4   2   4    0.08    0.05
  -4  -2  -5    0.27    0.08
  -4  -2  -6   33.18    0.76
  -4  -2  -7    5.47    0.30
  -4  -2  -8   30.93    0.59
  -4  -2  -9    7.34    0.22
   4   3 -12    9.34    0.31
   4   3 -11   12.16    0.40
   4   3 -11   12.17    0.35
   4   3 -10   13.55    0.46
   4   3  -9   41.39    0.83
   4   3  -8   33.75    0.70
   4   3  -8   35.24    0.75
  -4  -3   7   35.94    1.60
   4   3  -7   36.51    0.65
  -4  -3   6    7.83    0.72
  -4  -3   5    2.38    0.37
  -4  -3   4    7.84    0.62
   4   3  -4    8.32    0.28
  -4  -3   3    6.22    0.51
   4   3  -3    6.71    0.27
   4   3  -2    0.95    0.12
   4   3  -1   46.80    0.77
  -4  -3   0    3.38    0.40
   4   3   0    3.03    0.21
   4   3   1    0.85    0.12
  -4  -3  -1    0.52    0.17
  -4  -3  -2   29.98    1.26
   4   3   2   29.60    0.67
  -4  -3  -3   76.27    1.04
   4   3   3   77.79    1.06
  -4  -3  -4   36.04    0.76
   4   3   4   34.78    0.68
  -4  -3  -5   41.22    0.83
  -4  -3  -6    2.61    0.21
  -4  -3  -7    3.69    0.21
  -4  -3  -8   36.51    0.52
   4   4 -12    0.39    0.07
   4   4 -12    0.41    0.07
   4   4 -11    3.55    0.21
   4   4 -11    3.63    0.20
   4   4 -10    6.54    0.32
   4   4 -10    6.72    0.33
   4   4  -9   11.19    0.40
   4   4  -9   11.69    0.45
   4   4  -8   12.05    0.45
   4   4  -8   12.40    0.46
   4   4  -7    0.39    0.18
   4   4  -7    0.72    0.12
   4   4  -7    0.67    0.10
  -4  -4   6   10.99    0.86
   4   4  -6   11.47    0.39
  -4  -4   5    2.57    0.38
   4   4  -4    3.10    0.19
   4   4  -3    3.22    0.21
   4   4  -2    0.83    0.12
   4   4  -1   47.97    0.84
  -4  -4   0    0.66    0.20
   4   4   0    0.80    0.13
   4   4   1   28.61    0.68
   4   4   1   28.08    0.63
   4   4   2    2.71    0.21
  -4  -4  -2    2.78    0.42
   4   4   2    2.92    0.22
  -4  -4  -3    0.72    0.10
   4   4   3    0.90    0.12
  -4  -4  -4    3.54    0.23
  -4  -4  -5    5.22    0.27
  -4  -4  -6    1.31    0.13
   4   4   6    1.25    0.12
  -4  -4  -7   16.44    0.34
   4   4   7   14.94    0.27
   4   5 -12    1.79    0.11
   4   5 -12    1.66    0.11
   4   5 -11    7.19    0.28
   4   5 -11    7.13    0.27
   4   5 -11    7.96    0.29
   4   5 -10    0.03    0.06
   4   5 -10    0.05    0.06
   4   5  -9    7.40    0.34
   4   5  -9    7.63    0.35
   4   5  -8    2.50    0.22
   4   5  -8    2.62    0.19
   4   5  -7   53.56    0.99
   4   5  -7   52.81    0.85
   4   5  -7   51.81    0.81
   4   5  -6    0.13    0.08
   4   5  -6    0.00    0.04
   4   5  -6   -0.01    0.05
   4   5  -5   15.35    0.52
   4   5  -5   14.94    0.47
   4   5  -4   17.41    0.54
   4   5  -4   17.47    0.49
   4   5  -4   17.79    0.50
   4   5  -3    0.97    0.13
   4   5  -3    0.96    0.13
   4   5  -3    0.86    0.11
   4   5  -2   10.90    0.38
   4   5  -2   11.44    0.43
   4   5  -2   11.48    0.39
   4   5  -2   11.67    0.42
   4   5  -1    4.56    0.27
   4   5   0    9.37    0.39
   4   5   1    0.07    0.06
   4   5   1    0.11    0.07
   4   5   2   16.72    0.52
   4   5   2   15.96    0.51
   4   5   3   14.40    0.47
   4   5   3   13.20    0.42
   4   5   4   10.63    0.38
   4   5   5    1.59    0.13
   4   5   6   19.86    0.34
   4   6 -11    0.22    0.06
   4   6 -11    0.19    0.05
   4   6 -11    0.14    0.05
   4   6 -10   10.59    0.35
   4   6 -10    9.78    0.28
   4   6 -10   10.48    0.36
   4   6  -9    0.54    0.10
   4   6  -9    0.70    0.13
   4   6  -8    2.27    0.21
   4   6  -8    2.47    0.18
   4   6  -8    2.15    0.21
   4   6  -7    9.55    0.43
   4   6  -7    9.53    0.37
   4   6  -7    9.32    0.34
   4   6  -7    9.20    0.41
   4   6  -6   -0.07    0.09
   4   6  -6   -0.02    0.05
   4   6  -6    0.01    0.06
   4   6  -5   32.15    0.77
   4   6  -5   31.79    0.70
   4   6  -4    0.72    0.13
   4   6  -4    0.68    0.11
   4   6  -3    2.00    0.18
   4   6  -3    2.05    0.18
   4   6  -2   16.55    0.54
   4   6  -2   18.39    0.52
   4   6  -2   17.43    0.56
   4   6  -1    1.15    0.15
   4   6  -1    1.16    0.13
   4   6  -1    1.14    0.16
   4   6   0    9.04    0.39
   4   6   0    9.05    0.35
   4   6   0    8.71    0.39
   4   6   1    7.47    0.35
   4   6   2   26.45    0.63
   4   6   3    0.10    0.06
   4   6   4    2.24    0.15
   4   6   5   19.31    0.33
   4   7 -10    1.63    0.12
   4   7 -10    1.56    0.12
   4   7  -9   24.05    0.51
   4   7  -9   24.37    0.53
   4   7  -8   12.41    0.36
   4   7  -8   12.59    0.41
   4   7  -7   26.66    0.66
   4   7  -7   26.63    0.57
   4   7  -7   26.41    0.49
   4   7  -7   26.84    0.62
   4   7  -6    6.70    0.34
   4   7  -6    6.73    0.31
   4   7  -6    6.64    0.29
   4   7  -6    6.85    0.31
   4   7  -5    0.15    0.09
   4   7  -5    0.22    0.07
   4   7  -4    0.63    0.11
   4   7  -4    0.48    0.10
   4   7  -4    0.48    0.11
   4   7  -3   14.00    0.46
   4   7  -2    1.14    0.14
   4   7  -1    9.42    0.39
   4   7  -1    8.51    0.33
   4   7   0    2.51    0.17
   4   7   0    2.96    0.22
   4   7   1    0.01    0.06
   4   7   1    0.02    0.04
   4   7   2   30.61    0.57
   4   7   3    0.59    0.08
   4   8  -9    2.87    0.14
   4   8  -8    2.28    0.15
   4   8  -7   15.72    0.37
   4   8  -6    1.41    0.13
   4   8  -6    1.55    0.12
   4   8  -5    1.53    0.14
   4   8  -5    1.63    0.14
   4   8  -4    1.31    0.13
   4   8  -3    1.68    0.15
   4   8  -3    1.52    0.14
   4   8  -2    3.17    0.18
   4   8  -1   12.05    0.32
   4   8   0    1.75    0.11
   4   8   1    2.07    0.11
  -4  -8  -2    4.86    0.15
   4   9  -7    0.17    0.04
   4   9  -6    1.26    0.08
   4   9  -5    1.14    0.09
   4   9  -5    0.93    0.07
   4   9  -4    6.54    0.21
   4   9  -4    6.59    0.20
   4   9  -3    0.24    0.05
   4   9  -3    0.21    0.06
   4   9  -2    1.40    0.10
   4   9  -1    2.50    0.11
  -5  10   1    0.35    0.06
  -5  10   0   12.19    0.26
  -5  10  -1    0.52    0.07
  -5  10  -2    2.84    0.12
  -5   9   3   14.31    0.31
  -5   9   3   14.26    0.31
  -5   9   2    0.84    0.09
  -5   9   2    0.99    0.10
  -5   9   1    6.06    0.26
  -5   9   1    6.01    0.25
  -5   9   0   -0.04    0.06
  -5   9   0    0.03    0.05
  -5   9   0    0.10    0.07
  -5   9  -1    1.90    0.16
  -5   9  -1    1.77    0.12
  -5   9  -1    2.00    0.16
  -5   9  -2    1.25    0.13
  -5   9  -2    1.40    0.13
  -5   9  -3    3.12    0.18
  -5   9  -3    2.93    0.15
  -5   9  -4    0.05    0.05
  -5   9  -5    2.23    0.12
  -5   8   6    6.61    0.20
  -5   8   5    0.35    0.06
  -5   8   5    0.34    0.08
  -5   8   4    4.09    0.19
  -5   8   4    3.76    0.21
  -5   8   4    3.69    0.18
  -5   8   3    3.44    0.18
  -5   8   3    3.65    0.22
  -5   8   3    3.63    0.22
  -5   8   3    3.62    0.21
  -5   8   2   11.20    0.38
  -5   8   2   11.53    0.37
  -5   8   2   11.53    0.40
  -5   8   2   11.65    0.40
  -5   8   1    1.37    0.15
  -5   8   1    1.31    0.13
  -5   8   1    1.21    0.14
  -5   8   1    1.27    0.15
  -5   8   0   16.53    0.50
  -5   8   0   16.45    0.47
  -5   8   0   17.02    0.52
  -5   8  -1    3.01    0.22
  -5   8  -1    3.40    0.21
  -5   8  -1    3.08    0.22
  -5   8  -2    0.40    0.10
  -5   8  -2    0.40    0.08
  -5   8  -2    0.34    0.09
  -5   8  -3    8.56    0.35
  -5   8  -3    8.59    0.32
  -5   8  -4   11.08    0.38
  -5   8  -4   10.68    0.33
  -5   8  -5   15.22    0.39
  -5   8  -5   15.46    0.39
  -5   8  -6    7.19    0.22
  -5   8  -6    6.80    0.24
  -5   8  -7    0.45    0.07
   5  -7  -7    0.12    0.03
  -5   7   7    0.15    0.06
   5  -7  -7    0.08    0.04
   5  -7  -6    5.32    0.22
  -5   7   6    5.28    0.23
  -5   7   6    5.05    0.25
   5  -7  -5    3.99    0.22
  -5   7   5    4.00    0.22
  -5   7   5    4.22    0.25
  -5   7   4   13.10    0.45
  -5   7   4   13.03    0.41
  -5   7   4   13.08    0.45
  -5   7   4   13.12    0.41
  -5   7   3    3.06    0.20
  -5   7   3    3.29    0.21
  -5   7   3    3.03    0.23
  -5   7   3    3.19    0.22
  -5   7   3    3.02    0.23
  -5   7   2    6.10    0.30
  -5   7   2    6.27    0.31
  -5   7   2    6.04    0.32
  -5   7   2    6.27    0.32
  -5   7   1    7.24    0.34
  -5   7   1    7.29    0.31
  -5   7   1    6.88    0.34
  -5   7   1    7.40    0.36
  -5   7   0   69.10    1.07
  -5   7   0   68.73    1.05
  -5   7   0   69.65    1.15
  -5   7   0   70.18    1.10
  -5   7  -1    1.25    0.16
  -5   7  -1    1.18    0.14
  -5   7  -1    1.04    0.16
  -5   7  -1    1.08    0.14
  -5   7  -2   44.90    0.88
  -5   7  -2   44.17    0.81
  -5   7  -2   43.74    0.77
  -5   7  -2   43.84    0.83
  -5   7  -3    1.79    0.18
  -5   7  -3    1.91    0.17
  -5   7  -3    1.66    0.16
  -5   7  -3    1.85    0.16
  -5   7  -4    2.63    0.21
  -5   7  -4    2.88    0.19
  -5   7  -4    3.03    0.22
  -5   7  -5   24.91    0.58
  -5   7  -5   25.71    0.61
  -5   7  -6   -0.03    0.04
  -5   7  -6    0.01    0.07
  -5   7  -7    1.12    0.12
  -5   7  -8    2.61    0.15
   5  -6  -8    3.17    0.16
  -5   6   8    2.96    0.16
   5  -6  -7    0.05    0.05
  -5   6   7    0.19    0.07
   5  -6  -6    1.40    0.15
  -5   6   6    1.30    0.16
  -5   6   5    0.07    0.07
  -5   6   4    2.04    0.19
  -5   6   4    2.07    0.18
  -5   6   3    0.04    0.05
  -5   6   3    0.06    0.06
  -5   6   3    0.24    0.09
  -5   6   3    0.02    0.06
  -5   6   2   14.80    0.46
  -5   6   2   14.89    0.50
  -5   6   2   15.15    0.55
  -5   6   2   14.80    0.49
  -5   6   1    6.60    0.32
  -5   6   1    6.31    0.33
  -5   6   1    6.62    0.35
  -5   6   1    6.43    0.33
  -5   6   0    7.78    0.35
  -5   6   0    7.52    0.35
  -5   6   0    8.10    0.38
  -5   6   0    8.03    0.32
  -5   6   0    7.31    0.35
  -5   6   0    6.84    0.65
  -5   6  -1    1.83    0.18
  -5   6  -1    1.86    0.18
  -5   6  -1    1.84    0.18
  -5   6  -1    1.73    0.17
  -5   6  -1    1.79    0.18
  -5   6  -1    2.38    0.38
  -5   6  -2   10.91    0.43
  -5   6  -2   10.11    0.40
  -5   6  -2   10.72    0.41
  -5   6  -3    1.19    0.15
  -5   6  -3    1.00    0.14
  -5   6  -3    1.33    0.14
  -5   6  -4    2.85    0.23
  -5   6  -4    2.70    0.22
  -5   6  -5    7.19    0.34
  -5   6  -5    7.05    0.35
  -5   6  -6   14.57    0.44
  -5   6  -6   14.31    0.48
  -5   6  -7    2.23    0.15
  -5   6  -7    2.47    0.19
  -5   6  -8    3.63    0.20
  -5   6  -9   18.99    0.34
   5  -5 -10    1.04    0.08
   5  -5  -9    3.13    0.17
  -5   5   9    2.99    0.15
   5  -5  -8    7.99    0.32
  -5   5   8    7.97    0.31
   5  -5  -7    4.78    0.28
  -5   5   6   19.31    0.55
  -5   5   5    1.45    0.16
  -5   5   5    1.48    0.17
  -5   5   4   18.07    0.54
  -5   5   4   19.01    0.59
  -5   5   4   17.19    0.49
  -5   5   3    0.06    0.05
  -5   5   3    0.05    0.06
  -5   5   3   -0.02    0.04
  -5   5   2   29.80    0.61
  -5   5   2   30.22    0.68
  -5   5   2   31.78    0.74
  -5   5   2   32.31    1.41
  -5   5   1    2.34    0.18
  -5   5   1    2.46    0.39
  -5   5   1    2.08    0.19
  -5   5   1    2.13    0.18
  -5   5   0   78.33    1.05
  -5   5   0   78.34    1.11
  -5   5   0   75.16    2.02
  -5   5  -1    3.97    0.25
  -5   5  -1    3.64    0.23
  -5   5  -1    3.90    0.24
  -5   5  -2   11.01    0.42
  -5   5  -2   11.16    0.41
  -5   5  -2   10.60    0.36
  -5   5  -3   18.62    0.56
  -5   5  -3   18.62    0.55
  -5   5  -3   18.74    0.50
  -5   5  -4    0.08    0.06
  -5   5  -4    0.13    0.07
  -5   5  -4    0.04    0.04
  -5   5  -5    3.08    0.23
  -5   5  -5    3.26    0.24
  -5   5  -6   33.72    0.71
  -5   5  -6   34.01    0.76
  -5   5  -7    1.72    0.14
  -5   5  -7    1.81    0.17
  -5   5  -8    2.85    0.19
  -5   5  -9    7.32    0.23
   5  -4 -10    4.14    0.19
   5  -4 -10    4.02    0.19
   5  -4 -10    3.52    0.15
   5  -4  -9    1.31    0.14
  -5   4   9    1.20    0.12
   5  -4  -9    1.25    0.12
   5  -4  -8    4.54    0.28
   5  -4  -8    4.40    0.24
   5  -4  -7    1.33    0.16
   5  -4  -7    1.50    0.15
   5  -4  -6    9.84    0.38
  -5   4   6    9.87    0.38
  -5   4   6   10.20    0.40
  -5   4   5    7.79    0.34
  -5   4   5    8.36    0.37
  -5   4   4    7.93    0.35
  -5   4   4    6.94    0.68
  -5   4   4    7.83    0.33
  -5   4   3    3.34    0.46
  -5   4   2    5.95    0.59
  -5   4   1    3.42    0.42
  -5   4   1    3.43    0.19
  -5   4   0   32.47    1.22
  -5   4   0   33.19    0.60
  -5   4  -1    2.38    0.17
  -5   4  -1    2.45    0.32
  -5   4  -2   31.30    0.64
  -5   4  -3   32.38    0.70
  -5   4  -3   32.33    0.68
  -5   4  -4   22.26    0.61
  -5   4  -4   21.78    0.59
  -5   4  -5    7.55    0.36
  -5   4  -5    7.82    0.36
  -5   4  -6   55.37    0.96
  -5   4  -7    0.08    0.06
  -5   4  -7   -0.02    0.07
  -5   4  -8    0.20    0.07
  -5   4  -9    2.81    0.14
   5  -3 -11    0.69    0.08
   5  -3 -11    0.74    0.08
   5  -3 -11    0.67    0.07
   5  -3 -10    4.79    0.24
   5  -3 -10    4.43    0.22
   5  -3  -9    4.92    0.28
   5  -3  -9    4.80    0.27
   5  -3  -8    0.04    0.07
   5  -3  -8   -0.05    0.05
   5  -3  -7   24.84    0.66
   5  -3  -7   26.47    0.65
  -5   3   6   35.85    0.67
  -5   3   6   38.27    1.61
  -5   3   5    7.41    0.68
  -5   3   5    7.00    0.29
  -5   3   5    7.27    0.32
  -5   3   5    7.34    0.32
  -5   3   5    7.52    0.70
  -5   3   4    1.07    0.25
  -5   3   4    1.08    0.26
  -5   3   3    8.89    0.68
  -5   3   2   52.63    1.56
  -5   3   1   60.52    1.57
  -5   3   0   72.47    1.60
  -5   3   0   66.59    0.86
  -5   3  -1    9.87    0.35
  -5   3  -2   87.04    1.07
  -5   3  -3   12.01    0.42
  -5   3  -4    0.94    0.13
  -5   3  -4    1.05    0.14
  -5   3  -4    1.06    0.14
  -5   3  -5    1.85    0.17
  -5   3  -5    1.89    0.18
  -5   3  -5    2.11    0.20
  -5   3  -6   27.05    0.62
  -5   3  -6   27.47    0.66
  -5   3  -7    0.99    0.12
  -5   3  -7    0.97    0.13
  -5   3  -8    2.33    0.15
  -5   3  -8    2.26    0.16
   5  -2 -11    0.45    0.08
   5  -2 -11    0.34    0.07
   5  -2 -11    0.46    0.08
   5  -2 -10    1.72    0.17
   5  -2 -10    1.66    0.16
   5  -2  -9    2.34    0.20
   5  -2  -9    2.32    0.20
   5  -2  -8   12.82    0.47
   5  -2  -8   13.19    0.48
   5  -2  -7    0.06    0.06
   5  -2  -7    0.02    0.05
  -5   2   7    0.09    0.08
  -5   2   6   30.80    1.42
  -5   2   6   28.62    0.66
  -5   2   5   -0.04    0.06
  -5   2   4   62.89    1.94
  -5   2   3    2.52    0.39
  -5   2   2    0.02    0.08
  -5   2   2    0.29    0.15
  -5   2   1   11.75    0.63
  -5   2   0   57.13    0.79
  -5   2  -1   64.96    0.88
  -5   2  -2    0.55    0.10
  -5   2  -3   63.30    0.97
  -5   2  -4   37.00    0.74
  -5   2  -4   37.52    0.71
  -5   2  -5    6.13    0.32
  -5   2  -5    6.19    0.30
  -5   2  -6    2.06    0.19
  -5   2  -6    1.82    0.16
  -5   2  -7   19.92    0.54
  -5   2  -8    1.58    0.14
  -5   2  -9   20.11    0.33
   5  -1 -12   19.61    0.37
   5  -1 -11    0.90    0.11
   5  -1 -11    0.93    0.12
   5  -1 -10    0.01    0.06
   5  -1 -10   -0.03    0.07
   5  -1  -9    1.57    0.17
   5  -1  -9    1.72    0.18
   5  -1  -8    4.44    0.27
   5  -1  -8    4.88    0.30
  -5   1   8    4.07    0.28
   5  -1  -7   13.03    0.44
  -5   1   7   13.70    0.99
  -5   1   7   13.14    0.47
  -5   1   6    0.44    0.19
  -5   1   5    1.98    0.37
  -5   1   4   26.29    1.24
  -5   1   3    0.31    0.16
  -5   1   2  105.77    2.30
  -5   1   1    0.28    0.12
  -5   1   1    0.14    0.11
  -5   1   0  352.77    1.96
  -5   1  -1    0.82    0.11
  -5   1  -2   33.23    0.66
  -5   1  -3   13.52    0.45
  -5   1  -4    6.22    0.32
  -5   1  -4    6.69    0.34
  -5   1  -5    8.63    0.38
  -5   1  -5    8.94    0.40
  -5   1  -6   20.17    0.59
  -5   1  -7    2.68    0.21
  -5   1  -8    0.45    0.08
  -5   1  -9    2.39    0.13
   5   0 -12    0.99    0.10
   5   0 -12    0.57    0.07
   5   0 -11    0.27    0.07
   5   0 -11    0.23    0.07
   5   0 -10    0.06    0.06
   5   0 -10    0.05    0.06
   5   0  -9    0.06    0.06
   5   0  -9    0.02    0.04
   5   0  -9    0.08    0.06
   5   0  -8    9.22    0.36
  -5   0   8    9.98    0.42
   5   0  -8    9.16    0.40
   5   0  -7    7.45    0.31
  -5   0   7    8.02    0.78
  -5   0   7    7.78    0.35
  -5   0   6   15.15    1.03
  -5   0   5   40.80    1.61
  -5   0   4   12.29    0.85
  -5   0   3   93.67    2.21
  -5   0   2   58.28    1.66
  -5   0   1   19.30    0.92
  -5   0   0  316.12    1.84
  -5   0  -1    1.08    0.12
  -5   0  -2    0.98    0.12
  -5   0  -3    5.65    0.29
  -5   0  -3    6.27    0.31
  -5   0  -4    3.24    0.24
  -5   0  -4    3.11    0.23
  -5   0  -5   18.40    0.57
  -5   0  -5   16.28    0.53
  -5   0  -6    0.30    0.10
  -5   0  -7   72.58    1.04
  -5   0  -8    1.18    0.13
  -5   0  -9    0.98    0.09
   5   1 -12    3.22    0.15
   5   1 -12    3.49    0.17
   5   1 -11    0.24    0.07
   5   1 -10    2.00    0.17
   5   1 -10    2.05    0.18
   5   1  -9   16.16    0.47
   5   1  -9   15.85    0.51
  -5  -1   9   15.55    0.50
   5   1  -8    0.02    0.05
   5   1  -8    0.10    0.05
  -5  -1   7    1.11    0.31
  -5  -1   7    0.75    0.11
  -5  -1   6   74.19    2.28
  -5  -1   5   15.60    1.00
  -5  -1   4   25.35    1.20
  -5  -1   3   46.23    1.54
  -5  -1   2    6.71    0.55
  -5  -1   1    0.85    0.19
  -5  -1   0   81.66    0.93
  -5  -1  -1    4.99    0.24
  -5  -1  -2    2.22    0.17
  -5  -1  -3   17.61    0.52
  -5  -1  -3   17.27    0.47
  -5  -1  -3   17.87    0.51
  -5  -1  -4   60.64    1.02
  -5  -1  -4   59.59    0.94
  -5  -1  -5   22.76    0.64
  -5  -1  -6    4.39    0.28
  -5  -1  -7    2.17    0.18
  -5  -1  -8    0.02    0.05
   5   2 -12    4.75    0.20
   5   2 -12    4.18    0.15
   5   2 -11    0.08    0.04
   5   2 -11    0.23    0.06
   5   2 -10    0.01    0.05
   5   2 -10    0.02    0.05
   5   2  -9   13.95    0.45
   5   2  -9   14.29    0.46
  -5  -2   9   14.22    0.46
   5   2  -8   11.51    0.40
   5   2  -8   11.21    0.40
  -5  -2   8   11.06    0.41
   5   2  -7    0.06    0.04
  -5  -2   7   -0.03    0.07
  -5  -2   7    0.02    0.04
   5   2  -6   11.91    0.40
  -5  -2   6   12.37    0.42
  -5  -2   5   40.41    1.60
  -5  -2   4    0.24    0.15
  -5  -2   3   13.37    0.81
  -5  -2   2   70.91    1.73
  -5  -2   1    0.71    0.09
  -5  -2   0   28.71    0.54
  -5  -2  -1   57.28    0.79
  -5  -2  -2    3.27    0.22
  -5  -2  -3    0.26    0.08
  -5  -2  -4   10.16    0.42
   5   2   4    9.84    0.37
  -5  -2  -4   10.25    0.37
  -5  -2  -5    9.81    0.40
  -5  -2  -6    2.59    0.20
  -5  -2  -7    0.91    0.11
  -5  -2  -8    3.81    0.16
   5   3 -12    5.02    0.21
   5   3 -11    3.38    0.19
   5   3 -11    3.39    0.19
   5   3 -10   21.09    0.53
   5   3  -9    3.96    0.24
   5   3  -9    4.05    0.25
   5   3  -8   29.81    0.69
   5   3  -8   31.48    0.69
   5   3  -7    3.42    0.23
  -5  -3   7    3.70    0.23
  -5  -3   6  120.56    2.87
   5   3  -6  116.19    1.29
   5   3  -5    0.31    0.08
  -5  -3   5    0.52    0.20
  -5  -3   4    7.64    0.66
   5   3  -4    7.10    0.29
   5   3  -3   20.19    0.52
   5   3  -2   58.25    0.91
   5   3  -1    0.73    0.12
   5   3   0   60.11    0.99
   5   3   1   43.15    0.85
  -5  -3  -2    5.58    0.28
   5   3   2    6.05    0.32
  -5  -3  -3    4.61    0.27
   5   3   3    4.08    0.25
  -5  -3  -4    2.16    0.18
  -5  -3  -4    1.95    0.17
  -5  -3  -5    0.70    0.11
  -5  -3  -6    3.16    0.19
  -5  -3  -7    0.45    0.07
  -5  -3  -7    0.40    0.07
   5   4 -12    2.56    0.13
   5   4 -11   15.28    0.38
   5   4 -11   15.79    0.39
   5   4 -10    0.09    0.05
   5   4 -10    0.10    0.06
   5   4  -9    2.58    0.20
   5   4  -9    2.59    0.20
   5   4  -8    2.01    0.19
   5   4  -8    1.67    0.17
   5   4  -7   24.31    0.66
   5   4  -7   23.16    0.58
   5   4  -6   34.81    0.73
   5   4  -5   36.45    0.75
   5   4  -4    4.02    0.23
   5   4  -4    3.81    0.25
   5   4  -3   11.46    0.41
   5   4  -3   11.35    0.42
   5   4  -2   18.12    0.54
   5   4  -2   17.77    0.49
  -5  -4   1   12.91    0.85
   5   4  -1   12.99    0.42
   5   4   0   10.56    0.38
   5   4   1   14.84    0.46
   5   4   1   14.69    0.51
   5   4   2    1.29    0.14
   5   4   2    1.05    0.13
  -5  -4  -3    1.57    0.14
   5   4   3    1.78    0.16
   5   4   3    1.56    0.15
  -5  -4  -4    0.03    0.04
  -5  -4  -4    0.03    0.05
  -5  -4  -5    3.35    0.18
  -5  -4  -6    3.18    0.13
   5   5 -11    3.62    0.17
   5   5 -11    3.16    0.16
   5   5 -11    3.39    0.17
   5   5 -10    1.54    0.14
   5   5 -10    1.43    0.15
   5   5  -9   28.89    0.63
   5   5  -9   29.30    0.63
   5   5  -8   24.31    0.64
   5   5  -8   23.01    0.59
   5   5  -8   23.53    0.52
   5   5  -7   16.06    0.54
   5   5  -7   16.12    0.48
   5   5  -6   25.46    0.70
   5   5  -6   25.76    0.63
   5   5  -5    3.63    0.27
   5   5  -5    3.78    0.25
   5   5  -4    7.98    0.37
   5   5  -4    7.17    0.33
   5   5  -4    7.45    0.36
   5   5  -3   14.45    0.48
   5   5  -3   14.08    0.49
   5   5  -3   13.72    0.47
   5   5  -2   29.09    0.67
   5   5  -2   28.69    0.70
   5   5  -1    6.87    0.33
   5   5  -1    6.99    0.35
   5   5   0   19.96    0.55
   5   5   0   19.11    0.57
   5   5   1    2.13    0.18
   5   5   1    2.13    0.19
   5   5   2   -0.02    0.04
   5   5   3    0.38    0.07
   5   5   4    4.49    0.18
  -5  -5  -4    4.53    0.20
   5   6 -11    0.27    0.05
   5   6 -11    0.20    0.05
   5   6 -10    0.94    0.10
   5   6 -10    1.08    0.11
   5   6  -9    0.01    0.05
   5   6  -9    0.05    0.05
   5   6  -9    0.08    0.07
   5   6  -8    0.26    0.09
   5   6  -8    0.40    0.09
   5   6  -8    0.27    0.06
   5   6  -8    0.27    0.08
   5   6  -7   30.55    0.72
   5   6  -7   30.01    0.60
   5   6  -7   29.78    0.68
   5   6  -6    8.32    0.39
   5   6  -6    8.52    0.35
   5   6  -5   36.19    0.78
   5   6  -5   36.98    0.75
   5   6  -4   -0.01    0.06
   5   6  -4    0.10    0.08
   5   6  -3    1.23    0.14
   5   6  -3    1.29    0.16
   5   6  -2   30.18    0.70
   5   6  -1    0.17    0.07
   5   6   0   12.35    0.41
   5   6   1    0.03    0.05
   5   6   1    0.02    0.04
   5   6   2    0.84    0.10
   5   6   3    0.04    0.04
  -5  -6  -3    0.07    0.05
  -5  -6  -4    2.48    0.11
   5   7 -10    2.75    0.11
   5   7 -10    2.17    0.11
   5   7  -9   10.35    0.28
   5   7  -9   10.24    0.28
   5   7  -8   16.52    0.40
   5   7  -8   17.29    0.40
   5   7  -7    2.26    0.18
   5   7  -7    2.26    0.14
   5   7  -7    2.37    0.16
   5   7  -6    0.63    0.11
   5   7  -6    0.57    0.08
   5   7  -6    0.56    0.09
   5   7  -6    0.60    0.08
   5   7  -5   76.61    1.00
   5   7  -5   75.71    0.89
   5   7  -5   77.79    0.98
   5   7  -4   14.55    0.44
   5   7  -4   14.17    0.41
   5   7  -3    1.13    0.14
  -5  -7   3    1.17    0.12
   5   7  -2    1.27    0.14
   5   7  -1    0.51    0.09
   5   7   0    4.36    0.20
   5   7   1    1.07    0.09
  -5  -7  -2    6.04    0.20
   5   8  -8    8.87    0.21
   5   8  -7    1.26    0.10
   5   8  -6    3.48    0.13
   5   8  -6    3.96    0.16
   5   8  -5    0.27    0.05
   5   8  -5    0.26    0.06
   5   8  -4    0.13    0.04
   5   8  -4    0.26    0.07
   5   8  -3    0.03    0.05
  -5  -8   2    0.56    0.06
   5   8  -2    0.63    0.08
   5   8  -1   12.25    0.27
  -5  -8   1   11.99    0.26
  -5  -8   0    4.04    0.14
  -6   9   3    5.91    0.16
  -6   9   2    1.10    0.09
  -6   9   1    0.04    0.04
  -6   9   1    0.02    0.05
  -6   9   0    2.26    0.14
  -6   9   0    2.07    0.12
  -6   9   0    2.33    0.15
  -6   9  -1   15.29    0.37
  -6   9  -1   14.44    0.35
  -6   9  -2    1.61    0.12
  -6   9  -2    1.42    0.11
  -6   9  -3    3.60    0.17
  -6   9  -4   -0.02    0.05
  -6   8   5    0.86    0.09
   6  -8  -4    2.95    0.14
  -6   8   4    3.05    0.16
  -6   8   4    2.79    0.14
  -6   8   3    5.01    0.21
  -6   8   3    5.08    0.24
  -6   8   3    5.02    0.23
  -6   8   2   23.52    0.48
  -6   8   2   23.11    0.43
  -6   8   2   23.74    0.53
  -6   8   2   23.96    0.54
  -6   8   1    5.32    0.25
  -6   8   1    5.35    0.26
  -6   8   1    5.17    0.27
  -6   8   0    0.78    0.11
  -6   8   0    0.66    0.11
  -6   8   0    0.71    0.12
  -6   8  -1    4.66    0.25
  -6   8  -1    4.28    0.23
  -6   8  -1    4.59    0.25
  -6   8  -2   15.08    0.45
  -6   8  -2   14.20    0.39
  -6   8  -2   14.59    0.41
  -6   8  -3    0.09    0.07
  -6   8  -3    0.13    0.05
  -6   8  -3    0.09    0.05
  -6   8  -3    0.09    0.05
  -6   8  -4    0.09    0.06
  -6   8  -4    0.04    0.05
  -6   8  -5    3.63    0.17
  -6   8  -5    3.43    0.16
  -6   8  -6    7.31    0.20
   6  -7  -7    1.29    0.08
  -6   7   7    1.43    0.10
   6  -7  -6    1.55    0.12
  -6   7   6    1.53    0.13
   6  -7  -5   15.97    0.42
  -6   7   5   15.90    0.43
  -6   7   4    0.10    0.06
  -6   7   4    0.19    0.08
  -6   7   4    0.14    0.06
  -6   7   3    0.70    0.09
  -6   7   3    0.66    0.11
  -6   7   3    0.73    0.12
  -6   7   3    0.75    0.11
  -6   7   2   26.76    0.59
  -6   7   2   27.04    0.57
  -6   7   2   27.19    0.65
  -6   7   2   27.59    0.66
  -6   7   1    0.28    0.09
  -6   7   1    0.24    0.09
  -6   7   1    0.17    0.09
  -6   7   1    0.19    0.09
  -6   7   0   -0.03    0.06
  -6   7   0    0.00    0.07
  -6   7   0    0.02    0.07
  -6   7   0   -0.06    0.08
  -6   7  -1    2.45    0.21
  -6   7  -1    2.77    0.21
  -6   7  -1    2.51    0.22
  -6   7  -1    2.54    0.19
  -6   7  -1    2.68    0.21
  -6   7  -2    4.74    0.28
  -6   7  -2    4.58    0.26
  -6   7  -2    4.80    0.26
  -6   7  -2    4.85    0.27
  -6   7  -3    0.73    0.13
  -6   7  -3    0.52    0.09
  -6   7  -3    0.72    0.11
  -6   7  -3    0.59    0.09
  -6   7  -4    1.33    0.15
  -6   7  -4    1.25    0.13
  -6   7  -4    1.32    0.14
  -6   7  -5    9.65    0.33
  -6   7  -5    9.70    0.34
  -6   7  -6    6.02    0.22
  -6   7  -6    6.33    0.25
  -6   7  -7    7.97    0.24
   6  -6  -8    6.25    0.21
  -6   6   8    6.01    0.21
   6  -6  -7    2.95    0.18
  -6   6   7    2.83    0.18
   6  -6  -6    0.06    0.07
  -6   6   5   13.97    0.45
  -6   6   5   12.94    0.37
  -6   6   4    2.20    0.19
  -6   6   4    2.31    0.22
  -6   6   4    2.43    0.19
  -6   6   3    3.26    0.20
  -6   6   3    3.06    0.23
  -6   6   3    3.69    0.28
  -6   6   3    3.39    0.24
  -6   6   2    8.78    0.35
  -6   6   2    9.20    0.40
  -6   6   2    9.67    0.44
  -6   6   2    8.48    0.39
  -6   6   1    7.42    0.34
  -6   6   1    7.34    0.36
  -6   6   1    7.67    0.39
  -6   6   1    7.41    0.36
  -6   6   0    9.18    0.39
  -6   6   0    9.10    0.40
  -6   6   0    9.06    0.41
  -6   6   0    9.24    0.37
  -6   6   0    8.83    0.40
  -6   6  -1    0.38    0.10
  -6   6  -1    0.30    0.09
  -6   6  -1    0.33    0.10
  -6   6  -1    0.34    0.09
  -6   6  -1    0.38    0.10
  -6   6  -2   44.60    0.89
  -6   6  -2   43.75    0.84
  -6   6  -2   42.56    0.81
  -6   6  -3    0.35    0.10
  -6   6  -3    0.44    0.09
  -6   6  -4    0.93    0.14
  -6   6  -4    1.06    0.14
  -6   6  -5   19.93    0.53
  -6   6  -5   20.49    0.55
  -6   6  -6    2.62    0.17
  -6   6  -6    2.79    0.20
  -6   6  -7    3.95    0.16
  -6   6  -7    4.62    0.21
  -6   6  -8    0.83    0.08
   6  -5  -9    0.04    0.04
  -6   5   9   -0.01    0.04
   6  -5  -8    2.61    0.18
   6  -5  -7   13.68    0.45
  -6   5   6    0.99    0.13
  -6   5   5    9.90    0.39
  -6   5   5    9.19    0.41
  -6   5   4   47.03    0.87
  -6   5   4   46.39    0.82
  -6   5   3    5.10    0.29
  -6   5   3    4.95    0.31
  -6   5   3    4.80    0.28
  -6   5   2    0.59    0.10
  -6   5   2    0.57    0.11
  -6   5   2    0.82    0.14
  -6   5   1   31.31    0.68
  -6   5   1   29.32    0.70
  -6   5   1   30.57    1.33
  -6   5   1   31.15    0.76
  -6   5   1   31.59    0.69
  -6   5   0    0.30    0.08
  -6   5   0    0.30    0.09
  -6   5   0    0.35    0.09
  -6   5  -1    8.54    0.38
  -6   5  -1    9.65    0.40
  -6   5  -1    8.79    0.38
  -6   5  -1    8.78    0.34
  -6   5  -2    4.60    0.29
  -6   5  -2    4.79    0.27
  -6   5  -2    4.71    0.29
  -6   5  -2    5.08    0.27
  -6   5  -3    0.21    0.09
  -6   5  -3    0.32    0.10
  -6   5  -3    0.29    0.08
  -6   5  -4    0.18    0.08
  -6   5  -4    0.17    0.08
  -6   5  -4    0.06    0.06
  -6   5  -5    1.63    0.17
  -6   5  -5    1.76    0.18
  -6   5  -6   25.42    0.57
  -6   5  -6   25.13    0.60
  -6   5  -7    7.90    0.26
  -6   5  -7    7.86    0.29
  -6   5  -8    3.37    0.15
   6  -4 -10    8.40    0.24
   6  -4 -10    8.06    0.23
   6  -4  -9   10.66    0.35
   6  -4  -9    9.68    0.29
   6  -4  -8   25.26    0.61
   6  -4  -8   24.68    0.54
   6  -4  -7   38.69    0.80
   6  -4  -7   37.99    0.73
   6  -4  -6    1.87    0.17
  -6   4   6    2.24    0.18
  -6   4   6    2.15    0.19
  -6   4   5   11.73    0.42
  -6   4   5   11.72    0.45
  -6   4   4   17.49    1.08
  -6   4   4   16.63    0.50
  -6   4   4   16.67    0.55
  -6   4   3    4.10    0.52
  -6   4   3    4.33    0.26
  -6   4   3    4.57    0.29
  -6   4   2    0.48    0.10
   6  -4  -2    0.34    0.07
  -6   4   2    0.49    0.09
  -6   4   2    0.35    0.09
  -6   4   2    0.53    0.18
  -6   4   1    1.00    0.23
  -6   4   1    0.58    0.09
  -6   4   1    0.89    0.12
  -6   4   1    0.86    0.12
  -6   4   1    0.83    0.12
  -6   4   0   20.87    0.55
  -6   4   0   20.97    0.54
  -6   4   0   21.05    0.59
  -6   4   0   19.92    0.55
  -6   4  -1   10.65    0.41
  -6   4  -1   10.23    0.40
  -6   4  -1   10.73    0.41
  -6   4  -1   11.04    0.40
  -6   4  -2   12.53    0.44
  -6   4  -2   12.68    0.43
  -6   4  -2   12.30    0.46
  -6   4  -2   13.04    0.45
  -6   4  -3   10.75    0.41
  -6   4  -3   11.30    0.44
  -6   4  -3   10.70    0.42
  -6   4  -4   18.60    0.52
  -6   4  -4   18.90    0.57
  -6   4  -4   18.20    0.55
  -6   4  -5    1.23    0.16
  -6   4  -5    0.81    0.12
  -6   4  -5    0.99    0.14
  -6   4  -5    0.85    0.13
  -6   4  -6   13.36    0.44
  -6   4  -6   13.22    0.43
  -6   4  -7    3.19    0.18
  -6   4  -7    3.09    0.19
  -6   4  -8   29.99    0.42
   6  -3 -11    9.07    0.22
   6  -3 -10    1.05    0.11
   6  -3 -10    1.22    0.11
   6  -3  -9   11.21    0.39
   6  -3  -9   11.31    0.38
   6  -3  -8   44.22    0.84
   6  -3  -8   43.95    0.83
   6  -3  -7    6.05    0.32
   6  -3  -7    5.76    0.31
  -6   3   6    0.03    0.06
  -6   3   6    0.03    0.06
  -6   3   5    1.83    0.16
  -6   3   5    1.73    0.36
  -6   3   5    1.88    0.18
  -6   3   5    1.84    0.17
  -6   3   4    9.44    0.76
  -6   3   4    9.75    0.36
  -6   3   4    9.67    0.40
  -6   3   4    9.55    0.36
  -6   3   3    6.32    0.60
   6  -3  -3    5.67    0.28
  -6   3   3    5.55    0.27
  -6   3   3    5.68    0.30
  -6   3   2   -0.11    0.08
  -6   3   1   30.19    0.65
  -6   3   0   18.50    0.52
  -6   3   0   17.32    0.50
  -6   3  -1   11.21    0.41
  -6   3  -1   10.33    0.39
  -6   3  -1   11.74    0.42
  -6   3  -1   11.18    0.41
  -6   3  -2    3.61    0.24
  -6   3  -2    3.40    0.22
  -6   3  -2    3.39    0.23
  -6   3  -2    3.59    0.25
  -6   3  -3   12.29    0.45
  -6   3  -3   13.34    0.46
  -6   3  -3   12.99    0.47
  -6   3  -4    0.11    0.07
  -6   3  -4    0.03    0.06
  -6   3  -4   -0.01    0.07
  -6   3  -5    3.24    0.23
  -6   3  -5    3.38    0.23
  -6   3  -5    3.25    0.24
  -6   3  -6    1.66    0.16
  -6   3  -6    1.87    0.16
  -6   3  -7    3.07    0.19
  -6   3  -7    2.66    0.17
  -6   3  -7    2.69    0.16
  -6   3  -8    0.12    0.05
   6  -2 -11    7.37    0.23
   6  -2 -11    7.25    0.24
   6  -2 -10    8.61    0.31
   6  -2 -10    7.83    0.31
   6  -2  -9    6.54    0.31
   6  -2  -9    7.09    0.33
   6  -2  -8    9.30    0.39
   6  -2  -8    9.52    0.41
   6  -2  -7   22.29    0.60
  -6   2   7   22.48    0.64
  -6   2   6    0.05    0.07
  -6   2   5    6.95    0.72
  -6   2   5    6.37    0.30
  -6   2   5    6.84    0.33
  -6   2   4   18.42    1.14
  -6   2   4   16.49    0.49
  -6   2   3   11.63    0.75
  -6   2   3    9.67    0.81
  -6   2   2   29.21    1.11
  -6   2   1   25.33    0.59
  -6   2   0    3.59    0.23
  -6   2  -1    3.52    0.23
  -6   2  -1    3.59    0.24
  -6   2  -2   11.93    0.44
  -6   2  -2   11.89    0.41
  -6   2  -2   11.90    0.41
  -6   2  -2   12.11    0.41
  -6   2  -3    0.03    0.06
  -6   2  -3   -0.05    0.06
  -6   2  -3    0.08    0.06
  -6   2  -4    2.64    0.22
  -6   2  -4    2.70    0.19
  -6   2  -4    2.74    0.20
  -6   2  -4    2.63    0.23
  -6   2  -5   10.58    0.42
  -6   2  -5   10.53    0.37
  -6   2  -5   10.57    0.43
  -6   2  -6   12.42    0.43
  -6   2  -7   19.70    0.47
  -6   2  -8   20.78    0.34
  -6   2  -8   23.73    0.39
   6  -1 -12    0.01    0.04
   6  -1 -11    3.19    0.18
   6  -1 -11    3.13    0.16
   6  -1 -10    5.25    0.24
   6  -1 -10    5.07    0.27
   6  -1  -9    0.42    0.09
   6  -1  -9    0.45    0.11
   6  -1  -8    0.03    0.06
   6  -1  -8    0.09    0.07
  -6   1   8    0.05    0.07
   6  -1  -7   31.89    0.67
  -6   1   7   30.75    0.74
  -6   1   6    9.52    0.85
  -6   1   6    9.76    0.41
  -6   1   5   29.02    1.44
  -6   1   5   28.26    0.66
  -6   1   4   15.06    1.01
  -6   1   3    0.02    0.11
  -6   1   2    1.98    0.35
  -6   1   1    0.46    0.09
  -6   1   0   23.17    0.58
  -6   1  -1   18.00    0.52
  -6   1  -1   19.09    0.54
  -6   1  -2   19.54    0.56
  -6   1  -2   19.49    0.53
  -6   1  -2   18.86    0.51
  -6   1  -2   19.60    0.56
  -6   1  -3    0.61    0.11
  -6   1  -3    0.84    0.12
  -6   1  -3    0.82    0.11
  -6   1  -3    0.81    0.13
  -6   1  -4    0.16    0.08
  -6   1  -4    0.12    0.06
  -6   1  -4    0.08    0.07
  -6   1  -5    9.97    0.42
  -6   1  -5    9.87    0.36
  -6   1  -6    0.16    0.08
  -6   1  -7    5.00    0.25
  -6   1  -8    0.90    0.09
   6   0 -12    1.72    0.10
   6   0 -11    0.44    0.08
   6   0 -10   26.49    0.51
   6   0 -10   25.86    0.60
   6   0  -9    3.61    0.21
   6   0  -9    3.65    0.25
  -6   0   9    3.95    0.27
   6   0  -8   12.54    0.47
  -6   0   8   12.56    0.48
  -6   0   7   90.27    1.26
  -6   0   6    4.82    0.60
  -6   0   6    5.12    0.30
  -6   0   5   -0.23    0.14
  -6   0   5    0.04    0.05
  -6   0   4   44.89    1.73
  -6   0   3    9.26    0.76
  -6   0   2    5.66    0.57
  -6   0   1    5.60    0.28
  -6   0   0   58.09    0.90
  -6   0  -1    0.52    0.10
  -6   0  -1    0.49    0.09
  -6   0  -1    0.40    0.09
  -6   0  -1    0.48    0.10
  -6   0  -2   40.64    0.81
  -6   0  -2   40.42    0.78
  -6   0  -2   40.32    0.76
  -6   0  -2   42.04    0.81
  -6   0  -3    0.05    0.07
  -6   0  -3    0.00    0.06
  -6   0  -3    0.08    0.06
  -6   0  -3    0.02    0.06
  -6   0  -4    4.40    0.29
  -6   0  -4    4.28    0.26
  -6   0  -4    4.29    0.27
  -6   0  -5   12.27    0.46
  -6   0  -5   13.34    0.43
  -6   0  -6   10.04    0.39
  -6   0  -6    9.73    0.32
  -6   0  -7   11.99    0.36
  -6   0  -8    2.57    0.13
   6   1 -12    1.90    0.10
   6   1 -12    1.89    0.10
   6   1 -11    3.01    0.18
   6   1 -10    3.32    0.21
   6   1  -9    4.35    0.26
  -6  -1   9    4.11    0.26
   6   1  -8    0.04    0.06
  -6  -1   8    0.15    0.07
  -6  -1   7   50.94    0.94
  -6  -1   6    0.64    0.23
  -6  -1   6    0.07    0.06
   6   1  -5    1.35    0.15
  -6  -1   5    1.81    0.37
  -6  -1   4   41.51    1.64
   6   1  -4   40.27    0.76
   6   1  -4   40.80    0.75
  -6  -1   3   66.97    1.98
  -6  -1   2    0.27    0.12
  -6  -1   1    0.23    0.07
  -6  -1   0   10.62    0.39
  -6  -1   0   10.71    0.39
  -6  -1   0   10.98    0.38
  -6  -1   0   10.86    0.40
  -6  -1  -1   15.23    0.49
  -6  -1  -1   15.33    0.48
  -6  -1  -1   15.72    0.47
  -6  -1  -2    6.75    0.33
  -6  -1  -2    6.41    0.31
  -6  -1  -2    6.73    0.32
  -6  -1  -3    2.61    0.22
  -6  -1  -3    2.57    0.20
  -6  -1  -3    2.47    0.20
  -6  -1  -4    0.14    0.08
   6   1   4    0.25    0.07
  -6  -1  -5    2.58    0.21
  -6  -1  -5    2.64    0.20
  -6  -1  -6    1.28    0.14
  -6  -1  -6    1.35    0.12
  -6  -1  -7    0.56    0.08
  -6  -1  -7    0.31    0.05
   6   2 -12    5.20    0.18
   6   2 -11    3.33    0.16
   6   2 -10   15.60    0.38
   6   2 -10   15.72    0.41
   6   2  -9   37.52    0.69
   6   2  -9   38.03    0.70
  -6  -2   9   38.07    0.74
   6   2  -8    8.87    0.35
  -6  -2   8    9.01    0.38
  -6  -2   7    5.98    0.32
  -6  -2   6   69.50    2.25
   6   2  -6   68.60    1.04
  -6  -2   6   72.17    1.10
  -6  -2   5    7.02    0.70
   6   2  -5    6.98    0.33
  -6  -2   4   32.33    1.40
   6   2  -4   33.79    0.63
   6   2  -4   31.39    0.62
   6   2  -4   32.71    0.69
  -6  -2   4   32.27    0.64
   6   2  -3    5.55    0.28
   6   2  -3    5.59    0.26
   6   2  -3    5.42    0.28
  -6  -2   3    5.17    0.27
   6   2  -2    4.70    0.25
   6   2  -2    4.08    0.23
  -6  -2   2    4.62    0.25
  -6  -2   2    4.58    0.24
   6   2  -2    4.75    0.25
  -6  -2   2    4.61    0.26
   6   2  -1   10.97    0.38
  -6  -2   1   11.19    0.40
   6   2  -1   10.47    0.36
  -6  -2   1   11.51    0.37
  -6  -2   1   11.16    0.41
  -6  -2   0    4.82    0.26
   6   2   0    5.21    0.26
  -6  -2   0    5.51    0.30
  -6  -2  -1    0.67    0.11
  -6  -2  -1    0.36    0.09
  -6  -2  -2   15.05    0.49
  -6  -2  -2   15.71    0.49
  -6  -2  -3    0.72    0.12
   6   2   3    0.93    0.13
  -6  -2  -3    0.90    0.12
  -6  -2  -4    1.14    0.15
  -6  -2  -4    0.91    0.11
  -6  -2  -5    5.97    0.28
  -6  -2  -6   10.97    0.33
  -6  -2  -6   10.98    0.30
  -6  -2  -7    4.59    0.16
   6   3 -12    3.42    0.14
   6   3 -11    1.17    0.10
   6   3 -10    8.43    0.28
   6   3  -9   18.57    0.50
   6   3  -9   18.80    0.46
  -6  -3   9   18.47    0.46
   6   3  -8   21.99    0.52
  -6  -3   8   21.92    0.56
   6   3  -7    0.00    0.06
  -6  -3   7   -0.01    0.05
   6   3  -6   17.77    0.54
   6   3  -5   17.13    0.53
   6   3  -4    1.20    0.13
   6   3  -4    1.32    0.15
  -6  -3   4    1.24    0.14
   6   3  -3    0.03    0.06
   6   3  -3    0.01    0.05
  -6  -3   3    0.10    0.06
   6   3  -2    1.33    0.16
  -6  -3   2    1.22    0.13
   6   3  -2    1.19    0.14
  -6  -3   2    1.34    0.15
   6   3  -1    3.63    0.25
  -6  -3   1    3.59    0.23
   6   3  -1    3.38    0.22
  -6  -3   1    3.45    0.24
   6   3   0    1.73    0.15
  -6  -3   0    1.61    0.17
   6   3   1    3.88    0.26
  -6  -3  -1    3.87    0.26
  -6  -3  -2   14.98    0.45
   6   3   2   14.86    0.48
  -6  -3  -2   15.36    0.49
  -6  -3  -3    3.97    0.23
  -6  -3  -3    4.06    0.24
  -6  -3  -4    8.91    0.33
  -6  -3  -4    9.10    0.30
  -6  -3  -5    2.85    0.16
  -6  -3  -5    2.73    0.17
  -6  -3  -6    4.15    0.14
  -6  -3  -6    4.37    0.16
   6   4 -11    0.60    0.06
   6   4 -11    0.81    0.08
   6   4 -10    0.63    0.08
   6   4 -10    0.78    0.09
   6   4  -9    5.93    0.28
   6   4  -9    6.33    0.27
   6   4  -8    6.16    0.32
   6   4  -8    6.19    0.28
   6   4  -7    6.13    0.33
   6   4  -7    6.72    0.32
  -6  -4   7    6.38    0.29
   6   4  -6   26.97    0.66
   6   4  -5    0.62    0.12
   6   4  -4    6.98    0.31
   6   4  -4    7.38    0.35
  -6  -4   4    7.03    0.31
   6   4  -3    5.81    0.30
   6   4  -3    5.83    0.31
  -6  -4   3    5.79    0.30
   6   4  -2    5.25    0.30
   6   4  -2    5.26    0.29
  -6  -4   2    4.96    0.29
   6   4  -1   19.63    0.58
  -6  -4   1   19.97    0.52
   6   4  -1   20.71    0.55
   6   4   0    1.18    0.15
   6   4   0    1.24    0.13
   6   4   1   -0.09    0.06
  -6  -4  -1    0.05    0.06
  -6  -4  -2    8.28    0.34
  -6  -4  -3    0.50    0.09
  -6  -4  -4    9.53    0.31
  -6  -4  -4    8.26    0.24
  -6  -4  -5    0.05    0.05
   6   5 -11    0.01    0.03
   6   5 -10    0.66    0.07
   6   5 -10    0.61    0.09
   6   5  -9    3.94    0.22
   6   5  -9    3.89    0.19
   6   5  -8    0.40    0.10
   6   5  -8    0.37    0.08
   6   5  -7    6.55    0.33
   6   5  -7    6.35    0.29
   6   5  -6    1.37    0.17
   6   5  -6    1.26    0.15
   6   5  -5    0.51    0.11
   6   5  -5    0.68    0.12
   6   5  -4    6.38    0.32
   6   5  -4    6.39    0.33
  -6  -5   4    6.15    0.28
   6   5  -3    1.89    0.17
   6   5  -3    1.85    0.17
   6   5  -3    1.94    0.18
  -6  -5   3    1.70    0.16
   6   5  -2    0.17    0.07
   6   5  -2    0.22    0.08
  -6  -5   2    0.07    0.06
   6   5  -1    6.08    0.29
  -6  -5   1    6.35    0.32
  -6  -5   0   10.61    0.35
   6   5   0   10.68    0.35
  -6  -5   0   11.09    0.41
  -6  -5  -1    0.63    0.09
  -6  -5  -1    0.62    0.11
  -6  -5  -2    4.32    0.21
  -6  -5  -2    4.21    0.22
  -6  -5  -3    7.43    0.25
  -6  -5  -3    6.95    0.23
  -6  -5  -4    0.91    0.08
   6   6 -10    1.71    0.11
   6   6  -9    9.46    0.25
   6   6  -9   10.31    0.30
   6   6  -8    0.20    0.07
   6   6  -8    0.29    0.06
   6   6  -8    0.14    0.06
   6   6  -7    8.44    0.34
   6   6  -7    8.71    0.30
   6   6  -7    8.16    0.30
   6   6  -6    0.04    0.07
   6   6  -6    0.01    0.07
   6   6  -6   -0.01    0.04
   6   6  -5    0.76    0.11
   6   6  -5    0.68    0.11
   6   6  -4    5.45    0.26
   6   6  -4    5.42    0.28
   6   6  -3   12.37    0.41
  -6  -6   3   12.50    0.38
   6   6  -2    0.11    0.06
  -6  -6   2    0.01    0.05
   6   6  -1    0.02    0.05
  -6  -6   1    0.10    0.06
   6   6   0   24.19    0.45
  -6  -6   0   25.74    0.53
  -6  -6  -1    4.69    0.16
  -6  -6  -1    5.09    0.22
  -6  -6  -2   27.98    0.42
   6   7  -8    0.06    0.03
   6   7  -7    1.31    0.10
   6   7  -6    0.85    0.09
   6   7  -5    4.47    0.21
   6   7  -4    2.70    0.17
   6   7  -3    1.31    0.12
  -6  -7   3    1.16    0.09
   6   7  -2    0.94    0.10
  -6  -7   2    0.91    0.09
   6   7  -1    1.42    0.10
  -6  -7   1    1.48    0.11
  -6  -7   0    1.74    0.11
  -7   9   1    0.69    0.07
  -7   9   0    0.99    0.08
  -7   9   0    1.09    0.08
  -7   9  -1    0.20    0.05
  -7   9  -1    0.16    0.05
  -7   9  -2    0.50    0.06
   7  -8  -4    0.03    0.03
  -7   8   3    0.05    0.05
  -7   8   3    0.02    0.04
  -7   8   2    3.76    0.15
  -7   8   2    4.28    0.20
  -7   8   2    4.28    0.20
  -7   8   1    2.66    0.15
  -7   8   1    2.80    0.17
  -7   8   1    2.91    0.18
  -7   8   0   12.01    0.33
  -7   8   0   12.70    0.35
  -7   8   0   12.39    0.36
  -7   8  -1    2.92    0.17
  -7   8  -1    2.96    0.17
  -7   8  -1    3.09    0.18
  -7   8  -2    0.24    0.06
  -7   8  -2    0.27    0.07
  -7   8  -2    0.14    0.05
  -7   8  -3    7.41    0.21
  -7   8  -3    7.27    0.18
  -7   8  -4    0.38    0.07
   7  -7  -6    2.08    0.12
  -7   7   6    1.86    0.11
   7  -7  -5    4.90    0.21
  -7   7   5    5.03    0.21
  -7   7   4    0.02    0.05
  -7   7   4   -0.01    0.05
  -7   7   4   -0.08    0.05
  -7   7   3    0.05    0.05
  -7   7   3    0.08    0.07
  -7   7   3    0.04    0.05
  -7   7   2   10.26    0.32
  -7   7   2   10.65    0.38
  -7   7   2   10.77    0.38
  -7   7   1    2.28    0.17
  -7   7   1    2.55    0.20
  -7   7   1    2.43    0.21
  -7   7   1    2.31    0.19
  -7   7   0   20.95    0.52
  -7   7   0   20.80    0.54
  -7   7   0   19.16    0.55
  -7   7   0   20.53    0.54
  -7   7  -1    0.03    0.06
  -7   7  -1    0.13    0.07
  -7   7  -1    0.11    0.07
  -7   7  -1    0.13    0.07
  -7   7  -2    1.29    0.14
  -7   7  -2    1.32    0.14
  -7   7  -2    1.30    0.13
  -7   7  -3    0.34    0.08
  -7   7  -3    0.42    0.08
  -7   7  -3    0.26    0.07
  -7   7  -3    0.37    0.07
  -7   7  -4    1.12    0.12
  -7   7  -4    1.03    0.10
  -7   7  -4    1.19    0.12
  -7   7  -5    1.42    0.11
  -7   7  -5    1.46    0.11
  -7   7  -6    0.09    0.04
  -7   6   8    2.87    0.12
   7  -6  -7    0.32    0.07
  -7   6   7    0.28    0.06
   7  -6  -6    1.70    0.15
  -7   6   6    1.61    0.14
  -7   6   5    9.71    0.34
  -7   6   5    8.93    0.28
  -7   6   4    0.53    0.10
  -7   6   4    0.47    0.11
  -7   6   4    0.50    0.09
  -7   6   3    2.10    0.19
  -7   6   3    2.43    0.22
  -7   6   3    2.01    0.18
  -7   6   2   19.14    0.48
  -7   6   2   20.39    0.57
  -7   6   2   20.49    0.62
  -7   6   2   19.67    0.56
  -7   6   1    1.47    0.15
  -7   6   1    1.45    0.16
  -7   6   1    1.54    0.18
  -7   6   1    1.45    0.17
  -7   6   0    4.19    0.26
  -7   6   0    4.27    0.27
  -7   6   0    4.09    0.27
  -7   6   0    3.89    0.26
  -7   6  -1    0.09    0.08
  -7   6  -1    0.04    0.07
  -7   6  -1    0.06    0.06
  -7   6  -1    0.09    0.08
  -7   6  -1    0.08    0.07
  -7   6  -2    0.38    0.10
  -7   6  -2    0.29    0.09
  -7   6  -2    0.29    0.09
  -7   6  -3    1.23    0.15
  -7   6  -3    1.39    0.15
  -7   6  -3    1.41    0.13
  -7   6  -4    0.06    0.07
  -7   6  -4    0.05    0.07
  -7   6  -5    0.18    0.07
  -7   6  -5    0.13    0.07
  -7   6  -6    0.70    0.08
  -7   6  -6    0.50    0.06
   7  -5  -9    2.03    0.11
   7  -5  -8   10.41    0.31
  -7   5   8   10.72    0.31
   7  -5  -7    1.59    0.15
  -7   5   6    1.78    0.15
  -7   5   5    9.28    0.35
  -7   5   5    8.66    0.31
  -7   5   4    6.70    0.32
  -7   5   4    6.73    0.36
  -7   5   4    6.19    0.30
  -7   5   3    2.21    0.19
  -7   5   3    2.18    0.21
  -7   5   2    5.39    0.26
  -7   5   2    5.55    0.31
  -7   5   2    5.51    0.33
  -7   5   1    1.09    0.13
  -7   5   1    1.18    0.15
  -7   5   1    1.13    0.16
  -7   5   0    9.58    0.39
  -7   5   0    9.96    0.43
  -7   5   0    9.62    0.41
  -7   5  -1    0.21    0.08
  -7   5  -1    0.09    0.07
  -7   5  -1    0.20    0.08
  -7   5  -2    0.15    0.08
  -7   5  -2    0.18    0.07
  -7   5  -2    0.27    0.09
  -7   5  -3   12.28    0.45
  -7   5  -3   11.75    0.44
  -7   5  -4    4.20    0.26
  -7   5  -4    3.87    0.24
  -7   5  -5    0.09    0.06
  -7   5  -5    0.15    0.06
  -7   5  -6    7.11    0.25
  -7   5  -6    7.40    0.26
  -7   5  -7    0.37    0.05
   7  -4  -9    0.16    0.06
   7  -4  -9    0.21    0.04
   7  -4  -8    1.71    0.15
   7  -4  -8    1.38    0.12
   7  -4  -7   26.08    0.61
   7  -4  -7   25.90    0.57
   7  -4  -6   15.35    0.46
  -7   4   6   15.62    0.42
  -7   4   6   15.03    0.48
  -7   4   5    2.59    0.19
  -7   4   5    2.95    0.23
  -7   4   5    2.48    0.18
  -7   4   4   27.90    0.64
  -7   4   4   27.66    0.72
  -7   4   3    1.36    0.15
  -7   4   3    1.46    0.15
  -7   4   3    1.37    0.17
   7  -4  -2    6.92    0.31
  -7   4   2    6.79    0.33
  -7   4   2    6.54    0.31
  -7   4   2    6.92    0.37
  -7   4   1    7.15    0.32
   7  -4  -1    7.08    0.31
   7  -4  -1    7.18    0.32
  -7   4   1    6.90    0.33
  -7   4   1    6.92    0.37
  -7   4   0    1.28    0.15
   7  -4   0    1.44    0.14
  -7   4   0    1.37    0.17
  -7   4   0    1.40    0.16
  -7   4   0    1.55    0.16
  -7   4  -1    0.91    0.14
   7  -4   1    0.73    0.11
  -7   4  -1    0.77    0.12
  -7   4  -1    0.74    0.13
  -7   4  -1    0.53    0.11
  -7   4  -2    5.32    0.31
  -7   4  -2    5.44    0.29
  -7   4  -2    5.36    0.31
  -7   4  -2    5.63    0.30
  -7   4  -3    0.43    0.11
  -7   4  -3    0.66    0.12
  -7   4  -3    0.37    0.09
  -7   4  -4    2.80    0.22
  -7   4  -4    2.52    0.20
  -7   4  -4    3.12    0.22
  -7   4  -5    0.13    0.07
  -7   4  -5    0.02    0.05
  -7   4  -6    1.83    0.15
  -7   4  -6    1.83    0.13
  -7   4  -7    0.46    0.07
  -7   4  -7    0.28    0.04
   7  -3 -10    1.65    0.11
   7  -3 -10    1.57    0.11
   7  -3  -9    5.23    0.24
   7  -3  -9    5.42    0.24
   7  -3  -8   11.56    0.39
   7  -3  -8   11.82    0.40
   7  -3  -7   58.72    0.94
   7  -3  -7   57.86    0.95
  -7   3   6   20.11    0.55
  -7   3   6   19.38    0.56
  -7   3   5   10.96    0.43
  -7   3   5   11.44    0.42
  -7   3   4    3.98    0.23
  -7   3   4    4.58    0.29
  -7   3   4    3.94    0.24
   7  -3  -3    0.30    0.08
  -7   3   3    0.42    0.09
  -7   3   3    0.50    0.12
   7  -3  -3    0.49    0.09
   7  -3  -2    9.67    0.38
   7  -3  -2    9.44    0.38
  -7   3   2    9.92    0.40
  -7   3   2    9.70    0.42
  -7   3   1    1.02    0.13
   7  -3  -1    1.47    0.16
   7  -3  -1    0.98    0.13
  -7   3   1    1.03    0.14
  -7   3   1    1.12    0.15
  -7   3   0   12.60    0.44
   7  -3   0   12.61    0.44
  -7   3   0   12.22    0.45
  -7   3   0   12.45    0.47
  -7   3   0   12.64    0.46
  -7   3  -1   24.45    0.66
  -7   3  -1   24.93    0.64
  -7   3  -1   26.10    0.66
  -7   3  -1   24.88    0.65
  -7   3  -2    4.32    0.28
  -7   3  -2    4.30    0.26
  -7   3  -2    4.55    0.28
  -7   3  -2    4.41    0.28
  -7   3  -3    0.21    0.08
  -7   3  -3    0.21    0.08
  -7   3  -3    0.19    0.08
  -7   3  -4    6.28    0.32
  -7   3  -4    6.48    0.30
  -7   3  -5    0.41    0.09
  -7   3  -5    0.25    0.07
  -7   3  -6    0.42    0.09
  -7   3  -6    0.34    0.07
  -7   3  -6    0.24    0.05
  -7   3  -7    2.70    0.14
   7  -2 -11   10.70    0.23
   7  -2 -10    3.22    0.16
   7  -2 -10    3.09    0.17
   7  -2  -9    0.01    0.05
   7  -2  -9   -0.02    0.06
   7  -2  -8    6.06    0.28
   7  -2  -8    6.44    0.32
   7  -2  -7    0.12    0.06
  -7   2   7    0.27    0.10
  -7   2   6    0.27    0.08
  -7   2   6    0.18    0.08
  -7   2   5    0.10    0.06
  -7   2   5    0.05    0.05
   7  -2  -4    1.93    0.18
  -7   2   4    2.04    0.19
  -7   2   4    2.02    0.18
   7  -2  -3    1.26    0.15
   7  -2  -3    1.17    0.14
  -7   2   3    1.14    0.14
  -7   2   3    1.07    0.13
   7  -2  -2    0.05    0.05
   7  -2  -2    0.06    0.05
  -7   2   2    0.02    0.06
  -7   2   2   -0.03    0.04
   7  -2  -1    0.06    0.06
  -7   2   1   -0.06    0.05
  -7   2   0    0.05    0.07
  -7   2   0    0.05    0.06
  -7   2   0    0.04    0.05
  -7   2  -1   14.04    0.50
  -7   2  -1   14.08    0.48
  -7   2  -1   13.41    0.46
  -7   2  -1   14.31    0.48
  -7   2  -2    1.76    0.19
  -7   2  -2    1.81    0.18
  -7   2  -2    2.00    0.18
  -7   2  -2    2.12    0.18
  -7   2  -2    1.97    0.19
  -7   2  -3    7.83    0.38
  -7   2  -3    7.60    0.34
  -7   2  -3    7.74    0.33
  -7   2  -3    7.75    0.37
  -7   2  -4    0.32    0.08
  -7   2  -4    0.41    0.07
  -7   2  -4    0.39    0.11
  -7   2  -5    0.70    0.11
  -7   2  -6    0.74    0.10
  -7   2  -7    5.43    0.19
  -7   2  -7    4.85    0.17
   7  -1 -11    0.17    0.06
   7  -1 -10    5.06    0.19
   7  -1 -10    5.67    0.25
   7  -1  -9    3.86    0.20
   7  -1  -9    4.07    0.25
   7  -1  -8    7.89    0.30
   7  -1  -8    8.37    0.38
  -7   1   8    8.39    0.39
  -7   1   7    4.65    0.30
  -7   1   6    0.12    0.07
  -7   1   5    6.84    0.32
  -7   1   5    6.80    0.35
   7  -1  -4    6.46    0.33
   7  -1  -4    6.34    0.33
  -7   1   4    5.68    0.66
  -7   1   4    6.65    0.33
  -7   1   4    6.47    0.33
   7  -1  -3   16.54    0.52
   7  -1  -3   16.04    0.51
  -7   1   3   16.07    0.51
   7  -1  -2  129.52    1.46
   7  -1  -2  128.08    1.43
  -7   1   2  128.09    1.45
  -7   1   1    2.25    0.20
  -7   1   1    2.18    0.19
  -7   1   1    2.02    0.19
  -7   1   1    2.02    0.19
  -7   1   0   60.21    1.01
  -7   1   0   58.17    0.98
  -7   1   0   60.91    1.00
  -7   1   0   59.44    0.99
  -7   1  -1    6.22    0.34
  -7   1  -1    6.65    0.34
  -7   1  -1    6.37    0.30
  -7   1  -1    6.63    0.33
  -7   1  -1    6.35    0.33
  -7   1  -2    2.92    0.24
  -7   1  -2    3.22    0.23
  -7   1  -2    3.46    0.23
  -7   1  -2    2.95    0.23
  -7   1  -3    6.31    0.34
  -7   1  -3    6.21    0.31
  -7   1  -3    6.18    0.29
  -7   1  -3    6.08    0.32
  -7   1  -4    1.27    0.16
  -7   1  -4    1.11    0.13
  -7   1  -5    2.91    0.21
  -7   1  -5    2.75    0.17
  -7   1  -6    0.11    0.06
  -7   1  -7    9.60    0.22
  -7   1  -7    9.67    0.24
   7   0 -11    0.32    0.06
   7   0 -10    0.24    0.07
   7   0  -9    0.04    0.06
  -7   0   9    0.08    0.06
   7   0  -8    0.50    0.10
  -7   0   8    0.60    0.12
  -7   0   7   14.27    0.51
  -7   0   6    8.18    0.39
  -7   0   5   45.26    0.80
  -7   0   5   43.45    0.88
   7   0  -4   28.26    0.69
   7   0  -4   28.17    0.68
  -7   0   4   27.93    1.40
  -7   0   4   27.70    0.65
   7   0  -3    7.56    0.36
   7   0  -3    7.19    0.34
  -7   0   3    7.60    0.35
   7   0  -2    5.41    0.30
   7   0  -2    5.11    0.29
  -7   0   2    5.86    0.31
  -7   0   2    5.23    0.29
  -7   0   2    5.20    0.29
  -7   0   1    3.06    0.23
   7   0  -1    3.04    0.23
  -7   0   1    3.07    0.23
  -7   0   1    3.10    0.23
  -7   0   1    3.06    0.23
  -7   0   0   40.43    0.82
  -7   0   0   40.07    0.82
  -7   0   0   41.54    0.81
  -7   0   0   41.24    0.83
  -7   0  -1    6.02    0.33
  -7   0  -1    5.66    0.31
  -7   0  -1    6.04    0.32
  -7   0  -1    6.43    0.32
  -7   0  -2    0.93    0.14
  -7   0  -2    0.77    0.13
  -7   0  -2    0.96    0.14
  -7   0  -2    1.10    0.14
  -7   0  -3    1.76    0.19
  -7   0  -3    1.85    0.18
  -7   0  -3    1.67    0.15
  -7   0  -3    1.72    0.17
  -7   0  -4    9.92    0.40
  -7   0  -4    9.54    0.36
  -7   0  -5    3.81    0.23
  -7   0  -5    3.72    0.20
  -7   0  -6    0.07    0.04
  -7   0  -6    0.13    0.06
   7   1 -11    1.04    0.09
   7   1 -10    6.69    0.26
   7   1  -9    0.49    0.09
  -7  -1   9    0.47    0.10
   7   1  -8    0.83    0.12
  -7  -1   8    0.81    0.13
  -7  -1   7   19.16    0.59
  -7  -1   6    0.00    0.07
  -7  -1   5    0.81    0.11
   7   1  -4   11.05    0.41
   7   1  -4   11.63    0.42
  -7  -1   4   10.72    0.40
   7   1  -3    0.03    0.05
  -7  -1   3   -0.10    0.06
  -7  -1   3   -0.17    0.07
   7   1  -3   -0.07    0.06
   7   1  -3   -0.01    0.05
  -7  -1   3    0.15    0.08
   7   1  -2    8.42    0.37
   7   1  -2    8.58    0.36
  -7  -1   2    8.12    0.36
   7   1  -2    7.82    0.32
  -7  -1   2    8.35    0.35
  -7  -1   2    7.98    0.36
  -7  -1   1   -0.01    0.04
   7   1  -1    0.01    0.05
  -7  -1   1    0.05    0.07
  -7  -1   1    0.07    0.07
  -7  -1   1    0.06    0.05
   7   1   0    0.07    0.05
  -7  -1   0    0.19    0.08
  -7  -1   0    0.16    0.07
  -7  -1   0    0.13    0.07
  -7  -1   0    0.23    0.07
  -7  -1  -1   22.45    0.61
   7   1   1   22.05    0.57
  -7  -1  -1   22.21    0.61
  -7  -1  -1   22.22    0.60
  -7  -1  -1   22.01    0.56
  -7  -1  -2    7.27    0.35
  -7  -1  -2    7.39    0.35
  -7  -1  -2    7.73    0.34
  -7  -1  -3    3.63    0.24
  -7  -1  -3    3.41    0.24
  -7  -1  -3    3.47    0.21
  -7  -1  -4   13.34    0.43
  -7  -1  -4   12.90    0.41
  -7  -1  -5    0.10    0.06
  -7  -1  -5    0.07    0.06
  -7  -1  -6    0.42    0.07
   7   2 -11    0.83    0.07
   7   2 -10    0.10    0.05
   7   2  -9    7.31    0.29
   7   2  -9    7.26    0.27
  -7  -2   9    6.99    0.30
   7   2  -8    9.90    0.35
  -7  -2   8   10.52    0.40
  -7  -2   7    8.77    0.39
  -7  -2   6   15.36    0.52
   7   2  -5    9.92    0.41
  -7  -2   5    9.65    0.36
   7   2  -4   10.08    0.37
   7   2  -4   10.76    0.42
  -7  -2   4   10.14    0.39
   7   2  -3    0.61    0.11
   7   2  -3    0.60    0.11
   7   2  -3    0.52    0.10
  -7  -2   3    0.51    0.09
   7   2  -3    0.80    0.12
  -7  -2   3    0.70    0.12
   7   2  -2   24.29    0.60
   7   2  -2   24.52    0.58
  -7  -2   2   24.30    0.61
   7   2  -2   24.49    0.59
  -7  -2   2   25.45    0.65
   7   2  -1    0.17    0.06
   7   2  -1    0.01    0.05
  -7  -2   1    0.02    0.06
   7   2  -1    0.10    0.05
  -7  -2   1    0.01    0.06
  -7  -2   0   16.21    0.48
   7   2   0   14.84    0.44
  -7  -2   0   15.91    0.51
  -7  -2   0   15.95    0.52
  -7  -2  -1    8.40    0.35
   7   2   1    8.22    0.37
  -7  -2  -1    8.87    0.38
  -7  -2  -1    8.16    0.37
  -7  -2  -2    0.17    0.06
  -7  -2  -2    0.10    0.07
  -7  -2  -2    0.04    0.06
  -7  -2  -3    0.04    0.06
  -7  -2  -3   -0.01    0.07
  -7  -2  -3    0.04    0.05
  -7  -2  -4    0.35    0.08
  -7  -2  -4    0.38    0.08
  -7  -2  -5    2.60    0.14
  -7  -2  -5    2.61    0.14
   7   3 -11    3.32    0.13
   7   3 -10    0.07    0.04
   7   3  -9   23.92    0.51
  -7  -3   9   23.64    0.48
   7   3  -8    9.85    0.38
  -7  -3   8    9.21    0.35
  -7  -3   7    7.93    0.35
   7   3  -6    7.57    0.35
  -7  -3   6    7.73    0.36
   7   3  -5    0.87    0.13
   7   3  -4    2.14    0.19
  -7  -3   4    1.91    0.17
   7   3  -3    6.77    0.31
   7   3  -3    7.35    0.34
  -7  -3   3    6.88    0.33
  -7  -3   2    0.47    0.09
   7   3  -2    0.67    0.12
   7   3  -2    0.50    0.10
  -7  -3   2    0.66    0.12
   7   3  -1   10.65    0.41
  -7  -3   1   10.63    0.40
   7   3  -1   10.71    0.37
  -7  -3   1   10.73    0.42
  -7  -3   0    0.14    0.07
   7   3   0    0.17    0.07
  -7  -3   0    0.13    0.08
  -7  -3  -1    7.45    0.33
  -7  -3  -1    7.30    0.33
  -7  -3  -2    0.79    0.10
  -7  -3  -2    0.96    0.12
  -7  -3  -2    1.04    0.12
  -7  -3  -3    2.83    0.16
  -7  -3  -3    3.22    0.19
  -7  -3  -3    3.15    0.17
  -7  -3  -4    7.67    0.20
  -7  -3  -4    8.57    0.26
   7   4 -10   -0.01    0.03
   7   4 -10    0.03    0.05
   7   4  -9    0.01    0.05
   7   4  -8    6.75    0.30
  -7  -4   8    6.55    0.24
   7   4  -7    3.56    0.24
  -7  -4   7    3.63    0.21
   7   4  -6   21.11    0.56
  -7  -4   6   20.62    0.53
   7   4  -5    2.55    0.20
   7   4  -4    3.61    0.24
  -7  -4   4    3.38    0.21
   7   4  -3    0.82    0.12
  -7  -4   3    0.82    0.12
   7   4  -2   10.94    0.39
  -7  -4   2   11.14    0.41
  -7  -4   1    6.91    0.29
   7   4  -1    6.87    0.28
  -7  -4   1    7.28    0.33
  -7  -4   0    3.38    0.21
  -7  -4   0    3.59    0.23
  -7  -4  -1    1.86    0.15
  -7  -4  -1    1.82    0.16
  -7  -4  -2    0.21    0.06
  -7  -4  -2    0.24    0.07
  -7  -4  -3    2.92    0.15
  -7  -4  -3    2.36    0.12
   7   5 -10    0.24    0.05
   7   5  -9    0.43    0.07
   7   5  -9    0.59    0.09
   7   5  -8    0.10    0.06
   7   5  -7    5.91    0.27
   7   5  -6    0.47    0.10
   7   5  -6    0.54    0.10
  -7  -5   6    0.44    0.07
   7   5  -5    6.12    0.28
   7   5  -5    6.19    0.29
   7   5  -4    3.35    0.20
   7   5  -4    3.66    0.22
  -7  -5   4    3.47    0.19
   7   5  -3    0.36    0.07
   7   5  -3    0.40    0.09
  -7  -5   3    0.46    0.08
   7   5  -2    2.62    0.18
  -7  -5   2    2.90    0.19
   7   5  -1    1.65    0.12
  -7  -5   1    1.98    0.16
  -7  -5   0    0.10    0.04
  -7  -5   0   -0.01    0.06
  -7  -5  -1    1.07    0.09
  -7  -5  -1    1.06    0.10
  -7  -5  -2    7.07    0.19
   7   6  -8    1.03    0.09
   7   6  -7   19.03    0.39
   7   6  -6    0.66    0.09
   7   6  -6    0.56    0.08
   7   6  -5   17.92    0.38
   7   6  -5   19.49    0.42
   7   6  -4    0.60    0.08
   7   6  -3    1.29    0.11
  -7  -6   3    1.20    0.10
   7   6  -2   13.30    0.31
  -7  -6   2   13.47    0.32
   7   6  -1    0.75    0.06
  -7  -6   1    1.00    0.09
  -7  -6   0   -0.02    0.04
   7   7  -4    4.67    0.14
  -8   8   2    1.10    0.08
  -8   8   2    1.01    0.08
  -8   8   1    0.49    0.07
  -8   8   1    0.46    0.07
  -8   8   0    3.99    0.13
  -8   8   0    4.29    0.16
  -8   8   0    4.48    0.17
  -8   8  -1    0.50    0.06
  -8   8  -1    0.46    0.06
  -8   8  -1    0.45    0.06
  -8   8  -2    1.18    0.08
   8  -7  -5    2.12    0.11
  -8   7   4    1.76    0.11
  -8   7   4    1.60    0.09
  -8   7   3    0.02    0.05
  -8   7   3    0.01    0.04
  -8   7   2    4.09    0.20
  -8   7   2    4.21    0.20
  -8   7   1    5.38    0.20
  -8   7   1    5.73    0.24
  -8   7   1    5.84    0.25
  -8   7   0   17.74    0.38
  -8   7   0   18.20    0.42
  -8   7   0   17.92    0.43
  -8   7  -1    0.06    0.05
  -8   7  -1    0.08    0.06
  -8   7  -1    0.09    0.06
  -8   7  -2    9.11    0.27
  -8   7  -2    8.82    0.24
  -8   7  -3   -0.01    0.04
  -8   7  -3    0.03    0.05
  -8   7  -4    0.87    0.08
   8  -6  -6    0.41    0.07
  -8   6   6    0.29    0.06
  -8   6   5    0.04    0.04
  -8   6   5    0.03    0.04
  -8   6   4    0.50    0.08
  -8   6   4    0.40    0.08
  -8   6   4    0.36    0.10
  -8   6   4    0.53    0.08
  -8   6   3    7.91    0.30
  -8   6   3    7.99    0.35
  -8   6   3    8.28    0.31
  -8   6   2    0.56    0.10
  -8   6   2    0.57    0.12
  -8   6   2    0.60    0.11
  -8   6   1    1.97    0.14
  -8   6   1    2.11    0.17
  -8   6   1    2.20    0.19
  -8   6   1    2.08    0.18
  -8   6   0    4.60    0.23
  -8   6   0    4.70    0.25
  -8   6   0    4.76    0.26
  -8   6   0    4.63    0.25
  -8   6  -1    6.10    0.27
  -8   6  -1    6.07    0.28
  -8   6  -1    5.89    0.26
  -8   6  -1    5.94    0.27
  -8   6  -2   15.53    0.41
  -8   6  -2   15.58    0.42
  -8   6  -2   14.88    0.38
  -8   6  -3    1.99    0.15
  -8   6  -3    1.93    0.14
  -8   6  -3    1.67    0.11
  -8   6  -4    1.08    0.10
  -8   6  -4    0.86    0.09
  -8   6  -5    4.75    0.15
   8  -5  -8    0.06    0.04
  -8   5   8    0.06    0.04
   8  -5  -7   13.38    0.33
   8  -5  -6    1.97    0.15
  -8   5   5    2.93    0.17
  -8   5   5    3.19    0.21
  -8   5   5    2.92    0.16
  -8   5   4    9.40    0.33
  -8   5   4    9.50    0.39
  -8   5   4    9.34    0.33
  -8   5   3    8.69    0.34
  -8   5   3    9.56    0.41
  -8   5   3    8.55    0.35
  -8   5   2   12.43    0.42
  -8   5   2   12.26    0.47
  -8   5   1   10.04    0.34
  -8   5   1   10.80    0.40
  -8   5   1   10.92    0.44
  -8   5   0   10.04    0.36
   8  -5   0    9.82    0.33
  -8   5   0   10.34    0.40
  -8   5   0    9.74    0.39
  -8   5  -1   12.55    0.41
   8  -5   1   12.05    0.37
  -8   5  -1   12.59    0.41
  -8   5  -2    1.03    0.13
   8  -5   2    1.08    0.12
  -8   5  -3    3.50    0.21
  -8   5  -3    3.08    0.20
  -8   5  -3    3.06    0.16
  -8   5  -4    1.53    0.13
  -8   5  -4    1.29    0.12
  -8   5  -5    1.29    0.11
  -8   4   9    2.82    0.11
   8  -4  -8    5.52    0.21
   8  -4  -8    4.96    0.18
   8  -4  -7    0.89    0.11
   8  -4  -7    0.83    0.09
   8  -4  -6    1.93    0.15
  -8   4   6    1.77    0.15
  -8   4   5    1.40    0.12
  -8   4   5    1.53    0.16
  -8   4   5    1.38    0.13
  -8   4   4    0.63    0.10
  -8   4   4    0.79    0.13
  -8   4   3    0.11    0.06
  -8   4   3    0.15    0.09
   8  -4  -2    3.68    0.22
  -8   4   2    3.71    0.24
  -8   4   2    3.66    0.27
  -8   4   2    3.40    0.22
  -8   4   1    3.23    0.20
   8  -4  -1    3.43    0.22
   8  -4  -1    3.21    0.22
  -8   4   1    3.26    0.23
  -8   4   1    3.55    0.26
  -8   4   1    3.12    0.22
  -8   4   0   45.45    0.79
   8  -4   0   44.55    0.80
   8  -4   0   44.18    0.77
  -8   4   0   45.22    0.88
  -8   4  -1    8.60    0.35
   8  -4   1    8.47    0.33
  -8   4  -1    8.39    0.36
  -8   4  -2   16.17    0.48
   8  -4   2   14.77    0.42
  -8   4  -2   15.64    0.44
  -8   4  -2   16.17    0.48
  -8   4  -3   11.86    0.40
   8  -4   3   10.98    0.34
  -8   4  -3   12.12    0.39
  -8   4  -4    1.08    0.12
   8  -4   4    0.93    0.09
  -8   4  -4    0.86    0.10
  -8   4  -5    0.54    0.08
   8  -4   5    0.52    0.06
   8  -3  -9    6.59    0.19
   8  -3  -9    7.13    0.22
   8  -3  -8    7.30    0.25
   8  -3  -8    7.66    0.28
   8  -3  -7    1.01    0.11
   8  -3  -7    1.14    0.13
  -8   3   6    4.18    0.24
  -8   3   6    3.94    0.23
  -8   3   5    0.28    0.09
  -8   3   5    0.21    0.06
  -8   3   4    2.86    0.21
  -8   3   4    3.18    0.24
  -8   3   4    3.32    0.21
   8  -3  -3   23.56    0.59
  -8   3   3   23.30    0.55
  -8   3   3   22.25    0.58
  -8   3   3   23.18    0.66
   8  -3  -2    0.48    0.10
   8  -3  -2    0.33    0.09
  -8   3   2    0.34    0.08
  -8   3   2    0.39    0.11
  -8   3   2    0.38    0.10
  -8   3   1   58.66    0.85
   8  -3  -1   60.22    0.99
   8  -3  -1   59.17    0.97
  -8   3   1   59.01    1.04
  -8   3   1   57.26    0.96
  -8   3   0    2.28    0.18
   8  -3   0    2.12    0.19
   8  -3   0    2.00    0.19
  -8   3   0    2.18    0.20
  -8   3   0    2.11    0.19
  -8   3  -1    0.96    0.13
   8  -3   1    0.94    0.13
  -8   3  -1    1.07    0.14
  -8   3  -1    0.78    0.12
  -8   3  -2    1.38    0.15
   8  -3   2    1.50    0.16
  -8   3  -2    1.37    0.14
  -8   3  -3   14.61    0.45
  -8   3  -4    0.23    0.08
  -8   3  -5    0.48    0.08
   8  -3   5    0.39    0.07
  -8   3  -6    3.70    0.14
   8  -3   6    2.92    0.14
   8  -2 -10    0.14    0.05
   8  -2  -9    1.35    0.12
   8  -2  -8    2.11    0.14
   8  -2  -8    2.22    0.18
   8  -2  -7    0.42    0.08
  -8   2   7    0.48    0.10
  -8   2   6   10.63    0.38
  -8   2   6   10.95    0.41
  -8   2   5    0.06    0.06
  -8   2   5    0.05    0.06
  -8   2   4   11.38    0.45
  -8   2   4   11.50    0.42
   8  -2  -3    0.79    0.13
   8  -2  -3    0.76    0.13
  -8   2   3    1.03    0.14
  -8   2   3    0.83    0.14
  -8   2   3    1.02    0.13
   8  -2  -2   17.84    0.56
   8  -2  -2   17.88    0.55
  -8   2   2   17.48    0.54
  -8   2   2   18.03    0.58
  -8   2   2   17.29    0.48
   8  -2  -1    6.56    0.34
   8  -2  -1    6.29    0.33
  -8   2   1    6.14    0.32
  -8   2   1    6.19    0.34
   8  -2   0   40.40    0.84
   8  -2   0   40.74    0.83
  -8   2   0   41.26    0.84
  -8   2   0   39.00    0.81
  -8   2  -1    9.35    0.41
  -8   2  -1    9.40    0.39
  -8   2  -1    9.09    0.39
  -8   2  -2    0.29    0.10
  -8   2  -2    0.19    0.07
  -8   2  -3    1.13    0.14
  -8   2  -4   14.86    0.42
  -8   2  -5    4.52    0.20
  -8   2  -5    4.03    0.19
  -8   2  -6    3.29    0.13
   8  -2   6    3.12    0.12
   8  -1 -10    1.82    0.12
   8  -1  -9    0.88    0.11
   8  -1  -8    0.16    0.08
  -8   1   8    0.18    0.08
  -8   1   7   21.03    0.57
  -8   1   6    4.49    0.24
  -8   1   6    4.74    0.28
  -8   1   5    3.75    0.24
  -8   1   5    3.82    0.26
  -8   1   4   16.78    0.53
  -8   1   4   16.60    0.53
   8  -1  -3   19.69    0.59
   8  -1  -3   19.32    0.58
  -8   1   3   18.98    0.56
  -8   1   3   19.35    0.58
  -8   1   3   18.91    0.55
   8  -1  -2    4.07    0.27
   8  -1  -2    4.32    0.28
  -8   1   2    4.19    0.27
  -8   1   2    4.02    0.27
   8  -1  -1    1.77    0.18
   8  -1  -1    1.68    0.18
  -8   1   1    1.39    0.16
  -8   1   1    1.60    0.18
  -8   1   0   45.01    0.89
   8  -1   0   46.25    0.90
   8  -1   0   47.08    0.89
  -8   1   0   46.87    0.89
  -8   1   0   44.91    0.85
  -8   1  -1   12.17    0.46
  -8   1  -1   12.36    0.45
  -8   1  -1   12.10    0.44
  -8   1  -1   11.90    0.43
  -8   1  -2   26.54    0.66
  -8   1  -2   25.33    0.61
  -8   1  -2   25.91    0.58
  -8   1  -3    2.33    0.19
  -8   1  -3    2.26    0.17
  -8   1  -3    2.27    0.15
  -8   1  -4    0.28    0.08
  -8   1  -5    2.03    0.14
   8  -1   5    1.94    0.12
   8   0 -10    4.67    0.19
   8   0  -9    0.42    0.08
   8   0  -8    2.54    0.19
  -8   0   8    2.47    0.20
  -8   0   7    8.43    0.37
  -8   0   6    0.06    0.08
  -8   0   5   12.56    0.43
  -8   0   5   12.33    0.46
   8   0  -4    0.31    0.08
  -8   0   4    0.33    0.08
  -8   0   4    0.47    0.10
  -8   0   4    0.40    0.10
   8   0  -3    4.51    0.29
   8   0  -3    4.28    0.27
  -8   0   3    4.44    0.27
  -8   0   3    4.54    0.28
   8   0  -2   15.89    0.53
   8   0  -2   15.74    0.51
  -8   0   2   14.89    0.48
  -8   0   2   16.07    0.53
   8   0  -1    5.10    0.30
   8   0  -1    4.70    0.28
  -8   0   1    4.42    0.28
  -8   0   1    4.56    0.27
  -8   0   1    4.70    0.29
  -8   0   0   48.94    0.90
   8   0   0   47.23    0.88
   8   0   0   49.18    0.89
  -8   0   0   48.12    0.89
  -8   0   0   48.87    0.90
  -8   0   0   48.48    0.84
  -8   0  -1    1.68    0.17
   8   0   1    1.54    0.16
  -8   0  -1    1.67    0.17
  -8   0  -1    1.61    0.17
  -8   0  -2    0.03    0.06
   8   0   2   -0.03    0.06
  -8   0  -2    0.02    0.06
  -8   0  -2    0.01    0.05
  -8   0  -3    1.63    0.16
   8   0   3    1.50    0.13
  -8   0  -3    1.56    0.15
  -8   0  -3    1.42    0.12
  -8   0  -4    4.12    0.21
   8   0   4    4.02    0.17
  -8   0  -4    3.82    0.19
  -8   0  -5    0.22    0.06
   8   1 -10    1.40    0.10
   8   1  -9   19.87    0.39
   8   1  -9   19.29    0.42
  -8  -1   9   19.60    0.46
   8   1  -8    0.81    0.11
  -8  -1   8    0.87    0.12
  -8  -1   7    1.41    0.16
  -8  -1   6   18.18    0.56
  -8  -1   5   10.04    0.37
  -8  -1   5   10.26    0.42
  -8  -1   4    0.13    0.06
  -8  -1   4    0.27    0.07
   8   1  -3   30.39    0.71
   8   1  -3   30.45    0.68
  -8  -1   3   28.48    0.63
  -8  -1   3   29.98    0.70
   8   1  -2    2.09    0.19
   8   1  -2    2.15    0.19
  -8  -1   2    1.56    0.15
  -8  -1   2    1.82    0.18
   8   1  -1    0.97    0.13
   8   1  -1    0.84    0.12
  -8  -1   1    1.00    0.14
  -8  -1   1    1.12    0.15
  -8  -1   0   36.37    0.73
   8   1   0   36.57    0.71
   8   1   0   36.10    0.72
  -8  -1   0   36.96    0.77
  -8  -1   0   36.51    0.76
  -8  -1  -1    2.56    0.19
   8   1   1    2.65    0.18
   8   1   1    2.70    0.20
  -8  -1  -1    2.64    0.21
  -8  -1  -1    2.50    0.20
  -8  -1  -2    1.99    0.17
   8   1   2    2.13    0.15
  -8  -1  -2    2.00    0.17
  -8  -1  -2    2.13    0.16
  -8  -1  -3    0.99    0.11
  -8  -1  -3    1.05    0.12
  -8  -1  -3    0.83    0.09
  -8  -1  -4    6.28    0.22
   8   1   4    6.10    0.20
  -8  -1  -4    5.95    0.21
   8   2  -9    5.63    0.21
  -8  -2   9    5.03    0.21
   8   2  -8    0.09    0.05
  -8  -2   8    0.09    0.06
  -8  -2   7    2.29    0.19
  -8  -2   6   10.02    0.40
  -8  -2   5    1.86    0.16
  -8  -2   5    2.13    0.20
  -8  -2   4    0.83    0.12
   8   2  -3    0.83    0.11
   8   2  -3    0.93    0.12
  -8  -2   3    0.89    0.13
   8   2  -2   18.54    0.48
  -8  -2   2   18.60    0.51
   8   2  -2   18.38    0.46
  -8  -2   2   19.43    0.55
   8   2  -1    1.70    0.15
   8   2  -1    1.73    0.15
  -8  -2   1    1.77    0.17
  -8  -2   1    1.98    0.18
   8   2   0    2.82    0.17
   8   2   0    2.64    0.17
  -8  -2   0    2.57    0.20
  -8  -2   0    2.88    0.21
  -8  -2  -1   11.04    0.34
   8   2   1   11.48    0.33
  -8  -2  -1   11.74    0.39
  -8  -2  -1   11.79    0.38
  -8  -2  -2    0.20    0.05
   8   2   2    0.18    0.06
  -8  -2  -2    0.14    0.06
  -8  -2  -2    0.15    0.06
  -8  -2  -3    0.33    0.06
   8   2   3    0.34    0.06
  -8  -2  -3    0.36    0.07
  -8  -2  -3    0.29    0.05
   8   3  -9    1.20    0.10
  -8  -3   9    0.98    0.08
   8   3  -8    0.44    0.08
  -8  -3   8    0.29    0.06
  -8  -3   7    3.95    0.22
  -8  -3   6   13.63    0.43
  -8  -3   5   13.38    0.37
   8   3  -4    0.84    0.12
  -8  -3   4    0.78    0.10
   8   3  -3    3.56    0.21
  -8  -3   3    3.52    0.22
   8   3  -2   22.34    0.48
  -8  -3   2   23.32    0.56
  -8  -3   1    0.53    0.09
  -8  -3   1    0.67    0.11
  -8  -3   0    7.96    0.30
  -8  -3   0    8.38    0.32
  -8  -3  -1   10.82    0.32
  -8  -3  -1   10.98    0.33
  -8  -3  -2    6.71    0.23
  -8  -3  -2    6.29    0.21
  -8  -3  -3    0.28    0.05
   8   4  -9    3.40    0.14
   8   4  -9    3.09    0.14
   8   4  -8    5.29    0.21
  -8  -4   8    4.27    0.15
   8   4  -7    0.55    0.09
  -8  -4   7    0.56    0.07
   8   4  -6   24.67    0.53
  -8  -4   6   24.25    0.49
   8   4  -5    6.42    0.27
  -8  -4   5    6.40    0.27
   8   4  -4    1.04    0.11
   8   4  -4    1.12    0.12
  -8  -4   4    0.94    0.10
   8   4  -3    2.92    0.16
   8   4  -3    2.95    0.17
  -8  -4   3    3.20    0.19
   8   4  -2    5.67    0.21
  -8  -4   2    5.65    0.25
  -8  -4   1    0.43    0.08
  -8  -4   0    1.19    0.09
  -8  -4   0    1.14    0.11
  -8  -4  -1    3.63    0.14
  -8  -4  -1    4.02    0.16
   8   5  -8    2.39    0.11
   8   5  -7    1.33    0.10
   8   5  -6    0.23    0.06
  -8  -5   6    0.25    0.04
   8   5  -5    3.20    0.15
  -8  -5   5    3.10    0.14
   8   5  -4    3.70    0.17
  -8  -5   4    3.25    0.13
  -8  -5   4    3.66    0.16
   8   5  -3    0.26    0.05
  -8  -5   3    0.34    0.06
  -8  -5   2    3.84    0.16
  -8  -5   1    3.53    0.15
  -9   7   2    8.40    0.19
  -9   7   1    3.81    0.14
  -9   7   1    3.97    0.14
  -9   7   0    1.68    0.09
  -9   7   0    1.65    0.09
   9  -6  -5   15.89    0.27
  -9   6   4    2.67    0.11
  -9   6   4    2.93    0.11
  -9   6   3    0.17    0.05
  -9   6   3    0.14    0.07
  -9   6   3    0.19    0.05
  -9   6   2    6.93    0.23
  -9   6   2    6.92    0.24
  -9   6   1    3.51    0.17
  -9   6   1    3.53    0.18
  -9   6   0    2.14    0.11
  -9   6   0    2.44    0.14
  -9   6   0    2.56    0.15
  -9   6  -1    8.40    0.22
  -9   6  -1    8.66    0.25
  -9   6  -1    8.26    0.23
  -9   6  -2    7.19    0.19
  -9   6  -2    7.40    0.21
   9  -5  -6    0.04    0.04
  -9   5   6    0.11    0.04
   9  -5  -5    0.58    0.08
  -9   5   5    0.35    0.08
  -9   5   4   17.21    0.33
  -9   5   4   17.61    0.36
  -9   5   3    0.38    0.06
  -9   5   3    0.44    0.09
  -9   5   3    0.52    0.08
  -9   5   2    2.42    0.15
  -9   5   2    2.67    0.19
  -9   5   2    2.49    0.17
  -9   5   1    0.04    0.05
  -9   5   1    0.03    0.06
  -9   5   1    0.00    0.06
  -9   5   0    0.33    0.06
   9  -5   0    0.36    0.05
  -9   5   0    0.38    0.08
  -9   5   0    0.37    0.08
  -9   5   0    0.31    0.08
  -9   5  -1    3.39    0.16
   9  -5   1    3.22    0.15
  -9   5  -1    3.51    0.18
  -9   5  -1    2.90    0.15
  -9   5  -1    3.40    0.18
  -9   5  -2    8.31    0.24
   9  -5   2    7.31    0.21
  -9   5  -2    8.33    0.26
  -9   5  -2    7.63    0.22
  -9   5  -3    0.25    0.05
   9  -5   3    0.19    0.04
  -9   5  -3    0.25    0.06
   9  -4  -7   26.19    0.34
   9  -4  -7   28.01    0.36
   9  -4  -6    4.05    0.17
   9  -4  -6    4.45    0.18
  -9   4   5    1.83    0.15
  -9   4   5    1.69    0.11
  -9   4   4   14.50    0.32
  -9   4   4   14.82    0.38
  -9   4   3    0.58    0.08
  -9   4   3    0.53    0.11
  -9   4   2    1.23    0.12
  -9   4   2    1.21    0.15
   9  -4  -1   14.76    0.40
  -9   4   1   15.40    0.41
  -9   4   0    2.77    0.16
   9  -4   0    2.76    0.18
   9  -4   0    2.51    0.16
  -9   4   0    2.89    0.18
  -9   4   0    2.82    0.19
  -9   4  -1   19.60    0.42
   9  -4   1   19.81    0.45
   9  -4   1   18.98    0.41
  -9   4  -1   18.66    0.43
  -9   4  -2    0.54    0.08
   9  -4   2    0.55    0.08
   9  -4   2    0.53    0.07
  -9   4  -3    6.58    0.22
   9  -4   3    6.08    0.21
  -9   4  -4    3.35    0.13
   9  -4   4    3.11    0.12
  -9   4  -4    3.37    0.13
   9  -3  -8   10.48    0.24
   9  -3  -7   10.57    0.30
   9  -3  -6    1.67    0.12
  -9   3   6    1.81    0.13
  -9   3   5    1.28    0.13
  -9   3   4    1.10    0.13
  -9   3   3    0.17    0.08
   9  -3  -2    2.28    0.18
  -9   3   2    2.18    0.15
  -9   3   2    2.26    0.20
   9  -3  -1    0.84    0.12
   9  -3  -1    0.72    0.11
  -9   3   1    0.69    0.10
  -9   3   1    0.89    0.13
  -9   3   0    4.87    0.22
   9  -3   0    5.18    0.26
   9  -3   0    5.12    0.26
  -9   3   0    5.29    0.27
  -9   3  -1    2.84    0.17
   9  -3   1    3.13    0.20
   9  -3   1    3.09    0.19
  -9   3  -1    3.31    0.20
  -9   3  -2    1.26    0.12
   9  -3   2    1.36    0.13
   9  -3   2    1.32    0.12
  -9   3  -2    1.14    0.10
  -9   3  -3    0.06    0.05
   9  -3   3    0.02    0.05
   9  -3   3    0.05    0.04
  -9   3  -4    0.21    0.05
   9  -3   4    0.14    0.05
   9  -2  -9    0.05    0.04
   9  -2  -8    4.53    0.19
   9  -2  -7   10.97    0.34
  -9   2   6    1.90    0.14
  -9   2   6    2.21    0.16
  -9   2   5    5.79    0.27
  -9   2   5    5.53    0.25
  -9   2   4   15.87    0.48
  -9   2   4   15.61    0.42
  -9   2   3   12.82    0.45
  -9   2   3   12.41    0.36
   9  -2  -2    8.26    0.35
   9  -2  -2    8.42    0.36
  -9   2   2    8.73    0.38
   9  -2  -1   15.62    0.48
   9  -2  -1   15.42    0.47
  -9   2   1   15.69    0.49
  -9   2   0    0.69    0.09
   9  -2   0    0.66    0.11
   9  -2   0    0.51    0.10
  -9   2   0    0.52    0.11
  -9   2  -1    0.13    0.05
   9  -2   1    0.30    0.09
   9  -2   1    0.26    0.08
  -9   2  -1    0.18    0.07
  -9   2  -2    3.25    0.18
   9  -2   2    3.08    0.19
   9  -2   2    2.85    0.18
  -9   2  -2    2.94    0.16
  -9   2  -3    0.87    0.09
   9  -2   3    0.87    0.10
   9  -2   3    0.85    0.09
  -9   2  -4    0.57    0.06
   9  -2   4    0.62    0.07
   9  -2   4    0.67    0.07
   9  -1  -9    2.57    0.13
   9  -1  -8    4.93    0.21
  -9   1   7   10.59    0.34
  -9   1   6    1.73    0.13
  -9   1   6    1.89    0.16
  -9   1   5    9.18    0.34
  -9   1   5    9.31    0.35
  -9   1   4    6.92    0.32
  -9   1   4    6.79    0.30
  -9   1   3    1.12    0.14
  -9   1   3    1.11    0.12
   9  -1  -2    9.06    0.38
   9  -1  -2    9.04    0.37
  -9   1   2    9.91    0.39
  -9   1   2    9.04    0.32
   9  -1  -1    0.12    0.07
   9  -1  -1    0.15    0.08
  -9   1   1    0.20    0.09
  -9   1   1    0.18    0.06
   9  -1   0    0.09    0.07
   9  -1   0    0.13    0.08
  -9   1   0    0.10    0.07
  -9   1  -1    1.77    0.13
   9  -1   1    1.82    0.16
   9  -1   1    1.93    0.16
  -9   1  -1    1.88    0.15
   9  -1   2   12.99    0.35
   9  -1   2   13.71    0.37
  -9   1  -2   12.59    0.31
  -9   1  -3    1.58    0.11
   9  -1   3    1.62    0.11
   9  -1   3    1.77    0.12
   9   0  -9    5.89    0.18
   9   0  -8    1.10    0.11
  -9   0   8    1.13    0.12
  -9   0   7   58.51    0.81
  -9   0   6    0.11    0.04
  -9   0   6    0.13    0.07
  -9   0   5    2.07    0.16
  -9   0   5    2.44    0.19
  -9   0   4    0.96    0.12
  -9   0   4    0.85    0.12
  -9   0   3    3.65    0.23
  -9   0   3    3.39    0.22
   9   0  -2    0.07    0.07
   9   0  -2    0.08    0.07
  -9   0   2    0.08    0.07
   9   0  -1    0.54    0.11
   9   0  -1    0.62    0.11
  -9   0   1    0.79    0.12
   9   0   0    1.59    0.15
   9   0   0    1.66    0.15
  -9   0   0    1.77    0.16
   9   0   1    0.65    0.09
   9   0   1    0.68    0.10
  -9   0  -1    0.65    0.09
   9   0   2   19.90    0.37
  -9   0  -2   19.75    0.36
  -9   0  -3    0.35    0.05
   9   0   3    0.54    0.07
   9   1  -8    0.17    0.05
  -9  -1   8    0.28    0.07
   9   1  -7   14.58    0.35
  -9  -1   7   16.57    0.42
  -9  -1   6    0.89    0.12
  -9  -1   5    1.32    0.12
  -9  -1   5    1.35    0.15
  -9  -1   4    0.48    0.09
  -9  -1   4    0.46    0.10
  -9  -1   3    7.30    0.31
   9   1  -2    6.22    0.27
  -9  -1   2    6.13    0.29
   9   1  -1    3.35    0.19
  -9  -1   1    3.63    0.22
   9   1   0    5.10    0.22
  -9  -1   0    5.25    0.24
   9   1   1    9.69    0.27
  -9  -1  -1    9.80    0.29
   9   1   2    4.66    0.16
  -9  -1  -2    3.53    0.13
   9   2  -8   13.20    0.30
  -9  -2   8   12.54    0.29
  -9  -2   7    6.09    0.24
  -9  -2   6    0.89    0.11
  -9  -2   5    5.48    0.21
  -9  -2   5    5.77    0.26
  -9  -2   4    1.56    0.13
  -9  -2   4    1.75    0.16
  -9  -2   3    0.38    0.08
  -9  -2   2    0.37    0.08
  -9  -2   1    2.70    0.17
  -9  -2   0    0.94    0.10
  -9  -2  -1    0.10    0.05
   9   3  -8    6.70    0.18
   9   3  -7    1.16    0.10
  -9  -3   7    1.32    0.10
   9   3  -6    0.87    0.10
  -9  -3   6    0.92    0.09
   9   3  -5    4.47    0.20
  -9  -3   5    4.38    0.21
   9   3  -4   13.17    0.32
  -9  -3   4   13.86    0.31
  -9  -3   4   13.83    0.37
   9   3  -3    0.64    0.07
  -9  -3   3    0.83    0.09
  -9  -3   2   -0.04    0.04
  -9  -3   1    5.56    0.20
  -9  -3   0    1.46    0.10
  -9  -4   5    1.87    0.10
  -9  -4   4    2.08    0.11
  -9  -4   3    0.91    0.08
  -9  -4   2    0.83    0.07
 -10   5   3    0.03    0.04
 -10   5   2    4.72    0.17
 -10   5   2    7.85    0.19
 -10   5   1    0.13    0.04
 -10   4   4    0.03    0.04
 -10   4   3    3.85    0.18
 -10   4   3    3.93    0.16
 -10   4   2    4.52    0.19
 -10   4   2    4.56    0.18
 -10   4   1    3.05    0.15
 -10   4   1    3.11    0.15
 -10   4   0   10.17    0.22
 -10   4   0   14.29    0.28
  10  -3  -6    4.74    0.15
 -10   3   5    4.14    0.16
 -10   3   4    0.97    0.10
 -10   3   4    0.86    0.08
 -10   3   3    5.67    0.23
 -10   3   2    3.89    0.19
 -10   3   1    0.75    0.09
  10  -3   0    2.21    0.12
 -10   3   0    2.06    0.12
  10  -3   1    7.81    0.20
  10  -2  -6   10.99    0.27
 -10   2   5    0.06    0.04
 -10   2   4    1.47    0.12
 -10   2   3    0.52    0.09
 -10   2   2   10.03    0.31
 -10   2   1    0.93    0.10
  10  -2   0   12.30    0.30
 -10   2   0   11.95    0.29
  10  -2   1    7.32    0.20
  10  -2   1    7.74    0.20
  10  -1  -7    1.24    0.09
 -10   1   6    0.60    0.07
 -10   1   5   14.78    0.31
 -10   1   5   15.40    0.31
 -10   1   4    0.45    0.07
 -10   1   4    0.36    0.06
 -10   1   3    1.11    0.11
 -10   1   3    0.97    0.08
 -10   1   2   17.74    0.41
 -10   1   1    0.14    0.06
  10  -1   0   32.58    0.46
 -10   1   0   31.56    0.45
  10  -1   1    0.03    0.04
 -10   0   6    0.98    0.09
 -10   0   5   10.91    0.25
 -10   0   5   12.76    0.30
 -10   0   4    2.66    0.15
 -10   0   4    2.47    0.14
 -10   0   3    2.65    0.15
 -10   0   3    2.43    0.13
 -10   0   2    1.80    0.13
 -10   0   2    1.59    0.10
 -10   0   1    4.10    0.18
 -10   0   0   26.76    0.37
 -10  -1   6    5.39    0.18
 -10  -1   5    7.49    0.22
 -10  -1   4    0.18    0.04
 -10  -1   4    0.14    0.06
 -10  -1   3   19.88    0.37
 -10  -1   3   19.23    0.34
 -10  -1   2    5.02    0.18
 -10  -1   2    4.06    0.14
 -10  -1   1    0.05    0.04
 -10  -2   5    1.52    0.09
 -10  -2   4    0.65    0.07
   0   0   0    0.00    0.00
;
_shelx_hkl_checksum              76800
loop_
_space_group_symop_operation_xyz
'x, y, z'
'-x, -y, -z'
loop_
_atom_site_label
_atom_site_type_symbol
_atom_site_fract_x
_atom_site_fract_y
_atom_site_fract_z
_atom_site_U_iso_or_equiv
_atom_site_adp_type
_atom_site_occupancy
_atom_site_site_symmetry_order
_atom_site_calc_flag
_atom_site_refinement_flags_posn
_atom_site_refinement_flags_adp
O1 O 0.29452(12) -0.06415(12) 0.12002(10) 0.0289(2) Uani 1 1 d . .
O2 O 0.33645(13) 0.32176(12) 0.24828(10) 0.0303(2) Uani 1 1 d . .
N1 N 0.29731(14) -0.13141(13) 0.41787(11) 0.0228(2) Uani 1 1 d . .
H1N H 0.300(2) -0.113(2) 0.501(2) 0.030(4) Uiso 1 1 d . .
N2 N 0.30268(14) 0.24257(13) 0.53642(11) 0.0226(2) Uani 1 1 d . .
H2N H 0.304(2) 0.190(2) 0.5991(19) 0.027(4) Uiso 1 1 d . .
C1 C 0.30419(14) -0.00487(14) 0.36485(12) 0.0190(2) Uani 1 1 d . .
C2 C 0.30629(15) 0.02109(15) 0.23144(13) 0.0214(3) Uani 1 1 d . .
C3 C 0.32123(15) 0.19906(15) 0.28939(13) 0.0215(3) Uani 1 1 d . .
C4 C 0.31074(14) 0.16085(14) 0.41786(13) 0.0192(2) Uani 1 1 d . .
C5 C 0.29037(17) 0.41286(15) 0.56327(14) 0.0259(3) Uani 1 1 d . .
H5A H 0.2458 0.4407 0.4769 0.031 Uiso 1 1 calc R U
H5B H 0.4025 0.4817 0.6070 0.031 Uiso 1 1 calc R U
C6 C 0.17789(16) 0.44560(15) 0.65395(13) 0.0225(3) Uani 1 1 d . .
C7 C 0.23561(17) 0.56652(16) 0.77301(15) 0.0289(3) Uani 1 1 d . .
H7 H 0.3458 0.6284 0.7972 0.035 Uiso 1 1 calc R U
C8 C 0.13260(19) 0.59743(18) 0.85701(15) 0.0342(3) Uani 1 1 d . .
H8 H 0.1727 0.6801 0.9386 0.041 Uiso 1 1 calc R U
C9 C -0.02851(18) 0.50791(17) 0.82194(14) 0.0284(3) Uani 1 1 d . .
H9 H -0.0984 0.5297 0.8795 0.034 Uiso 1 1 calc R U
C10 C -0.08860(16) 0.38602(14) 0.70262(13) 0.0220(3) Uani 1 1 d . .
C11 C 0.01555(16) 0.35568(15) 0.61950(13) 0.0226(3) Uani 1 1 d . .
H11 H -0.0243 0.2726 0.5382 0.027 Uiso 1 1 calc R U
C12 C -0.26793(16) 0.29578(15) 0.66510(14) 0.0253(3) Uani 1 1 d . .
H12A H -0.3010 0.2916 0.7490 0.030 Uiso 1 1 calc R U
H12B H -0.3398 0.3569 0.6156 0.030 Uiso 1 1 calc R U
S1 S 0.31176(4) 0.01174(4) 0.83345(3) 0.02669(11) Uani 1 1 d . .
O3 O 0.31246(15) 0.01246(13) 0.68923(10) 0.0356(3) Uani 1 1 d . .
C13 C 0.3889(2) 0.21646(19) 0.92736(15) 0.0362(3) Uani 1 1 d . .
H13A H 0.3747 0.2279 1.0186 0.054 Uiso 1 1 calc R U
H13B H 0.3273 0.2865 0.8821 0.054 Uiso 1 1 calc R U
H13C H 0.5073 0.2476 0.9331 0.054 Uiso 1 1 calc R U
C14 C 0.0998(2) 0.0011(3) 0.8349(2) 0.0516(5) Uani 1 1 d . .
H14A H 0.0914 0.0132 0.9278 0.077 Uiso 1 1 calc R U
H14B H 0.0331 -0.1037 0.7788 0.077 Uiso 1 1 calc R U
H14C H 0.0585 0.0878 0.7989 0.077 Uiso 1 1 calc R U
loop_
_atom_site_aniso_label
_atom_site_aniso_U_11
_atom_site_aniso_U_22
_atom_site_aniso_U_33
_atom_site_aniso_U_23
_atom_site_aniso_U_13
_atom_site_aniso_U_12
O1 0.0343(5) 0.0306(5) 0.0188(5) -0.0007(4) 0.0089(4) 0.0040(4)
O2 0.0382(5) 0.0268(5) 0.0295(5) 0.0103(4) 0.0141(4) 0.0055(4)
N1 0.0256(5) 0.0215(5) 0.0202(5) 0.0027(4) 0.0077(4) 0.0021(4)
N2 0.0276(5) 0.0211(5) 0.0196(5) 0.0026(4) 0.0092(4) 0.0050(4)
C1 0.0147(5) 0.0217(6) 0.0182(6) 0.0012(4) 0.0046(4) 0.0010(4)
C2 0.0189(5) 0.0244(6) 0.0193(6) 0.0026(5) 0.0058(4) 0.0022(4)
C3 0.0197(5) 0.0237(6) 0.0200(6) 0.0035(5) 0.0063(5) 0.0023(4)
C4 0.0153(5) 0.0210(6) 0.0192(6) 0.0024(5) 0.0045(4) 0.0016(4)
C5 0.0283(6) 0.0191(6) 0.0294(7) 0.0005(5) 0.0131(5) 0.0013(5)
C6 0.0257(6) 0.0187(5) 0.0230(6) 0.0030(5) 0.0082(5) 0.0045(5)
C7 0.0253(6) 0.0256(6) 0.0285(7) -0.0036(5) 0.0058(5) 0.0000(5)
C8 0.0345(7) 0.0324(7) 0.0262(7) -0.0091(6) 0.0071(6) 0.0023(6)
C9 0.0318(7) 0.0283(6) 0.0250(6) 0.0003(5) 0.0120(6) 0.0073(5)
C10 0.0247(6) 0.0186(5) 0.0237(6) 0.0048(5) 0.0083(5) 0.0052(5)
C11 0.0261(6) 0.0183(5) 0.0206(6) -0.0001(5) 0.0064(5) 0.0028(5)
C12 0.0260(6) 0.0197(6) 0.0308(7) 0.0030(5) 0.0121(5) 0.0041(5)
S1 0.02513(17) 0.03671(19) 0.01996(18) 0.00989(13) 0.00728(12) 0.00590(13)
O3 0.0515(6) 0.0365(5) 0.0206(5) 0.0075(4) 0.0127(5) 0.0094(5)
C13 0.0443(8) 0.0399(8) 0.0238(7) 0.0025(6) 0.0115(6) 0.0107(6)
C14 0.0249(7) 0.0893(15) 0.0476(10) 0.0306(10) 0.0107(7) 0.0124(8)
loop_
_atom_type_symbol
_atom_type_description
_atom_type_scat_dispersion_real
_atom_type_scat_dispersion_imag
_atom_type_scat_source
C C 0.0181 0.0091 'International Tables Vol C Tables 4.2.6.8 and 6.1.1.4'
H H 0.0000 0.0000 'International Tables Vol C Tables 4.2.6.8 and 6.1.1.4'
N N 0.0311 0.0180 'International Tables Vol C Tables 4.2.6.8 and 6.1.1.4'
O O 0.0492 0.0322 'International Tables Vol C Tables 4.2.6.8 and 6.1.1.4'
S S 0.3331 0.5567 'International Tables Vol C Tables 4.2.6.8 and 6.1.1.4'
loop_
_geom_angle_atom_site_label_1
_geom_angle_atom_site_label_2
_geom_angle_atom_site_label_3
_geom_angle
_geom_angle_site_symmetry_1
_geom_angle_site_symmetry_3
C1 N1 C12 121.74(11) . 2_556
C1 N1 H1N 116.7(12) . .
C12 N1 H1N 121.3(12) 2_556 .
C4 N2 C5 122.60(12) . .
C4 N2 H2N 116.9(12) . .
C5 N2 H2N 120.5(12) . .
N1 C1 C4 132.92(12) . .
N1 C1 C2 135.29(11) . .
C4 C1 C2 91.79(10) . .
O1 C2 C1 136.17(12) . .
O1 C2 C3 135.45(13) . .
C1 C2 C3 88.33(10) . .
O2 C3 C4 135.87(12) . .
O2 C3 C2 136.18(12) . .
C4 C3 C2 87.95(10) . .
N2 C4 C1 132.29(12) . .
N2 C4 C3 135.82(12) . .
C1 C4 C3 91.83(10) . .
N2 C5 C6 110.67(11) . .
N2 C5 H5A 109.5 . .
C6 C5 H5A 109.5 . .
N2 C5 H5B 109.5 . .
C6 C5 H5B 109.5 . .
H5A C5 H5B 108.1 . .
C7 C6 C11 119.30(12) . .
C7 C6 C5 119.90(12) . .
C11 C6 C5 120.81(11) . .
C6 C7 C8 120.21(13) . .
C6 C7 H7 119.9 . .
C8 C7 H7 119.9 . .
C9 C8 C7 120.15(13) . .
C9 C8 H8 119.9 . .
C7 C8 H8 119.9 . .
C8 C9 C10 120.41(13) . .
C8 C9 H9 119.8 . .
C10 C9 H9 119.8 . .
C11 C10 C9 119.01(12) . .
C11 C10 C12 122.24(11) . .
C9 C10 C12 118.70(12) . .
C10 C11 C6 120.93(12) . .
C10 C11 H11 119.5 . .
C6 C11 H11 119.5 . .
N1 C12 C10 113.84(10) 2_556 .
N1 C12 H12A 108.8 2_556 .
C10 C12 H12A 108.8 . .
N1 C12 H12B 108.8 2_556 .
C10 C12 H12B 108.8 . .
H12A C12 H12B 107.7 . .
O3 S1 C13 105.23(7) . .
O3 S1 C14 104.76(8) . .
C13 S1 C14 97.45(10) . .
S1 C13 H13A 109.5 . .
S1 C13 H13B 109.5 . .
H13A C13 H13B 109.5 . .
S1 C13 H13C 109.5 . .
H13A C13 H13C 109.5 . .
H13B C13 H13C 109.5 . .
S1 C14 H14A 109.5 . .
S1 C14 H14B 109.5 . .
H14A C14 H14B 109.5 . .
S1 C14 H14C 109.5 . .
H14A C14 H14C 109.5 . .
H14B C14 H14C 109.5 . .
loop_
_geom_bond_atom_site_label_1
_geom_bond_atom_site_label_2
_geom_bond_distance
_geom_bond_site_symmetry_2
O1 C2 1.2228(16) .
O2 C3 1.2242(17) .
N1 C1 1.3242(17) .
N1 C12 1.4590(16) 2_556
N1 H1N 0.85(2) .
N2 C4 1.3228(17) .
N2 C5 1.4650(16) .
N2 H2N 0.872(19) .
C1 C4 1.4146(16) .
C1 C2 1.4674(17) .
C2 C3 1.5088(17) .
C3 C4 1.4718(17) .
C5 C6 1.5099(17) .
C5 H5A 0.9900 .
C5 H5B 0.9900 .
C6 C7 1.3879(18) .
C6 C11 1.3970(18) .
C7 C8 1.391(2) .
C7 H7 0.9500 .
C8 C9 1.386(2) .
C8 H8 0.9500 .
C9 C10 1.3947(18) .
C9 H9 0.9500 .
C10 C11 1.3917(18) .
C10 C12 1.5174(17) .
C11 H11 0.9500 .
C12 N1 1.4589(16) 2_556
C12 H12A 0.9900 .
C12 H12B 0.9900 .
S1 O3 1.5177(10) .
S1 C13 1.7813(16) .
S1 C14 1.7826(17) .
C13 H13A 0.9800 .
C13 H13B 0.9800 .
C13 H13C 0.9800 .
C14 H14A 0.9800 .
C14 H14B 0.9800 .
C14 H14C 0.9800 .
loop_
_geom_hbond_atom_site_label_D
_geom_hbond_atom_site_label_H
_geom_hbond_atom_site_label_A
_geom_hbond_distance_DH
_geom_hbond_distance_HA
_geom_hbond_distance_DA
_geom_hbond_angle_DHA
_geom_hbond_site_symmetry_A
N1 H1N O3 0.85(2) 2.02(2) 2.8332(15) 158.9(17) .
N2 H2N O3 0.872(19) 1.962(19) 2.7975(16) 160.0(17) .
C5 H5B O2 0.99 2.52 3.4942(17) 169.4 2_666
C12 H12A O1 0.99 2.62 3.3306(17) 128.9 2_556
C13 H13A O2 0.98 2.50 3.4572(18) 167.0 1_556
C13 H13C O1 0.98 2.55 3.2457(19) 128.1 2_656
C14 H14A O1 0.98 2.60 3.268(2) 125.5 1_556
loop_
_geom_torsion_atom_site_label_1
_geom_torsion_atom_site_label_2
_geom_torsion_atom_site_label_3
_geom_torsion_atom_site_label_4
_geom_torsion
_geom_torsion_site_symmetry_1
_geom_torsion_site_symmetry_4
C12 N1 C1 C4 171.21(12) 2_556 .
C12 N1 C1 C2 -8.0(2) 2_556 .
N1 C1 C2 O1 4.4(3) . .
C4 C1 C2 O1 -175.05(15) . .
N1 C1 C2 C3 -178.15(14) . .
C4 C1 C2 C3 2.43(9) . .
O1 C2 C3 O2 -5.2(3) . .
C1 C2 C3 O2 177.26(16) . .
O1 C2 C3 C4 175.18(15) . .
C1 C2 C3 C4 -2.34(9) . .
C5 N2 C4 C1 -171.74(12) . .
C5 N2 C4 C3 4.6(2) . .
N1 C1 C4 N2 -4.5(2) . .
C2 C1 C4 N2 174.97(13) . .
N1 C1 C4 C3 178.07(13) . .
C2 C1 C4 C3 -2.49(9) . .
O2 C3 C4 N2 5.5(3) . .
C2 C3 C4 N2 -174.89(14) . .
O2 C3 C4 C1 -177.18(15) . .
C2 C3 C4 C1 2.43(9) . .
C4 N2 C5 C6 142.83(12) . .
N2 C5 C6 C7 125.34(13) . .
N2 C5 C6 C11 -54.77(17) . .
C11 C6 C7 C8 0.1(2) . .
C5 C6 C7 C8 179.95(14) . .
C6 C7 C8 C9 -0.2(2) . .
C7 C8 C9 C10 0.2(2) . .
C8 C9 C10 C11 0.0(2) . .
C8 C9 C10 C12 -177.42(13) . .
C9 C10 C11 C6 -0.2(2) . .
C12 C10 C11 C6 177.17(12) . .
C7 C6 C11 C10 0.1(2) . .
C5 C6 C11 C10 -179.74(12) . .
C11 C10 C12 N1 30.13(18) . 2_556
C9 C10 C12 N1 -152.50(13) . 2_556
