#------------------------------------------------------------------------------
#$Date: 2016-08-05 06:35:03 +0300 (Fri, 05 Aug 2016) $
#$Revision: 184948 $
#$URL: file:///home/coder/svn-repositories/cod/cif/1/54/34/1543437.cif $
#------------------------------------------------------------------------------
#
# This file is available in the Crystallography Open Database (COD),
# http://www.crystallography.net/
#
# All data on this site have been placed in the public domain by the
# contributors.
#
data_1543437
loop_
_publ_author_name
'Xie, Chen'
'Zhang, Lijun'
'Sha, Wanxing'
'Soloshonok, Vadim A.'
'Han, Jianlin'
'Pan, Yi'
_publ_section_title
;
 Detrifluoroacetylative in Situ Generation of Free
 3-Fluoroindolin-2-one-Derived Tertiary Enolates: Design, Synthesis, and
 Assessment of Reactivity toward Asymmetric Mannich Reactions.
;
_journal_issue                   13
_journal_name_full               'Organic letters'
_journal_page_first              3270
_journal_page_last               3273
_journal_paper_doi               10.1021/acs.orglett.6b01516
_journal_volume                  18
_journal_year                    2016
_chemical_absolute_configuration ad
_chemical_formula_sum            'C21 H23 F4 N2 O2 S'
_chemical_formula_weight         443.47
_space_group_crystal_system      monoclinic
_space_group_IT_number           4
_space_group_name_Hall           'P 2yb'
_space_group_name_H-M_alt        'P 1 21 1'
_symmetry_space_group_name_Hall  'P 2yb'
_symmetry_space_group_name_H-M   'P 1 21 1'
_atom_sites_solution_hydrogens   geom
_audit_creation_method           SHELXL-2014/7
_cell_angle_alpha                90
_cell_angle_beta                 107.206(3)
_cell_angle_gamma                90
_cell_formula_units_Z            4
_cell_length_a                   14.501(2)
_cell_length_b                   8.8433(14)
_cell_length_c                   17.883(3)
_cell_measurement_reflns_used    4003
_cell_measurement_temperature    296(2)
_cell_measurement_theta_max      27.81
_cell_measurement_theta_min      2.38
_cell_volume                     2190.6(6)
_computing_cell_refinement       'Bruker SAINT'
_computing_data_collection       'Bruker APEX2'
_computing_data_reduction        'Bruker SAINT'
_computing_molecular_graphics    'Bruker SHELXTL'
_computing_publication_material  'Bruker SHELXTL'
_computing_structure_refinement  'SHELXL-2014/7 (Sheldrick, 2014)'
_computing_structure_solution    'SHELXS-97 (Sheldrick 2008)'
_diffrn_ambient_temperature      296(2)
_diffrn_measured_fraction_theta_full 0.999
_diffrn_measured_fraction_theta_max 0.999
_diffrn_measurement_device_type  'Bruker APEX-II CCD'
_diffrn_measurement_method       '\f and \w scans'
_diffrn_radiation_type           MoK\a
_diffrn_radiation_wavelength     0.71073
_diffrn_reflns_av_R_equivalents  0.0307
_diffrn_reflns_av_unetI/netI     0.0522
_diffrn_reflns_Laue_measured_fraction_full 0.999
_diffrn_reflns_Laue_measured_fraction_max 0.999
_diffrn_reflns_limit_h_max       17
_diffrn_reflns_limit_h_min       -16
_diffrn_reflns_limit_k_max       10
_diffrn_reflns_limit_k_min       -10
_diffrn_reflns_limit_l_max       21
_diffrn_reflns_limit_l_min       -17
_diffrn_reflns_number            12321
_diffrn_reflns_point_group_measured_fraction_full 0.971
_diffrn_reflns_point_group_measured_fraction_max 0.971
_diffrn_reflns_theta_full        25.010
_diffrn_reflns_theta_max         25.010
_diffrn_reflns_theta_min         1.192
_exptl_absorpt_coefficient_mu    0.200
_exptl_crystal_colour            colorless
_exptl_crystal_density_diffrn    1.345
_exptl_crystal_description       block
_exptl_crystal_F_000             924
_exptl_crystal_size_max          0.280
_exptl_crystal_size_mid          0.250
_exptl_crystal_size_min          0.220
_refine_diff_density_max         0.208
_refine_diff_density_min         -0.374
_refine_diff_density_rms         0.045
_refine_ls_abs_structure_details
;
 Flack x determined using 2158 quotients [(I+)-(I-)]/[(I+)+(I-)]
 (Parsons, Flack and Wagner, Acta Cryst. B69 (2013) 249-259).
;
_refine_ls_abs_structure_Flack   0.01(5)
_refine_ls_extinction_method     none
_refine_ls_goodness_of_fit_ref   1.027
_refine_ls_hydrogen_treatment    constr
_refine_ls_matrix_type           full
_refine_ls_number_parameters     547
_refine_ls_number_reflns         7497
_refine_ls_number_restraints     1
_refine_ls_restrained_S_all      1.027
_refine_ls_R_factor_all          0.0657
_refine_ls_R_factor_gt           0.0487
_refine_ls_shift/su_max          0.000
_refine_ls_shift/su_mean         0.000
_refine_ls_structure_factor_coef Fsqd
_refine_ls_weighting_details
'w=1/[\s^2^(Fo^2^)+(0.0737P)^2^+0.2334P] where P=(Fo^2^+2Fc^2^)/3'
_refine_ls_weighting_scheme      calc
_refine_ls_wR_factor_gt          0.1231
_refine_ls_wR_factor_ref         0.1361
_reflns_Friedel_coverage         0.813
_reflns_Friedel_fraction_full    0.938
_reflns_Friedel_fraction_max     0.938
_reflns_number_gt                5942
_reflns_number_total             7497
_reflns_threshold_expression     'I > 2\s(I)'
_cod_data_source_file            ol6b01516_si_002.cif
_cod_data_source_block           20160222pyxc1_0m_a
_cod_depositor_comments          'Adding full bibliography for 1543437.cif.'
_cod_original_cell_volume        2190.7(6)
_cod_database_code               1543437
_shelx_shelxl_version_number     2014/7
_shelx_space_group_comment
;
The symmetry employed for this shelxl refinement is uniquely defined
by the following loop, which should always be used as a source of
symmetry information in preference to the above space-group names.
They are only intended as comments.
;
_shelx_estimated_absorpt_t_min   0.946
_shelx_estimated_absorpt_t_max   0.957
_shelx_res_file
;

    20160222pyxc1_0m_a.res created by SHELXL-2014/7

TITL 20160222pyxc1_0m_a.res in P2(1)
CELL  0.71073  14.5013   8.8433  17.8834   90.000  107.206   90.000
ZERR   4.000   0.0023   0.0014   0.0027    0.000    0.003    0.000
LATT -1
SYMM -X, 1/2+Y, -Z
SFAC C  H  N  O  F  S
UNIT 84 92 8 8 16 4
OMIT  -3.00  50.02
L.S. 10
ACTA
BOND $H
FMAP 2
PLAN 20
LIST 6
size .28 .25 .22
TEMP 23.000
WGHT    0.073700    0.233400
FVAR       0.63163
C1    1    0.121737    0.174518    0.351302    11.00000    0.09504    0.10461 =
         0.05759   -0.02477    0.03769   -0.01436
AFIX 137
H1C   2    0.066713    0.108527    0.338616    11.00000   -1.50000
H1D   2    0.179219    0.116732    0.374181    11.00000   -1.50000
H1E   2    0.126381    0.223022    0.304526    11.00000   -1.50000
AFIX   0
C2    1    0.018196    0.377709    0.376804    11.00000    0.18967    0.10041 =
         0.05609    0.01227    0.04651    0.04106
AFIX 137
H2C   2    0.018636    0.427016    0.329087    11.00000   -1.50000
H2D   2    0.011236    0.451989    0.413909    11.00000   -1.50000
H2E   2   -0.034820    0.307936    0.366290    11.00000   -1.50000
AFIX   0
C3    1    0.198507    0.393859    0.432079    11.00000    0.18907    0.15460 =
         0.07021   -0.02594    0.05873   -0.11998
AFIX 137
H3A   2    0.209137    0.435483    0.385739    11.00000   -1.50000
H3B   2    0.253651    0.335123    0.459919    11.00000   -1.50000
H3C   2    0.188931    0.474471    0.464962    11.00000   -1.50000
AFIX   0
C4    1    0.110430    0.294341    0.409536    11.00000    0.09290    0.07612 =
         0.04485   -0.00927    0.02479   -0.01676
C5    1    0.166247    0.286073    0.640970    11.00000    0.05572    0.03901 =
         0.04117   -0.00521    0.00949   -0.00296
AFIX  13
H5    2    0.180263    0.177474    0.643239    11.00000   -1.20000
AFIX   0
C6    1    0.106494    0.314359    0.695823    11.00000    0.06839    0.06624 =
         0.04316   -0.00851    0.01708   -0.02524
C7    1    0.264492    0.368289    0.666254    11.00000    0.05117    0.04959 =
         0.04193   -0.01123    0.01202    0.00043
C8    1    0.271126    0.534512    0.680984    11.00000    0.04730    0.04712 =
         0.05637   -0.00219    0.01910   -0.00949
C9    1    0.226845    0.654733    0.636188    11.00000    0.07609    0.06324 =
         0.07403    0.01620    0.02006   -0.01153
AFIX  43
H9    2    0.180997    0.640431    0.587866    11.00000   -1.20000
AFIX   0
C10   1    0.253221    0.798851    0.665887    11.00000    0.13059    0.05064 =
         0.11746    0.01974    0.04813   -0.00269
AFIX  43
H10   2    0.224993    0.882698    0.636597    11.00000   -1.20000
AFIX   0
C11   1    0.319370    0.819579    0.736803    11.00000    0.13160    0.05643 =
         0.11136   -0.01585    0.04613   -0.03498
AFIX  43
H11   2    0.334622    0.917578    0.755173    11.00000   -1.20000
AFIX   0
C12   1    0.364537    0.700208    0.782334    11.00000    0.08727    0.06626 =
         0.08009   -0.02150    0.03320   -0.03377
AFIX  43
H12   2    0.410272    0.715364    0.830630    11.00000   -1.20000
AFIX   0
C13   1    0.339162    0.558611    0.753392    11.00000    0.05140    0.05134 =
         0.05496   -0.00929    0.02470   -0.01341
C14   1    0.334821    0.304267    0.741944    11.00000    0.05807    0.05465 =
         0.05766   -0.00992    0.00158    0.00991
C15   1    0.457363    0.406320    0.857989    11.00000    0.04794    0.10382 =
         0.05511   -0.02195   -0.00050    0.00505
AFIX  23
H15A  2    0.504691    0.482970    0.856636    11.00000   -1.20000
H15B  2    0.487269    0.308446    0.857226    11.00000   -1.20000
AFIX   0
C16   1    0.433018    0.421411    0.933841    11.00000    0.06044    0.07560 =
         0.05657   -0.00497    0.00303    0.01087
C17   1    0.350289    0.361424    0.943444    11.00000    0.08000    0.17531 =
         0.06035   -0.00192    0.01558   -0.01075
AFIX  43
H17   2    0.305934    0.315388    0.901091    11.00000   -1.20000
AFIX   0
C18   1    0.331430    0.367545    1.013411    11.00000    0.10893    0.23207 =
         0.08357    0.01357    0.03464   -0.01005
AFIX  43
H18   2    0.274619    0.326831    1.018825    11.00000   -1.20000
AFIX   0
C19   1    0.397599    0.434901    1.076308    11.00000    0.14346    0.18957 =
         0.06961    0.01751    0.04080    0.03601
AFIX  43
H19   2    0.385422    0.439932    1.124468    11.00000   -1.20000
AFIX   0
C20   1    0.479818    0.493406    1.068115    11.00000    0.15304    0.13013 =
         0.05387   -0.01997    0.00303    0.00847
AFIX  43
H20   2    0.524080    0.538779    1.110754    11.00000   -1.20000
AFIX   0
C21   1    0.499058    0.486688    0.997006    11.00000    0.09465    0.10482 =
         0.05729   -0.01307   -0.00059   -0.00653
AFIX  43
H21   2    0.556363    0.526116    0.991939    11.00000   -1.20000
AFIX   0
C22   1    0.768616    0.360135    1.068813    11.00000    0.09791    0.17281 =
         0.05976    0.01453    0.03477    0.05347
AFIX 137
H22A  2    0.724272    0.285463    1.039781    11.00000   -1.50000
H22B  2    0.763592    0.450084    1.037807    11.00000   -1.50000
H22C  2    0.753340    0.383556    1.116212    11.00000   -1.50000
AFIX   0
C23   1    0.883062    0.174497    1.148617    11.00000    0.12210    0.10949 =
         0.05515    0.02869    0.02675    0.01779
AFIX 137
H23A  2    0.948366    0.138326    1.162557    11.00000   -1.50000
H23B  2    0.839653    0.092989    1.126956    11.00000   -1.50000
H23C  2    0.869371    0.212880    1.194414    11.00000   -1.50000
AFIX   0
C24   1    0.944803    0.420898    1.115948    11.00000    0.12302    0.11934 =
         0.06929   -0.03336    0.03334   -0.04088
AFIX 137
H24A  2    0.937420    0.467356    1.162356    11.00000   -1.50000
H24B  2    0.936669    0.495792    1.075652    11.00000   -1.50000
H24C  2    1.008072    0.377280    1.127290    11.00000   -1.50000
AFIX   0
C25   1    0.870143    0.299357    1.088661    11.00000    0.06109    0.07688 =
         0.03838    0.01370    0.01521    0.00839
C26   1    0.809523    0.325503    0.859057    11.00000    0.05147    0.04991 =
         0.03468    0.00263    0.01040   -0.00470
AFIX  13
H26   2    0.782380    0.223828    0.858298    11.00000   -1.20000
AFIX   0
C27   1    0.868976    0.321031    0.802474    11.00000    0.06216    0.05404 =
         0.04614    0.00582    0.01770    0.01278
C28   1    0.722870    0.432691    0.833468    11.00000    0.04450    0.06221 =
         0.03188   -0.00109    0.01145   -0.00353
C29   1    0.732410    0.594810    0.812166    11.00000    0.04825    0.05461 =
         0.04467   -0.00915    0.01300    0.00742
C30   1    0.793055    0.708574    0.849321    11.00000    0.05463    0.05705 =
         0.06959   -0.01846    0.00497    0.00796
AFIX  43
H30   2    0.842313    0.689209    0.895149    11.00000   -1.20000
AFIX   0
C31   1    0.779912    0.852484    0.817665    11.00000    0.07799    0.04716 =
         0.09579   -0.01792    0.01424    0.00461
AFIX  43
H31   2    0.820838    0.930628    0.841841    11.00000   -1.20000
AFIX   0
C32   1    0.705905    0.879703    0.750122    11.00000    0.08499    0.04855 =
         0.09034   -0.00295    0.02278    0.01180
AFIX  43
H32   2    0.696951    0.977581    0.730265    11.00000   -1.20000
AFIX   0
C33   1    0.645171    0.768048    0.711246    11.00000    0.06440    0.06501 =
         0.05720    0.00499    0.01617    0.01981
AFIX  43
H33   2    0.596369    0.787763    0.665184    11.00000   -1.20000
AFIX   0
C34   1    0.659453    0.624940    0.743329    11.00000    0.04529    0.05880 =
         0.04203   -0.00051    0.01341    0.00767
C35   1    0.642019    0.372486    0.762182    11.00000    0.04781    0.06460 =
         0.03931    0.00335    0.01040   -0.00891
C36   1    0.521131    0.485968    0.647713    11.00000    0.04532    0.09588 =
         0.04220    0.00149    0.00478   -0.00449
AFIX  23
H36A  2    0.477577    0.566178    0.652453    11.00000   -1.20000
H36B  2    0.488578    0.390495    0.648694    11.00000   -1.20000
AFIX   0
C37   1    0.540478    0.501261    0.569624    11.00000    0.06327    0.07008 =
         0.03977    0.00345    0.00436   -0.01795
C38   1    0.625026    0.449353    0.558170    11.00000    0.07480    0.13933 =
         0.05723   -0.00212    0.01930   -0.01410
AFIX  43
H38   2    0.673179    0.408188    0.599699    11.00000   -1.20000
AFIX   0
C39   1    0.637857    0.458756    0.484859    11.00000    0.12783    0.19170 =
         0.06708   -0.02170    0.05234   -0.05043
AFIX  43
H39   2    0.694504    0.422172    0.477191    11.00000   -1.20000
AFIX   0
C40   1    0.569229    0.520436    0.423911    11.00000    0.18923    0.12088 =
         0.05462   -0.00639    0.04116   -0.07833
AFIX  43
H40   2    0.579309    0.528121    0.375056    11.00000   -1.20000
AFIX   0
C41   1    0.485945    0.570784    0.434553    11.00000    0.17467    0.09720 =
         0.04441    0.01395    0.00430   -0.01831
AFIX  43
H41   2    0.438571    0.612202    0.392557    11.00000   -1.20000
AFIX   0
C42   1    0.470241    0.561518    0.507094    11.00000    0.10761    0.09400 =
         0.05181    0.01038   -0.00318   -0.00177
AFIX  43
H42   2    0.412480    0.595849    0.513595    11.00000   -1.20000
AFIX   0
F1    5    0.075868    0.454551    0.695138    11.00000    0.09904    0.08843 =
         0.08816   -0.01069    0.05047    0.01589
F2    5    0.028611    0.229650    0.678598    11.00000    0.12199    0.15381 =
         0.11666   -0.06009    0.07397   -0.08516
F3    5    0.155312    0.288319    0.769420    11.00000    0.11081    0.15529 =
         0.04680    0.01931    0.02803    0.00969
F4    5    0.307043    0.330211    0.607820    11.00000    0.05405    0.09981 =
         0.06381   -0.02912    0.02076   -0.00338
F5    5    0.814018    0.315953    0.728039    11.00000    0.09069    0.12592 =
         0.03991   -0.00447    0.02189    0.01225
F6    5    0.924727    0.441457    0.807574    11.00000    0.08569    0.08510 =
         0.08732    0.00410    0.05221   -0.01143
F7    5    0.925720    0.201926    0.813641    11.00000    0.10895    0.08832 =
         0.09259    0.02742    0.05327    0.05290
F8    5    0.681402    0.427803    0.895101    11.00000    0.05008    0.11991 =
         0.03740    0.00169    0.01583    0.00337
N1    3    0.112224    0.319762    0.560698    11.00000    0.04943    0.05534 =
         0.04149   -0.00814    0.01232   -0.00897
AFIX  23
H1A   2    0.138611    0.400572    0.545529    11.00000   -1.20000
H1B   2    0.052361    0.344727    0.559538    11.00000   -1.20000
AFIX   0
N2    3    0.869289    0.350188    0.938702    11.00000    0.04710    0.05850 =
         0.03618    0.00541    0.01067    0.00288
AFIX  23
H2A   2    0.843964    0.426449    0.958509    11.00000   -1.20000
H2B   2    0.927319    0.379758    0.937050    11.00000   -1.20000
AFIX   0
N3    3    0.376286    0.420514    0.787844    11.00000    0.05031    0.06629 =
         0.04569   -0.01212    0.00532   -0.00010
N4    3    0.606674    0.492158    0.714926    11.00000    0.04496    0.06945 =
         0.03731   -0.00135    0.00480   -0.00398
O1    4    0.008710    0.112766    0.472771    11.00000    0.08494    0.08348 =
         0.05298   -0.01376    0.01795   -0.04348
O2    4    0.352441    0.170402    0.755005    11.00000    0.10068    0.05588 =
         0.09963   -0.00791   -0.01759    0.02322
O3    4    0.985750    0.153066    1.022728    11.00000    0.07678    0.10664 =
         0.05573    0.01011    0.01299    0.04419
O4    4    0.613178    0.243466    0.754217    11.00000    0.07682    0.07371 =
         0.05689    0.00457    0.00263   -0.02435
S1    6    0.105808    0.182832    0.495697    11.00000    0.06120    0.05538 =
         0.04250   -0.01169    0.01479   -0.01331
S2    6    0.884449    0.204766    1.000682    11.00000    0.06144    0.05416 =
         0.04048    0.00879    0.00941    0.00818
HKLF 4

REM  20160222pyxc1_0m_a.res in P2(1)
REM R1 =  0.0487 for    5942 Fo > 4sig(Fo)  and  0.0657 for all    7497 data
REM    547 parameters refined using      1 restraints

END

WGHT      0.0730      0.2395

REM Highest difference peak  0.208,  deepest hole -0.374,  1-sigma level  0.045
Q1    1   0.1144  0.1865  0.7398  11.00000  0.05    0.21
Q2    1   0.8037  0.2047  0.7407  11.00000  0.05    0.20
Q3    1   0.1291  0.3961  0.7309  11.00000  0.05    0.18
Q4    1   0.2012  0.2022  0.7702  11.00000  0.05    0.17
Q5    1   0.0747  0.4273  0.5472  11.00000  0.05    0.16
Q6    1   1.0366  0.2165  1.0113  11.00000  0.05    0.15
Q7    1   0.7635  0.3104  0.5802  11.00000  0.05    0.15
Q8    1   0.9728  0.3061  0.8420  11.00000  0.05    0.15
Q9    1   0.2221  0.4314  0.9876  11.00000  0.05    0.14
Q10   1   0.7231  0.1699  0.6319  11.00000  0.05    0.14
Q11   1   0.8602  0.4233  0.7690  11.00000  0.05    0.14
Q12   1   0.6253  0.3112  0.9788  11.00000  0.05    0.14
Q13   1   0.6195  0.4747  0.8700  11.00000  0.05    0.14
Q14   1   0.9156  0.9601  0.9580  11.00000  0.05    0.14
Q15   1   0.9165  0.4406  0.9606  11.00000  0.05    0.14
Q16   1   0.5814  0.5612  0.9712  11.00000  0.05    0.14
Q17   1   0.1972  0.3949  0.9423  11.00000  0.05    0.13
Q18   1   0.9190  0.0586  1.1625  11.00000  0.05    0.13
Q19   1   0.0415  0.3658  0.6734  11.00000  0.05    0.13
Q20   1   0.7984  0.3800  0.5417  11.00000  0.05    0.13
;
_shelx_res_checksum              8757
_shelx_hkl_file
;
   2   0   0    7.40    0.80
   3   0   0  213.78    8.50
   4   0   0 3081.99  116.89
   5   0   0 1755.62   66.49
   6   0   0  279.47   11.20
   6   0   0  271.57   11.00
   7   0   0  156.98    6.70
   7   0   0  160.58    7.00
   8   0   0  607.74   24.10
   8   0   0  632.94   24.40
   9   0   0  392.16   15.60
   9   0   0  367.16   15.20
  10   0   0   89.19    4.60
  10   0   0   97.19    5.30
  11   0   0   66.89    3.90
  11   0   0   69.39    4.60
  12   0   0   38.30    3.60
  12   0   0   34.10    2.80
  13   0   0   45.00    4.00
  13   0   0   46.50    3.30
  14   0   0   26.00    3.60
  14   0   0   19.40    2.50
  15   0   0    6.00    2.60
  16   0   0    7.30    2.90
  17   0   0    2.50    2.60
  18   0   0   24.80    4.30
   0  -1   0    1.50    0.40
   0  -1   0    1.00    0.20
   1  -1   0  244.28    9.50
   1   1   0  225.08    9.60
  -1   1   0  251.57    9.50
   2  -1   0  174.88    6.60
   2   1   0  151.98    6.60
   3  -1   0   26.50    1.70
   3  -1   0   28.90    1.40
   3   1   0   25.30    1.40
   4  -1   0  283.17   11.30
   4  -1   0  282.77   10.90
   4   1   0  270.47   10.90
   5  -1   0  136.19    5.50
   5  -1   0  127.29    5.80
   5   1   0  129.89    5.50
   6  -1   0  115.69    5.10
   6  -1   0  120.59    5.50
   6   1   0  118.69    5.20
   7  -1   0  102.89    4.70
   7  -1   0  103.59    5.10
   7   1   0  103.29    4.80
   8  -1   0   19.90    1.70
   8  -1   0   21.10    2.30
   8   1   0   16.10    1.90
   9  -1   0    5.00    1.80
   9  -1   0    7.60    1.30
   9   1   0    5.40    1.60
  10  -1   0    1.60    1.10
  10  -1   0    2.60    1.80
  10   1   0    3.80    1.60
  10   1   0    0.60    1.20
  11  -1   0    4.50    1.90
  11  -1   0    4.60    1.40
  11   1   0    4.10    1.50
  11   1   0    6.60    1.90
  12  -1   0   39.20    3.00
  12  -1   0   39.40    3.90
  12   1   0   38.80    3.00
  12   1   0   44.60    3.80
  13  -1   0   22.10    3.20
  13  -1   0   18.40    2.30
  13   1   0   20.60    2.80
  13   1   0   15.00    2.20
  14  -1   0   23.20    3.60
  14   1   0   17.10    2.40
  14   1   0   17.50    3.10
  15  -1   0    7.60    2.90
  15   1   0    8.00    2.80
  15   1   0    8.30    2.00
  16  -1   0    7.10    3.20
  16   1   0    0.70    2.50
  16   1   0    5.30    2.80
  17  -1   0   17.00    3.80
  17   1   0   18.50    3.40
  18  -1   0   12.00    3.70
  18   1   0   11.20    3.10
   1  -2   0 8487.15  322.17
  -1  -2   0 8205.98  322.67
   1  -2   0 8752.32  323.97
  -1  -2   0 8642.94  323.17
  -1   2   0 8632.54  321.47
   2  -2   0 4301.17  155.98
   2  -2   0 4007.80  155.48
  -2   2   0 4261.67  156.18
   2   2   0 3960.70  155.58
   3  -2   0  303.17   12.30
   3  -2   0  302.77   11.70
   3   2   0  281.67   11.80
   4  -2   0 2775.32  102.69
   4  -2   0 2731.43  101.99
   4   2   0 2613.24  102.09
   5  -2   0   10.90    1.20
   5   2   0   12.00    1.30
   6  -2   0  102.19    5.20
   6  -2   0   97.79    4.40
   6   2   0   91.99    4.40
   7  -2   0   89.29    5.00
   7  -2   0   94.29    4.40
   7   2   0   93.19    4.40
   8  -2   0  474.45   18.90
   8  -2   0  487.65   19.80
   8   2   0  473.75   18.90
   9  -2   0  500.25   21.20
   9  -2   0  509.35   20.30
   9   2   0  527.25   20.40
  10  -2   0   44.00    3.00
  10  -2   0   49.99    4.50
  10   2   0   46.00    3.30
  11  -2   0   15.90    3.00
  11  -2   0   12.00    1.90
  11   2   0   15.00    2.40
  12  -2   0   26.20    2.70
  12  -2   0   20.70    3.40
  12   2   0   30.40    3.20
  13  -2   0   60.39    5.40
  13   2   0   67.39    4.40
  13   2   0   68.99    4.70
  14  -2   0   14.30    3.30
  14   2   0   11.00    2.10
  14   2   0   11.60    2.60
  15  -2   0   19.00    4.10
  15   2   0   13.60    2.40
  15   2   0   13.40    2.90
  16  -2   0   12.20    3.90
  16   2   0    5.80    2.70
  16   2   0    7.10    2.10
  17  -2   0   19.60    4.60
  17   2   0   10.90    3.40
  18  -2   0    7.20    3.60
  18   2   0    5.40    3.20
   0  -3   0    0.40    0.70
   0  -3   0   -0.20    1.00
  -1  -3   0  112.39    5.70
   1  -3   0  112.99    5.70
   1  -3   0  114.99    5.10
  -1  -3   0  115.69    5.20
  -1   3   0  120.89    4.80
   2  -3   0  376.16   16.20
   2  -3   0  384.16   15.50
  -2   3   0  413.26   15.30
   3  -3   0  257.97   10.70
   3  -3   0  271.07   11.60
   3   3   0  261.27   11.10
  -3   3   0  272.47   10.70
   4  -3   0  214.98    8.90
   4  -3   0  219.48    9.80
   4   3   0  208.78    9.20
   5  -3   0  159.18    8.00
   5  -3   0  170.58    7.20
   5   3   0  172.68    7.40
   6  -3   0   24.70    2.80
   6  -3   0   20.80    1.90
   6   3   0   25.10    2.10
   7  -3   0  145.29    7.50
   7  -3   0  144.49    6.50
   7   3   0  142.89    6.50
   8  -3   0   14.20    2.50
   8  -3   0   12.70    1.70
   8   3   0   14.00    1.70
   9  -3   0    2.40    1.80
   9  -3   0    5.60    1.30
   9   3   0    3.60    1.40
  10  -3   0    3.00    2.00
  10  -3   0    6.30    1.50
  10   3   0    3.30    1.70
  11  -3   0   21.00    2.40
  11  -3   0   14.90    3.10
  11   3   0   18.30    2.40
  12  -3   0   29.00    4.30
  12   3   0   27.90    3.10
  13  -3   0    3.30    3.10
  13   3   0    6.80    2.20
  14  -3   0   19.20    4.10
  14   3   0   12.60    2.70
  15  -3   0    8.00    3.80
  15   3   0    4.40    2.00
  15   3   0    2.50    2.70
  16  -3   0    7.30    3.90
  16   3   0   -2.00    2.40
  16   3   0    1.20    2.00
  17  -3   0    3.40    3.60
  17   3   0   -1.40    1.60
  17   3   0    0.50    3.00
  18  -3   0    2.80    4.10
   0  -4   0  561.34   23.30
   0  -4   0  583.14   22.60
   0   4   0  572.04   22.10
  -1  -4   0  369.06   17.40
  -1  -4   0  471.25   18.50
   1  -4   0  458.65   18.50
   1  -4   0  462.25   17.60
  -1   4   0  444.36   17.00
  -2  -4   0 1392.96   51.09
   2  -4   0 1295.87   51.19
   2  -4   0 1261.97   50.09
  -2   4   0 1296.87   49.70
   3  -4   0  570.64   22.20
   3  -4   0  563.84   23.30
   3   4   0  545.05   22.70
  -3   4   0  571.24   21.90
   4  -4   0  600.74   23.80
   4  -4   0  620.14   25.00
   4   4   0  600.14   24.30
   5  -4   0   18.80    1.90
   5  -4   0   16.20    2.50
   5   4   0   16.40    2.10
   6  -4   0  488.55   19.80
   6  -4   0  476.55   21.00
   6   4   0  526.15   20.30
   7  -4   0  223.98   10.00
   7  -4   0  240.78   11.40
   7   4   0  241.68   10.40
   8  -4   0   11.40    1.80
   8  -4   0   12.60    2.70
   8   4   0    9.00    1.80
   9  -4   0  101.19    5.30
   9  -4   0  104.09    6.70
   9   4   0   99.89    5.30
  10  -4   0   63.09    5.80
  10   4   0   65.89    4.30
  11  -4   0   21.70    4.10
  11   4   0   16.10    2.60
  12  -4   0   18.70    3.90
  12   4   0   23.80    3.00
  13  -4   0    0.80    2.70
  13   4   0    4.90    2.50
  14  -4   0    5.50    3.40
  14   4   0    1.60    2.30
  15  -4   0    6.00    3.70
  15   4   0    1.10    2.50
  16  -4   0    7.20    4.50
  16   4   0   -3.90    2.40
  16   4   0    2.50    2.30
  17  -4   0   -6.90    3.80
  17   4   0   -1.10    2.20
  17   4   0   -3.90    3.00
   0  -5   0   -0.20    1.00
   0  -5   0   -0.90    1.90
   0   5   0   -0.90    0.80
  -1  -5   0  199.38    9.70
   1  -5   0  194.98    8.60
   1  -5   0  182.48    9.60
  -1   5   0  192.78    7.80
   2  -5   0  280.87   12.00
  -2  -5   0  296.77   13.20
   2  -5   0  289.47   13.30
  -2   5   0  281.27   11.40
   3  -5   0    0.60    1.10
   3  -5   0    2.90    2.10
   3   5   0    3.10    1.70
  -3   5   0    2.50    0.90
   4  -5   0  758.32   29.10
   4  -5   0  708.13   30.50
   4   5   0  757.02   29.90
   5  -5   0  101.09    5.20
   5  -5   0  107.09    6.60
   5   5   0   98.49    5.80
   6  -5   0   86.09    6.10
   6  -5   0   82.19    4.50
   6   5   0   83.69    5.20
   7  -5   0   35.20    2.80
   7  -5   0   29.60    3.90
   7   5   0   40.10    3.40
   8  -5   0   41.10    3.20
   8  -5   0   44.70    4.80
   8   5   0   42.10    3.60
   9  -5   0    9.80    3.30
   9   5   0   11.80    2.50
  10  -5   0    9.00    3.10
  10   5   0    6.00    2.00
  11  -5   0   12.60    4.10
  11   5   0   12.10    2.40
  12  -5   0   -1.60    3.20
  12   5   0    3.20    2.40
  13  -5   0    3.40    4.00
  13   5   0    2.30    2.50
  14  -5   0    9.10    4.90
  14   5   0    5.60    2.90
  15  -5   0    3.30    4.00
  15   5   0   -2.10    2.50
  16  -5   0    0.40    4.60
  16   5   0    1.30    3.20
   0  -6   0  310.37   12.80
   0  -6   0  291.77   14.00
   0   6   0  285.47   11.80
   1  -6   0   82.49    5.90
   1  -6   0   79.19    4.60
  -1  -6   0   91.49    6.00
  -1   6   0   75.99    3.70
  -2  -6   0   22.00    3.40
   2  -6   0   23.10    2.50
   2  -6   0   25.70    3.70
  -2   6   0   24.50    1.80
   3  -6   0  188.88    8.60
   3  -6   0  176.28    9.90
   3   6   0  193.48    9.60
  -3   6   0  182.08    7.80
   4  -6   0   92.89    6.60
   4  -6   0   87.69    5.10
   4   6   0   94.99    6.00
   5  -6   0  119.19    7.60
   5  -6   0  111.69    5.90
   5   6   0  108.99    6.60
   6  -6   0   60.19    4.00
   6  -6   0   64.39    5.60
   6   6   0   55.49    4.80
   7  -6   0   11.90    2.10
   7  -6   0    8.30    3.00
   7   6   0   14.60    2.90
   8  -6   0   64.69    6.60
   8   6   0   62.59    4.80
   9  -6   0   96.89    7.60
   9   6   0  100.89    6.10
  10  -6   0   45.30    6.30
  10   6   0   51.29    4.70
  11  -6   0    9.00    4.10
  11   6   0    6.40    2.60
  12  -6   0   35.60    6.10
  12   6   0   31.10    3.60
  13  -6   0   15.70    5.00
  13   6   0   12.80    3.20
  14  -6   0    5.70    4.70
  14   6   0    3.10    2.90
  15  -6   0    7.90    4.70
  15   6   0    2.20    2.80
  16  -6   0    0.80    5.10
  16   6   0   -5.10    3.30
   0  -7   0    0.30    2.50
   1  -7   0   33.00    4.60
   1  -7   0   37.90    3.50
  -1  -7   0   33.40    4.40
   2  -7   0   10.50    2.40
   2  -7   0    8.40    3.20
  -2  -7   0    7.70    3.20
   3  -7   0  293.77   12.80
   3  -7   0  287.57   14.60
   3   7   0  286.17   13.80
   4  -7   0   21.20    4.20
   4  -7   0   26.00    3.00
   4   7   0   22.10    3.70
   5  -7   0  151.38    7.70
   5  -7   0  151.98    9.60
   5   7   0  153.18    8.80
   6  -7   0   21.60    4.70
   6  -7   0   22.70    2.90
   6   7   0   14.70    3.10
   7  -7   0   17.30    4.10
   7   7   0   13.60    3.20
   8  -7   0   51.39    6.40
   8   7   0   44.10    4.60
   9  -7   0   30.80    5.40
   9   7   0   19.60    3.40
  10  -7   0    4.20    3.90
  10   7   0    8.00    2.70
  11  -7   0    0.60    4.00
  11   7   0    3.10    2.40
  12  -7   0    2.00    4.10
  12   7   0    1.70    2.70
  13  -7   0    6.90    5.30
  13   7   0    0.30    2.50
  14  -7   0    5.40    4.90
  14   7   0    6.70    3.20
  15  -7   0    8.10    5.40
  15   7   0    4.80    3.70
   0  -8   0  228.18   12.80
  -1  -8   0  112.39    9.10
   1  -8   0  110.69    8.50
  -2  -8   0   10.00    4.40
   2  -8   0    7.80    2.30
   2  -8   0    4.40    3.40
   3  -8   0   36.20    3.80
   3  -8   0   44.80    6.10
   3   8   0   36.00    4.80
   4  -8   0  142.89    7.60
   4  -8   0  137.29    9.80
   4   8   0  149.88    9.20
   5  -8   0  133.19    9.60
   5  -8   0  130.39    7.10
   5   8   0  136.09    8.70
   6  -8   0   16.10    4.30
   6   8   0   17.40    3.80
   7  -8   0   10.00    4.40
   7   8   0    6.00    2.90
   8  -8   0   -2.90    3.80
   8   8   0    2.10    2.90
   9  -8   0   32.10    6.30
   9   8   0   19.60    3.90
  10  -8   0    7.40    4.40
  10   8   0   14.90    3.50
  11  -8   0    4.50    4.70
  11   8   0    3.40    2.70
  12  -8   0    3.30    5.10
  12   8   0    1.30    3.10
  13  -8   0   -0.10    5.20
  13   8   0   10.10    3.60
   0  -9   0   -3.10    3.80
  -1  -9   0   20.70    5.40
   1  -9   0   15.10    4.70
  -2  -9   0   29.90    6.20
   2  -9   0   23.10    5.20
   3  -9   0   22.00    4.90
   3   9   0   13.70    3.90
   4  -9   0   -2.30    3.90
   4   9   0    6.50    3.40
   5  -9   0   17.30    5.50
   5   9   0   17.00    3.80
   6  -9   0    4.50    4.00
   6   9   0    8.90    3.20
   7  -9   0    2.60    3.90
   7   9   0    0.60    2.70
   8  -9   0    1.90    4.50
   8   9   0    2.90    3.20
   9  -9   0    5.90    4.90
   9   9   0   -0.80    3.00
  10  -9   0   -4.10    4.10
  10   9   0   -3.30    2.50
  11  -9   0    4.70    4.80
  11   9   0    3.60    2.90
  12  -9   0    4.60    5.90
  12   9   0    0.60    3.40
   0 -10   0   28.80    7.10
  -1 -10   0    2.10    5.70
   1 -10   0    1.60    4.20
   2 -10   0    5.90    4.90
   3 -10   0    3.50    4.50
   3  10   0    9.30    3.50
   4 -10   0   12.60    5.20
   4  10   0   15.70    4.30
   5 -10   0    4.20    5.30
   5  10   0    4.00    3.10
   6 -10   0   -0.20    5.00
   6  10   0    1.90    3.30
   7 -10   0    1.40    4.60
   7  10   0    2.00    3.10
   8 -10   0   -1.30    4.50
   8  10   0    5.70    3.40
   9 -10   0   -5.30    4.50
   9  10   0   -0.40    3.40
  10 -10   0    1.60    5.50
  10  10   0   -2.30    3.10
   0 -11   0   -5.20    6.20
   1 -11   0   24.30    8.00
  -1 -11   0   21.60    7.40
   2 -11   0    4.90    6.20
   2  11   0    2.00    3.60
   3 -11   0   10.10    5.90
   3  11   0    4.50    3.80
   4 -11   0    3.20    6.00
   4  11   0    0.90    3.30
   5 -11   0   -3.40    5.50
   5  11   0   -0.20    3.20
   6 -11   0    6.20    5.50
   6  11   0   -1.60    2.90
  18   0  -1    5.00    3.10
  17   0  -1    5.80    2.70
  16   0  -1   33.10    4.30
  15   0  -1   27.10    3.70
  14   0  -1   -1.20    1.10
  14   0  -1   -1.70    1.80
  13   0  -1   25.60    2.50
  13   0  -1   26.50    3.30
  12   0  -1   17.30    2.00
  12   0  -1   19.50    2.70
  11   0  -1    2.30    1.20
  11   0  -1    2.90    1.80
  10   0  -1  183.28    8.30
  10   0  -1  180.08    7.90
   9   0  -1  100.09    5.10
   9   0  -1  100.19    4.70
   8   0  -1   25.70    1.90
   8   0  -1   31.10    2.60
   7   0  -1   24.40    2.30
   6   0  -1  256.17   10.40
   5   0  -1    9.60    1.20
   4   0  -1  931.81   35.50
   3   0  -1    3.70    0.70
  -2   0   1  103.89    4.40
   2   0  -1  101.09    4.30
  -1   0   1   -9.80    0.10
  -1   0   1   -8.90    0.10
   0   0   1   -1.30    0.10
   1   0   1   12.90    0.80
   2   0   1  340.37   13.00
   3   0   1    9.70    0.90
   3   0   1    4.60    0.60
   4   0   1   98.69    4.40
   4   0   1  101.19    4.30
   5   0   1   10.80    1.20
   5   0   1   10.60    1.10
   6   0   1   39.20    2.30
   6   0   1   42.90    2.50
   7   0   1   20.30    1.70
   7   0   1   21.80    2.00
   8   0   1    0.10    1.20
   8   0   1    0.10    0.90
   9   0   1  152.38    6.90
   9   0   1  135.69    6.50
  10   0   1   -0.60    1.60
  10   0   1    0.80    1.10
  11   0   1  261.17   11.30
  11   0   1  269.97   11.80
  12   0   1    0.50    1.20
  12   0   1    0.00    1.70
  13   0   1    3.80    1.50
  13   0   1    1.10    2.20
  14   0   1   63.39    5.20
  14   0   1   63.89    4.20
  15   0   1    7.80    2.00
  15   0   1    9.00    2.70
  16   0   1    5.60    3.00
  17   0   1    7.10    2.90
  18   0   1    7.50    3.30
  18  -1  -1    8.40    3.60
  18   1  -1    7.70    3.30
  17  -1  -1   12.40    3.60
  17   1  -1    3.80    2.70
  16  -1  -1   35.00    4.70
  16   1  -1   34.00    4.00
  15  -1  -1   36.20    4.30
  15   1  -1   33.60    3.20
  15   1  -1   34.70    3.80
  14  -1  -1    2.40    2.30
  14   1  -1    2.30    1.40
  14   1  -1    5.10    2.20
  13  -1  -1    2.20    1.30
  13  -1  -1    0.90    2.00
  13   1  -1    0.70    1.30
  13   1  -1    2.80    2.10
  12  -1  -1   60.09    3.60
  12  -1  -1   60.19    4.60
  12   1  -1   64.39    4.30
  12   1  -1   69.29    4.00
  11  -1  -1  210.68   10.00
  11  -1  -1  207.88    9.00
  11   1  -1  213.68    9.60
  10  -1  -1  152.98    6.80
  10  -1  -1  145.99    7.60
  10   1  -1  166.08    7.50
   9  -1  -1  159.78    7.60
   9  -1  -1  157.38    6.90
   9   1  -1  164.38    7.30
   8  -1  -1   53.39    3.40
   8  -1  -1   55.39    2.80
   8   1  -1   50.39    3.10
   7  -1  -1  428.76   16.90
   7  -1  -1  430.26   17.50
   7   1  -1  446.06   17.20
   6  -1  -1 1678.23   63.09
   6  -1  -1 1640.94   62.49
   6   1  -1 1645.54   62.69
   5  -1  -1  805.22   30.60
   5  -1  -1  825.82   31.10
   5   1  -1  784.42   30.70
   4  -1  -1 4833.92  178.68
   4  -1  -1 4998.60  179.98
  -4   1   1 4839.72  179.18
   4   1  -1 4302.47  178.08
   3  -1  -1 5316.67  194.18
   3  -1  -1 5416.56  195.58
   3   1  -1 4719.53  194.68
  -3   1   1 5179.98  195.28
   2  -1  -1 6772.82  253.17
  -2  -1   1 6815.12  253.57
   2  -1  -1 6888.91  252.27
   2   1  -1 6072.49  253.07
  -2   1   1 7016.30  253.67
  -1  -1   1 2417.96   83.19
   1  -1  -1 1924.71   82.89
   1  -1  -1 2401.76   82.99
   1   1  -1 1864.81   82.79
  -1   1   1 2397.26   82.89
   1  -1   1 3295.17  117.79
   1   1   1 2923.31  117.59
   2  -1   1 9999.00  359.06
   2  -1   1 9625.74  359.36
   2   1   1 8959.40  358.66
   3  -1   1 2567.74   90.99
   3  -1   1 2359.46   90.89
   3   1   1 2295.67   90.69
   4  -1   1   36.80    1.90
   4  -1   1   32.80    2.10
   4   1   1   33.30    1.80
   5  -1   1  276.57   11.40
   5  -1   1  285.87   11.20
   5   1   1  275.17   11.00
   6  -1   1  350.56   14.10
   6  -1   1  340.57   13.80
   6   1   1  349.67   13.70
   7  -1   1  336.77   13.40
   7  -1   1  338.07   13.70
   7   1   1  322.97   13.30
   8  -1   1  160.18    7.00
   8  -1   1  166.38    7.50
   8   1   1  153.48    7.00
   9  -1   1  202.88    8.80
   9  -1   1  208.58    9.50
   9   1   1  201.58    8.90
   9   1   1  211.78    9.00
  10  -1   1  155.58    7.20
  10  -1   1  144.29    7.80
  10   1   1  164.08    7.40
  10   1   1  170.48    7.40
  11  -1   1  253.37   11.40
  11  -1   1  259.67   12.00
  11   1   1  270.77   11.60
  11   1   1  282.97   11.50
  12  -1   1   55.39    3.80
  12  -1   1   58.09    4.60
  12   1   1   64.59    4.00
  12   1   1   64.09    4.60
  13  -1   1   28.80    2.90
  13  -1   1   21.30    3.30
  13   1   1   26.60    3.10
  13   1   1   23.70    2.70
  14  -1   1   26.10    3.90
  14  -1   1   23.90    2.70
  14   1   1   24.50    3.50
  14   1   1   25.90    2.90
  15  -1   1   48.90    5.20
  15   1   1   42.30    4.50
  15   1   1   41.80    3.60
  16  -1   1    5.50    3.20
  16   1   1    2.30    1.90
  16   1   1    4.90    2.80
  17  -1   1    3.40    3.20
  17   1   1    2.20    2.60
  18  -1   1    8.40    3.20
  18   1   1    4.40    2.60
  18  -2  -1    4.10    3.50
  18   2  -1    2.70    3.10
  17  -2  -1    9.60    3.50
  17   2  -1    0.70    2.50
  16  -2  -1   11.20    3.50
  16   2  -1    5.70    1.90
  16   2  -1    5.40    2.90
  15  -2  -1   17.30    3.70
  15   2  -1   14.10    3.10
  15   2  -1   15.40    2.50
  14  -2  -1   -0.70    2.50
  14   2  -1   -2.20    2.20
  14   2  -1   -0.10    1.60
  13  -2  -1   24.60    3.70
  13   2  -1   27.30    3.10
  12  -2  -1    4.00    2.20
  12  -2  -1    5.40    1.70
  12   2  -1    4.50    2.00
  11  -2  -1    1.60    1.10
  11  -2  -1   -0.70    1.70
  11   2  -1    1.00    1.60
  10  -2  -1   39.80    3.80
  10  -2  -1   43.30    2.80
  10   2  -1   48.00    3.20
   9  -2  -1   52.69    3.00
   9  -2  -1   49.50    4.10
   9   2  -1   56.69    3.30
   8  -2  -1    1.70    0.80
   8  -2  -1    0.50    1.30
   8   2  -1    2.40    1.20
   7  -2  -1   63.99    3.90
   7  -2  -1   54.79    2.90
   7   2  -1   59.99    3.20
   6  -2  -1  491.55   19.10
   6  -2  -1  504.85   20.00
   6   2  -1  482.05   19.20
   5  -2  -1  412.06   16.10
   5  -2  -1  429.26   17.00
   5   2  -1  406.76   16.30
   4  -2  -1  285.17   10.90
   4  -2  -1  273.47   11.60
  -4   2   1  291.07   11.40
   4   2  -1  264.87   11.20
   3  -2  -1  258.27   10.20
   3  -2  -1  253.47   10.90
  -3   2   1  267.47   10.50
   3   2  -1  261.47   10.60
  -2  -2   1  253.37   10.00
   2  -2  -1  262.07   10.40
   2  -2  -1  244.08    9.60
   2   2  -1  228.78   10.00
  -2   2   1  247.88    9.80
  -1  -2   1  454.75   17.80
   1  -2  -1  438.46   17.80
   1  -2  -1  445.46   17.20
  -1  -2   1  438.06   17.50
  -1   2   1  466.35   17.40
   0  -2  -1 1034.20   39.00
   0  -2   1  998.70   39.00
   1  -2   1  816.82   29.60
   1  -2   1  820.72   29.20
  -1  -2  -1  645.24   29.30
   2  -2   1  117.59    5.40
   2  -2   1  119.89    5.00
   2   2   1  106.09    5.00
   3  -2   1  144.19    5.90
   3  -2   1  135.79    6.30
   3   2   1  132.99    5.90
   4  -2   1   54.79    3.20
   4  -2   1   57.69    2.80
   4   2   1   53.49    2.80
   5  -2   1  103.29    5.20
   5  -2   1  102.29    4.70
   5   2   1  103.79    4.60
   6  -2   1  209.98    9.50
   6  -2   1  217.58    8.90
   6   2   1  208.68    8.70
   7  -2   1  115.79    5.40
   7  -2   1  119.29    6.10
   7   2   1  113.59    5.20
   8  -2   1  141.49    7.40
   8  -2   1  145.79    6.70
   8   2   1  149.79    6.50
   9  -2   1   67.99    4.60
   9  -2   1   72.29    4.00
   9   2   1   73.19    4.10
  10  -2   1   10.60    1.80
  10  -2   1    9.90    2.60
  10   2   1   10.20    1.90
  11  -2   1   18.10    2.30
  11  -2   1   21.70    3.40
  11   2   1   16.10    2.60
  12  -2   1   47.40    3.60
  12  -2   1   51.89    4.70
  12   2   1   55.89    4.00
  12   2   1   52.49    4.20
  13  -2   1   23.30    3.80
  13   2   1   28.10    3.00
  13   2   1   23.00    3.20
  14  -2   1    6.10    2.80
  14   2   1    5.60    2.00
  14   2   1    6.00    2.30
  15  -2   1   23.40    4.30
  15   2   1   16.80    2.70
  15   2   1   19.50    3.10
  16  -2   1    4.50    3.50
  16   2   1    1.50    2.00
  16   2   1    1.30    2.40
  17  -2   1    4.60    3.70
  17   2   1    6.00    3.10
  17   2   1    2.10    2.10
  18  -2   1    9.00    3.90
  18   2   1    2.90    3.10
  18  -3  -1    7.70    4.20
  18   3  -1   -0.90    3.20
  17  -3  -1   -0.80    3.70
  17   3  -1    1.90    2.20
  17   3  -1   -0.20    3.10
  16  -3  -1   -1.30    2.90
  16   3  -1   -0.50    2.80
  16   3  -1    0.90    2.00
  15  -3  -1   10.50    3.60
  15   3  -1    5.90    2.60
  14  -3  -1    4.00    2.90
  14   3  -1    5.50    2.60
  13  -3  -1    1.10    2.80
  13   3  -1    5.50    2.40
  12  -3  -1   46.90    5.00
  12   3  -1   42.60    3.60
  11  -3  -1   55.09    5.50
  11   3  -1   66.69    4.30
  10  -3  -1    7.70    1.50
  10  -3  -1    9.70    2.70
  10   3  -1   11.50    1.90
   9  -3  -1   65.49    5.00
   9  -3  -1   60.29    3.50
   9   3  -1   74.79    4.00
   8  -3  -1   59.29    4.30
   8  -3  -1   54.69    3.10
   8   3  -1   55.19    3.30
   7  -3  -1  393.06   16.20
   7  -3  -1  414.76   17.50
   7   3  -1  421.46   16.50
   6  -3  -1  802.42   32.70
   6  -3  -1  815.52   31.60
   6   3  -1  845.82   31.90
   5  -3  -1  542.75   21.90
   5  -3  -1  556.54   23.00
   5   3  -1  575.14   22.30
  -5   3   1  588.04   22.40
   4  -3  -1  447.06   17.60
   4  -3  -1  467.65   18.70
  -4   3   1  447.56   17.90
   4   3  -1  447.26   18.10
   3  -3  -1  759.72   29.30
   3  -3  -1  734.53   30.20
  -3   3   1  798.92   29.40
   3   3  -1  759.42   29.80
   2  -3  -1   39.10    2.20
   2  -3  -1   36.40    2.90
  -2  -3   1   39.30    2.40
  -2   3   1   41.80    2.20
   1  -3  -1   59.79    3.70
   1  -3  -1   62.69    3.00
  -1  -3   1   68.49    3.70
  -1  -3   1   59.29    3.20
  -1   3   1   59.69    3.00
   0  -3  -1  125.29    6.20
   0  -3   1  124.59    6.20
   0   3  -1  132.09    5.00
   1  -3   1 1230.08   46.60
  -1  -3  -1 1214.28   47.00
   1  -3   1 1173.98   47.10
  -1   3  -1 1251.77   45.90
   2  -3   1 1319.27   50.09
   2  -3   1 1270.37   49.40
   3  -3   1 1950.30   74.09
   3  -3   1 1965.90   74.89
   3   3   1 1946.91   74.39
   4  -3   1 1092.39   42.20
   4  -3   1 1092.69   41.40
   4   3   1 1052.79   41.50
   5  -3   1   67.59    3.50
   5  -3   1   66.89    4.30
   5   3   1   66.09    3.70
   6  -3   1  355.06   14.50
   6  -3   1  354.86   15.30
   6   3   1  360.96   14.50
   7  -3   1  304.47   13.20
   7  -3   1  282.57   12.10
   7   3   1  292.67   12.00
   8  -3   1   90.29    5.70
   8  -3   1   89.59    4.80
   8   3   1   96.49    4.70
   9  -3   1   46.40    3.30
   9  -3   1   47.40    4.20
   9   3   1   54.29    3.40
  10  -3   1    6.30    1.70
  10  -3   1    5.10    2.40
  10   3   1    8.00    1.90
  11  -3   1    4.00    1.70
  11  -3   1    2.10    2.20
  11   3   1    3.20    1.90
  12  -3   1   76.99    6.40
  12   3   1   95.39    5.50
  13  -3   1   37.80    5.00
  13   3   1   35.80    3.70
  14  -3   1    3.00    3.40
  14   3   1    1.20    1.40
  14   3   1    1.20    2.40
  15  -3   1   -0.30    3.40
  15   3   1    1.10    2.70
  15   3   1    1.00    2.00
  16  -3   1   24.60    5.20
  16   3   1   14.90    3.20
  16   3   1   21.90    3.20
  17  -3   1    9.50    4.20
  17   3   1    7.50    2.60
  17   3   1    5.90    3.20
  17  -4  -1    5.40    4.10
  17   4  -1    0.30    2.90
  17   4  -1    0.00    2.00
  16  -4  -1    5.30    4.00
  16   4  -1    5.60    3.30
  15  -4  -1   15.80    4.80
  15   4  -1    4.70    2.90
  14  -4  -1    0.40    3.40
  14   4  -1   -0.40    2.50
  13  -4  -1   21.10    4.50
  13   4  -1   18.90    2.80
  12  -4  -1   27.50    4.70
  12   4  -1   22.10    2.90
  11  -4  -1   13.10    3.20
  11   4  -1   12.50    2.20
  10  -4  -1   18.50    3.40
  10   4  -1   19.30    2.40
   9  -4  -1    6.50    2.40
   9  -4  -1    9.10    1.60
   9   4  -1    8.50    1.80
   8  -4  -1    6.10    1.30
   8  -4  -1    7.20    2.20
   8   4  -1    5.40    1.60
   7  -4  -1   83.79    4.30
   7  -4  -1   85.29    5.70
   7   4  -1   96.39    4.90
   6  -4  -1  198.38    8.50
   6  -4  -1  201.58   10.00
   6   4  -1  206.98    9.20
   5  -4  -1   77.19    3.90
   5  -4  -1   75.79    5.20
  -5   4   1   78.39    4.20
   5   4  -1   79.19    4.50
   4  -4  -1  526.65   20.60
   4  -4  -1  517.75   21.90
   4   4  -1  524.75   21.30
  -4   4   1  528.65   20.70
   3  -4  -1   25.30    2.00
   3  -4  -1   25.30    3.00
   3   4  -1   28.70    2.80
  -3   4   1   29.80    2.00
   2  -4  -1  211.48    9.90
   2  -4  -1  199.88    8.80
  -2  -4   1  212.08    9.20
  -2  -4   1  215.98    9.80
  -2   4   1  215.08    8.70
   1  -4  -1   71.59    4.60
  -1  -4   1   66.69    4.30
  -1  -4   1   67.99    3.80
   1  -4  -1   64.29    3.40
  -1   4   1   67.49    3.40
   0  -4   1  746.53   29.40
   0  -4  -1  721.13   29.30
   0   4  -1  729.83   27.70
   1  -4   1  469.95   20.40
  -1  -4  -1  495.55   20.40
   1  -4   1  493.45   19.70
  -1   4  -1  509.45   18.80
  -2  -4  -1  308.27   13.10
   2  -4   1  291.17   12.40
   2  -4   1  298.77   13.30
   3  -4   1  274.37   12.60
   3  -4   1  291.67   11.70
   3   4   1  274.97   12.10
   4  -4   1  215.08    9.30
   4  -4   1  213.58   10.30
   4   4   1  220.18    9.70
   5  -4   1  149.19    7.90
   5  -4   1  153.88    7.00
   5   4   1  151.78    7.20
   6  -4   1  297.17   12.60
   6  -4   1  289.27   13.60
   6   4   1  313.37   12.80
   7  -4   1   38.80    2.80
   7  -4   1   32.60    3.80
   7   4   1   40.20    3.00
   8  -4   1   27.30    2.70
   8  -4   1   25.60    3.60
   8   4   1   26.40    2.60
   9  -4   1   56.69    3.90
   9  -4   1   58.69    5.10
   9   4   1   64.99    4.00
  10  -4   1   73.89    6.00
  10  -4   1   73.69    4.60
  10   4   1   79.79    4.50
  11  -4   1   19.60    3.90
  11   4   1   12.10    2.20
  12  -4   1   23.40    4.30
  12   4   1   21.50    3.00
  13  -4   1   16.60    4.10
  13   4   1   13.10    2.80
  14  -4   1   -1.20    3.10
  14   4   1   -1.00    2.40
  15  -4   1   -0.80    3.30
  15   4   1   -0.60    2.40
  15   4   1    0.90    2.00
  16  -4   1    8.10    4.60
  16   4   1   -0.90    2.60
  16   4   1   -0.30    0.90
  17  -4   1    6.70    4.80
  17   4   1   -0.40    2.30
  17   4   1    4.30    3.40
  17  -5  -1    2.20    4.20
  17   5  -1    0.20    3.40
  16  -5  -1    1.90    4.80
  16   5  -1   -2.60    3.00
  15  -5  -1   10.00    4.90
  15   5  -1    3.70    3.10
  14  -5  -1   13.80    4.40
  14   5  -1    3.00    2.50
  13  -5  -1   31.20    5.40
  13   5  -1   43.00    4.20
  12  -5  -1    2.80    3.20
  12   5  -1    0.40    2.00
  11  -5  -1   11.00    3.40
  11   5  -1    4.80    2.10
  10  -5  -1   71.79    6.60
  10   5  -1   88.69    5.20
   9  -5  -1    7.40    2.80
   9   5  -1    7.40    2.00
   8  -5  -1   63.89    5.60
   8  -5  -1   63.49    3.80
   8   5  -1   69.79    4.50
   7  -5  -1   42.60    4.50
   7  -5  -1   46.70    3.10
   7   5  -1   49.40    3.80
   6  -5  -1  193.78   10.50
   6  -5  -1  202.08    8.80
   6   5  -1  213.48    9.70
   5  -5  -1  100.59    5.00
   5  -5  -1   95.09    6.40
  -5   5   1   98.59    5.10
   5   5  -1  104.89    5.80
   4  -5  -1    7.90    1.50
   4  -5  -1   10.50    2.60
  -4   5   1    8.10    1.40
   4   5  -1    8.60    2.10
   3  -5  -1   96.19    4.80
   3  -5  -1  101.19    6.20
   3   5  -1   93.49    5.50
  -3   5   1   91.79    4.50
   2  -5  -1  168.88    8.90
   2  -5  -1  168.78    7.60
  -2  -5   1  173.78    8.00
  -2  -5   1  181.28    8.80
  -2   5   1  164.38    7.20
  -1  -5   1  333.37   13.80
  -1  -5   1  323.57   14.60
   1  -5  -1  330.47   14.80
   1  -5  -1  328.67   13.50
  -1   5   1  320.27   13.10
   0  -5   1   73.39    5.20
   0  -5  -1   92.69    5.70
   0  -5   1   69.99    4.30
   0   5  -1   79.09    3.30
   0   5   1   77.89    4.00
   1  -5   1    7.20    1.60
  -1  -5  -1    4.70    1.90
   1  -5   1    3.90    2.00
  -1   5  -1    4.40    0.60
   2  -5   1  148.39    7.10
   2  -5   1  144.89    8.10
  -2  -5  -1  156.08    8.00
   3  -5   1  763.32   30.90
   3  -5   1  756.62   29.60
   3   5   1  736.33   30.10
   4  -5   1  127.09    6.50
   4  -5   1  141.09    7.90
   4   5   1  136.19    7.10
   5  -5   1   42.80    3.10
   5  -5   1   38.50    4.40
   5   5   1   42.40    3.50
   6  -5   1  174.78    8.40
   6  -5   1  183.88    9.80
   6   5   1  201.28    9.10
   7  -5   1  185.08   10.20
   7  -5   1  181.88    8.70
   7   5   1  200.48    9.10
   8  -5   1   25.80    4.10
   8  -5   1   25.80    2.80
   8   5   1   36.40    3.40
   9  -5   1   24.20    2.80
   9  -5   1   25.30    4.00
   9   5   1   23.20    2.80
  10  -5   1   42.50    5.50
  10   5   1   53.39    4.20
  11  -5   1   73.19    7.60
  11   5   1   85.49    5.30
  12  -5   1   19.20    4.80
  12   5   1   11.90    2.50
  13  -5   1   36.50    5.80
  13   5   1   32.00    3.80
  14  -5   1   10.40    4.50
  14   5   1    0.40    2.60
  15  -5   1    3.90    4.20
  15   5   1   -0.70    2.90
  16  -5   1    3.30    4.20
  16   5   1    1.70    2.60
  16   5   1    0.10    2.80
  16  -6  -1    7.00    4.90
  16   6  -1   -1.20    3.00
  15  -6  -1   -6.30    4.40
  15   6  -1   -2.30    2.90
  14  -6  -1   15.40    5.20
  14   6  -1    7.80    2.90
  13  -6  -1    4.60    4.40
  13   6  -1    2.60    2.50
  12  -6  -1   14.70    4.40
  12   6  -1   18.10    3.00
  11  -6  -1    0.20    3.20
  11   6  -1    0.30    2.40
  10  -6  -1    7.40    3.50
  10   6  -1    1.60    2.30
   9  -6  -1    1.70    2.80
   9   6  -1    4.90    2.30
   8  -6  -1   10.20    3.50
   8   6  -1    7.40    2.40
   7  -6  -1    3.80    1.70
   7  -6  -1    8.30    3.00
   7   6  -1    2.80    2.10
   6  -6  -1   99.79    5.20
   6  -6  -1   97.29    7.00
   6   6  -1  106.29    6.30
   5  -6  -1   52.49    5.40
   5  -6  -1   60.49    3.70
   5   6  -1   60.79    4.90
  -5   6   1   56.49    3.70
   4  -6  -1  109.49    5.60
   4  -6  -1  113.79    7.60
   4   6  -1  111.69    6.70
  -4   6   1  105.19    5.30
   3  -6  -1    4.00    1.60
   3  -6  -1    6.60    2.50
  -3   6   1    6.70    1.30
   3   6  -1    6.00    2.10
   2  -6  -1  155.38    7.40
   2  -6  -1  159.18    8.90
  -2  -6   1  162.78    8.80
  -2   6   1  153.68    6.80
   1  -6  -1   96.39    6.40
  -1  -6   1   69.99    4.70
  -1  -6   1   96.49    6.20
   1   6  -1   92.29    4.00
  -1   6   1   88.79    4.30
   0  -6   1   99.99    5.50
   0  -6  -1   98.29    6.60
   0  -6   1  110.19    6.80
   0   6   1  104.29    5.00
   0   6  -1  102.09    4.20
   1  -6   1   77.89    5.90
   1  -6   1   71.69    4.40
  -1  -6  -1   69.49    5.30
  -1   6  -1   63.99    2.90
   2  -6   1  133.59    8.10
   2  -6   1  131.59    6.80
  -2  -6  -1  145.69    8.10
   3  -6   1   46.50    3.40
   3  -6   1   42.00    4.70
   3   6   1   36.90    3.90
   4  -6   1  333.37   14.10
   4  -6   1  321.97   15.50
   4   6   1  325.77   14.80
   5  -6   1   64.89    5.60
   5  -6   1   62.89    4.30
   5   6   1   66.99    4.90
   6  -6   1   65.49    5.80
   6  -6   1   71.19    4.50
   6   6   1   66.59    5.20
   7  -6   1   12.40    2.30
   7  -6   1   11.10    3.20
   7   6   1   15.70    2.90
   8  -6   1   47.40    4.50
   8  -6   1   36.30    5.00
   8   6   1   52.69    4.30
   9  -6   1   79.59    7.30
   9   6   1   82.49    5.70
  10  -6   1   14.30    4.00
  10   6   1   11.00    2.60
  11  -6   1   10.30    4.30
  11   6   1    4.90    2.20
  12  -6   1    3.40    3.50
  12   6   1   11.00    2.70
  13  -6   1   -1.70    4.10
  13   6   1    1.10    2.30
  14  -6   1   10.80    5.20
  14   6   1    3.50    2.60
  15  -6   1    3.10    4.90
  15   6   1    1.40    2.80
  15  -7  -1    6.80    5.80
  15   7  -1    6.60    3.50
  14  -7  -1   -2.30    4.90
  14   7  -1   -1.60    3.10
  13  -7  -1    5.40    4.40
  13   7  -1   -0.90    2.60
  12  -7  -1    6.30    4.50
  12   7  -1    2.10    2.80
  11  -7  -1    2.00    4.10
  11   7  -1    7.60    2.70
  10  -7  -1   16.10    4.90
  10   7  -1   19.30    3.30
   9  -7  -1   15.20    4.10
   9   7  -1    5.10    2.60
   8  -7  -1   24.30    5.00
   8   7  -1   31.40    4.10
   7  -7  -1   41.90    5.80
   7   7  -1   61.59    5.10
   6  -7  -1  116.59    8.90
   6   7  -1  129.29    7.80
   5  -7  -1   -0.20    1.40
   5  -7  -1    0.10    2.60
   5   7  -1    3.10    2.40
   4  -7  -1   54.29    3.90
   4  -7  -1   52.49    5.80
   4   7  -1   56.79    5.00
   3  -7  -1  126.29    6.50
   3  -7  -1  132.79    8.60
   3   7  -1  118.19    7.40
   2  -7  -1  119.39    8.20
  -2  -7   1  122.59    8.00
   1  -7  -1   11.40    3.20
  -1  -7   1    9.10    3.00
   0  -7  -1   52.19    5.50
   0  -7   1   48.80    4.10
   0  -7   1   57.29    5.90
   1  -7   1  137.19    7.10
  -1  -7  -1  131.49    8.40
   1  -7   1  125.09    8.40
   1   7   1  125.39    6.30
   2  -7   1  168.98    8.50
  -2  -7  -1  180.68   10.50
   2  -7   1  170.08   10.50
   3  -7   1   82.89    5.10
   3  -7   1   77.89    6.60
   3   7   1   69.19    5.60
   4  -7   1   13.00    2.40
   4  -7   1   11.80    3.50
   4   7   1   10.00    2.90
   5  -7   1   66.89    6.70
   5  -7   1   66.99    4.70
   5   7   1   63.89    5.30
   6  -7   1   90.39    7.60
   6  -7   1   73.99    5.00
   6   7   1   70.69    5.60
   7  -7   1  121.89    8.90
   7   7   1  132.29    7.90
   8  -7   1   57.99    6.50
   8   7   1   47.70    4.90
   9  -7   1   -0.80    3.50
   9   7   1    0.90    2.20
  10  -7   1   17.20    4.60
  10   7   1    8.20    2.90
  11  -7   1   19.60    5.10
  11   7   1   16.20    3.40
  12  -7   1   13.90    4.90
  12   7   1    4.30    2.50
  13  -7   1    4.60    4.40
  13   7   1    0.30    2.80
  14  -7   1    4.00    5.40
  14   7   1    2.50    3.10
  13  -8  -1   10.00    5.40
  13   8  -1   10.00    3.50
  12  -8  -1   -3.40    4.30
  12   8  -1   -1.50    2.90
  11  -8  -1    3.60    4.90
  11   8  -1    4.10    2.70
  10  -8  -1    7.50    4.30
  10   8  -1    7.90    3.20
   9  -8  -1   22.90    5.70
   9   8  -1   22.20    4.00
   8  -8  -1    8.70    4.60
   8   8  -1    9.30    3.30
   7  -8  -1    4.20    3.90
   7   8  -1    4.70    3.00
   6  -8  -1    2.10    3.30
   6   8  -1   -1.80    2.30
   5  -8  -1   83.89    7.80
   5   8  -1   82.99    6.50
   4  -8  -1   58.49    4.40
   4  -8  -1   66.59    7.20
   4   8  -1   53.49    5.80
   3   8  -1   46.20    5.40
  -2  -8   1   79.09    7.90
   2  -8  -1   91.49    7.70
  -1  -8   1  148.89    9.90
   1  -8  -1  157.88   10.20
   0  -8  -1   27.10    5.00
   0  -8   1   33.10    5.10
   0  -8   1   40.60    4.10
   1  -8   1   35.80    5.40
  -1  -8  -1   45.00    5.90
   1  -8   1   38.60    3.90
  -2  -8  -1  101.59    8.40
   2  -8   1  117.79    8.50
   2  -8   1  106.49    6.50
   3  -8   1   51.29    6.30
   3  -8   1   57.19    4.60
   3   8   1   48.50    5.20
   4  -8   1   16.10    2.90
   4  -8   1   17.20    4.30
   4   8   1   21.10    3.90
   5  -8   1    4.40    4.00
   5  -8   1    9.20    2.40
   5   8   1    5.60    2.80
   6  -8   1   22.30    4.90
   6   8   1   21.20    3.60
   7  -8   1   -1.60    3.70
   7   8   1    5.70    2.80
   8  -8   1   20.50    4.90
   8   8   1   15.40    3.60
   9  -8   1    2.20    4.30
   9   8   1    7.00    3.20
  10  -8   1    8.10    4.40
  10   8   1    0.30    2.70
  11  -8   1   -1.40    3.90
  11   8   1   -1.30    2.50
  12  -8   1    6.40    5.20
  12   8   1    8.40    3.30
  13  -8   1    2.60    5.40
  13   8   1    1.50    2.80
  12  -9  -1    4.10    5.90
  12   9  -1    1.60    3.50
  11  -9  -1    7.20    5.30
  11   9  -1    8.10    3.50
  10  -9  -1   10.20    5.10
  10   9  -1    2.50    2.80
   9  -9  -1    6.80    5.20
   9   9  -1    0.80    3.10
   8  -9  -1    7.00    4.70
   8   9  -1   -1.10    2.60
   7  -9  -1   10.40    4.80
   7   9  -1    4.50    3.30
   6  -9  -1   26.00    6.10
   6   9  -1   22.80    4.50
   5  -9  -1   10.50    4.50
   5   9  -1   10.60    3.70
   4  -9  -1   12.10    4.70
   4   9  -1    8.70    3.80
   3  -9  -1   28.60    6.00
   3   9  -1   30.80    4.90
   2  -9  -1   59.89    7.80
  -2  -9   1   58.09    7.50
   1  -9  -1   15.20    4.70
  -1  -9   1    9.70    4.80
   0  -9  -1    3.80    4.40
   0  -9   1    4.00    3.70
  -1  -9  -1   51.59    7.30
   1  -9   1   34.90    6.20
   2  -9   1   28.80    3.70
  -2  -9  -1   40.20    6.50
   2  -9   1   41.60    6.30
   3  -9   1   26.00    5.70
   3  -9   1   16.20    3.00
   3   9   1   12.00    3.60
   4  -9   1    6.60    4.10
   4  -9   1    7.20    2.50
   4   9   1    4.60    2.90
   5  -9   1    3.40    4.40
   5   9   1    4.60    3.30
   6  -9   1    5.50    4.30
   6   9   1    4.80    3.30
   7  -9   1   11.20    4.70
   7   9   1   14.40    3.90
   8  -9   1   13.20    5.40
   8   9   1   12.40    3.60
   9  -9   1    0.70    4.30
   9   9   1   -0.10    2.90
  10  -9   1   -3.30    4.90
  10   9   1    1.60    2.70
  11  -9   1    4.10    5.50
  11   9   1    3.20    3.60
  10 -10  -1    6.10    5.40
  10  10  -1   -3.30    2.90
   9 -10  -1    2.80    5.10
   9  10  -1   -3.20    3.20
   8 -10  -1    0.00    4.50
   8  10  -1   -0.70    3.50
   7 -10  -1    0.80    5.30
   7  10  -1   -2.10    3.20
   6 -10  -1   -3.10    4.70
   6  10  -1   -1.10    2.90
   5 -10  -1    5.00    5.00
   5  10  -1    6.10    3.40
   4 -10  -1   13.00    5.50
   4  10  -1    9.60    4.10
   3 -10  -1   14.30    5.50
   3  10  -1    4.40    3.30
   2 -10  -1    7.70    5.30
   1 -10  -1    3.70    5.40
  -1 -10   1    1.40    4.60
   0 -10  -1   16.70    6.60
   0 -10   1   14.70    5.20
   1 -10   1    0.60    4.00
  -1 -10  -1    1.50    5.50
   2 -10   1    4.70    4.80
   3 -10   1    2.80    4.80
   3  10   1    4.40    3.60
   4 -10   1   -0.50    4.20
   4  10   1    2.50    3.10
   5 -10   1   12.80    5.70
   5  10   1    2.40    3.30
   6 -10   1    1.60    5.10
   6  10   1    7.20    3.30
   7 -10   1   -4.90    4.10
   7  10   1   -0.40    3.20
   8 -10   1   -3.70    4.20
   8  10   1    0.40    2.80
   9 -10   1    6.60    5.30
   9  10   1   -2.00    3.10
   7 -11  -1    4.30    6.10
   7  11  -1    3.60    3.80
   6 -11  -1   14.70    6.70
   6  11  -1   -1.90    3.50
   5 -11  -1   -4.90    5.10
   5  11  -1   -0.50    3.50
   4 -11  -1    0.20    5.60
   4  11  -1    1.90    3.50
   3 -11  -1    8.40    7.10
   3  11  -1    1.60    3.40
   2 -11  -1    7.20    7.10
   2  11  -1    4.40    3.80
  -1 -11   1    3.20    5.70
   1 -11  -1   -2.00    6.70
   0 -11   1    0.70    5.10
   0 -11  -1    0.00    7.00
   1 -11   1    9.40    5.80
  -1 -11  -1   -0.70    6.50
   2 -11   1    5.00    5.20
   2  11   1    3.60    3.40
   3 -11   1   -1.80    5.40
   3  11   1    2.80    3.70
   4 -11   1    1.70    5.00
   4  11   1   -1.50    3.70
   5 -11   1   -2.20    4.70
   5  11   1    3.70    3.80
   6 -11   1   -5.50    5.20
   6  11   1    3.90    3.90
  19   0  -2   11.00    3.70
  18   0  -2    0.60    2.60
  17   0  -2   15.60    3.60
  16   0  -2   26.80    3.80
  15   0  -2   22.40    3.30
  14   0  -2   51.19    4.60
  14   0  -2   38.40    3.00
  13   0  -2    4.20    1.40
  13   0  -2    6.10    2.10
  12   0  -2   35.80    3.40
  12   0  -2   34.10    2.50
  11   0  -2   67.19    3.70
  11   0  -2   68.99    4.40
  10   0  -2  210.88    9.00
  10   0  -2  216.88    9.50
   9   0  -2  133.09    6.40
   8   0  -2  709.23   27.70
   7   0  -2  836.82   32.30
   6   0  -2   48.10    2.70
   5   0  -2   23.50    1.70
   4   0  -2 2732.83  106.09
  -4   0   2 2863.31  105.89
   3   0  -2 7243.58  304.07
  -3   0   2 8903.01  305.47
  -2   0   2 6479.85  247.58
  -2   0   2 6657.03  248.68
   1   0  -2 3048.50  127.39
  -1   0   2 3715.23  127.49
   0   0   2  917.91   34.80
   1   0   2 1192.28   43.90
   1   0   2 1125.59   43.80
   2   0   2 2432.26   95.49
   2   0   2 2624.04   95.29
   3   0   2   77.89    3.40
   4   0   2   43.20    2.20
   5   0   2  586.94   22.70
   6   0   2    0.50    0.80
   6   0   2    0.20    0.90
   7   0   2  498.35   19.80
   7   0   2  509.05   19.90
   8   0   2   83.69    4.30
   8   0   2   81.59    4.20
   9   0   2 1567.84   58.59
   9   0   2 1485.45   58.39
  10   0   2  185.78    8.30
  10   0   2  169.58    8.00
  11   0   2   13.20    2.00
  11   0   2   10.80    2.20
  12   0   2   10.90    2.50
  12   0   2    9.50    1.90
  13   0   2   23.20    3.20
  13   0   2   17.20    2.50
  14   0   2   14.80    2.40
  14   0   2   10.90    2.70
  15   0   2   20.00    2.80
  15   0   2   20.50    3.50
  16   0   2    5.30    2.70
  17   0   2   10.10    3.20
  18   0   2   12.00    3.60
  18  -1  -2    8.60    3.60
  18   1  -2    5.60    3.10
  17  -1  -2   10.40    3.20
  17   1  -2    1.80    2.80
  16  -1  -2    2.20    2.50
  16   1  -2    3.80    2.70
  15  -1  -2    0.70    2.40
  15   1  -2    1.90    1.50
  15   1  -2    2.70    2.40
  14  -1  -2   17.40    3.00
  14   1  -2   14.10    2.10
  14   1  -2   13.80    2.80
  13  -1  -2    7.90    2.30
  13   1  -2    2.10    1.40
  13   1  -2    5.50    2.10
  12  -1  -2    3.30    1.90
  12  -1  -2    1.60    1.10
  12   1  -2    2.20    1.80
  11  -1  -2    5.40    1.90
  11  -1  -2    6.30    1.20
  11   1  -2    6.40    1.90
  10  -1  -2  133.49    5.80
  10  -1  -2  119.69    6.60
  10   1  -2  134.79    6.50
   9  -1  -2  136.69    5.90
   9  -1  -2  137.99    6.80
   9   1  -2  138.39    6.40
   8  -1  -2   56.99    2.80
   8  -1  -2   56.89    3.60
   8   1  -2   59.99    3.30
   7  -1  -2  398.96   16.00
   7  -1  -2  381.66   15.30
   7   1  -2  400.86   15.60
   6  -1  -2  109.99    5.10
   6  -1  -2   99.89    4.30
   6   1  -2  104.29    4.60
   5  -1  -2   32.40    2.10
   5  -1  -2   30.40    1.50
  -5   1   2   28.80    2.20
   5   1  -2   30.80    1.80
   4  -1  -2  326.67   11.90
   4  -1  -2  320.17   12.60
   4   1  -2  300.67   12.20
  -4   1   2  306.07   12.70
   3  -1  -2  172.78    6.20
  -3  -1   2  162.88    6.70
   3  -1  -2  165.78    6.80
  -3  -1   2  154.58    6.80
   3   1  -2  160.18    6.60
  -3   1   2  164.68    6.90
  -2  -1   2  103.69    4.50
  -2  -1   2  111.49    4.50
  -2   1   2  100.39    4.50
  -1  -1   2   69.79    2.80
   1  -1  -2   63.79    3.00
  -1  -1   2   66.49    3.00
  -1   1   2   67.79    3.10
   1   1  -2   52.99    2.80
   0  -1  -2    0.30    0.60
   0  -1   2   -0.20    0.60
   0  -1   2   -1.00    0.60
   1  -1   2    1.70    0.60
   1  -1   2    0.50    0.50
   1   1   2    0.70    0.50
   2  -1   2   78.39    3.40
   2   1   2   67.29    3.10
   3  -1   2   86.19    3.80
   3  -1   2   85.09    3.80
   3   1   2   78.19    3.50
   4  -1   2   41.70    2.40
   4  -1   2   44.90    2.40
   4   1   2   42.00    2.10
   5  -1   2   59.39    3.00
   5  -1   2   55.19    3.10
   5   1   2   56.19    2.70
   6  -1   2  126.79    5.90
   6  -1   2  128.79    5.70
   6   1   2  125.89    5.50
   7  -1   2    2.90    1.10
   7  -1   2    3.30    1.00
   7   1   2    2.90    1.20
   7   1   2    1.50    0.80
   8  -1   2   67.99    3.70
   8  -1   2   66.49    4.10
   8   1   2   67.19    3.70
   9  -1   2  214.58    9.00
   9  -1   2  200.38    9.40
   9   1   2  183.58    8.80
   9   1   2  222.08    9.10
  10  -1   2   12.70    2.30
  10  -1   2   11.80    1.90
  10   1   2   12.30    2.30
  10   1   2   16.60    2.00
  11  -1   2   -0.70    1.80
  11  -1   2    2.40    1.50
  11   1   2   -0.40    1.30
  11   1   2    0.50    1.90
  12  -1   2    0.90    2.00
  12  -1   2    2.50    1.50
  12   1   2   -2.30    1.60
  12   1   2   -0.70    1.40
  13  -1   2   11.60    2.90
  13  -1   2    5.00    1.70
  13   1   2    7.90    1.80
  13   1   2   12.30    2.70
  14  -1   2   12.70    2.30
  14  -1   2   13.70    3.20
  14   1   2   13.00    2.80
  14   1   2   15.90    2.50
  15  -1   2    1.90    2.50
  15   1   2    3.80    2.20
  15   1   2   -1.20    1.70
  16  -1   2    6.70    3.10
  16   1   2    6.70    2.50
  16   1   2    2.10    1.90
  17  -1   2    7.30    3.50
  17   1   2   10.60    3.40
  18  -2  -2    4.90    3.80
  18   2  -2    7.60    3.00
  17  -2  -2   11.00    3.90
  17   2  -2    4.90    3.20
  16  -2  -2    3.70    3.20
  16   2  -2    1.40    2.40
  16   2  -2   -1.50    1.70
  15  -2  -2    5.70    3.10
  15   2  -2    0.30    2.10
  15   2  -2    0.10    1.50
  14  -2  -2    5.30    2.50
  14   2  -2    3.50    2.20
  13  -2  -2    4.10    2.20
  13   2  -2    6.40    2.20
  12  -2  -2   11.60    2.70
  12   2  -2   12.20    2.50
  11  -2  -2   56.49    4.70
  11  -2  -2   54.49    3.20
  11   2  -2   52.69    3.80
  10  -2  -2  163.48    7.00
  10  -2  -2  163.88    8.40
  10   2  -2  157.78    7.40
   9  -2  -2  158.08    8.30
   9  -2  -2  163.28    7.20
   9   2  -2  187.38    7.60
   8  -2  -2   78.39    3.70
   8  -2  -2   77.19    4.70
   8   2  -2   81.49    4.10
   7  -2  -2  749.53   28.60
   7  -2  -2  755.52   29.70
   7   2  -2  739.23   28.90
   6  -2  -2  552.54   21.40
   6  -2  -2  563.64   22.50
   6   2  -2  563.24   21.80
  -6   2   2  560.04   22.40
   5  -2  -2  688.43   27.20
   5  -2  -2  660.93   26.20
  -5   2   2  709.33   27.10
   5   2  -2  704.13   26.70
   4  -2  -2  681.83   26.20
   4  -2  -2  653.03   25.20
   4   2  -2  654.33   25.70
  -4   2   2  671.53   25.90
  -3  -2   2  339.07   13.40
   3  -2  -2  338.47   13.70
   3  -2  -2  329.97   12.80
  -3   2   2  353.26   13.40
   3   2  -2  318.57   13.30
  -2  -2   2  198.08    8.30
   2  -2  -2  201.68    8.60
  -2   2   2  202.68    8.30
   2   2  -2  195.48    8.30
  -1  -2   2 2613.94  102.89
  -1  -2   2 2744.43  103.19
  -1   2   2 2824.82  102.99
   0  -2   2 1957.60   74.09
   0  -2   2 1946.31   73.89
  -1  -2  -2 3661.63  139.49
   1  -2   2 3731.73  139.59
   2  -2   2 1153.28   43.40
   2  -2   2 1148.89   43.10
   2   2   2 1086.69   43.00
   3  -2   2  191.78    7.90
   3  -2   2  183.98    7.60
   3   2   2  167.18    7.40
   4  -2   2  804.32   31.30
   4  -2   2  811.02   31.60
   4   2   2  816.42   31.10
   5  -2   2 1337.27   51.69
   5  -2   2 1370.96   51.29
   5   2   2 1318.57   50.99
   6  -2   2 1515.65   57.79
   6  -2   2 1507.85   57.39
   6   2   2 1483.85   56.99
   7  -2   2   72.59    4.40
   7  -2   2   76.69    4.10
   7   2   2   76.49    3.80
   8  -2   2  184.28    8.40
   8  -2   2  169.38    7.80
   8   2   2  166.28    7.40
   9  -2   2   44.30    4.10
   9  -2   2   42.60    3.10
   9   2   2   45.40    3.10
  10  -2   2  222.88   10.80
  10  -2   2  220.18   10.00
  10   2   2  230.48    9.90
  10   2   2  224.48   10.00
  11  -2   2   69.39    5.50
  11  -2   2   72.39    4.50
  11   2   2   75.09    4.70
  12  -2   2   11.30    2.20
  12  -2   2   14.70    3.30
  12   2   2   13.20    2.60
  12   2   2    4.90    1.60
  13  -2   2   17.60    3.50
  13  -2   2   13.90    2.30
  13   2   2   19.50    2.60
  13   2   2   11.70    2.50
  14  -2   2   32.40    4.60
  14   2   2   26.70    3.50
  14   2   2   25.50    3.00
  15  -2   2    4.00    3.00
  15   2   2   10.80    3.00
  15   2   2    5.60    2.20
  16  -2   2    3.80    3.30
  16   2   2   -0.30    1.90
  16   2   2    2.90    2.70
  17  -2   2   11.20    4.00
  17   2   2    7.10    2.90
  17   2   2    6.40    2.40
  18  -3  -2    6.40    4.40
  18   3  -2   -0.20    3.20
  17  -3  -2    4.40    3.60
  17   3  -2    0.40    2.00
  17   3  -2    3.10    3.10
  16  -3  -2    2.20    3.60
  16   3  -2   -0.90    2.50
  16   3  -2   -0.50    1.90
  15  -3  -2   11.30    3.90
  15   3  -2    5.60    2.80
  14  -3  -2   11.60    3.50
  14   3  -2    6.30    2.40
  13  -3  -2   25.10    4.20
  13   3  -2   16.60    2.70
  12  -3  -2   10.80    3.10
  12   3  -2    6.50    2.00
  11  -3  -2    0.60    2.00
  11   3  -2    8.50    2.00
  10  -3  -2   87.59    6.10
  10  -3  -2   91.89    4.80
  10   3  -2   92.49    4.90
   9  -3  -2   61.49    3.30
   9  -3  -2   56.59    4.80
   9   3  -2   69.69    3.90
   8  -3  -2   25.00    3.10
   8  -3  -2   22.60    1.80
   8   3  -2   26.40    2.30
   7  -3  -2  286.57   11.70
   7  -3  -2  287.97   13.10
   7   3  -2  312.07   12.30
   6  -3  -2  163.68    6.90
   6  -3  -2  162.48    8.10
   6   3  -2  172.98    7.50
  -6   3   2  172.48    7.80
   5  -3  -2   10.70    1.10
   5  -3  -2    8.10    1.80
   5   3  -2   11.40    1.50
  -5   3   2   12.40    1.70
   4  -3  -2   69.79    4.30
   4  -3  -2   72.19    3.20
  -4   3   2   71.79    3.80
   4   3  -2   72.79    3.90
   3  -3  -2  145.19    6.10
   3  -3  -2  155.58    7.20
  -3  -3   2  145.79    6.70
   3   3  -2  147.49    6.80
  -3   3   2  151.08    6.50
   2  -3  -2   92.79    4.00
   2  -3  -2   81.19    4.70
  -2  -3   2   91.79    4.40
  -2   3   2   89.89    4.20
  -1  -3   2   27.80    2.30
   1  -3  -2   27.80    2.40
  -1  -3   2   29.80    2.10
  -1   3   2   29.40    2.00
   0  -3   2  233.48   10.20
   0  -3  -2  249.78   10.60
   0  -3   2  254.67   10.60
  -1  -3  -2  332.97   14.10
   1  -3   2  347.67   13.80
   2  -3   2 1096.79   42.20
   2  -3   2 1098.19   42.70
   3  -3   2   12.40    1.60
   3  -3   2   12.40    1.90
   3   3   2   13.20    1.70
   4  -3   2   19.90    2.40
   4  -3   2   24.00    2.20
   4   3   2   26.00    2.00
   5  -3   2  323.47   13.90
   5  -3   2  318.97   13.20
   5   3   2  320.87   13.10
   6  -3   2  243.98   11.10
   6  -3   2  241.08   10.40
   6   3   2  244.78   10.20
   7  -3   2  187.28    8.40
   7  -3   2  182.68    9.00
   7   3   2  187.08    8.00
   8  -3   2   33.00    3.70
   8  -3   2   27.10    2.70
   8   3   2   35.90    2.50
   9  -3   2   64.99    4.00
   9  -3   2   61.09    5.00
   9   3   2   65.09    3.80
  10  -3   2   57.79    5.40
  10  -3   2   50.29    3.80
  10   3   2   51.69    3.70
  11  -3   2   20.10    3.50
  11  -3   2   17.90    2.50
  11   3   2   14.00    2.20
  12  -3   2   49.90    4.00
  12  -3   2   52.49    5.70
  12   3   2   53.29    4.20
  12   3   2   43.50    4.10
  13  -3   2    1.70    3.20
  13   3   2    2.60    2.00
  13   3   2    3.10    2.10
  14  -3   2    6.60    3.50
  14   3   2    6.10    2.40
  14   3   2    5.60    1.80
  15  -3   2    8.30    3.90
  15   3   2    8.90    3.00
  15   3   2    6.50    2.00
  16  -3   2    2.60    3.60
  16   3   2    1.30    2.80
  16   3   2    0.90    2.30
  17  -3   2    6.50    4.30
  17   3   2    3.70    3.10
  17   3   2    1.50    2.30
  17  -4  -2   -4.50    4.10
  17   4  -2   -1.60    2.80
  16  -4  -2    0.00    4.00
  16   4  -2    0.10    2.70
  15  -4  -2    6.00    3.60
  15   4  -2    4.40    2.90
  14  -4  -2   16.40    4.30
  14   4  -2   15.40    3.10
  13  -4  -2   62.89    6.70
  13   4  -2   61.59    4.60
  12  -4  -2    2.40    2.60
  12   4  -2    0.60    1.80
  11  -4  -2    6.20    2.70
  11   4  -2    2.50    1.70
  10  -4  -2   19.10    3.40
  10   4  -2   26.30    2.80
   9  -4  -2   65.09    5.30
   9   4  -2   65.79    4.10
   8  -4  -2    3.80    2.00
   8  -4  -2    4.70    1.10
   8   4  -2    3.90    1.50
   7  -4  -2  178.08    9.20
   7  -4  -2  171.58    7.40
  -7   4   2  178.28    8.40
   7   4  -2  182.88    8.20
   6  -4  -2  301.67   14.00
   6  -4  -2  307.97   12.50
  -6   4   2  312.27   13.20
   6   4  -2  325.67   13.30
   5  -4  -2   86.79    5.60
   5  -4  -2   92.79    4.40
  -5   4   2  103.59    5.00
   5   4  -2  104.49    5.30
   4  -4  -2    8.50    2.00
   4  -4  -2    8.60    1.20
  -4   4   2    6.70    1.30
   4   4  -2    5.20    1.50
   3  -4  -2   86.29    5.50
  -3  -4   2   91.09    4.80
   3  -4  -2   89.19    4.20
  -3   4   2   92.49    4.40
   3   4  -2   92.09    5.00
   2  -4  -2  227.38   10.40
   2  -4  -2  221.98    9.20
  -2  -4   2  230.38   10.30
  -2  -4   2  215.98    9.60
  -2   4   2  218.28    9.30
   1  -4  -2  364.76   15.60
  -1  -4   2  377.76   15.60
  -1  -4   2  361.26   14.90
  -1   4   2  356.26   14.70
   0  -4   2  264.77   12.20
   0  -4  -2  292.37   12.40
   1  -4   2  378.46   16.00
   1  -4   2  377.56   15.30
  -1  -4  -2  363.36   15.80
   2  -4   2  473.45   19.20
  -2  -4  -2  487.35   19.80
   2  -4   2  472.05   20.00
   3  -4   2  277.67   11.60
   3  -4   2  274.87   12.40
   3   4   2  271.67   11.80
   4  -4   2  279.27   11.70
   4  -4   2  272.07   12.50
   4   4   2  273.77   11.90
   5  -4   2  494.95   19.50
   5  -4   2  468.35   20.30
   5   4   2  476.85   19.50
   6  -4   2   95.29    5.20
   6  -4   2   89.29    6.00
   6   4   2  108.49    5.30
   7  -4   2  117.39    7.00
   7  -4   2  115.49    6.00
   7   4   2  124.89    5.90
   8  -4   2   63.69    4.10
   8  -4   2   67.69    5.20
   8   4   2   71.79    4.20
   9  -4   2  266.27   13.60
   9  -4   2  270.57   12.30
   9   4   2  298.57   12.10
  10  -4   2   41.00    5.00
  10  -4   2   35.10    3.50
  10   4   2   34.90    3.10
  11  -4   2   23.00    4.30
  11   4   2   15.40    2.40
  12  -4   2   33.00    4.90
  12   4   2   35.20    3.50
  13  -4   2   55.59    6.60
  13   4   2   48.10    4.30
  14  -4   2   12.90    4.20
  14   4   2   10.50    2.50
  14   4   2    8.60    2.70
  15  -4   2   10.50    4.60
  15   4   2    7.80    2.40
  15   4   2    5.10    2.70
  16  -4   2    3.20    4.40
  16   4   2    4.30    2.80
  16   4   2    1.70    2.10
  17  -5  -2    1.00    4.90
  17   5  -2    0.60    3.60
  16  -5  -2    0.10    4.60
  16   5  -2    0.10    3.30
  15  -5  -2    5.80    4.70
  15   5  -2    5.60    3.20
  14  -5  -2    8.40    4.10
  14   5  -2    5.10    2.60
  13  -5  -2   15.30    4.60
  13   5  -2   10.40    2.80
  12  -5  -2    7.00    3.50
  12   5  -2   12.10    2.50
  11  -5  -2   40.00    5.40
  11   5  -2   29.80    3.30
  10  -5  -2   12.20    3.40
  10   5  -2   17.80    2.50
   9  -5  -2    3.80    2.80
   9   5  -2    1.90    2.00
   8  -5  -2   54.19    5.10
   8   5  -2   69.19    4.60
   7  -5  -2   31.80    2.30
   7  -5  -2   32.50    4.00
  -7   5   2   36.10    3.30
   7   5  -2   27.70    3.10
   6  -5  -2   -0.40    0.90
   6  -5  -2    2.60    2.00
  -6   5   2   -1.40    1.20
   6   5  -2    3.10    1.60
   5  -5  -2   77.09    3.90
   5  -5  -2   79.29    5.60
   5   5  -2   75.49    4.80
  -5   5   2   73.29    4.20
   4  -5  -2   13.40    2.70
   4  -5  -2   21.30    1.90
   4   5  -2   15.10    2.40
  -4   5   2   20.10    2.10
  -3  -5   2    7.90    1.80
   3  -5  -2   15.90    2.70
   3  -5  -2   11.70    1.60
   3   5  -2   11.60    2.30
  -3   5   2   11.50    1.60
   2  -5  -2  306.77   14.30
  -2  -5   2  316.37   14.10
  -2  -5   2  316.37   13.40
  -2   5   2  314.77   12.90
  -1  -5   2   39.50    3.90
   1  -5  -2   36.00    3.70
  -1  -5   2   41.30    3.00
  -1   5   2   35.90    2.70
   0  -5   2  181.88    9.20
   0  -5  -2  186.58    9.30
  -1  -5  -2   57.79    4.50
   1  -5   2   46.30    3.50
   1  -5   2   51.69    4.20
   2  -5   2   56.59    4.80
  -2  -5  -2   65.49    4.60
   2  -5   2   57.69    3.90
   3  -5   2  201.48   10.20
   3  -5   2  206.88    9.20
   3   5   2  199.78    9.60
   4  -5   2   35.70    2.90
   4  -5   2   30.10    3.70
   4   5   2   31.90    3.40
   5  -5   2  276.77   12.10
   5  -5   2  288.77   13.40
   5   5   2  274.47   12.40
   6  -5   2   58.79    4.00
   6  -5   2   49.30    4.70
   6   5   2   62.09    4.10
   7  -5   2    3.20    1.70
   7  -5   2    0.70    2.30
   7   5   2    4.00    1.70
   8  -5   2   51.69    5.50
   8  -5   2   49.30    3.90
   8   5   2   52.69    3.80
   9  -5   2   11.70    2.40
   9  -5   2    7.50    2.80
   9   5   2   12.40    2.50
  10  -5   2   17.90    3.90
  10   5   2   18.80    2.70
  11  -5   2   82.89    7.90
  11   5   2   78.79    5.20
  12  -5   2   18.70    4.60
  12   5   2   10.60    2.40
  13  -5   2   -1.70    3.20
  13   5   2    0.10    2.30
  14  -5   2    6.00    4.60
  14   5   2    6.40    3.00
  15  -5   2    9.50    4.40
  15   5   2    0.80    2.90
  15   5   2    6.70    2.80
  16  -5   2    8.50    5.10
  16   5   2    5.20    3.30
  16   5   2    6.00    3.00
  16  -6  -2    3.50    5.20
  16   6  -2   -1.70    2.90
  15  -6  -2    7.80    4.90
  15   6  -2   -9.30    2.70
  14  -6  -2   26.90    5.80
  14   6  -2   30.60    3.90
  13  -6  -2   17.40    5.00
  13   6  -2   15.90    3.10
  12  -6  -2    7.80    3.90
  11  -6  -2    5.90    3.80
  11   6  -2    5.70    2.60
  10  -6  -2   28.80    5.00
  10   6  -2   19.40    3.10
   9  -6  -2   56.59    6.30
   9   6  -2   75.49    5.40
   8  -6  -2   27.80    4.30
   8   6  -2   23.20    3.20
   7  -6  -2    2.00    2.50
   7   6  -2    1.90    2.20
   6  -6  -2   16.00    3.50
   6  -6  -2   13.70    1.90
  -6   6   2   15.70    2.20
   6   6  -2   14.40    2.70
   5  -6  -2  126.59    5.90
   5  -6  -2  110.99    7.60
  -5   6   2  117.49    6.00
   5   6  -2  126.49    7.20
   4  -6  -2  199.68    8.90
   4  -6  -2  205.68   10.90
   4   6  -2  200.48   10.10
  -4   6   2  206.38    9.00
   3  -6  -2  112.89    7.50
  -3  -6   2  113.69    6.20
  -3   6   2  109.79    5.40
   3   6  -2  113.79    6.80
  -2  -6   2   60.09    5.00
   2  -6  -2   59.99    5.10
  -2  -6   2   58.89    4.10
  -2   6   2   56.19    3.40
   1  -6  -2  148.79    8.60
  -1  -6   2  158.18    8.60
  -1  -6   2  148.79    7.50
  -1   6   2  148.39    7.00
   0  -6  -2  128.19    7.80
   0  -6   2  125.99    7.70
   0   6   2  123.09    6.10
   1  -6   2   54.19    5.40
  -1  -6  -2   54.59    4.80
   1  -6   2   55.59    4.00
   2  -6   2    6.80    2.50
  -2  -6  -2    3.40    2.20
   2  -6   2    3.40    1.70
   3  -6   2  114.69    7.70
   3  -6   2  123.79    6.40
   3   6   2  117.69    6.80
   4  -6   2   81.79    5.20
   4  -6   2   88.49    6.60
   4   6   2   88.19    5.80
   5  -6   2  157.78    7.80
   5  -6   2  159.98    9.20
   5   6   2  149.69    8.20
   6  -6   2   33.10    3.40
   6  -6   2   31.00    4.30
   6   6   2   29.10    3.40
   7  -6   2   11.70    3.20
   7  -6   2    8.80    2.30
   7   6   2   10.30    2.40
   8  -6   2   76.59    6.90
   8  -6   2   79.29    5.20
   8   6   2   75.69    5.20
   9  -6   2   29.30    5.20
   9   6   2   21.60    3.00
  10  -6   2    7.90    3.60
  10   6   2    7.00    2.50
  11  -6   2    4.20    3.40
  11   6   2    5.60    2.40
  12  -6   2    5.70    3.90
  12   6   2    6.60    2.70
  13  -6   2   -1.30    4.00
  13   6   2    4.00    2.40
  14  -6   2   12.40    5.10
  15  -6   2    8.30    5.30
  15   6   2   -1.90    2.90
  15  -7  -2   -1.70    5.30
  15   7  -2   -2.00    2.80
  14  -7  -2    7.20    5.40
  14   7  -2    3.30    3.20
  13  -7  -2    6.10    4.60
  13   7  -2    5.90    3.00
  12  -7  -2   10.70    4.50
  12   7  -2   11.00    3.10
  11  -7  -2   26.40    5.80
  11   7  -2   24.50    3.60
  10  -7  -2   16.80    4.40
  10   7  -2    4.60    2.80
   9  -7  -2   20.70    4.80
   9   7  -2   15.60    3.30
   8  -7  -2    3.70    3.10
   8   7  -2    3.00    2.40
   7  -7  -2   40.00    5.50
   7   7  -2   42.50    4.70
   6  -7  -2  165.58   10.30
   6   7  -2  167.58    9.20
   5  -7  -2   22.00    4.30
   5  -7  -2   32.00    2.90
   5   7  -2   21.60    3.50
  -5   7   2   29.50    3.80
   4  -7  -2   33.90    5.00
  -4   7   2   37.00    3.20
   4   7  -2   42.60    4.50
   3  -7  -2    7.30    3.10
   3   7  -2    4.60    2.60
  -3   7   2    4.50    1.50
   2  -7  -2   36.70    4.90
  -2  -7   2   25.90    4.20
  -2  -7   2   37.30    3.80
  -2   7   2   31.40    2.60
  -1  -7   2  126.59    8.10
   1  -7  -2  123.59    8.20
  -1  -7   2  112.99    6.60
  -1   7   2  128.49    6.10
   0  -7   2   69.49    6.10
   0  -7   2   59.39    4.50
   0  -7  -2   70.99    6.10
   0   7   2   73.69    4.20
   1  -7   2   62.19    4.60
   1  -7   2   50.19    5.70
  -1  -7  -2   53.19    5.80
  -2  -7  -2  273.27   13.50
   2  -7   2  253.27   12.00
   2  -7   2  261.57   13.50
   3  -7   2    9.70    3.30
   3  -7   2    7.20    2.10
   3   7   2    9.10    2.70
   4  -7   2  110.39    6.30
   4  -7   2  109.19    8.20
   4   7   2  107.49    6.90
   5  -7   2   56.39    6.30
   5  -7   2   48.30    4.40
   5   7   2   50.09    4.90
   6  -7   2   51.19    4.40
   6  -7   2   45.20    5.60
   6   7   2   40.00    4.40
   7  -7   2   19.30    3.10
   7  -7   2   27.80    5.10
   7   7   2   28.10    3.80
   8  -7   2    3.60    3.60
   8   7   2    1.40    2.30
   9  -7   2    5.40    3.90
   9   7   2    1.60    2.40
  10  -7   2   -0.10    3.30
  10   7   2   -1.20    2.20
  11  -7   2    1.70    3.70
  11   7   2    4.80    2.40
  12  -7   2   11.80    5.00
  12   7   2    2.40    2.60
  13  -7   2   12.30    5.40
  13   7   2    7.50    2.90
  14  -7   2    1.60    5.30
  14   7   2    1.00    3.00
  14  -8  -2    9.90    6.20
  14   8  -2    4.10    3.10
  13  -8  -2   13.00    5.50
  13   8  -2    6.70    3.40
  12  -8  -2    8.00    5.10
  12   8  -2    7.00    3.30
  11  -8  -2    0.00    4.10
  11   8  -2    3.90    2.90
  10  -8  -2    5.50    4.10
  10   8  -2    7.50    2.80
   9  -8  -2    4.60    3.90
   9   8  -2   -0.60    2.30
   8  -8  -2    7.60    4.00
   8   8  -2    5.10    2.80
   7  -8  -2    9.40    4.10
   7   8  -2   12.30    3.30
   6  -8  -2   19.00    4.80
   6   8  -2   19.70    3.90
   5  -8  -2   23.60    4.90
   5   8  -2   21.20    3.80
   4  -8  -2   19.00    4.90
   4   8  -2   16.40    3.80
   3  -8  -2   12.50    4.20
   3   8  -2   16.80    3.60
   2  -8  -2    8.20    3.70
  -2  -8   2    8.00    3.60
   1  -8  -2   38.40    5.60
  -1  -8   2   28.80    5.00
  -1  -8   2   18.10    3.00
   0  -8   2   12.80    3.80
   0  -8  -2    7.20    3.80
   0  -8   2   11.80    2.80
  -1  -8  -2   20.80    4.50
   1  -8   2   15.60    4.50
   1  -8   2   12.20    2.60
   2  -8   2    8.20    2.60
  -2  -8  -2   16.30    4.70
   2  -8   2   18.20    4.60
   3  -8   2   12.90    2.80
   3  -8   2   11.20    4.00
   3   8   2   12.00    3.30
   4  -8   2   50.59    6.30
   4  -8   2   50.09    4.60
   4   8   2   41.20    5.00
   5  -8   2   26.20    5.10
   5  -8   2   25.60    3.50
   5   8   2   25.30    4.00
   6  -8   2   12.70    4.10
   6  -8   2    8.50    2.80
   6   8   2   12.80    3.30
   7  -8   2    3.20    3.50
   7   8   2    3.70    2.50
   8  -8   2   31.60    6.10
   8   8   2   33.10    4.50
   9  -8   2   16.40    5.10
   9   8   2   11.00    3.00
  10  -8   2   12.70    4.90
  10   8   2    6.80    2.80
  11  -8   2    0.60    4.10
  11   8   2   -0.20    2.80
  12  -8   2    7.10    5.30
  12   8   2    1.20    3.00
  13  -8   2    5.60    5.50
  13   8   2   -1.50    3.00
  12  -9  -2   11.50    6.50
  12   9  -2    0.70    3.30
  11  -9  -2    4.60    5.60
  11   9  -2   -4.20    2.80
  10  -9  -2    4.70    5.50
  10   9  -2   -0.30    3.10
   9  -9  -2   10.20    5.00
   9   9  -2    6.20    3.20
   8  -9  -2   12.50    5.20
   8   9  -2    5.50    3.40
   7  -9  -2   35.60    6.50
   7   9  -2   27.00    4.40
   6  -9  -2   15.70    5.20
   6   9  -2   10.40    3.50
   5  -9  -2    1.90    4.60
   5   9  -2   -0.20    2.90
   4  -9  -2    9.90    4.60
   4   9  -2    6.70    3.50
   3  -9  -2   17.70    5.70
   3   9  -2   10.80    3.90
   2  -9  -2   20.10    5.80
  -2  -9   2   16.30    4.60
   1  -9  -2    1.30    3.80
  -1  -9   2    1.40    3.70
   0  -9   2   -2.00    1.90
   0  -9   2   -1.60    3.50
   0  -9  -2   -1.40    3.80
   1  -9   2    1.60    2.30
  -1  -9  -2   -1.70    4.10
   1  -9   2    2.10    3.60
   2  -9   2   24.90    3.70
   2  -9   2   24.80    5.10
   3  -9   2    2.40    4.20
   3  -9   2    4.30    2.40
   3   9   2    3.30    3.20
   4  -9   2    6.70    4.10
   4  -9   2    0.50    2.30
   4   9   2    0.10    2.70
   5  -9   2   -0.40    4.10
   5   9   2    4.40    3.20
   6  -9   2    3.10    4.00
   6   9   2    4.30    3.20
   7  -9   2    8.40    5.10
   7   9   2    5.80    3.00
   8  -9   2    9.30    4.70
   8   9   2   -1.60    2.50
   9  -9   2    6.80    4.80
   9   9   2    4.50    3.20
  10  -9   2    3.20    4.60
  10   9   2    2.40    3.00
  11  -9   2    3.70    5.10
  11   9   2    5.40    3.20
  10 -10  -2    8.30    5.80
  10  10  -2   -1.00    3.30
   9 -10  -2    5.60    6.30
   9  10  -2    0.20    3.30
   8 -10  -2   -3.90    5.80
   8  10  -2    0.90    3.00
   7 -10  -2    6.60    5.30
   7  10  -2   -1.70    2.70
   6 -10  -2    5.30    6.00
   6  10  -2   -1.60    2.90
   5 -10  -2   17.90    6.30
   5  10  -2    6.10    3.70
   4 -10  -2    4.80    5.90
   4  10  -2    5.30    3.70
   3 -10  -2   -4.40    5.60
   3  10  -2    4.40    3.30
   2 -10  -2   -1.00    5.20
  -1 -10   2    1.40    4.30
   1 -10  -2    2.50    5.30
   0 -10   2    6.10    5.10
   0 -10  -2    9.70    6.10
   1 -10   2    9.20    4.70
  -1 -10  -2   26.40    7.20
   2 -10   2   -0.30    4.70
   2 -10   2    0.30    2.50
   3 -10   2    6.30    5.00
   3 -10   2   -0.20    2.20
   3  10   2   -1.60    2.60
   4 -10   2    4.30    4.20
   4  10   2    4.90    3.30
   5 -10   2    6.90    5.20
   5  10   2    4.70    3.60
   6 -10   2   10.10    5.50
   6  10   2   -0.60    2.90
   7 -10   2    2.80    4.70
   7  10   2    2.60    3.30
   8 -10   2   -3.50    4.10
   8  10   2   -4.40    2.90
   9 -10   2   11.30    5.90
   9  10   2    5.00    3.60
   7 -11  -2   -3.90    6.70
   7  11  -2    2.50    3.50
   6 -11  -2    5.40    6.50
   6  11  -2    6.00    4.10
   5 -11  -2   12.10    6.80
   5  11  -2    1.10    3.60
   4 -11  -2    5.40    6.60
   4  11  -2   -0.60    3.20
   3 -11  -2   11.30    7.90
   3  11  -2    2.60    4.10
   2 -11  -2   28.30    8.90
   2  11  -2    8.80    4.00
   1 -11  -2    3.10    7.40
   0 -11  -2   -2.00    6.70
   0 -11   2    2.90    5.70
   1 -11   2   -1.10    5.40
   2 -11   2   15.20    6.30
   2  11   2    8.30    4.20
   3 -11   2   11.80    5.60
   3  11   2    5.50    3.90
   4 -11   2    2.70    5.20
   4  11   2    3.70    3.90
   5 -11   2    4.50    5.10
   5  11   2    6.90    4.20
   6 -11   2   19.80    6.80
   6  11   2    8.10    4.30
  19   0  -3    8.20    3.50
  18   0  -3    5.20    2.90
  17   0  -3    3.40    2.80
  16   0  -3    7.50    2.70
  15   0  -3    2.70    2.30
  14   0  -3   11.20    2.80
  13   0  -3   -0.10    1.00
  13   0  -3    1.40    1.80
  12   0  -3    8.90    2.10
  12   0  -3    8.60    1.50
  11   0  -3   61.39    3.40
  11   0  -3   66.09    4.20
  10   0  -3    0.80    1.40
   9   0  -3   45.70    3.10
   8   0  -3    5.20    1.30
   7   0  -3  740.03   28.70
   6   0  -3   74.09    3.70
  -6   0   3   73.59    4.20
   5   0  -3  590.94   22.90
  -5   0   3  594.24   23.40
  -4   0   3  763.22   28.60
   4   0  -3  710.53   28.10
  -3   0   3  260.77   10.90
  -3   0   3  269.97   10.50
   2   0  -3   17.60    1.30
  -2   0   3   16.90    1.40
  -2   0   3   15.00    1.60
   1   0  -3   21.10    1.30
  -1   0   3   19.40    1.50
   0   0   3   10.40    0.90
   1   0   3   40.40    2.10
   1   0   3   45.20    1.80
   2   0   3    3.40    0.60
   2   0   3    2.30    0.60
   3   0   3   10.00    0.90
   3   0   3   11.40    1.20
   4   0   3   87.59    3.90
   4   0   3   88.79    4.00
   5   0   3  168.08    7.60
   5   0   3  197.28    7.60
   6   0   3  214.78    8.90
   7   0   3    1.70    0.80
   7   0   3    3.90    1.30
   8   0   3  226.78    9.70
   8   0   3  225.18    9.70
   9   0   3   39.70    2.90
   9   0   3   43.20    3.10
  10   0   3    2.00    1.50
  10   0   3    1.30    1.40
  11   0   3   40.00    3.50
  11   0   3   41.80    3.30
  12   0   3   19.10    3.00
  12   0   3   21.00    2.60
  13   0   3   28.80    3.10
  13   0   3   35.30    3.90
  14   0   3    0.00    1.60
  14   0   3    0.80    2.20
  15   0   3   -0.80    1.60
  15   0   3    5.90    2.40
  16   0   3    6.80    2.90
  17   0   3    6.80    3.10
  19  -1  -3   15.40    4.20
  19   1  -3   11.50    3.80
  18  -1  -3    7.20    3.60
  18   1  -3    8.10    3.30
  17  -1  -3   12.70    3.50
  17   1  -3   11.10    3.30
  16  -1  -3   12.60    3.20
  16   1  -3   17.60    3.40
  15  -1  -3    4.00    2.50
  15   1  -3    6.30    2.50
  14  -1  -3   13.50    2.80
  14   1  -3    8.40    2.50
  14   1  -3    9.80    1.80
  13  -1  -3   13.50    2.70
  13   1  -3   15.20    2.50
  12  -1  -3   38.00    3.80
  12  -1  -3   35.80    2.50
  12   1  -3   43.70    3.60
  11  -1  -3  191.98    9.20
  11  -1  -3  192.08    8.10
  11   1  -3  197.78    9.00
  10  -1  -3   98.29    4.60
  10  -1  -3  107.29    5.70
  10   1  -3  100.69    5.40
   9  -1  -3   33.30    1.90
   9  -1  -3   32.70    2.90
   9   1  -3   35.20    2.90
   8  -1  -3   22.90    1.40
   8  -1  -3   26.50    2.60
   8   1  -3   19.70    2.00
   7  -1  -3  907.11   35.40
   7  -1  -3  889.31   34.60
  -7   1   3  928.21   35.80
   7   1  -3  924.11   35.00
   6  -1  -3  455.45   17.50
   6  -1  -3  428.66   16.70
  -6   1   3  420.26   17.70
   6   1  -3  443.86   17.10
   5  -1  -3 1266.37   47.00
   5   1  -3 1194.58   46.60
  -5   1   3 1226.18   47.20
   4  -1  -3 3983.50  153.08
  -4  -1   3 4126.29  153.38
   4   1  -3 3973.00  153.58
  -4   1   3 4178.08  153.38
  -3  -1   3 1540.95   59.39
  -3  -1   3 1598.14   59.49
  -3   1   3 1565.64   59.59
  -2  -1   3 1051.59   41.30
   2  -1  -3 1089.69   41.30
  -2  -1   3 1090.19   41.20
  -2   1   3 1112.19   41.50
   2   1  -3 1017.60   41.10
  -2   1   3 1147.29   40.90
  -1  -1   3 2975.80  110.09
   1  -1  -3 2989.60  110.19
  -1  -1   3 2885.21  109.89
   1   1  -3 2735.33  110.09
  -1   1   3 2995.60  110.19
   0  -1   3 1791.52   69.29
   0  -1   3 1821.52   69.09
   0  -1  -3 1856.51   69.09
   0   1   3 1847.12   69.09
   1  -1   3 2974.40  106.49
   1  -1   3 2959.70  106.59
   1   1   3 2595.74  106.29
   1   1   3 2779.62  106.89
   2  -1   3  434.46   16.60
   2  -1   3  436.96   16.50
   2   1   3  422.66   16.40
   2   1   3  398.86   16.10
   3  -1   3   31.80    2.00
   3   1   3   38.40    2.00
   3   1   3   36.40    1.70
   4  -1   3  879.41   33.20
   4   1   3  867.11   32.80
   4   1   3  841.32   33.10
   5  -1   3  807.42   30.80
   5  -1   3  788.42   30.80
   5   1   3  783.62   30.70
   5   1   3  804.02   30.40
   6  -1   3  191.58    8.20
   6  -1   3  197.78    8.10
   6   1   3  181.48    8.00
   6   1   3  181.28    7.80
   7  -1   3  451.35   18.00
   7  -1   3  477.95   18.20
   7   1   3  423.26   17.70
   7   1   3  447.06   17.90
   8  -1   3  398.56   16.80
   8  -1   3  426.76   17.10
   8   1   3  419.46   16.60
   8   1   3  410.06   16.70
   9  -1   3  123.29    6.40
   9  -1   3  137.99    6.80
   9   1   3  138.19    6.40
  10  -1   3   44.60    3.20
  10  -1   3   46.10    3.60
  10   1   3   48.40    3.60
  11  -1   3   61.19    4.70
  11  -1   3   56.39    4.00
  11   1   3   64.29    4.10
  11   1   3   68.89    4.40
  12  -1   3  117.19    6.90
  12  -1   3  115.49    6.20
  12   1   3  113.99    6.20
  12   1   3  115.19    6.40
  13  -1   3    5.10    1.80
  13  -1   3    1.40    2.30
  13   1   3    3.70    1.70
  13   1   3    5.80    2.10
  14  -1   3   -0.20    1.60
  14  -1   3    1.20    2.60
  14   1   3   -0.40    1.60
  14   1   3    3.80    2.40
  15  -1   3   10.70    3.10
  15   1   3    9.80    2.30
  15   1   3    8.10    2.80
  16  -1   3    4.10    3.10
  16   1   3    0.30    1.80
  16   1   3    3.60    2.60
  17  -1   3    4.70    3.20
  17   1   3    6.40    2.90
  18  -2  -3    8.70    4.00
  18   2  -3    1.30    2.80
  17  -2  -3   -0.40    3.20
  17   2  -3    3.20    2.90
  16  -2  -3    5.80    3.40
  16   2  -3    6.80    2.60
  16   2  -3    3.40    3.00
  15  -2  -3    2.50    2.70
  15   2  -3    1.80    2.30
  14  -2  -3    8.40    2.80
  14   2  -3    4.50    2.20
  13  -2  -3    7.50    2.50
  13   2  -3   10.50    2.40
  12  -2  -3   11.60    2.70
  12   2  -3   17.90    2.50
  11  -2  -3   19.10    3.10
  11   2  -3   17.70    2.40
  10  -2  -3   27.20    1.90
  10  -2  -3   26.40    3.20
  10   2  -3   23.30    2.40
   9  -2  -3   16.80    1.40
   9  -2  -3   18.70    2.60
   9   2  -3   14.30    1.90
   8  -2  -3   76.39    4.60
   8  -2  -3   75.69    3.40
   8   2  -3   75.49    3.90
   7  -2  -3   46.10    3.30
   7  -2  -3   45.80    2.20
  -7   2   3   46.20    3.30
   7   2  -3   52.19    2.80
   6  -2  -3  103.79    4.30
   6  -2  -3  107.49    5.40
  -6   2   3  105.19    5.40
   6   2  -3  107.09    4.80
   5  -2  -3  335.07   13.90
  -5   2   3  344.17   13.90
   5   2  -3  329.27   13.40
   4  -2  -3   10.60    1.60
  -4  -2   3   10.20    1.30
   4   2  -3    6.60    1.00
  -4   2   3   10.30    1.30
   3  -2  -3  575.14   22.30
  -3  -2   3  559.74   22.10
  -3   2   3  577.04   22.20
   3   2  -3  552.04   22.00
  -2  -2   3   88.89    3.70
  -2  -2   3   79.99    4.00
  -2   2   3   86.89    4.20
   1  -2  -3   93.39    4.60
  -1  -2   3   95.99    3.90
  -1  -2   3   91.89    4.40
  -1  -2   3   95.79    4.60
   0  -2   3  435.56   17.20
   0  -2  -3  436.76   17.30
   0  -2   3  430.46   17.30
   1  -2   3  339.77   14.20
   1  -2   3  360.46   14.20
  -1  -2  -3  359.36   14.20
   2  -2   3  218.08    9.10
   2   2   3  208.68    8.70
   3  -2   3  343.97   13.90
   3  -2   3  342.77   13.70
   3   2   3  334.77   13.40
   4  -2   3   14.40    1.60
   4  -2   3   10.30    1.60
   4   2   3   13.80    1.30
   5  -2   3   45.80    3.10
   5  -2   3   42.90    2.70
   5   2   3   43.90    2.40
   6  -2   3   62.89    3.80
   6  -2   3   61.59    3.60
   6   2   3   63.19    3.20
   7  -2   3  191.58    8.50
   7  -2   3  184.18    8.80
   7   2   3  191.18    8.00
   8  -2   3    1.20    1.20
   8  -2   3   -0.90    1.40
   8   2   3    0.90    1.00
   8   2   3    0.50    1.00
   9  -2   3   36.60    3.70
   9  -2   3   35.50    3.20
   9   2   3   31.20    2.70
   9   2   3   30.30    2.80
  10  -2   3   43.20    3.50
  10  -2   3   40.00    4.20
  10   2   3   47.60    3.60
  10   2   3   44.40    3.30
  11  -2   3   28.10    3.80
  11  -2   3   24.60    2.90
  11   2   3   27.40    3.00
  11   2   3   33.30    3.20
  12  -2   3   65.39    5.30
  12  -2   3   65.59    4.40
  12   2   3   65.89    4.60
  12   2   3   51.59    4.10
  13  -2   3   16.20    3.50
  13  -2   3    6.90    2.10
  13   2   3    2.40    1.10
  13   2   3   15.30    2.70
  14  -2   3    1.40    2.60
  14   2   3    1.70    1.70
  14   2   3   -0.30    1.90
  15  -2   3    8.60    3.40
  15   2   3    1.40    1.90
  15   2   3    0.30    2.40
  16  -2   3   13.70    4.10
  16   2   3    8.20    3.00
  16   2   3    5.60    2.40
  17  -2   3   10.70    4.30
  17   2   3    8.40    2.60
  17   2   3   10.50    3.30
  18  -3  -3    2.60    4.30
  18   3  -3    0.40    2.90
  17  -3  -3    8.10    3.80
  17   3  -3    1.70    2.80
  16  -3  -3    8.70    4.00
  16   3  -3    3.10    2.70
  15  -3  -3   11.60    3.90
  15   3  -3    5.80    2.80
  14  -3  -3   18.50    3.80
  14   3  -3   14.80    2.80
  13  -3  -3   52.89    5.70
  13   3  -3   44.90    4.10
  12  -3  -3   30.60    4.20
  12   3  -3   17.10    2.50
  11  -3  -3   84.39    6.10
  11   3  -3   95.29    5.10
  10  -3  -3  217.38   11.40
  10   3  -3  249.88   10.30
   9  -3  -3   17.20    1.50
   9  -3  -3   13.60    2.60
   9   3  -3   26.50    2.30
   8  -3  -3  204.88   10.00
   8  -3  -3  194.48    8.40
  -8   3   3  215.48    9.80
   8   3  -3  225.38    9.10
   7  -3  -3   18.70    1.30
   7  -3  -3   16.50    2.60
   7   3  -3   19.90    2.00
  -7   3   3   22.80    2.60
   6  -3  -3  216.28    8.60
   6  -3  -3  213.88   10.10
   6   3  -3  236.28    9.50
  -6   3   3  215.28    9.70
   5  -3  -3  694.43   27.90
   5  -3  -3  686.63   26.50
   5   3  -3  715.03   27.30
  -5   3   3  694.03   27.40
   4  -3  -3  142.89    6.90
  -4  -3   3  132.29    6.30
  -4   3   3  139.09    6.30
   4   3  -3  137.99    6.30
   3  -3  -3  381.16   15.20
  -3  -3   3  360.76   14.70
   3   3  -3  356.96   14.70
  -3   3   3  347.97   14.60
  -2  -3   3   52.69    3.10
   2  -3  -3   54.59    3.50
  -2   3   3   50.69    3.10
  -1  -3   3  159.48    7.30
  -1  -3   3  160.28    7.10
  -1   3   3  153.48    7.00
   0  -3   3 1039.00   40.50
   0  -3   3 1047.70   40.20
   1  -3   3  719.23   29.00
  -1  -3  -3  753.32   29.00
   2  -3   3  275.67   11.60
   2  -3   3  238.48   11.10
   2   3   3  288.77   11.20
   3  -3   3  146.09    6.70
   3  -3   3  147.29    7.10
   3   3   3  143.99    6.60
   4  -3   3  226.08   10.30
   4  -3   3  240.18   10.00
   4   3   3  227.98    9.70
   5  -3   3  168.28    8.30
   5  -3   3  178.68    7.90
   5   3   3  172.68    7.50
   6  -3   3  235.78   10.40
   6  -3   3  235.88   10.90
   6   3   3  245.18   10.00
   7  -3   3  223.18   10.80
   7  -3   3  231.88   10.30
   7   3   3  241.38    9.80
   8  -3   3   44.40    4.10
   8  -3   3   45.50    3.40
   8   3   3   50.49    3.10
   9  -3   3  113.69    6.80
   9  -3   3  109.99    6.10
   9   3   3  119.99    5.70
  10  -3   3    4.20    1.80
  10  -3   3    3.80    2.20
  10   3   3    4.30    1.70
  11  -3   3   94.59    5.90
  11  -3   3  104.99    7.20
  11   3   3  109.49    6.00
  11   3   3  106.59    5.80
  12  -3   3   22.80    3.10
  12  -3   3   32.30    4.50
  12   3   3   22.50    3.00
  12   3   3   21.40    2.90
  13  -3   3   21.10    4.00
  13   3   3   12.40    2.40
  13   3   3    9.60    2.70
  14  -3   3    8.50    3.70
  14   3   3    9.00    2.40
  14   3   3    6.70    2.70
  15  -3   3   18.50    4.70
  15   3   3    5.10    2.20
  15   3   3   10.60    3.10
  16  -3   3   14.80    4.60
  16   3   3    7.10    3.10
  16   3   3    4.10    1.60
  17  -3   3    3.10    3.80
  17   3   3    4.30    2.50
  17   3   3   -0.30    2.80
  18  -4  -3    9.20    5.30
  18   4  -3    1.70    3.20
  17  -4  -3   21.30    5.50
  17   4  -3    2.30    3.40
  16  -4  -3   -2.80    3.80
  16   4  -3    1.90    2.80
  15  -4  -3    1.50    3.20
  15   4  -3    5.60    3.00
  14  -4  -3   10.00    3.50
  14   4  -3    5.00    2.70
  13  -4  -3   20.20    4.30
  13   4  -3   18.00    2.80
  12  -4  -3   15.30    3.80
  12   4  -3   16.20    2.80
  11  -4  -3    8.10    2.80
  11   4  -3    9.30    2.20
  10  -4  -3   32.60    4.20
  10   4  -3   27.50    2.80
   9  -4  -3   15.90    3.20
   9   4  -3   25.90    2.60
   8  -4  -3   37.30    2.40
   8  -4  -3   45.00    4.60
  -8   4   3   38.10    3.60
   8   4  -3   40.30    3.10
   7  -4  -3  134.09    5.70
   7  -4  -3  131.59    7.50
   7   4  -3  142.69    6.70
  -7   4   3  135.69    6.90
   6  -4  -3  142.49    7.90
   6  -4  -3  144.79    6.10
   6   4  -3  148.89    7.10
  -6   4   3  149.79    7.10
   5  -4  -3    9.00    1.00
   5  -4  -3    7.40    1.90
  -5   4   3    6.40    1.60
   5   4  -3   10.30    2.00
   4  -4  -3   84.99    5.30
  -4  -4   3   82.19    4.70
  -4   4   3   90.49    4.70
   4   4  -3   90.09    4.90
   3  -4  -3  332.87   14.50
  -3  -4   3  325.57   13.80
   3   4  -3  323.97   13.90
  -3   4   3  334.07   13.60
   2  -4  -3  102.79    6.00
  -2  -4   3  102.19    5.40
  -2  -4   3  109.59    5.90
  -2   4   3  109.99    5.30
  -1  -4   3  260.57   11.70
   1  -4  -3  259.57   11.70
  -1  -4   3  266.27   11.30
  -1   4   3  257.37   11.10
   0  -4  -3  535.75   22.90
   0  -4   3  558.24   22.90
   0  -4   3  588.04   22.50
  -1  -4  -3   53.39    3.40
   2  -4   3  363.76   15.10
   2  -4   3  363.76   15.70
   3  -4   3  168.88    7.60
   3  -4   3  155.98    8.10
   3   4   3  156.18    7.50
   4  -4   3   96.99    5.90
   4  -4   3   99.39    5.30
   4   4   3  100.19    5.30
   5  -4   3  286.17   13.40
   5  -4   3  292.97   12.70
   5   4   3  312.37   12.60
   6  -4   3   77.89    4.60
   6  -4   3   69.79    5.00
   6   4   3   82.49    4.40
   7  -4   3   65.89    5.00
   7  -4   3   58.49    4.00
   7   4   3   64.89    3.90
   8  -4   3  156.68    7.80
   8  -4   3  145.39    8.70
   8   4   3  167.48    7.40
   9  -4   3    1.70    1.70
   9  -4   3    2.30    2.40
   9   4   3    4.30    1.60
  10  -4   3   11.90    3.10
  10  -4   3    9.00    2.30
  10   4   3    5.20    1.90
  11  -4   3   89.49    5.80
  11  -4   3   83.39    6.90
  11   4   3   94.19    5.40
  12  -4   3   16.80    4.20
  12   4   3   12.40    2.50
  13  -4   3    4.90    3.70
  13   4   3   -0.20    2.20
  13   4   3   -1.30    1.90
  14  -4   3    1.80    3.80
  14   4   3   -0.60    2.20
  14   4   3   -1.30    2.40
  15  -4   3   13.00    4.80
  15   4   3   14.40    3.40
  15   4   3    8.80    2.60
  16  -4   3   13.90    5.20
  16   4   3    7.30    2.70
  16   4   3    7.60    3.40
  17  -5  -3   -2.90    4.70
  17   5  -3   -2.00    3.50
  16  -5  -3   16.80    5.60
  16   5  -3    4.50    3.50
  15  -5  -3   13.50    5.20
  15   5  -3    0.80    3.00
  14  -5  -3   10.20    4.30
  14   5  -3    6.40    2.60
  13  -5  -3    6.50    3.50
  13   5  -3    4.70    2.60
  12  -5  -3   13.20    3.90
  12   5  -3   11.60    2.70
  11  -5  -3   90.69    7.80
  11   5  -3   99.49    5.80
  10  -5  -3    9.90    3.20
  10   5  -3   12.50    2.50
   9  -5  -3   48.10    5.30
   9   5  -3   44.10    3.80
   8  -5  -3  108.39    7.20
   8   5  -3  111.29    6.20
  -8   5   3  112.89    6.30
   7  -5  -3  243.58   12.40
   7  -5  -3  238.28   10.70
   7   5  -3  278.47   11.60
  -7   5   3  247.78   11.30
   6  -5  -3  196.18    8.60
   6  -5  -3  202.08   10.80
   6   5  -3  228.28   10.10
  -6   5   3  212.88    9.50
   5  -5  -3  269.77   11.50
   5  -5  -3  281.37   13.50
   5   5  -3  300.57   12.90
  -5   5   3  295.97   12.20
  -4  -5   3  177.48    8.30
   4  -5  -3  180.58    9.20
   4   5  -3  171.08    8.40
  -4   5   3  155.88    7.60
   3  -5  -3  322.97   14.60
  -3  -5   3  318.67   13.60
   3   5  -3  306.07   13.90
  -3   5   3  319.17   13.20
  -2  -5   3  221.78   10.50
   2  -5  -3  223.38   10.70
  -2  -5   3  214.38    9.80
  -2   5   3  211.18    9.50
  -1  -5   3   23.20    3.00
   1  -5  -3   22.70    3.30
  -1  -5   3   25.40    2.70
  -1   5   3   21.00    2.30
   0  -5  -3    0.60    1.70
   0  -5   3    2.70    1.40
   0  -5   3    3.70    2.10
  -1  -5  -3  134.89    7.50
   1  -5   3  134.89    7.50
  -2  -5  -3  197.88    9.80
   2  -5   3  193.08    9.10
   2  -5   3  199.38   10.00
   3  -5   3   34.90    3.90
   3  -5   3   38.80    3.40
   3   5   3   28.40    3.30
   4  -5   3   64.39    4.20
   4  -5   3   68.39    5.30
   4   5   3   64.89    4.50
   5  -5   3  114.29    7.20
   5  -5   3  115.89    6.30
   5   5   3  118.19    6.30
   6  -5   3  137.89    7.10
   6  -5   3  127.69    7.90
   6   5   3  147.09    7.10
   7  -5   3   10.20    2.80
   7  -5   3   10.60    2.30
   7   5   3   15.80    2.30
   8  -5   3   91.79    6.90
   8  -5   3   93.49    5.70
   8   5   3   95.69    5.50
   9  -5   3   37.30    3.70
   9  -5   3   33.20    4.80
   9   5   3   32.70    3.30
  10  -5   3   56.89    4.70
  10  -5   3   64.49    6.60
  10   5   3   72.09    4.70
  11  -5   3   26.50    4.90
  11   5   3   16.60    2.70
  12  -5   3   32.60    5.30
  12   5   3   38.20    3.80
  13  -5   3   -3.70    3.60
  13   5   3    0.80    2.40
  14  -5   3    1.60    4.10
  14   5   3   -5.30    2.60
  14   5   3   -3.10    2.30
  15  -5   3    6.50    4.90
  15   5   3    3.10    2.80
  15   5   3    2.70    3.10
  16  -5   3    8.60    5.30
  16  -6  -3   10.90    5.80
  16   6  -3    0.10    3.10
  15  -6  -3   18.80    5.60
  15   6  -3   16.90    3.60
  14  -6  -3    8.60    4.40
  14   6  -3    8.30    2.80
  13  -6  -3    9.10    4.70
  13   6  -3   17.30    3.40
  12  -6  -3   -1.70    2.90
  12   6  -3    4.10    2.60
  11  -6  -3    6.80    3.60
  11   6  -3    7.10    2.40
  10  -6  -3   20.40    4.30
  10   6  -3   35.30    3.80
   9  -6  -3   14.10    3.90
   9   6  -3   14.60    2.80
   8  -6  -3   37.80    5.00
  -8   6   3   43.80    3.90
   8   6  -3   37.90    4.20
   7  -6  -3   96.89    7.20
  -7   6   3   94.39    5.70
   7   6  -3  108.89    6.50
   6  -6  -3    9.50    1.70
   6  -6  -3    8.60    2.90
   6   6  -3    7.90    2.30
  -6   6   3    6.60    1.90
   5  -6  -3   31.80    4.30
  -5   6   3   30.10    2.90
   5   6  -3   28.50    3.50
  -4  -6   3   59.59    4.50
   4  -6  -3   64.29    5.50
   4   6  -3   76.69    5.10
  -4   6   3   66.69    4.10
  -3  -6   3   79.49    4.90
   3  -6  -3   71.89    5.80
  -3   6   3   77.99    4.40
   3   6  -3   78.89    5.30
   2  -6  -3   21.90    3.50
  -2  -6   3   18.70    2.60
  -2  -6   3   14.60    3.00
  -2   6   3   20.90    2.30
  -1  -6   3   90.19    5.40
  -1  -6   3   87.39    6.10
   1  -6  -3   88.39    6.50
  -1   6   3   95.59    5.10
   0  -6  -3   57.39    5.10
   0  -6   3   46.40    3.80
   0  -6   3   53.09    4.70
   0   6   3   54.09    3.70
  -1  -6  -3   49.60    4.80
   1  -6   3   43.20    3.70
   1  -6   3   40.00    4.40
  -2  -6  -3   30.70    3.90
   2  -6   3   30.20    4.00
   2  -6   3   35.70    3.50
   3  -6   3   14.70    2.40
   3  -6   3   11.20    3.00
   3   6   3   17.00    2.90
   4  -6   3  110.69    6.40
   4  -6   3  115.79    7.70
   4   6   3  117.49    6.70
   5  -6   3    7.50    2.10
   5  -6   3   10.90    3.10
   5   6   3    8.30    2.50
   6  -6   3   14.60    2.60
   6  -6   3    5.00    2.70
   6   6   3   14.70    2.80
   7  -6   3  101.09    6.00
   7  -6   3   90.29    7.20
   7   6   3  106.19    6.10
   8  -6   3   23.20    4.20
   8  -6   3   23.50    3.20
   8   6   3   22.00    3.10
   9  -6   3   60.19    6.80
   9   6   3   68.69    4.80
  10  -6   3    5.10    3.30
  10   6   3    7.10    2.40
  11  -6   3   -1.80    3.40
  11   6   3    3.20    2.00
  12  -6   3    9.50    4.40
  12   6   3    6.90    2.70
  13  -6   3    9.70    5.00
  13   6   3   16.30    3.10
  14  -6   3   -0.20    4.60
  14   6   3    9.40    3.20
  15  -6   3   11.00    4.90
  15   6   3   -0.70    2.80
  15   6   3    1.60    2.50
  15  -7  -3   -6.10    5.00
  15   7  -3    1.50    3.40
  14  -7  -3    2.00    5.50
  14   7  -3   -0.70    3.00
  13  -7  -3    0.00    4.10
  13   7  -3   -2.10    2.20
  12  -7  -3   20.80    5.40
  12   7  -3   17.60    3.30
  11  -7  -3   17.30    4.90
  11   7  -3   29.00    3.90
  10  -7  -3    5.10    3.70
  10   7  -3    8.10    2.60
   9  -7  -3   24.10    4.80
   9   7  -3   22.40    3.50
   8  -7  -3   11.00    4.00
   8   7  -3    9.80    2.80
   7  -7  -3   53.69    6.20
   7   7  -3   66.59    5.60
  -7   7   3   48.00    4.20
   6  -7  -3   43.00    5.70
  -6   7   3   60.19    4.20
   6   7  -3   58.19    5.40
   5  -7  -3    9.10    3.40
  -5   7   3   13.80    2.20
   5   7  -3   12.80    2.90
   4  -7  -3    7.50    3.30
   4   7  -3    5.20    2.50
  -4   7   3    6.90    1.70
  -3  -7   3   51.79    4.70
   3  -7  -3   47.20    5.50
  -3   7   3   54.19    3.60
   3   7  -3   40.80    4.50
  -2  -7   3   81.19    5.50
   2  -7  -3   70.59    6.50
  -2  -7   3   89.79    6.90
  -2   7   3   76.99    4.50
  -1  -7   3   24.80    3.30
   1  -7  -3   31.10    4.50
  -1  -7   3   29.30    4.20
  -1   7   3   29.90    3.00
   0  -7  -3   29.30    4.50
   0  -7   3   36.60    4.80
   0   7   3   36.30    3.30
  -1  -7  -3   87.39    7.10
   1  -7   3   72.09    6.30
   1  -7   3   72.99    5.10
   2  -7   3   46.80    4.40
  -2  -7  -3   42.30    5.30
   2  -7   3   36.00    5.00
   3  -7   3    6.50    2.30
   3  -7   3    3.50    2.80
   3   7   3    6.10    2.40
   4  -7   3    2.40    2.80
   4  -7   3    2.90    2.00
   4   7   3    6.00    2.70
   5  -7   3   46.60    5.80
   5  -7   3   60.09    4.60
   5   7   3   48.90    4.90
   6  -7   3    7.30    2.30
   6  -7   3    6.00    3.30
   6   7   3   10.80    3.00
   7  -7   3   14.30    2.80
   7  -7   3   13.20    4.30
   7   7   3   10.20    2.80
   8  -7   3    2.90    3.60
   8   7   3    2.40    2.40
   9  -7   3    4.70    4.00
   9   7   3    1.20    2.30
  10  -7   3   16.20    4.60
  10   7   3   19.50    3.20
  11  -7   3    8.50    4.20
  11   7   3    5.00    2.40
  12  -7   3   -1.10    4.40
  12   7   3   -2.70    2.40
  13  -7   3    8.00    4.70
  13   7   3   -1.60    2.40
  14  -7   3    1.60    5.10
  14   7   3    4.50    3.30
  14  -8  -3    8.10    6.30
  14   8  -3    2.00    3.30
  13  -8  -3    4.60    5.10
  13   8  -3    2.90    2.90
  12  -8  -3   -7.70    4.60
  12   8  -3    0.80    2.70
  11  -8  -3   12.10    5.10
  11   8  -3    8.30    3.00
  10  -8  -3    9.20    5.10
  10   8  -3   11.90    3.60
   9  -8  -3    3.60    3.90
   9   8  -3    4.10    2.80
   8  -8  -3   13.90    4.70
   8   8  -3   14.50    3.40
   7  -8  -3   11.10    4.40
   7   8  -3   15.00    3.40
   6  -8  -3   58.99    7.20
   6   8  -3   43.60    5.00
   5  -8  -3   13.30    4.40
   5   8  -3   18.80    3.90
   4  -8  -3  102.09    9.00
   4   8  -3   99.39    7.20
   3  -8  -3   -1.30    3.30
   3   8  -3    3.20    2.80
   2  -8  -3  139.99   10.10
  -2  -8   3  150.28    8.30
  -2  -8   3  159.58   10.30
  -1  -8   3   36.50    5.20
  -1  -8   3   33.60    4.00
   1  -8  -3   45.10    6.00
   0  -8   3   17.90    2.90
   0  -8  -3   36.20    5.50
   0  -8   3   34.70    5.10
  -1  -8  -3   56.39    6.70
   1  -8   3   52.69    6.60
   1  -8   3   50.89    5.00
   2  -8   3   49.20    6.10
   2  -8   3   52.49    4.50
  -2  -8  -3   71.09    7.60
   3  -8   3    0.10    2.00
   3  -8   3    2.80    3.60
   3   8   3    2.00    2.50
   4  -8   3   11.00    4.20
   4  -8   3   19.00    3.20
   4   8   3   15.40    3.40
   5  -8   3  103.69    7.00
   5  -8   3  123.39    9.40
   5   8   3  121.49    8.00
   6  -8   3   12.00    4.50
   6  -8   3   10.70    2.70
   6   8   3    7.60    3.10
   7  -8   3    5.00    4.00
   7   8   3    4.20    2.90
   8  -8   3    0.00    3.50
   8   8   3   -1.50    2.20
   9  -8   3    5.30    4.10
   9   8   3    4.20    2.80
  10  -8   3    0.20    4.40
  10   8   3    2.00    2.70
  11  -8   3    3.20    4.70
  11   8   3    7.10    3.20
  12  -8   3    0.40    5.00
  12   8   3    2.80    3.00
  12  -9  -3    2.80    5.40
  12   9  -3    4.80    3.30
  11  -9  -3   -2.10    5.60
  11   9  -3    0.50    2.80
  10  -9  -3    5.10    5.10
  10   9  -3    0.50    2.80
   9  -9  -3    3.00    5.20
   9   9  -3    2.10    2.90
   8  -9  -3    6.40    4.90
   8   9  -3    2.80    3.20
   7  -9  -3   17.70    5.90
   7   9  -3   10.80    3.40
   6  -9  -3    4.00    4.30
   6   9  -3    4.60    3.20
   5  -9  -3   11.70    5.50
   5   9  -3    9.90    3.50
   4  -9  -3   -7.40    3.70
   4   9  -3   -2.70    2.60
   3  -9  -3    8.70    4.70
   3   9  -3    7.90    3.30
   2  -9  -3   13.50    4.90
  -1  -9   3   13.30    4.30
  -1  -9   3    7.70    2.80
   1  -9  -3   15.20    5.70
   0  -9   3    1.80    3.80
   0  -9   3    2.00    2.40
   0  -9  -3    3.60    5.10
   1  -9   3   -0.90    3.20
  -1  -9  -3   -2.10    4.20
   1  -9   3    1.70    2.60
   2  -9   3   15.60    3.20
   2  -9   3   10.70    4.30
   3  -9   3    9.00    2.90
   3  -9   3   12.30    4.80
   3   9   3   12.30    3.70
   4  -9   3   17.60    3.20
   4  -9   3   13.70    5.10
   4   9   3   17.10    3.80
   5  -9   3    1.20    3.70
   5  -9   3    4.30    2.60
   5   9   3    3.10    3.10
   6  -9   3    5.40    4.50
   6   9   3    3.80    2.90
   7  -9   3   12.70    4.90
   7   9   3   12.40    3.40
   8  -9   3    5.40    4.90
   8   9   3    2.10    3.10
   9  -9   3   14.30    5.00
   9   9   3    2.80    3.00
  10  -9   3    4.00    5.10
  10   9   3    4.10    2.90
  11  -9   3    6.20    5.00
  11   9   3    5.90    3.60
  10 -10  -3   -1.20    6.10
  10  10  -3   -1.90    2.90
   9 -10  -3    5.30    6.60
   9  10  -3    2.10    3.10
   8 -10  -3   10.80    6.70
   8  10  -3    4.50    3.40
   7 -10  -3    5.70    6.30
   7  10  -3    0.30    3.00
   6 -10  -3   12.60    7.00
   6  10  -3    4.90    3.40
   5 -10  -3   13.20    6.30
   5  10  -3    3.20    3.30
   4 -10  -3   12.30    6.00
   4  10  -3    7.10    3.60
   3 -10  -3    8.90    5.90
   3  10  -3    4.10    3.80
   2 -10  -3   -3.00    5.80
  -1 -10   3    4.30    4.20
   1 -10  -3    7.10    6.50
   0 -10   3    1.40    3.90
   0 -10  -3   -1.80    6.10
   0 -10   3   -0.70    2.30
   1 -10   3    4.10    4.50
  -1 -10  -3   -4.40    5.40
   1 -10   3    2.20    2.50
   2 -10   3   -0.50    2.40
   2 -10   3   10.20    5.10
   2  10   3    0.90    3.20
   3 -10   3    5.50    2.90
   3 -10   3   10.00    5.30
   3  10   3    2.60    3.20
   4 -10   3   -1.80    3.90
   4  10   3    1.20    2.90
   5 -10   3   11.10    5.20
   5  10   3   13.30    4.10
   6 -10   3    2.20    4.70
   6  10   3    6.60    3.80
   7 -10   3    3.00    5.20
   7  10   3    3.00    3.00
   8 -10   3    0.60    5.10
   8  10   3    3.60    3.40
   9  10   3    1.80    3.10
   7 -11  -3   13.40    8.30
   7  11  -3   -0.60    3.30
   6 -11  -3   -1.90    6.80
   6  11  -3   -3.60    3.60
   5 -11  -3    5.90    7.00
   5  11  -3    6.10    3.70
   4 -11  -3    0.70    6.60
   4  11  -3   -2.10    3.90
   3 -11  -3    9.80    8.00
   3  11  -3    7.30    4.00
   2 -11  -3    9.10    8.20
   2  11  -3    2.40    4.10
   1 -11  -3    7.80    7.80
   0 -11  -3   -5.00    7.80
   0 -11   3   -2.30    4.70
   1 -11   3    2.90    4.90
   2 -11   3   -1.40    5.20
   2  11   3   -1.10    3.00
   3 -11   3    4.30    5.00
   3  11   3    7.00    3.50
   4 -11   3    2.00    5.00
   4  11   3   -0.20    3.50
   5 -11   3    8.30    5.90
   5  11   3    1.70    3.80
  19   0  -4    8.60    3.50
  18   0  -4   17.30    3.60
  17   0  -4    9.50    3.30
  16   0  -4   19.90    3.30
  15   0  -4   39.90    4.20
  14   0  -4    0.20    1.90
  13   0  -4   49.00    4.40
  13   0  -4   48.80    3.10
  12   0  -4   29.50    2.30
  12   0  -4   30.30    3.40
  11   0  -4  291.87   12.70
  10   0  -4   70.99    4.40
   9   0  -4  120.09    5.80
   8   0  -4  964.60   37.30
   7   0  -4   83.39    4.20
  -7   0   4   84.39    4.80
   6   0  -4   53.09    2.90
  -6   0   4   42.40    3.10
   5   0  -4 3866.21  151.78
  -5   0   4 4143.19  151.38
  -4   0   4 8812.42  321.17
  -4   0   4 8245.67  320.57
   3   0  -4 3504.75  143.99
  -3   0   4 3907.81  143.89
  -3   0   4 4034.50  144.09
  -2   0   4 1552.14   57.89
   2   0  -4 1509.35   57.89
  -2   0   4 1529.45   58.29
   1   0  -4 3380.86  124.29
  -1   0   4 3218.68  124.19
   0   0   4 2228.68   84.09
   1   0   4  662.63   24.90
   1   0   4  657.33   25.30
   2   0   4 2377.26   90.59
   2   0   4 2422.26   90.59
   3   0   4  395.96   15.90
   3   0   4  412.16   15.60
   4   0   4 1580.84   60.59
   4   0   4 1605.04   60.29
   5   0   4 1383.26   52.39
   5   0   4 1376.46   52.69
   6   0   4  260.57   10.40
   6   0   4  245.98   10.60
   7   0   4  187.68    9.00
   7   0   4  233.98    9.10
   8   0   4  426.56   17.20
   9   0   4   76.99    4.70
   9   0   4  104.09    5.10
  10   0   4    0.00    1.30
  10   0   4   -1.10    1.50
  11   0   4    8.40    2.20
  11   0   4    5.60    1.80
  12   0   4   51.29    4.40
  12   0   4   47.20    3.90
  13   0   4   63.19    4.60
  13   0   4   70.69    5.10
  14   0   4    9.00    2.60
  14   0   4    3.70    1.90
  15   0   4   -0.40    2.00
  15   0   4   -0.80    1.70
  16   0   4    0.60    1.90
  16   0   4    8.40    3.00
  17   0   4    8.90    3.10
  19  -1  -4    9.10    3.70
  19   1  -4    0.00    3.20
  18  -1  -4    2.40    3.20
  18   1  -4    4.90    3.20
  17  -1  -4    9.10    3.20
  17   1  -4    7.10    3.10
  16  -1  -4    7.20    2.70
  16   1  -4    4.10    2.60
  15  -1  -4    3.70    2.30
  15   1  -4    4.00    2.50
  14  -1  -4   12.80    2.90
  14   1  -4    6.10    2.30
  13  -1  -4    4.40    2.00
  13   1  -4    4.60    2.20
  12  -1  -4   -0.10    1.80
  12   1  -4    4.80    1.90
  11  -1  -4   50.89    2.70
  11  -1  -4   48.10    3.90
  11   1  -4   43.10    3.60
  10  -1  -4   28.40    3.10
  10  -1  -4   28.10    1.80
  10   1  -4   26.40    2.70
   9  -1  -4   24.60    2.70
   9  -1  -4   23.80    1.50
   9   1  -4   24.90    2.40
   8  -1  -4  179.08    8.30
   8  -1  -4  182.58    7.30
  -8   1   4  188.08    8.80
   8   1  -4  184.08    7.90
   7  -1  -4  126.39    6.10
  -7   1   4  134.49    6.50
   7   1  -4  128.09    5.80
   6  -1  -4  133.59    5.70
  -6  -1   4  112.39    5.80
  -6   1   4  110.29    5.80
   6   1  -4  123.69    5.30
   5  -1  -4  223.88    9.20
  -5  -1   4  219.08    9.00
  -5   1   4  206.98    9.40
   5   1  -4  222.98    8.80
  -4  -1   4  777.12   30.10
  -4   1   4  771.52   30.50
  -4   1   4  802.02   29.60
   3  -1  -4  360.76   13.90
  -3  -1   4  347.57   13.90
  -3  -1   4  341.37   13.90
   3   1  -4  351.26   13.60
  -3   1   4  359.46   13.40
  -3   1   4  338.27   14.10
  -2  -1   4    0.00    0.70
   2  -1  -4   -0.70    0.60
  -2  -1   4   -1.10    0.70
  -2   1   4   -2.00    0.70
   2   1  -4   -0.80    0.40
  -2   1   4   -0.10    0.40
  -1  -1   4  114.69    4.90
   1  -1  -4  106.09    4.70
  -1  -1   4  108.99    4.90
  -1   1   4  114.09    4.50
   1   1  -4  102.79    4.50
   0  -1   4   30.30    2.00
   0  -1   4   32.10    1.80
   0  -1  -4   29.20    1.70
   0   1   4   32.10    1.70
   1  -1   4   59.89    3.10
   1  -1   4   59.49    2.80
   1   1   4   54.49    2.60
   1   1   4   64.79    2.80
   2  -1   4   16.30    1.30
   2  -1   4   13.60    1.50
   2   1   4   15.70    1.00
   2   1   4   17.20    1.30
   3  -1   4   32.80    2.00
   3  -1   4   36.10    2.20
   3   1   4   32.90    2.00
   3   1   4   31.40    1.60
   4  -1   4   72.99    3.60
   4  -1   4   66.19    3.70
   4   1   4   76.09    3.20
   4   1   4   73.99    3.60
   5  -1   4  136.59    6.20
   5   1   4  140.89    6.20
   5   1   4  139.99    5.80
   6  -1   4   44.20    2.80
   6   1   4   39.00    2.60
   6   1   4   41.40    2.50
   7  -1   4   53.49    3.40
   7  -1   4   55.79    3.40
   7   1   4   54.59    3.20
   7   1   4   55.09    3.10
   8  -1   4   35.70    3.10
   8  -1   4   32.80    3.00
   8   1   4   37.40    2.80
   8   1   4   34.30    2.60
   9  -1   4   14.40    2.20
   9  -1   4   12.80    2.00
   9   1   4   11.20    1.80
   9   1   4   12.30    2.00
  10  -1   4    1.80    1.70
  10  -1   4   -2.30    1.20
  10   1   4    1.60    1.50
  10   1   4   -0.40    1.60
  11  -1   4   60.69    4.60
  11  -1   4   52.89    3.90
  11   1   4   60.09    4.30
  12  -1   4   37.10    3.60
  12  -1   4   40.70    4.20
  12   1   4   38.00    3.50
  12   1   4   24.10    3.00
  13  -1   4   22.80    3.60
  13  -1   4   17.90    2.80
  13   1   4   15.80    2.50
  13   1   4   17.50    2.90
  14  -1   4    8.00    2.90
  14  -1   4    1.90    1.80
  14   1   4    6.00    2.50
  14   1   4    3.40    2.00
  15  -1   4    3.10    2.70
  15  -1   4    0.00    1.90
  15   1   4    3.10    2.00
  15   1   4    5.10    2.50
  16  -1   4    5.50    3.20
  16   1   4   -0.80    1.80
  16   1   4    5.30    2.70
  17  -1   4    8.50    3.50
  17   1   4    9.80    3.00
  17   1   4    4.70    2.30
  19  -2  -4   11.60    4.30
  19   2  -4    8.20    3.70
  18  -2  -4   11.10    4.10
  18   2  -4    6.10    3.00
  17  -2  -4    4.20    3.40
  17   2  -4    1.40    2.90
  16  -2  -4   -1.30    2.70
  16   2  -4   -3.20    2.10
  15  -2  -4    7.50    3.00
  15   2  -4    6.60    2.70
  14  -2  -4   51.19    5.30
  14   2  -4   54.89    4.70
  13  -2  -4   67.59    5.40
  13   2  -4   78.99    5.20
  12  -2  -4   10.00    2.70
  12   2  -4    8.00    2.20
  11  -2  -4    8.00    2.30
  11   2  -4   14.10    2.20
  10  -2  -4   85.19    3.80
  10  -2  -4   81.69    5.40
  10   2  -4   80.69    4.50
   9  -2  -4  172.18    7.00
   9  -2  -4  177.68    8.50
   9   2  -4  177.18    7.70
  -9   2   4  163.08    8.50
   8  -2  -4   18.00    1.20
   8  -2  -4   17.50    2.40
   8   2  -4   21.50    1.90
  -8   2   4   16.80    2.30
   7  -2  -4   12.60    0.80
   7  -2  -4   15.30    2.10
  -7   2   4   11.30    1.90
   7   2  -4   13.00    1.50
   6  -2  -4  173.68    8.10
   6   2  -4  181.38    7.60
  -6   2   4  180.28    8.20
  -5  -2   4  249.97   10.40
   5  -2  -4  239.78   10.60
  -5   2   4  264.17   10.70
   5   2  -4  239.78   10.10
  -4  -2   4  319.07   12.70
   4  -2  -4  282.67   12.90
  -4  -2   4  306.37   12.70
   4   2  -4  328.87   12.60
  -4   2   4  325.07   13.00
  -3  -2   4  164.78    7.50
  -3  -2   4  176.68    7.30
  -3   2   4  173.38    7.70
  -3   2   4  187.08    6.80
  -2  -2   4 1151.48   42.60
   2  -2  -4 1125.79   43.20
  -2  -2   4 1117.69   43.10
  -2   2   4 1146.99   43.30
   2   2  -4 1075.19   42.90
   1  -2  -4 1102.69   43.30
  -1  -2   4 1149.19   42.80
  -1  -2   4 1150.38   43.30
  -1  -2   4 1110.99   43.30
   0  -2   4 2172.38   80.89
   0  -2   4 2090.19   80.69
   0  -2  -4 2128.09   80.69
  -1  -2  -4   17.50    1.70
   1  -2   4   19.70    1.90
   1  -2   4   17.30    1.70
   2  -2   4  284.07   11.70
   2  -2   4  303.17   11.80
   2   2   4  265.47   11.30
   3  -2   4  309.07   12.70
   3   2   4  304.27   12.10
   4  -2   4  640.74   24.80
   4   2   4  611.54   24.00
   5  -2   4  306.67   12.50
   5  -2   4  287.97   12.50
   5   2   4  299.67   11.80
   6  -2   4   23.10    2.30
   6  -2   4   19.30    2.30
   6   2   4   21.80    1.70
   6   2   4   20.60    2.10
   7  -2   4  146.89    7.30
   7  -2   4  155.48    7.20
   7   2   4  145.59    6.90
   7   2   4  147.69    6.40
   8  -2   4  111.89    6.10
   8  -2   4  105.79    5.70
   8   2   4  106.89    5.60
   8   2   4  115.19    5.30
   9  -2   4  173.68    8.30
   9  -2   4  168.08    8.60
   9   2   4  181.88    8.10
   9   2   4  168.58    7.70
  10  -2   4   51.29    4.10
  10  -2   4   63.59    4.70
  10   2   4   62.49    4.10
  10   2   4   65.89    4.20
  11  -2   4   77.89    5.10
  11  -2   4   78.39    5.90
  11   2   4   78.09    5.00
  11   2   4   86.19    5.00
  12  -2   4   24.80    3.10
  12  -2   4   22.10    3.60
  12   2   4   21.60    2.80
  12   2   4   25.40    3.10
  13  -2   4    1.30    2.60
  13  -2   4    0.00    1.80
  13   2   4    0.00    2.10
  13   2   4    2.10    1.70
  14  -2   4   24.40    4.10
  14  -2   4   20.30    3.20
  14   2   4   16.20    3.00
  15  -2   4   10.40    3.70
  15   2   4    3.40    2.00
  15   2   4    5.60    2.60
  16  -2   4    1.40    3.40
  16   2   4    0.90    1.90
  16   2   4    5.00    2.70
  17  -2   4   11.40    4.40
  17   2   4    3.40    2.30
  17   2   4    6.70    3.00
  18  -3  -4    7.80    4.40
  18   3  -4   -2.60    2.80
  17  -3  -4    1.20    3.10
  17   3  -4   -3.90    2.90
  16  -3  -4    2.00    3.60
  16   3  -4    4.40    2.60
  15  -3  -4   -0.20    3.00
  15   3  -4    0.80    2.30
  14  -3  -4   -2.40    2.30
  14   3  -4   -0.80    2.40
  13  -3  -4    5.90    2.80
  13   3  -4    2.40    2.00
  12  -3  -4    2.80    2.30
  12   3  -4    2.80    1.80
  11  -3  -4   27.70    3.70
  11   3  -4   29.00    3.00
  10  -3  -4    0.40    1.80
  10   3  -4    0.00    1.60
   9  -3  -4   58.09    4.80
  -9   3   4   60.69    4.50
   9   3  -4   70.79    3.90
   8  -3  -4   72.79    4.90
   8   3  -4   73.19    4.00
  -8   3   4   70.69    4.70
   7  -3  -4  165.08    8.40
  -7   3   4  174.18    8.20
   7   3  -4  173.28    7.70
   6  -3  -4   62.19    4.20
  -6   3   4   63.89    3.90
   6   3  -4   60.89    3.50
  -5  -3   4   77.39    4.20
   5  -3  -4   80.29    4.80
  -5   3   4   73.69    4.30
   5   3  -4   82.19    4.10
   4  -3  -4   86.99    4.90
  -4  -3   4   85.09    4.50
   4   3  -4   87.49    4.50
  -4   3   4   91.29    4.70
   3  -3  -4   58.89    4.00
  -3  -3   4   78.19    4.10
  -3   3   4   82.29    4.10
   3   3  -4   77.09    4.00
  -2  -3   4  171.08    6.80
  -2  -3   4  168.18    7.50
  -2   3   4  163.58    7.60
  -1  -3   4  525.35   19.20
  -1  -3   4  503.25   20.30
  -1  -3   4  497.45   20.10
   1  -3  -4  483.45   20.30
   0  -3  -4   33.00    2.70
   0  -3   4   41.10    2.70
   0  -3   4   31.40    2.60
   0  -3   4   36.60    1.80
  -1  -3  -4  219.48    9.50
   1  -3   4  203.48    9.50
   1  -3   4  221.98    9.40
   2  -3   4   79.09    4.50
   2   3   4   75.89    4.00
   3  -3   4   17.10    2.10
   3  -3   4   29.70    2.60
   3   3   4   26.10    2.10
   4  -3   4  191.78    8.30
   4  -3   4  182.08    8.60
   4   3   4  174.98    7.80
   5  -3   4    4.40    1.50
   5  -3   4    6.90    1.80
   5   3   4    5.90    1.20
   6  -3   4   25.40    2.90
   6  -3   4   23.50    2.50
   6   3   4   29.60    2.20
   7  -3   4   46.30    3.40
   7  -3   4   41.40    3.70
   7   3   4   45.40    2.80
   8  -3   4  107.49    6.60
   8  -3   4  116.49    6.20
   8   3   4  121.09    5.50
   9  -3   4   37.20    4.10
   9  -3   4   28.30    3.10
   9   3   4   26.10    3.10
   9   3   4   31.20    2.80
  10  -3   4   41.60    4.60
  10  -3   4   32.10    3.50
  10   3   4   31.50    3.40
  10   3   4   34.40    3.20
  11  -3   4   46.10    5.10
  11  -3   4   44.20    4.30
  11   3   4   48.90    4.10
  11   3   4   42.80    3.80
  12  -3   4   12.90    3.40
  12  -3   4   12.20    2.70
  12   3   4   18.20    2.90
  12   3   4   10.90    2.50
  13  -3   4    5.50    3.00
  13  -3   4    7.40    3.70
  13   3   4    2.70    2.40
  13   3   4    6.20    2.20
  14  -3   4   10.40    3.90
  14   3   4    6.30    2.70
  14   3   4    3.80    2.10
  15  -3   4   14.30    4.50
  15   3   4    9.40    2.70
  15   3   4    6.80    2.50
  16  -3   4   16.90    4.80
  16   3   4    7.10    2.40
  16   3   4    8.20    3.20
  18  -4  -4    7.80    5.10
  18   4  -4   -4.00    3.50
  17  -4  -4    9.50    5.00
  17   4  -4   -0.10    3.00
  16  -4  -4   12.60    4.40
  16   4  -4    1.00    3.00
  15  -4  -4   29.80    5.50
  15   4  -4   28.40    4.00
  14  -4  -4   23.70    4.90
  14   4  -4   19.50    3.10
  13  -4  -4    2.10    2.60
  13   4  -4    5.20    2.50
  12  -4  -4    7.70    3.00
  12   4  -4   11.70    2.30
  11  -4  -4   85.79    7.00
  11   4  -4  104.69    5.60
  10  -4  -4  151.38    9.00
  10   4  -4  164.28    7.70
   9  -4  -4  199.38   10.60
  -9   4   4  199.88   10.10
   9   4  -4  221.68    9.50
   8  -4  -4  312.97   14.90
  -8   4   4  312.67   14.20
   8   4  -4  346.07   13.80
   7  -4  -4   45.00    4.20
  -7   4   4   46.20    3.60
   7   4  -4   49.70    3.60
   6  -4  -4  275.77   13.10
  -6   4   4  288.77   12.40
   6   4  -4  292.47   12.30
   5  -4  -4  394.86   17.20
  -5  -4   4  406.56   16.60
   5   4  -4  397.16   16.50
  -5   4   4  397.76   16.50
  -4  -4   4  726.33   29.30
   4  -4  -4  735.03   29.90
   4   4  -4  770.02   29.40
  -4   4   4  727.63   29.20
  -3  -4   4  529.45   21.80
   3  -4  -4  543.95   22.40
   3   4  -4  538.85   21.90
  -3   4   4  550.34   21.70
  -2  -4   4  333.07   14.00
  -2  -4   4  361.76   14.60
   2  -4  -4  307.17   14.40
  -2   4   4  332.67   14.00
  -1  -4   4  300.37   13.30
  -1  -4   4  307.97   13.00
   0  -4  -4   93.89    5.70
   0  -4   4  106.09    5.80
   0  -4   4  112.79    5.50
   1  -4   4  119.79    6.60
  -1  -4  -4  127.59    6.50
   1  -4   4  123.99    6.20
   2  -4   4  506.25   21.00
   3  -4   4   75.49    5.10
   3  -4   4   80.69    4.70
   3   4   4   84.19    4.60
   4  -4   4  160.48    8.20
   4  -4   4  153.68    7.60
   4   4   4  160.48    7.40
   5  -4   4    5.00    1.90
   5  -4   4   11.50    2.10
   5   4   4   10.20    1.70
   6  -4   4  217.98    9.90
   6  -4   4  198.88   10.40
   6   4   4  228.58    9.50
   7  -4   4   42.40    4.30
   7  -4   4   41.40    3.50
   7   4   4   43.90    3.10
   8  -4   4  127.39    7.90
   8  -4   4  134.09    7.20
   8   4   4  146.29    6.70
   9  -4   4   20.40    2.90
   9  -4   4   22.80    3.70
   9   4   4   19.20    2.30
  10  -4   4   40.50    4.10
  10  -4   4   49.00    5.40
  10   4   4   42.70    3.50
  11  -4   4    5.70    2.30
  11  -4   4    1.80    2.80
  11   4   4    1.50    1.90
  11   4   4    5.80    2.30
  12  -4   4    9.80    3.80
  12   4   4    8.40    2.40
  12   4   4    9.70    2.50
  13  -4   4   14.50    4.20
  13   4   4   10.40    2.50
  13   4   4    7.90    2.70
  14  -4   4    3.40    3.90
  14   4   4    3.30    2.60
  14   4   4    3.00    2.40
  15  -4   4   15.30    5.00
  15   4   4    8.30    3.10
  15   4   4    6.80    2.50
  16  -4   4   11.80    4.90
  16   4   4   -1.00    2.50
  16   4   4    2.40    3.20
  17  -5  -4   10.80    5.10
  17   5  -4   11.50    4.10
  16  -5  -4    3.60    5.00
  16   5  -4   -4.70    2.70
  15  -5  -4    3.90    4.30
  15   5  -4   -1.20    2.50
  14  -5  -4   12.60    4.30
  14   5  -4    9.50    3.00
  13  -5  -4    5.10    3.30
  13   5  -4   -0.50    2.00
  12  -5  -4   13.50    4.00
  12   5  -4   27.00    3.20
  11  -5  -4   31.90    4.80
  11   5  -4   25.80    3.10
  10  -5  -4   32.20    4.70
  10   5  -4   35.70    3.60
   9  -5  -4   38.00    4.90
  -9   5   4   37.70    3.90
   9   5  -4   33.60    3.40
   8  -5  -4   18.40    3.30
   8   5  -4   18.60    2.70
  -8   5   4   16.00    2.60
   7  -5  -4   37.30    4.40
  -7   5   4   49.00    3.80
   7   5  -4   56.59    4.00
   6  -5  -4   52.69    4.80
  -6   5   4   57.29    4.00
   6   5  -4   62.59    4.30
  -5  -5   4   27.20    3.10
   5  -5  -4   21.50    3.30
  -5   5   4   25.30    2.60
   5   5  -4   24.80    2.90
  -4  -5   4   62.29    4.20
   4  -5  -4   58.89    4.80
   4   5  -4   66.29    4.60
  -4   5   4   58.79    3.90
   3  -5  -4  126.99    7.30
  -3  -5   4  124.19    6.60
  -3   5   4  125.99    6.30
   3   5  -4  125.99    6.80
  -2  -5   4   48.00    4.00
   2  -5  -4   49.00    4.30
  -2  -5   4   42.10    3.40
  -2   5   4   43.00    3.30
   1  -5  -4   10.40    2.30
  -1  -5   4    9.80    2.00
  -1  -5   4    9.70    2.20
  -1   5   4   11.10    2.00
   0  -5  -4   31.90    3.70
   0  -5   4   41.00    4.00
   0  -5   4   43.10    3.30
   1  -5   4   96.79    5.80
   1  -5   4  128.19    6.80
  -2  -5  -4    5.30    1.90
   2  -5   4   13.20    2.30
   2  -5   4   12.10    2.40
   3  -5   4   85.79    5.70
   3  -5   4   87.39    5.10
   3   5   4   87.09    5.30
   4  -5   4   48.60    4.20
   4  -5   4   44.20    3.50
   4   5   4   40.70    3.60
   5  -5   4   37.40    3.50
   5  -5   4   36.60    4.20
   5   5   4   37.70    3.40
   6  -5   4   36.50    3.60
   6  -5   4   31.80    4.00
   6   5   4   40.20    3.50
   7  -5   4    4.80    2.10
   7  -5   4    8.20    2.80
   7   5   4    8.50    2.10
   8  -5   4  117.89    6.80
   8  -5   4  105.19    7.60
   8   5   4  123.99    6.40
   9  -5   4  117.99    7.00
   9  -5   4  114.19    8.10
   9   5   4  129.79    6.50
  10  -5   4    9.90    2.50
  10  -5   4    9.00    3.10
  10   5   4    9.20    2.10
  11  -5   4    6.60    3.70
  11   5   4    7.90    2.30
  12  -5   4   12.40    4.30
  12   5   4    7.10    2.20
  13  -5   4   17.70    4.90
  13   5   4   14.00    3.10
  13   5   4   18.20    3.40
  14  -5   4   21.50    5.50
  14   5   4   11.50    3.20
  14   5   4   14.40    3.10
  15  -5   4    7.30    4.80
  15   5   4    6.00    3.00
  15   5   4   -0.80    2.90
  16  -6  -4    2.50    4.70
  16   6  -4    1.70    3.60
  15  -6  -4   19.90    6.20
  15   6  -4   15.00    3.40
  14  -6  -4   15.70    5.80
  14   6  -4   18.80    3.60
  13  -6  -4    5.20    4.00
  13   6  -4    8.10    2.70
  12  -6  -4   16.30    4.40
  12   6  -4   10.80    2.70
  11  -6  -4    0.50    2.90
  11   6  -4    4.60    2.30
  10  -6  -4   12.30    3.90
  10   6  -4   13.40    2.70
   9  -6  -4   21.90    4.50
  -9   6   4   18.20    3.10
   9   6  -4   22.40    3.20
   8  -6  -4   87.79    7.10
  -8   6   4   90.09    5.80
   8   6  -4   98.99    6.00
   7  -6  -4    6.50    2.80
   7   6  -4    8.00    2.40
  -7   6   4    9.00    2.20
   6  -6  -4   86.69    7.10
   6   6  -4   95.79    6.10
  -6   6   4  103.59    5.80
   5  -6  -4  184.08   10.50
  -5  -6   4  190.28    9.50
  -5   6   4  190.68    9.00
   5   6  -4  209.38   10.00
   4  -6  -4  118.09    7.70
  -4  -6   4  114.39    6.50
   4   6  -4  117.99    6.90
  -4   6   4  122.39    6.20
  -3  -6   4   19.20    2.70
   3  -6  -4   17.70    3.60
   3   6  -4   17.00    3.20
  -3   6   4   24.60    2.60
  -2  -6   4   34.30    4.20
  -2  -6   4   32.30    3.40
   2  -6  -4   31.60    4.10
  -2   6   4   31.50    3.10
   1  -6  -4   43.60    4.80
  -1  -6   4   49.50    4.90
  -1  -6   4   48.40    4.10
  -1   6   4   43.80    3.60
   0  -6   4  104.09    6.00
   0  -6   4   98.09    6.70
   0  -6  -4   95.09    6.70
   1  -6   4   24.90    3.60
  -1  -6  -4   29.00    3.80
   2  -6   4   24.10    3.60
  -2  -6  -4   19.80    3.50
   2  -6   4   22.20    2.90
   3  -6   4  121.49    7.80
   3  -6   4  125.99    6.90
   3   6   4  117.49    6.90
   4  -6   4  150.08    8.70
   4  -6   4  149.69    7.80
   4   6   4  140.69    7.80
   5  -6   4   72.89    6.00
   5  -6   4   72.39    5.20
   5   6   4   87.39    5.60
   6  -6   4    5.30    3.00
   6  -6   4    6.10    2.30
   6   6   4    4.60    2.20
   7  -6   4    8.90    2.50
   7  -6   4    7.90    3.40
   7   6   4    7.30    2.30
   8  -6   4   22.10    4.40
   8  -6   4   22.00    3.30
   8   6   4   23.00    2.90
   9  -6   4   18.60    4.00
   9  -6   4   14.70    3.00
   9   6   4   15.00    2.80
  10  -6   4    2.00    3.40
  10   6   4    1.50    1.90
  11  -6   4    0.20    3.20
  11   6   4    3.30    2.20
  12  -6   4    6.30    4.20
  12   6   4    3.90    2.40
  13  -6   4    0.30    4.20
  13   6   4    0.30    2.60
  14  -6   4    8.40    5.10
  14   6   4    9.60    3.30
  14   6   4    2.80    3.00
  15  -7  -4    8.40    6.00
  15   7  -4   10.20    3.80
  14  -7  -4    3.30    4.80
  14   7  -4   13.00    3.40
  13  -7  -4   11.70    5.30
  13   7  -4    3.60    3.00
  12  -7  -4   10.20    4.70
  12   7  -4   10.00    3.20
  11  -7  -4   -0.60    3.80
  11   7  -4    0.90    2.60
  10  -7  -4   19.60    4.80
  10   7  -4   14.30    3.10
   9  -7  -4   11.90    4.00
   9   7  -4   18.60    3.30
  -9   7   4   20.10    3.20
   8  -7  -4   91.29    8.60
   8   7  -4  102.49    6.70
  -8   7   4   94.49    6.10
   7  -7  -4  103.59    8.50
   7   7  -4  129.09    7.80
  -7   7   4  118.09    6.80
   6  -7  -4    8.80    3.50
   6   7  -4    4.70    2.60
  -6   7   4    3.90    1.90
   5  -7  -4   73.89    6.50
  -5   7   4   51.19    4.10
   5   7  -4   61.89    5.20
   4  -7  -4   40.90    5.40
  -4  -7   4   59.19    4.60
   4   7  -4   59.69    5.50
  -4   7   4   50.09    3.80
  -3  -7   4   22.20    3.30
   3  -7  -4   29.40    4.70
  -3   7   4   27.30    2.90
   3   7  -4   24.90    3.70
  -2  -7   4   35.30    4.00
  -2  -7   4   37.90    5.10
   2  -7  -4   46.50    5.40
  -2   7   4   35.80    3.40
   1  -7  -4   91.99    7.10
  -1  -7   4   89.59    6.80
  -1  -7   4   87.19    6.00
  -1   7   4   92.99    5.50
   0  -7  -4   70.59    6.40
   0  -7   4   77.09    5.50
   0  -7   4   73.89    6.50
   0   7   4   73.39    4.90
   1  -7   4  120.19    8.30
  -1  -7  -4  119.09    8.10
  -2  -7  -4   78.19    6.90
   2  -7   4   61.19    5.00
   2  -7   4   54.69    5.90
   3  -7   4   35.20    3.90
   3  -7   4   30.80    4.90
   3   7   4   28.70    4.10
   4  -7   4   25.40    3.50
   4  -7   4   23.20    4.30
   4   7   4   20.70    3.30
   5  -7   4    9.50    3.30
   5  -7   4   12.70    2.70
   5   7   4   11.20    3.00
   6  -7   4   11.70    3.60
   6  -7   4    6.10    2.50
   6   7   4   12.90    3.00
   7  -7   4   16.60    4.30
   7  -7   4   15.70    3.00
   7   7   4   14.80    3.20
   8  -7   4    0.00    3.40
   8  -7   4    1.30    2.40
   8   7   4    2.90    2.40
   9  -7   4   -1.00    3.50
   9   7   4   -2.80    2.20
  10  -7   4    8.20    4.30
  10   7   4    5.30    2.40
  11  -7   4    3.10    4.40
  11   7   4   -0.30    2.40
  12  -7   4   12.90    5.20
  12   7   4    6.70    2.60
  13  -7   4   10.70    5.50
  13   7   4    7.10    3.20
  14  -8  -4    4.30    5.20
  14   8  -4    2.40    2.90
  13  -8  -4    2.30    5.60
  13   8  -4    6.30    3.40
  12  -8  -4    3.80    4.90
  12   8  -4    1.00    3.10
  11  -8  -4    8.30    4.90
  11   8  -4    4.00    3.10
  10  -8  -4    4.90    4.50
  10   8  -4    2.60    3.00
   9  -8  -4   52.99    7.40
   9   8  -4   38.10    4.60
   8  -8  -4   23.50    5.90
   8   8  -4   23.80    3.90
   7  -8  -4    4.50    3.90
   7   8  -4    1.30    2.70
   6  -8  -4   23.20    5.60
   6   8  -4   27.10    4.20
   5  -8  -4   57.69    7.00
   5   8  -4   50.39    5.40
   4  -8  -4   61.29    7.30
   4   8  -4   73.59    6.60
   3  -8  -4   43.20    6.30
  -3  -8   4   47.10    4.90
   3   8  -4   38.10    4.80
  -2  -8   4    8.70    3.90
  -2  -8   4    3.20    2.60
   2  -8  -4    1.10    3.60
  -1  -8   4    4.10    2.60
   1  -8  -4    4.90    4.20
  -1  -8   4    1.50    3.10
   0  -8  -4   20.40    4.80
   0  -8   4   18.80    3.20
   0  -8   4   26.20    4.70
   1  -8   4   40.80    5.50
  -1  -8  -4   53.39    6.50
   1  -8   4   41.60    4.40
  -2  -8  -4   24.20    5.40
   2  -8   4   27.70    3.90
   2  -8   4   25.20    5.00
   3  -8   4   10.40    3.90
   3  -8   4    7.80    2.50
   3   8   4    7.90    2.90
   4  -8   4    7.40    4.10
   4  -8   4   11.20    2.90
   4   8   4    5.50    3.00
   5  -8   4   18.10    3.30
   5  -8   4   21.60    5.10
   5   8   4   24.20    3.80
   6  -8   4   11.40    4.50
   6  -8   4   10.50    2.80
   6   8   4    5.10    3.00
   7  -8   4    0.60    3.90
   7   8   4    4.90    2.90
   8  -8   4    8.70    4.10
   8   8   4    8.80    2.80
   9  -8   4    8.20    4.70
   9   8   4    3.10    2.90
  10  -8   4    2.70    4.10
  10   8   4   -1.70    2.70
  11  -8   4   -2.60    4.00
  11   8   4    3.00    2.90
  12  -8   4   -6.30    4.50
  12   8   4    0.10    2.90
  12  -9  -4    9.10    6.80
  12   9  -4    4.60    3.30
  11  -9  -4   -0.20    6.00
  11   9  -4    3.90    3.00
  10  -9  -4   15.10    6.90
  10   9  -4    8.60    3.50
   9  -9  -4    6.60    6.20
   9   9  -4   -1.60    2.60
   8  -9  -4   12.70    5.70
   8   9  -4    6.40    3.50
   7  -9  -4    3.20    5.40
   7   9  -4    6.60    3.20
   6  -9  -4   26.80    6.50
   6   9  -4   22.70    4.30
   5  -9  -4    7.50    5.10
   5   9  -4    4.00    3.00
   4  -9  -4   -2.40    4.90
   4   9  -4   -1.60    3.10
   3  -9  -4   13.00    5.30
   3   9  -4    6.60    3.30
   2  -9  -4    4.60    5.20
  -2  -9   4    5.60    2.80
  -1  -9   4   17.50    4.60
  -1  -9   4   14.70    3.20
   1  -9  -4   19.10    6.30
   0  -9   4    2.60    1.20
   0  -9  -4    0.40    5.00
   0  -9   4    3.20    3.80
  -1  -9  -4    8.00    5.00
   1  -9   4    5.90    2.80
   1  -9   4   11.30    4.50
   2  -9   4    1.20    4.10
   2  -9   4    9.40    3.10
   3  -9   4    7.30    2.70
   3  -9   4    2.30    3.70
   3   9   4   -1.00    2.60
   4  -9   4   16.30    3.30
   4  -9   4   20.40    5.20
   4   9   4   18.30    4.10
   5  -9   4    1.50    4.30
   5  -9   4    1.30    2.40
   5   9   4    1.00    2.70
   6  -9   4    2.40    4.50
   6   9   4    8.30    3.50
   7  -9   4   11.80    5.10
   7   9   4   11.70    3.30
   8  -9   4    8.40    5.20
   8   9   4    8.40    3.10
   9  -9   4   -1.20    4.10
   9   9   4    0.90    2.70
  10  -9   4    7.90    5.40
  10   9   4   -3.30    2.40
  10 -10  -4  -11.40    6.30
  10  10  -4   -4.10    3.00
   9 -10  -4   10.70    6.90
   9  10  -4    2.80    3.10
   8 -10  -4   12.40    6.60
   8  10  -4    0.50    3.50
   7 -10  -4    3.50    5.90
   7  10  -4   -1.90    3.50
   6 -10  -4    3.60    6.30
   6  10  -4    2.10    3.70
   5 -10  -4    6.60    6.10
   5  10  -4   -0.20    3.60
   4 -10  -4    1.40    5.90
   4  10  -4   11.40    4.30
   3 -10  -4   -2.00    6.50
   3  10  -4    1.50    3.70
   2 -10  -4    2.00    5.80
   2  10  -4    3.20    3.60
   1 -10  -4    1.00    6.00
  -1 -10   4   -0.90    3.80
  -1 -10   4    2.00    2.80
   0 -10  -4    5.50    6.80
   0 -10   4    1.30    2.90
   0 -10   4   13.60    5.00
   1 -10   4    6.20    4.30
  -1 -10  -4    9.90    6.60
   1 -10   4    5.30    2.90
   2 -10   4   -7.30    4.10
   2 -10   4    6.60    3.00
   2  10   4    2.30    3.30
   3 -10   4   -1.90    2.50
   3 -10   4    1.90    4.20
   3  10   4    4.80    3.50
   4 -10   4    6.40    3.40
   4 -10   4    0.40    4.80
   4  10   4    5.40    3.30
   5 -10   4   10.40    5.50
   5  10   4   13.50    3.80
   6 -10   4    9.70    5.40
   6  10   4   10.40    3.80
   7 -10   4    1.40    5.00
   7  10   4    2.70    3.40
   8 -10   4    0.20    5.10
   8  10   4    3.20    3.50
   7 -11  -4   -5.10    8.10
   7  11  -4   -2.20    3.80
   6 -11  -4    2.50    7.20
   6  11  -4   -1.50    3.40
   5 -11  -4   -0.40    7.10
   5  11  -4    6.10    4.30
   4 -11  -4    6.50    8.40
   4  11  -4    9.70    4.20
   3 -11  -4    6.60    7.70
   3  11  -4    3.80    4.30
   2 -11  -4   18.20    9.00
   2  11  -4    3.80    3.60
   1 -11  -4    1.90    8.60
   0 -11   4    6.90    5.20
   0 -11  -4    4.30    8.70
   1 -11   4    2.90    3.20
   1 -11   4   -1.70    5.00
   2 -11   4   23.90    6.50
   2 -11   4    4.40    3.10
   2  11   4   10.00    3.90
   3 -11   4    8.90    5.80
   3  11   4    9.70    4.30
   4 -11   4   13.90    6.30
   4  11   4    1.70    3.90
   5 -11   4    2.40    5.30
   5  11   4   -1.00    3.50
  19   0  -5    5.70    3.50
  18   0  -5    7.70    3.00
  17   0  -5    1.30    2.50
  16   0  -5    4.80    2.80
  15   0  -5    6.70    2.70
  14   0  -5   63.69    4.80
  13   0  -5   14.70    2.60
  12   0  -5   28.20    3.10
  11   0  -5   11.60    2.20
  10   0  -5   64.59    4.10
   9   0  -5    2.50    1.30
   8   0  -5  245.68   10.50
  -8   0   5  251.27   11.20
  -7   0   5   13.00    2.10
   7   0  -5   14.10    1.60
  -6   0   5    2.20    1.30
   6   0  -5    2.40    1.10
  -5   0   5   45.30    2.40
  -5   0   5   47.80    3.10
   4   0  -5  165.58    6.80
  -4   0   5  166.08    6.70
  -4   0   5  157.38    7.20
  -3   0   5  100.69    4.50
  -3   0   5  102.19    5.00
   3   0  -5  103.39    4.30
   2   0  -5   32.50    1.60
  -2   0   5   34.00    2.50
  -2   0   5   28.80    1.90
   1   0  -5   51.99    2.10
  -1   0   5   46.30    2.50
   0   0   5   15.50    1.30
   1   0   5    0.00    0.30
   1   0   5    0.20    0.60
   2   0   5    0.10    0.60
   2   0   5    0.70    0.40
   3   0   5  134.79    6.10
   3   0   5  140.69    5.60
   4   0   5   64.29    3.40
   4   0   5   64.09    3.10
   5   0   5  161.68    6.80
   5   0   5  156.78    7.10
   6   0   5   17.60    2.00
   6   0   5   14.90    1.60
   7   0   5   23.40    2.20
   7   0   5   26.90    2.60
   8   0   5    5.10    1.40
   8   0   5    3.70    1.30
   9   0   5   18.80    2.30
   9   0   5   31.20    2.80
  10   0   5   17.40    2.60
  11   0   5   10.10    2.20
  11   0   5    9.20    2.20
  12   0   5    3.80    2.00
  12   0   5    5.40    2.10
  13   0   5    1.40    1.60
  13   0   5    0.20    1.90
  14   0   5    4.10    2.30
  14   0   5   -1.60    1.70
  15   0   5    4.40    2.40
  15   0   5    1.50    2.10
  16   0   5    3.70    2.60
  16   0   5   -1.70    1.90
  19  -1  -5    7.50    3.80
  19   1  -5    6.30    3.40
  18  -1  -5    0.20    2.70
  18   1  -5    3.80    2.70
  17  -1  -5    3.50    2.60
  17   1  -5    4.30    2.60
  16  -1  -5   17.40    3.60
  16   1  -5   11.10    2.90
  15  -1  -5   30.20    3.90
  15   1  -5   25.40    3.30
  14  -1  -5   11.30    2.70
  14   1  -5    8.40    2.30
  13  -1  -5   17.30    2.90
  13   1  -5   16.60    2.60
  12  -1  -5  202.18   10.20
  12   1  -5  231.98   10.00
  11  -1  -5  167.88    8.30
  11  -1  -5  166.28    7.00
  11   1  -5  168.18    7.90
  10  -1  -5  118.69    5.10
  10  -1  -5  113.49    6.40
  10   1  -5  125.29    6.20
   9  -1  -5   89.59    5.00
  -9   1   5   98.29    5.60
   9   1  -5   86.39    4.70
   8  -1  -5  490.65   19.20
  -8   1   5  467.65   19.60
   8   1  -5  461.65   18.80
   7  -1  -5  274.47   11.10
  -7  -1   5  248.18   11.30
  -7   1   5  252.97   11.40
   7   1  -5  260.87   10.60
   6  -1  -5  566.74   21.60
  -6  -1   5  554.04   21.40
  -6  -1   5  502.95   21.80
  -6   1   5  550.94   22.00
   6   1  -5  551.34   21.20
  -5  -1   5   37.60    2.30
  -5   1   5   32.80    2.60
   4  -1  -5 3556.44  130.89
  -4  -1   5 3454.55  130.59
  -4  -1   5 3413.76  130.79
  -4   1   5 3399.96  130.99
  -4   1   5 3541.35  130.09
   4   1  -5 3404.96  130.59
   3  -1  -5 6035.30  223.58
  -3  -1   5 5701.33  221.78
  -3  -1   5 5974.90  221.88
  -3   1   5 6188.58  222.28
   3   1  -5 5401.36  222.28
  -3   1   5 6085.39  222.18
   2  -1  -5 1537.95   57.09
  -2  -1   5 1519.35   57.39
  -2  -1   5 1494.25   57.29
  -2   1   5 1495.05   57.69
   2   1  -5 1440.46   56.79
  -2   1   5 1554.74   56.89
   1  -1  -5 1244.48   45.60
  -1  -1   5 1186.48   46.00
   1   1  -5 1146.39   45.40
  -1   1   5 1236.28   45.60
   0  -1   5  348.97   13.70
   0  -1   5  351.36   14.20
   0  -1  -5  353.36   13.70
   0   1   5  362.86   13.80
   1  -1   5   39.40    2.00
   1  -1   5   40.10    2.30
   1   1   5   41.50    2.10
   1   1   5   31.80    1.70
   2  -1   5  304.97   12.40
   2  -1   5  312.67   12.70
   2   1   5  324.47   12.50
   2   1   5  310.77   12.00
   3  -1   5 1028.30   39.30
   3  -1   5  986.60   38.90
   3   1   5 1044.30   39.00
   3   1   5 1017.90   38.50
   4  -1   5  898.71   34.50
   4  -1   5  900.81   34.80
   4   1   5  892.11   34.60
   4   1   5  896.91   34.10
   5  -1   5 1558.54   58.49
   5  -1   5 1539.55   58.29
   5   1   5 1528.85   58.29
   5   1   5 1483.55   57.79
   6  -1   5   61.69    3.80
   6  -1   5   70.69    3.80
   6   1   5   72.09    3.90
   6   1   5   73.19    3.50
   7  -1   5  495.55   20.10
   7   1   5  496.55   20.00
   7   1   5  503.15   19.60
   8  -1   5   11.40    1.90
   8  -1   5    7.60    1.60
   8   1   5   13.50    1.80
   8   1   5   11.40    1.90
   9  -1   5   80.19    4.90
   9  -1   5   84.49    5.00
   9   1   5   83.69    4.90
   9   1   5   91.79    4.70
  10  -1   5  118.59    6.70
  10  -1   5  119.49    6.60
  10   1   5  116.39    6.30
  10   1   5  133.29    6.30
  11  -1   5   47.20    3.90
  11  -1   5   39.90    4.10
  11   1   5   41.90    3.70
  11   1   5   35.90    3.50
  12  -1   5   22.40    3.00
  12  -1   5   28.30    3.50
  12   1   5   16.70    2.60
  12   1   5   30.40    3.30
  13  -1   5    4.50    2.30
  13  -1   5    4.20    2.00
  13   1   5    7.60    2.40
  13   1   5   -0.70    1.00
  14  -1   5    2.60    2.00
  14  -1   5    3.50    2.50
  14   1   5    3.70    1.90
  14   1   5    3.70    2.20
  15  -1   5    4.80    2.80
  15  -1   5    1.80    2.30
  15   1   5    2.70    2.20
  15   1   5    1.30    2.20
  16  -1   5   12.40    3.60
  16   1   5   14.20    3.00
  16   1   5    5.70    2.40
  19  -2  -5    3.00    3.40
  19   2  -5    1.40    3.30
  18  -2  -5    3.00    3.60
  18   2  -5    4.90    3.30
  17  -2  -5    6.70    3.40
  17   2  -5   -1.80    2.40
  16  -2  -5    1.30    2.60
  16   2  -5   -3.30    2.50
  15  -2  -5   19.20    3.60
  15   2  -5   14.70    2.90
  14  -2  -5   -1.10    2.00
  14   2  -5    2.60    2.10
  13  -2  -5   24.80    3.70
  13   2  -5   24.50    3.10
  12  -2  -5   -1.50    1.70
  12   2  -5    2.40    2.00
  11  -2  -5   30.90    3.60
  11   2  -5   28.90    2.90
  10  -2  -5    5.70    2.10
  10   2  -5    5.40    1.60
 -10   2   5    3.40    2.10
   9  -2  -5    4.80    0.60
   9  -2  -5    5.20    1.90
   9   2  -5    6.20    1.60
  -9   2   5    4.00    1.80
   8  -2  -5   48.60    3.80
  -8   2   5   49.10    3.80
   8   2  -5   59.89    3.20
   7  -2  -5   13.30    2.00
   7   2  -5   15.60    1.60
  -7   2   5   18.20    2.30
  -6  -2   5   14.60    1.80
  -6  -2   5   13.20    1.80
   6  -2  -5   13.60    1.90
   6   2  -5   13.50    1.40
  -6   2   5   15.50    2.20
   5  -2  -5   17.20    2.00
  -5  -2   5   17.50    1.80
  -5  -2   5   18.30    1.80
   5   2  -5   18.30    1.60
  -5   2   5   15.30    1.90
   4  -2  -5  160.08    7.70
  -4  -2   5  178.98    7.70
  -4  -2   5  173.78    7.50
  -4   2   5  175.98    7.90
  -4   2   5  182.18    6.70
  -3  -2   5   11.90    1.50
   3  -2  -5    9.80    1.40
  -3  -2   5   14.10    1.40
   3   2  -5   11.20    1.30
  -3   2   5   12.40    0.80
  -3   2   5   11.10    1.60
  -2  -2   5   49.60    3.00
  -2  -2   5   48.50    2.70
   2  -2  -5   50.59    3.00
  -2   2   5   51.89    3.30
   2   2  -5   52.19    2.70
  -2   2   5   54.59    2.40
  -1  -2   5  131.29    5.60
   1  -2  -5  124.29    5.80
  -1  -2   5  128.59    6.00
  -1  -2   5  130.99    5.80
  -1   2   5  132.69    5.40
   0  -2   5  284.47   11.70
   0  -2   5  290.97   12.00
   0  -2  -5  288.17   11.70
   0   2   5  289.47   11.40
   1  -2   5   44.60    2.80
   1  -2   5   47.70    2.90
   1   2   5   50.19    2.50
   2  -2   5   50.59    3.00
   2  -2   5   46.40    2.90
   2   2   5   46.30    2.60
   2   2   5   45.50    2.40
   3  -2   5   76.29    4.00
   3  -2   5   75.89    4.10
   3   2   5   72.29    3.40
   3   2   5   77.09    3.80
   4  -2   5  100.39    5.40
   4  -2   5  113.49    5.50
   4   2   5  112.39    4.80
   4   2   5  112.29    5.20
   5  -2   5   37.40    2.70
   5   2   5   35.20    2.00
   5   2   5   32.70    2.50
   6  -2   5    7.50    1.80
   6  -2   5   10.90    1.80
   6   2   5    8.70    1.10
   6   2   5   11.20    1.60
   7  -2   5   35.40    3.20
   7  -2   5   38.70    3.20
   7   2   5   39.80    2.90
   7   2   5   43.10    2.60
   8  -2   5   22.90    2.80
   8  -2   5   18.60    2.50
   8   2   5   23.50    2.20
   8   2   5   18.70    2.30
   9  -2   5    9.60    2.30
   9  -2   5   14.00    2.40
   9   2   5   11.80    2.00
   9   2   5   11.30    2.00
  10  -2   5   49.30    4.50
  10  -2   5   46.20    4.00
  10   2   5   49.99    3.80
  10   2   5   54.69    3.90
  11  -2   5   12.50    3.00
  11  -2   5   12.70    2.60
  11   2   5   12.20    2.40
  12  -2   5    3.40    2.60
  12  -2   5    0.40    1.70
  12   2   5   -1.10    1.70
  12   2   5    2.00    2.00
  13  -2   5    9.80    2.50
  13  -2   5   11.70    3.30
  13   2   5    9.50    2.50
  13   2   5    9.20    2.20
  14  -2   5    0.10    2.00
  14  -2   5    6.90    3.10
  14   2   5    3.20    2.30
  14   2   5    3.00    2.20
  15  -2   5    5.20    3.20
  15   2   5    2.60    1.50
  15   2   5    2.40    2.40
  16  -2   5   10.70    4.00
  16   2   5   12.30    3.00
  16   2   5    6.20    2.40
  18  -3  -5   11.00    4.60
  18   3  -5    6.20    3.60
  17  -3  -5    4.70    3.50
  17   3  -5   -3.50    2.80
  16  -3  -5   13.00    3.90
  16   3  -5    5.70    3.00
  15  -3  -5   33.70    5.00
  15   3  -5   39.10    4.30
  14  -3  -5    9.90    3.40
  14   3  -5    6.00    2.40
  13  -3  -5    1.20    2.60
  13   3  -5    1.80    2.20
  12  -3  -5   52.89    5.40
  12   3  -5   62.79    4.50
  11  -3  -5  106.59    7.10
  11   3  -5  127.09    6.30
  10  -3  -5   17.10    3.00
  10   3  -5   10.30    2.00
 -10   3   5   11.10    2.70
   9  -3  -5   40.50    4.10
  -9   3   5   39.20    3.90
   9   3  -5   40.40    3.00
   8  -3  -5   38.30    3.80
  -8   3   5   38.60    3.60
   8   3  -5   35.80    2.70
   7  -3  -5   19.50    2.60
   7   3  -5   18.90    2.10
  -7   3   5   18.30    2.40
   6  -3  -5   85.59    5.10
  -6  -3   5   83.79    4.70
  -6   3   5   81.19    4.80
   6   3  -5   88.79    4.40
   5  -3  -5   71.29    4.60
  -5  -3   5   73.79    4.20
   5   3  -5   79.09    4.00
  -5   3   5   69.39    4.40
  -4  -3   5  162.98    7.30
  -4  -3   5  173.48    6.90
  -4   3   5  171.38    7.50
   4   3  -5  128.19    6.90
   3  -3  -5  494.25   20.40
  -3  -3   5  514.75   19.60
  -3  -3   5  497.55   20.20
  -3   3   5  497.95   20.40
  -2  -3   5 2806.42  106.69
   2  -3  -5 2857.31  106.89
  -2  -3   5 2860.21  105.89
   2   3  -5 2706.13  106.49
  -2   3   5 2825.02  106.89
  -1  -3   5 2919.81  111.49
  -1  -3   5 2999.10  110.59
  -1  -3   5 2943.71  111.49
   1  -3  -5 2891.01  111.59
   0  -3  -5  124.99    6.10
   0  -3   5  129.49    6.20
   0  -3   5  125.59    6.10
  -1  -3  -5  826.82   31.90
   1  -3   5  807.32   32.00
   1  -3   5  810.12   32.00
   2  -3   5  548.35   21.70
   2  -3   5  562.54   21.70
   2   3   5  503.05   21.10
   3  -3   5  250.67   10.50
   3  -3   5  205.48   10.10
   3   3   5  247.18    9.90
   4  -3   5  167.18    8.00
   4   3   5  164.08    7.20
   5  -3   5   79.09    4.70
   5  -3   5   79.59    4.80
   5   3   5   81.59    4.00
   6  -3   5  274.27   12.30
   6  -3   5  272.87   12.10
   6   3   5  278.17   11.30
   7  -3   5   39.00    3.80
   7  -3   5   40.80    3.70
   7   3   5   40.50    2.70
   7   3   5   41.80    3.20
   8  -3   5  150.48    7.70
   8  -3   5  146.59    8.00
   8   3   5  142.49    7.20
   8   3   5  152.08    6.70
   9  -3   5   24.00    3.10
   9  -3   5   20.60    3.30
   9   3   5   19.60    2.20
   9   3   5   19.30    2.60
  10  -3   5   26.30    3.30
  10  -3   5   19.90    3.50
  10   3   5   26.70    2.70
  10   3   5   26.20    3.00
  11  -3   5   44.70    4.40
  11  -3   5   45.80    5.10
  11   3   5   47.10    4.10
  11   3   5   49.30    3.90
  12  -3   5    3.40    2.10
  12  -3   5   -0.60    2.50
  12   3   5    2.60    2.20
  12   3   5    0.50    1.70
  13  -3   5    9.70    2.70
  13  -3   5   15.60    3.90
  13   3   5    6.30    2.20
  13   3   5    5.20    2.40
  14  -3   5    5.90    3.40
  14   3   5    0.20    2.50
  14   3   5    4.40    2.30
  15  -3   5    9.60    4.00
  15   3   5    6.80    2.40
  15   3   5    5.50    2.90
  16  -3   5    7.30    4.40
  16   3   5    5.30    3.00
  16   3   5    9.10    2.70
  18  -4  -5    5.30    4.40
  18   4  -5    0.00    3.60
  17  -4  -5    0.40    3.60
  17   4  -5   -4.40    3.20
  16  -4  -5    5.20    3.80
  16   4  -5    3.00    2.80
  15  -4  -5   -1.60    2.90
  15   4  -5   -2.00    2.70
  14  -4  -5    4.10    3.10
  14   4  -5    8.50    2.80
  13  -4  -5   -3.10    2.60
  13   4  -5    0.10    2.30
  12  -4  -5    2.40    2.90
  12   4  -5    4.30    2.00
  11  -4  -5   20.80    3.90
  11   4  -5   21.10    2.70
  10  -4  -5    6.10    2.60
  10   4  -5    4.80    1.80
 -10   4   5    6.70    2.40
   9  -4  -5   14.80    3.00
  -9   4   5   11.00    2.30
   9   4  -5   15.60    2.20
   8  -4  -5   31.70    3.90
  -8   4   5   27.10    3.10
   8   4  -5   33.50    3.10
   7  -4  -5   12.20    2.60
  -7   4   5   12.20    2.30
   7   4  -5   14.80    2.10
   6  -4  -5   29.20    3.60
  -6  -4   5   25.50    2.80
   6   4  -5   32.20    2.80
  -6   4   5   27.50    2.90
   5  -4  -5   25.90    3.10
  -5  -4   5   25.00    2.70
   5   4  -5   29.00    2.80
  -5   4   5   25.90    2.70
   4  -4  -5   33.80    3.50
  -4  -4   5   40.00    3.30
   4   4  -5   37.70    3.00
  -4   4   5   42.90    3.20
  -3  -4   5   70.29    4.30
  -3   4   5   78.89    4.40
   3   4  -5   68.29    4.30
  -2  -4   5    9.20    1.80
   2  -4  -5    9.50    2.10
  -2   4   5    9.70    2.00
  -1  -4   5    2.90    1.60
   1  -4  -5    0.90    1.50
  -1  -4   5   -1.40    1.30
   0  -4   5   28.70    2.80
   0  -4  -5   23.40    2.80
   0  -4   5   26.60    3.00
   1  -4   5   56.29    3.90
  -1  -4  -5   57.99    4.10
   1  -4   5   53.39    3.90
   2  -4   5  112.29    6.00
   2  -4   5  112.79    6.30
   3  -4   5  289.47   13.10
   3   4   5  298.77   12.60
   4  -4   5    1.10    1.70
   4  -4   5    1.30    1.60
   4   4   5    2.40    1.30
   5  -4   5  141.99    7.70
   5  -4   5  147.29    7.30
   5   4   5  145.99    6.80
   6  -4   5   22.80    2.80
   6  -4   5   14.70    2.70
   6   4   5   16.40    1.90
   7  -4   5   29.40    3.40
   7  -4   5   26.30    3.50
   7   4   5   25.50    2.50
   8  -4   5  113.39    7.20
   8  -4   5  122.19    6.80
   8   4   5  118.09    5.90
   9  -4   5   32.00    4.20
   9  -4   5   27.80    3.40
   9   4   5   25.90    2.60
  10  -4   5    5.20    3.00
  10  -4   5   11.70    2.70
  10   4   5   14.50    2.60
  10   4   5   13.60    2.20
  11  -4   5    3.80    2.70
  11  -4   5    9.60    2.70
  11   4   5    9.20    2.30
  11   4   5    9.10    2.30
  12  -4   5    1.10    2.10
  12  -4   5    1.70    3.10
  12   4   5    3.80    2.10
  12   4   5    5.90    2.40
  13  -4   5    6.00    3.70
  13   4   5   10.20    2.80
  13   4   5   14.30    2.80
  14  -4   5   20.10    5.00
  14   4   5   10.70    3.00
  14   4   5   11.80    2.90
  15  -4   5   16.60    5.00
  15   4   5    5.00    2.50
  15   4   5    9.60    3.30
  17  -5  -5   11.40    5.20
  17   5  -5    6.70    3.50
  16  -5  -5   12.70    4.90
  16   5  -5    5.60    3.50
  15  -5  -5    8.00    4.30
  15   5  -5   -0.60    2.80
  14  -5  -5   20.90    4.90
  14   5  -5   20.00    3.30
  13  -5  -5   15.60    4.30
  13   5  -5   13.90    2.80
  12  -5  -5   18.50    4.50
  12   5  -5   15.50    2.70
  11  -5  -5   43.90    5.40
  11   5  -5   33.00    3.50
  10  -5  -5   28.70    4.40
  10   5  -5   33.80    3.50
 -10   5   5   24.70    3.60
   9  -5  -5   24.80    4.00
   9   5  -5   15.20    2.70
  -9   5   5   10.70    2.60
   8  -5  -5   17.60    3.50
  -8   5   5   14.10    2.70
   8   5  -5   13.70    2.40
   7  -5  -5  113.69    7.20
  -7   5   5  101.99    6.10
   7   5  -5  104.09    6.00
   6  -5  -5  405.26   18.50
  -6  -5   5  410.26   17.60
   6   5  -5  430.46   17.60
  -6   5   5  408.06   17.40
   5  -5  -5   77.09    5.50
  -5  -5   5   62.09    4.50
   5   5  -5   78.49    5.00
  -5   5   5   68.29    4.50
  -4  -5   5  106.29    5.90
   4  -5  -5   97.29    6.50
   4   5  -5  104.99    6.00
  -4   5   5  110.39    5.80
  -3  -5   5  104.39    5.80
   3  -5  -5   99.69    6.30
   3   5  -5   94.29    5.70
  -3   5   5  103.39    5.70
  -2  -5   5  230.48   10.90
  -2  -5   5  218.78   10.40
  -2   5   5  233.78   10.50
  -1  -5   5  295.77   13.90
  -1  -5   5  326.57   13.80
  -1   5   5  314.97   13.70
   0  -5   5   43.70    3.50
   0  -5  -5   43.90    4.20
   0  -5   5   35.60    3.90
   1  -5   5  253.37   12.20
  -1  -5  -5  268.17   12.20
   1  -5   5  259.17   11.70
   2  -5   5  419.16   19.00
  -2  -5  -5  464.05   19.10
   3  -5   5  212.68   10.60
   3  -5   5  204.68   10.10
   3   5   5  226.48   10.10
   4  -5   5   75.09    5.00
   4  -5   5   60.59    5.00
   4   5   5   83.99    4.90
   5  -5   5   51.89    4.20
   5  -5   5   54.79    4.90
   5   5   5   53.59    3.90
   6  -5   5    2.70    2.10
   6  -5   5    5.50    2.30
   6   5   5    8.80    2.10
   7  -5   5  191.88   10.90
   7  -5   5  207.78   10.30
   7   5   5  224.48    9.70
   8  -5   5    6.50    2.30
   8  -5   5    4.10    2.80
   8   5   5    8.70    2.10
   9  -5   5   33.60    3.90
   9  -5   5   37.30    5.00
   9   5   5   40.30    3.50
  10  -5   5   11.60    2.80
  10  -5   5   11.80    3.40
  10   5   5   13.40    2.20
  11  -5   5   10.60    3.90
  11   5   5   15.50    3.00
  11   5   5   12.60    2.50
  12  -5   5   16.40    4.60
  12   5   5   12.20    2.50
  12   5   5   12.20    3.00
  13  -5   5   -2.50    3.40
  13   5   5   -1.30    2.50
  13   5   5   -1.80    2.00
  14  -5   5    5.60    4.40
  14   5   5    3.90    2.40
  14   5   5   -4.20    2.60
  15  -5   5   15.20    5.30
  15   5   5   11.20    3.40
  15   5   5    6.40    3.00
  16  -6  -5    9.90    6.10
  16   6  -5    6.60    3.40
  15  -6  -5    2.20    4.40
  15   6  -5   -1.00    2.70
  14  -6  -5    5.70    4.20
  14   6  -5    3.10    3.00
  13  -6  -5   -0.90    4.00
  13   6  -5    0.70    2.30
  12  -6  -5    0.60    3.50
  12   6  -5    0.70    2.20
  11  -6  -5   40.80    5.80
  11   6  -5   37.10    3.90
  10  -6  -5    9.90    3.70
  10   6  -5    1.60    2.50
 -10   6   5    0.60    2.20
   9  -6  -5   49.90    6.20
  -9   6   5   50.79    4.60
   9   6  -5   62.49    5.10
   8  -6  -5   27.00    4.60
  -8   6   5   20.80    3.10
   8   6  -5   18.50    3.00
   7  -6  -5   17.10    3.60
  -7   6   5   23.70    3.10
   7   6  -5   19.60    3.20
  -6  -6   5   28.30    3.40
   6  -6  -5   30.60    4.30
  -6   6   5   29.40    3.30
   6   6  -5   26.30    3.40
   5  -6  -5   40.30    4.80
  -5  -6   5   33.60    3.70
  -5   6   5   33.60    3.30
   5   6  -5   37.80    4.00
   4  -6  -5   31.70    4.40
  -4  -6   5   31.10    3.60
  -4   6   5   34.00    3.30
   4   6  -5   32.50    3.80
  -3  -6   5   14.30    2.70
   3  -6  -5   10.90    3.10
   3   6  -5    8.60    2.40
  -3   6   5   10.60    2.10
   2  -6  -5   37.10    4.60
  -2  -6   5   33.20    3.60
  -2  -6   5   33.50    4.00
  -2   6   5   36.00    3.50
  -1  -6   5   17.70    3.30
  -1  -6   5   21.80    2.90
   1  -6  -5   16.30    3.10
  -1   6   5   24.30    2.90
   0  -6  -5   23.30    3.20
   0  -6   5   43.20    4.50
   0  -6   5   35.20    3.60
   1  -6   5    6.70    2.50
   1  -6   5    7.30    2.40
   2  -6   5    1.90    2.40
  -2  -6  -5    1.70    2.30
   2  -6   5    0.80    1.20
   3  -6   5   48.40    4.40
   3  -6   5   34.10    4.30
   3   6   5   42.60    4.20
   4  -6   5  123.09    8.00
   4  -6   5  118.99    6.90
   4   6   5  120.69    7.00
   5  -6   5   -0.90    2.40
   5  -6   5    0.00    2.10
   5   6   5    1.30    1.90
   6  -6   5  161.48    8.60
   6  -6   5  141.69    9.20
   6   6   5  168.68    8.40
   7  -6   5    5.30    3.00
   7  -6   5    7.90    2.40
   7   6   5    7.70    2.30
   8  -6   5   15.40    3.90
   8  -6   5    9.10    2.60
   8   6   5   11.40    2.50
   9  -6   5   22.20    3.50
   9  -6   5   19.50    4.10
   9   6   5   20.60    2.80
  10  -6   5    7.00    3.90
  10   6   5   12.80    2.60
  11  -6   5    3.80    3.80
  11   6   5    4.70    2.30
  12  -6   5    5.80    4.40
  12   6   5    7.00    2.60
  12   6   5    3.60    2.40
  13  -6   5    5.70    4.60
  13   6   5   12.40    3.20
  13   6   5   15.80    3.60
  14  -6   5    8.20    4.70
  14   6   5    3.80    3.20
  14   6   5    9.40    3.40
  15  -7  -5   10.60    5.50
  15   7  -5    8.60    3.70
  14  -7  -5    2.30    5.40
  14   7  -5   -0.90    2.60
  13  -7  -5    4.80    5.20
  13   7  -5    4.10    3.00
  12  -7  -5   14.50    5.50
  12   7  -5   14.90    3.40
  11  -7  -5    6.30    4.70
  11   7  -5    4.50    2.80
  10  -7  -5    0.70    3.40
 -10   7   5    3.20    2.50
  10   7  -5    3.90    2.40
   9  -7  -5   18.70    4.70
   9   7  -5   19.20    3.60
  -9   7   5   19.40    3.30
   8  -7  -5   58.49    7.00
  -8   7   5   67.49    5.30
   8   7  -5   68.99    5.90
   7  -7  -5  103.99    8.80
   7   7  -5  108.89    7.00
  -7   7   5   98.89    6.20
   6  -7  -5   88.39    8.00
   6   7  -5   83.19    6.40
  -6   7   5   73.39    5.30
   5  -7  -5   37.10    5.30
  -5  -7   5   41.10    4.50
  -5   7   5   38.70    3.70
   5   7  -5   39.60    4.30
  -4  -7   5   24.20    3.60
   4  -7  -5   22.80    4.30
   4   7  -5   24.40    3.90
  -4   7   5   22.10    2.90
   3  -7  -5  159.58    9.90
  -3  -7   5  138.69    8.00
   3   7  -5  144.19    8.50
  -3   7   5  132.29    7.30
  -2  -7   5  198.08   10.80
   2  -7  -5  196.08   11.10
  -2  -7   5  203.08   10.10
  -2   7   5  180.38    9.30
  -1  -7   5    5.10    2.50
   1  -7  -5    7.50    3.10
  -1  -7   5    1.90    2.70
  -1   7   5    1.70    1.90
   0  -7   5   24.40    4.20
   0  -7   5   17.70    3.10
   0  -7  -5   25.50    4.40
   0   7   5   20.10    3.10
  -1  -7  -5   56.19    6.10
   1  -7   5   52.29    5.90
   2  -7   5   96.79    7.10
  -2  -7  -5   75.29    6.20
   2  -7   5   94.99    6.00
   3  -7   5   90.89    6.90
   3  -7   5   75.29    5.60
   3   7   5   75.89    6.00
   4  -7   5   24.90    4.50
   4  -7   5   14.40    3.10
   4   7   5   14.60    3.20
   5  -7   5    0.90    2.20
   5  -7   5    5.20    3.30
   5   7   5    4.40    2.50
   6  -7   5   15.10    3.00
   6  -7   5   10.10    3.90
   6   7   5    8.00    2.40
   7  -7   5   30.20    4.00
   7  -7   5   31.10    5.00
   7   7   5   30.30    3.80
   8  -7   5    7.40    2.60
   8  -7   5    8.80    4.10
   8   7   5    2.80    2.20
   9  -7   5    5.40    3.90
   9   7   5    2.70    2.10
  10  -7   5    0.50    3.40
  10   7   5    2.70    2.50
  11  -7   5   10.60    4.70
  11   7   5   12.40    3.00
  12  -7   5   -1.30    4.20
  12   7   5    1.50    2.80
  13  -7   5    7.40    4.90
  13   7   5   -2.60    2.80
  13   7   5    2.30    2.60
  14  -8  -5    9.90    7.20
  14   8  -5    6.10    3.10
  13  -8  -5   13.20    6.90
  13   8  -5   10.60    3.70
  12  -8  -5    4.50    5.40
  12   8  -5    8.80    3.40
  11  -8  -5   -2.80    4.50
  11   8  -5   -1.50    2.80
  10  -8  -5    3.30    4.70
  10   8  -5   -2.40    2.70
   9  -8  -5   37.00    6.80
   9   8  -5   22.00    3.80
   8  -8  -5   36.00    6.40
   8   8  -5   29.00    4.50
   7  -8  -5    1.80    3.90
   7   8  -5    3.90    2.80
   6  -8  -5    3.60    3.90
   6   8  -5    6.20    2.90
   5  -8  -5   76.19    8.50
   5   8  -5   72.39    6.10
   4  -8  -5   31.40    5.70
  -4  -8   5   23.00    3.80
   4   8  -5   19.60    4.20
   3  -8  -5   10.10    4.70
  -3  -8   5    2.60    2.60
   3   8  -5    4.90    2.90
   2  -8  -5   45.70    6.40
  -2  -8   5   52.39    5.00
  -2  -8   5   53.09    6.10
   1  -8  -5   64.59    7.20
  -1  -8   5   61.29    6.70
  -1  -8   5   61.19    5.20
   0  -8   5   11.80    4.20
   0  -8  -5   12.40    4.30
   0  -8   5   21.40    3.70
   1  -8   5   46.30    5.90
  -1  -8  -5   74.89    7.90
   2  -8   5   27.70    4.00
   2  -8   5   32.60    5.40
   3  -8   5   30.30    4.10
   3  -8   5   25.50    4.90
   3   8   5   24.20    3.90
   4  -8   5   14.80    3.40
   4  -8   5   15.70    4.50
   4   8   5   13.80    3.50
   5  -8   5   23.70    5.10
   5  -8   5   12.70    3.10
   5   8   5    7.10    2.80
   6  -8   5    4.50    2.50
   6  -8   5    4.90    3.60
   6   8   5    5.90    3.00
   7  -8   5    9.60    3.90
   7  -8   5   11.80    3.10
   7   8   5    6.80    3.00
   8  -8   5    2.00    4.10
   8   8   5   -2.30    2.50
   9  -8   5    0.80    4.20
   9   8   5   -1.20    2.10
  10  -8   5    4.00    4.60
  10   8   5    3.70    3.00
  11  -8   5    3.70    4.90
  11   8   5    0.20    2.60
  12  -9  -5   -2.50    6.90
  12   9  -5   -3.30    2.90
  11  -9  -5   -7.10    6.50
  11   9  -5   -1.90    2.70
  10  -9  -5    0.80    6.60
  10   9  -5    4.00    3.10
   9  -9  -5   -0.80    5.90
   9   9  -5    3.40    3.00
   8  -9  -5    3.40    5.40
   8   9  -5    5.20    3.20
   7  -9  -5    3.90    5.30
   7   9  -5    6.50    3.30
   6  -9  -5   11.40    6.30
   6   9  -5    7.90    3.70
   5  -9  -5    3.30    5.60
   5   9  -5    0.60    2.70
   4  -9  -5   -0.30    4.60
   4   9  -5    8.70    3.70
  -3  -9   5   27.80    4.10
   3  -9  -5   46.10    7.50
   3   9  -5   24.20    4.50
   2  -9  -5   45.70    7.90
  -2  -9   5   30.10    4.30
  -1  -9   5    1.70    3.70
   1  -9  -5   11.00    5.80
  -1  -9   5    9.30    3.10
   0  -9  -5    5.10    5.20
   0  -9   5   -1.20    2.30
   0  -9   5    3.30    3.50
   1  -9   5    3.00    3.70
  -1  -9  -5    8.10    5.10
   1  -9   5    3.80    2.70
   2  -9   5   18.70    3.60
   2  -9   5   27.90    5.80
   2   9   5   22.20    4.00
   3  -9   5   19.60    4.90
   3  -9   5   20.80    3.90
   3   9   5   21.80    4.30
   4  -9   5    9.80    3.20
   4  -9   5   11.70    4.50
   4   9   5    8.50    3.20
   5  -9   5    3.20    4.30
   5  -9   5   -0.80    2.40
   5   9   5    4.00    2.80
   6  -9   5    8.80    5.00
   6   9   5    6.80    3.40
   7  -9   5    9.10    4.50
   7   9   5    7.80    3.10
   8  -9   5   -0.70    4.30
   8   9   5    2.60    2.90
   9  -9   5    4.40    5.00
   9   9   5   -2.70    2.80
  10  -9   5    6.00    4.80
  10   9   5    0.80    3.20
  10 -10  -5    1.90    7.40
  10  10  -5   -2.00    3.00
   9 -10  -5   13.90    8.30
   9  10  -5   11.40    4.30
   8 -10  -5    6.50    7.60
   8  10  -5   -3.50    3.40
   7 -10  -5    1.00    6.40
   7  10  -5   -2.40    3.10
   6 -10  -5   -2.40    6.60
   6  10  -5    2.90    3.30
   5 -10  -5   11.00    6.80
   5  10  -5   10.40    3.90
   4 -10  -5   11.40    6.90
   4  10  -5   12.00    4.00
   3 -10  -5   14.80    6.50
   3  10  -5    1.90    3.70
  -2 -10   5   -0.70    2.50
   2 -10  -5    2.30    6.10
   2  10  -5    1.80    3.60
  -1 -10   5    0.60    2.80
  -1 -10   5    1.20    3.90
   1 -10  -5    2.20    5.80
   0 -10  -5    6.40    7.50
   0 -10   5   10.30    5.30
   1 -10   5   18.40    5.60
  -1 -10  -5   34.50    7.90
   1 -10   5   17.90    4.00
   2 -10   5    5.10    4.80
   2 -10   5    4.20    3.00
   2  10   5    4.70    3.10
   3 -10   5   -3.00    4.40
   3 -10   5    3.60    2.90
   3  10   5   -4.80    2.80
   4 -10   5   15.30    5.30
   4 -10   5   23.90    4.30
   4  10   5   15.20    4.20
   5 -10   5    4.60    4.60
   5  10   5    5.80    3.60
   6 -10   5   -0.30    4.90
   6  10   5    2.00    3.40
   7 -10   5   -1.10    5.00
   7  10   5   -2.60    3.30
   8 -10   5    6.50    5.80
   8  10   5    1.90    3.40
   6 -11  -5    3.90    9.00
   6  11  -5    0.20    4.10
   5 -11  -5   11.30    9.30
   5  11  -5    3.50    3.80
   4 -11  -5    4.50    7.50
   4  11  -5   -1.90    4.00
   3 -11  -5    3.20    7.80
   3  11  -5    0.00    4.10
   2 -11  -5    4.80    7.50
   2  11  -5    3.90    3.70
   1 -11  -5    7.50    8.70
   0 -11   5    3.30    3.20
   0 -11   5    1.80    5.20
   0 -11  -5   -8.30    8.50
   1 -11   5    1.30    5.30
   1 -11   5    1.20    3.30
   2 -11   5    7.40    4.90
   2 -11   5    0.20    3.00
   2  11   5    1.60    3.70
   3 -11   5    8.00    5.40
   3  11   5    7.70    4.30
   4 -11   5    4.00    5.10
   4  11   5    7.50    3.60
  19   0  -6   15.10    3.70
  18   0  -6   10.00    3.40
  17   0  -6    3.20    2.70
  16   0  -6   -0.60    2.00
  15   0  -6    9.30    2.60
  14   0  -6   75.49    5.30
  13   0  -6   95.69    5.80
  12   0  -6    8.00    2.30
  11   0  -6   48.40    3.90
  10   0  -6   66.59    4.10
   9   0  -6    6.90    1.70
  -9   0   6    5.80    1.90
  -8   0   6  117.59    6.40
   8   0  -6  120.09    5.70
  -7   0   6  199.58    9.60
   7   0  -6  221.08    9.00
  -6   0   6 4223.68  159.88
  -6   0   6 4223.08  158.88
  -5   0   6   40.10    2.30
  -5   0   6   36.20    2.90
   5   0  -6   42.50    2.40
  -4   0   6 5585.44  207.78
   4   0  -6 5261.97  208.18
  -4   0   6 5729.23  208.38
  -3   0   6   64.39    3.90
  -3   0   6   67.19    3.40
   3   0  -6   75.19    3.20
  -2   0   6 5395.46  204.38
  -2   0   6 5321.77  203.98
   2   0  -6 5538.85  204.18
   1   0  -6 2549.34   92.59
  -1   0   6 2378.66   93.19
   0   0   6   64.49    3.30
   1   0   6 6172.78  233.68
   2   0   6  241.48   10.10
   2   0   6  247.08    9.50
   3   0   6 2407.76   88.69
   3   0   6 2300.67   89.29
   4   0   6  111.19    5.40
   4   0   6  112.89    4.90
   5   0   6 1370.76   51.69
   5   0   6 1344.77   52.19
   6   0   6   18.10    1.70
   6   0   6   12.00    1.80
   7   0   6  209.98    9.30
   7   0   6  205.08    8.90
   8   0   6  259.57   10.80
   8   0   6  243.88   11.10
   9   0   6    1.90    1.50
   9   0   6    1.90    1.60
  10   0   6   80.39    5.00
  10   0   6   82.29    5.00
  11   0   6   55.79    4.20
  12   0   6    0.80    1.50
  12   0   6    6.60    2.00
  13   0   6   16.30    2.90
  13   0   6   12.50    2.40
  14   0   6    3.20    2.20
  14   0   6    8.10    2.60
  15   0   6    7.10    2.70
  15   0   6   -1.20    2.10
  16   0   6    2.00    2.30
  19  -1  -6    0.70    2.90
  19   1  -6    3.20    2.80
  18  -1  -6   12.20    3.80
  18   1  -6   18.10    3.90
  17  -1  -6    7.10    3.00
  17   1  -6    4.20    2.90
  16  -1  -6    6.40    2.60
  16   1  -6    5.30    2.50
  15  -1  -6   14.60    3.00
  15   1  -6   13.40    2.80
  14  -1  -6   56.39    4.90
  14   1  -6   60.19    4.60
  13  -1  -6   29.40    3.60
  13   1  -6   33.00    3.40
  12  -1  -6   20.60    3.00
  12   1  -6   19.90    2.70
  11  -1  -6   14.70    2.50
  11   1  -6   16.70    2.40
  10  -1  -6   36.30    3.30
 -10   1   6   38.10    4.00
  10   1  -6   38.00    3.20
   9  -1  -6   12.20    2.10
  -9   1   6    9.30    2.20
   9   1  -6   15.30    2.10
  -8  -1   6    1.80    1.40
   8  -1  -6    0.80    1.40
   8   1  -6    0.40    1.10
  -8   1   6    0.90    1.40
  -7  -1   6   22.50    2.10
   7  -1  -6   21.20    2.20
  -7  -1   6   19.60    2.40
   7   1  -6   23.20    2.00
  -7   1   6   20.20    2.50
  -6  -1   6  412.96   16.40
  -6   1   6  409.16   17.10
   5  -1  -6   55.29    3.10
  -5  -1   6   55.29    3.10
   5   1  -6   56.59    2.80
  -5   1   6   53.69    2.50
  -5   1   6   55.49    3.60
  -4  -1   6 1156.08   44.50
  -4  -1   6 1160.18   44.70
   4  -1  -6 1171.28   44.40
  -4   1   6 1190.98   45.10
  -4   1   6 1169.08   44.00
   4   1  -6 1126.49   44.00
   3  -1  -6    0.40    0.60
  -3  -1   6    1.90    1.00
  -3  -1   6    2.00    1.00
   3   1  -6    1.70    0.50
  -3   1   6    0.50    1.00
  -3   1   6    1.20    0.60
  -2  -1   6   61.19    3.20
   2  -1  -6   57.39    2.90
  -2  -1   6   59.89    3.40
   2   1  -6   56.09    2.60
  -2   1   6   56.99    2.80
  -2   1   6   55.99    3.60
  -1  -1   6   18.30    1.80
   1  -1  -6   19.10    1.40
  -1   1   6   21.30    1.50
   1   1  -6   22.30    1.20
   0  -1   6   48.30    2.90
   0  -1  -6   52.29    2.40
   0   1   6   52.49    2.70
   1  -1   6   35.20    2.40
   1  -1   6   36.30    1.90
   1   1   6   36.20    2.10
   1   1   6   31.70    1.50
   2  -1   6    1.70    0.70
   2  -1   6   -1.00    1.00
   2   1   6    1.70    0.40
   2   1   6    1.70    0.80
   3  -1   6   62.69    3.20
   3  -1   6   66.29    3.70
   3   1   6   65.09    2.80
   3   1   6   67.09    3.40
   4  -1   6   51.49    2.90
   4  -1   6   54.29    3.30
   4   1   6   49.20    2.50
   4   1   6   50.09    3.00
   5  -1   6   72.59    3.90
   5  -1   6   72.29    4.10
   5   1   6   74.49    3.90
   5   1   6   73.09    3.50
   6  -1   6   23.30    2.20
   6  -1   6   22.80    2.50
   6   1   6   22.80    2.30
   6   1   6   21.60    1.90
   7  -1   6   22.30    2.50
   7  -1   6   27.20    2.40
   7   1   6   28.00    2.60
   7   1   6   23.70    2.20
   8  -1   6   32.90    3.10
   8  -1   6   27.00    2.90
   8   1   6   33.80    3.00
   8   1   6   34.80    2.80
   9  -1   6   48.20    3.80
   9   1   6   46.60    3.70
   9   1   6   46.70    3.40
  10  -1   6   28.60    3.20
  10  -1   6   27.40    3.30
  10   1   6   31.10    3.40
  10   1   6   27.70    2.90
  11  -1   6    5.00    1.90
  11  -1   6    8.50    2.30
  11   1   6    2.80    1.90
  11   1   6    1.30    1.60
  12  -1   6   -0.20    1.90
  12  -1   6    0.20    1.90
  12   1   6    2.20    1.90
  12   1   6    1.20    1.90
  13  -1   6    1.70    2.00
  13  -1   6    3.20    2.20
  13   1   6    7.70    2.20
  13   1   6    1.20    1.60
  14  -1   6    2.30    2.20
  14  -1   6    9.00    3.00
  14   1   6    4.50    2.30
  14   1   6    1.30    0.90
  15  -1   6    2.10    2.30
  15  -1   6    4.20    3.00
  15   1   6    5.20    2.60
  15   1   6    0.10    2.10
  16   1   6    3.80    2.50
  19  -2  -6    9.00    4.30
  19   2  -6    7.00    3.40
  18  -2  -6    5.20    3.40
  18   2  -6    4.30    3.00
  17  -2  -6    8.30    3.40
  17   2  -6    8.00    3.20
  16  -2  -6   10.00    3.60
  16   2  -6    9.60    2.80
  15  -2  -6   62.49    5.70
  15   2  -6   65.19    5.30
  14  -2  -6   23.80    3.80
  14   2  -6   30.70    3.40
  13  -2  -6   10.60    2.80
  13   2  -6   10.60    2.50
  12  -2  -6   49.20    4.60
  12   2  -6   60.39    4.30
  11  -2  -6   46.00    4.40
 -11   2   6   40.00    4.50
  11   2  -6   44.60    3.60
  10  -2  -6  267.17   12.60
 -10   2   6  266.17   12.80
  10   2  -6  297.57   12.00
   9  -2  -6  383.76   16.70
   9   2  -6  410.96   16.00
  -9   2   6  379.56   16.90
   8  -2  -6  236.78   10.80
   8   2  -6  238.68   10.00
  -8   2   6  237.78   11.00
   7  -2  -6  339.67   15.00
  -7  -2   6  358.06   14.70
  -7  -2   6  375.66   15.20
   7   2  -6  365.46   14.30
  -7   2   6  343.37   15.20
  -6  -2   6  200.88    8.60
  -6  -2   6  189.48    8.70
   6   2  -6  188.78    8.10
  -6   2   6  196.48    9.00
  -5  -2   6  464.15   18.00
  -5  -2   6  458.05   17.90
   5  -2  -6  476.95   18.20
  -5   2   6  448.06   18.30
   5   2  -6  388.66   17.40
   4  -2  -6 1114.39   42.30
  -4  -2   6 1110.09   42.10
  -4  -2   6 1093.19   42.20
  -4   2   6 1105.59   41.30
  -4   2   6 1080.49   42.60
   4   2  -6 1058.89   41.70
  -3  -2   6  638.84   24.50
   3  -2  -6  634.04   24.70
  -3  -2   6  606.14   24.70
  -3   2   6  635.44   25.20
   3   2  -6  604.64   24.20
  -3   2   6  642.64   23.90
  -2  -2   6  205.38    8.70
   2  -2  -6  207.98    8.90
  -2  -2   6  208.58    9.10
  -2   2   6  218.38    8.30
  -2   2   6  210.88    9.40
   2   2  -6  200.88    8.60
   1  -2  -6 1194.68   46.80
  -1  -2   6 1292.67   46.90
  -1  -2   6 1222.28   47.10
   1   2  -6 1152.98   46.60
  -1   2   6 1253.27   46.40
   0  -2   6 2220.08   83.19
   0  -2  -6 2181.38   82.79
   0  -2   6 2169.78   82.79
   0   2   6 2173.08   82.59
   1  -2   6 1225.18   46.30
   1  -2   6 1246.18   46.70
   1   2   6 1124.39   45.90
   1   2   6 1244.98   46.10
   2  -2   6  657.83   25.60
   2  -2   6  693.83   26.00
   2   2   6  664.43   25.40
   2   2   6  605.94   25.00
   3  -2   6  306.07   12.70
   3  -2   6  302.87   12.90
   3   2   6  318.77   12.50
   3   2   6  294.27   12.00
   4  -2   6  115.09    5.50
   4  -2   6  111.29    5.70
   4   2   6  107.09    4.70
   4   2   6  109.79    5.20
   5  -2   6   15.70    2.00
   5  -2   6   15.50    2.10
   5   2   6   12.70    1.70
   5   2   6   11.40    1.20
   6  -2   6   39.30    3.20
   6  -2   6   26.90    3.00
   6   2   6   47.90    3.10
   6   2   6   46.50    2.50
   7  -2   6  119.19    6.50
   7   2   6  130.19    6.30
   7   2   6  132.69    5.80
   8  -2   6    9.30    2.00
   8  -2   6    8.50    2.10
   8   2   6    6.90    1.90
   8   2   6    5.40    1.60
   9  -2   6  257.27   12.20
   9  -2   6  278.37   12.50
   9   2   6  264.87   11.40
   9   2   6  279.57   12.00
  10  -2   6  140.69    7.70
  10  -2   6  123.89    7.30
  10   2   6  130.89    6.90
  10   2   6  135.09    6.60
  11  -2   6    7.20    2.30
  11  -2   6    6.00    2.40
  11   2   6    4.20    2.00
  11   2   6    5.50    2.10
  12  -2   6   17.60    3.50
  12  -2   6    9.80    2.70
  12   2   6   17.20    2.70
  12   2   6   11.30    2.50
  13  -2   6    6.50    2.50
  13  -2   6    7.50    2.90
  13   2   6    4.70    2.10
  13   2   6    6.60    2.30
  14  -2   6   13.70    3.20
  14  -2   6   20.10    4.10
  14   2   6   17.80    3.20
  14   2   6   19.50    3.00
  15  -2   6    3.40    3.20
  15   2   6   -0.10    2.00
  15   2   6    4.20    3.80
  16   2   6    1.90    1.60
  18  -3  -6    5.50    3.70
  18   3  -6    2.30    3.10
  17  -3  -6    6.20    3.70
  17   3  -6    1.20    3.20
  16  -3  -6   -0.20    2.90
  16   3  -6   -2.00    2.70
  15  -3  -6   17.00    3.90
  15   3  -6   19.40    3.50
  14  -3  -6    0.90    2.80
  14   3  -6    0.50    2.10
  13  -3  -6   10.80    3.30
  13   3  -6   10.00    2.60
  12  -3  -6   22.00    3.70
  12   3  -6   21.80    2.70
  11  -3  -6   97.49    6.80
 -11   3   6  103.29    6.70
  11   3  -6  114.79    5.80
  10  -3  -6   53.19    5.10
 -10   3   6   55.49    4.60
  10   3  -6   59.59    3.80
   9  -3  -6   22.10    3.20
   9   3  -6   17.60    2.10
  -9   3   6   20.90    2.90
   8  -3  -6    8.20    2.20
  -8   3   6    9.00    2.20
   8   3  -6   11.60    1.70
   7  -3  -6  111.99    6.30
  -7  -3   6  115.79    5.90
  -7   3   6  114.09    6.30
   7   3  -6  115.49    5.60
   6  -3  -6  216.18   10.10
  -6  -3   6  221.68    9.70
   6   3  -6  213.68    9.20
  -6   3   6  213.38    9.90
  -5  -3   6   51.29    3.60
  -5  -3   6   54.19    3.20
  -5   3   6   51.09    3.60
   4  -3  -6   96.39    5.50
  -4  -3   6  101.29    5.30
  -4  -3   6  102.89    4.90
  -4   3   6  100.59    5.60
   4   3  -6   98.29    4.90
  -4   3   6  102.89    4.10
   3  -3  -6   97.89    5.50
  -3  -3   6  100.49    5.30
  -3  -3   6  106.69    4.70
   3   3  -6   98.59    5.00
  -3   3   6  104.19    5.60
  -3   3   6  104.09    4.30
  -2  -3   6  401.86   16.20
   2  -3  -6  392.16   16.20
  -2  -3   6  399.26   15.40
  -2   3   6  389.36   16.50
  -2   3   6  398.06   15.20
   2   3  -6  366.06   15.80
  -1  -3   6   75.89    4.30
  -1  -3   6   79.49    4.50
  -1  -3   6   81.59    3.70
   1  -3  -6   69.39    4.30
   0  -3  -6   55.39    3.50
   0  -3   6   55.09    3.60
   0  -3   6   54.49    3.50
  -1  -3  -6  189.38    8.40
   1  -3   6  177.28    8.40
   1  -3   6  190.08    8.60
   2  -3   6   13.90    2.00
   2  -3   6   13.40    2.00
   2   3   6   12.40    1.60
   3  -3   6  127.29    6.50
   3  -3   6  127.69    6.40
   3   3   6  125.29    5.70
   4  -3   6   90.69    5.10
   4  -3   6   96.59    5.20
   4   3   6   88.09    4.30
   4   3   6   85.39    4.60
   5  -3   6  117.59    6.40
   5   3   6  122.09    5.50
   5   3   6  132.49    6.10
   6  -3   6   11.00    2.20
   6  -3   6   11.90    2.20
   6   3   6   16.10    2.10
   6   3   6   12.30    1.50
   7  -3   6   22.20    3.00
   7  -3   6   26.60    3.20
   7   3   6   22.40    2.60
   7   3   6   26.20    2.30
   8  -3   6   68.39    5.10
   8  -3   6   68.09    4.80
   8   3   6   72.39    4.50
   8   3   6   72.49    4.00
   9  -3   6  112.79    7.00
   9  -3   6  107.19    6.60
   9   3   6  112.69    6.20
   9   3   6  114.29    5.70
  10  -3   6   25.20    3.40
  10  -3   6   34.50    4.20
  10   3   6   28.70    3.20
  10   3   6   32.30    3.00
  11  -3   6    3.00    2.20
  11  -3   6    8.60    2.90
  11   3   6    6.50    2.10
  11   3   6    5.20    2.10
  12  -3   6    4.90    2.30
  12  -3   6    4.20    2.80
  12   3   6    3.40    2.10
  12   3   6    0.90    2.10
  13  -3   6   10.80    2.90
  13  -3   6   15.50    3.90
  13   3   6   18.20    3.00
  13   3   6   14.90    2.90
  14  -3   6   16.80    4.20
  14   3   6    8.60    2.70
  14   3   6    8.00    2.50
  15  -3   6    3.70    3.80
  15   3   6    3.40    2.60
  18  -4  -6   23.50    6.10
  18   4  -6    6.30    3.70
  17  -4  -6   13.20    5.30
  17   4  -6   15.90    3.80
  16  -4  -6    0.20    3.50
  16   4  -6   -2.60    2.90
  15  -4  -6    3.20    3.70
  15   4  -6    3.50    2.60
  14  -4  -6   14.20    4.00
  14   4  -6    7.30    2.90
  13  -4  -6   16.70    4.10
  13   4  -6   12.00    2.80
  12  -4  -6   23.40    4.10
  12   4  -6   21.50    2.90
  11  -4  -6   54.39    5.70
 -11   4   6   44.90    4.90
  11   4  -6   51.49    4.10
  10  -4  -6    3.20    2.40
  10   4  -6   10.50    2.20
 -10   4   6    3.30    2.10
   9  -4  -6   63.69    5.50
  -9   4   6   57.19    4.80
   9   4  -6   62.69    4.00
   8  -4  -6   61.39    5.00
  -8   4   6   61.79    4.50
   8   4  -6   62.09    4.20
   7  -4  -6  113.69    7.10
  -7  -4   6  124.99    6.60
  -7   4   6  126.19    6.90
   7   4  -6  131.59    6.40
   6  -4  -6   82.59    5.70
  -6  -4   6   90.49    5.20
  -6   4   6   92.19    5.40
   6   4  -6   92.79    5.10
  -5  -4   6  294.47   12.60
   5  -4  -6  247.38   12.90
  -5   4   6  294.57   12.70
   5   4  -6  309.87   12.50
   4  -4  -6  109.39    5.80
   4   4  -6   89.09    5.00
  -3  -4   6   85.79    4.90
   3  -4  -6   80.49    5.20
  -3   4   6   93.19    5.10
   3   4  -6   70.39    4.50
   2  -4  -6  481.05   20.80
  -2  -4   6  514.95   19.30
  -2  -4   6  502.35   20.60
  -2   4   6  505.05   20.80
   1  -4  -6  558.34   23.10
  -1  -4   6  579.84   21.60
  -1  -4   6  548.75   22.90
  -1  -4   6  566.54   23.00
   0  -4   6  968.50   38.00
   0  -4   6  988.40   36.70
   0  -4  -6  942.31   38.00
   0  -4   6  959.10   38.10
  -1  -4  -6  913.11   34.90
   1  -4   6  889.61   34.90
   1  -4   6  838.12   34.90
   2  -4   6   38.80    3.70
   2  -4   6   32.80    3.40
   2   4   6   38.90    3.00
   3  -4   6  226.98   10.70
   3  -4   6  236.18   10.60
   3   4   6  226.78   10.00
   4  -4   6  327.87   14.90
   4   4   6  346.17   14.10
   5  -4   6  803.22   33.20
   5  -4   6  831.92   33.00
   5   4   6  832.32   32.10
   6  -4   6   59.59    4.30
   6  -4   6   57.39    4.60
   6   4   6   60.29    3.60
   7  -4   6  127.59    7.70
   7  -4   6  129.59    7.30
   7   4   6  144.39    6.50
   8  -4   6   22.80    3.20
   8  -4   6   22.30    3.40
   8   4   6   13.00    2.40
   8   4   6   15.50    2.20
   9  -4   6  171.08    9.50
   9  -4   6  178.68   10.00
   9   4   6  200.38    9.30
   9   4   6  187.88    8.40
  10  -4   6   87.99    6.10
  10  -4   6   86.29    6.70
  10   4   6   93.29    5.10
  10   4   6   87.49    5.60
  11  -4   6    6.80    2.70
  11  -4   6    6.20    3.00
  11   4   6    5.70    2.30
  11   4   6    5.50    2.10
  12  -4   6    1.40    2.20
  12  -4   6   -1.90    2.70
  12   4   6    2.50    2.00
  12   4   6   -0.50    2.10
  13  -4   6   35.70    5.50
  13   4   6   25.20    3.50
  13   4   6   31.00    3.70
  14  -4   6   12.00    4.10
  14   4   6    6.90    2.50
  14   4   6    7.80    2.90
  15  -4   6    4.10    5.10
  15   4   6    6.60    2.80
  17  -5  -6    5.50    5.10
  17   5  -6   -2.50    3.50
  16  -5  -6    3.80    4.60
  16   5  -6    1.70    3.00
  15  -5  -6   -3.80    3.40
  15   5  -6    2.50    3.00
  14  -5  -6    2.40    3.90
  14   5  -6    2.00    2.40
  13  -5  -6   -2.20    2.80
  13   5  -6    1.80    2.20
  12  -5  -6    4.50    3.40
  12   5  -6    6.30    2.60
  11  -5  -6   24.60    4.50
  11   5  -6   20.70    3.10
 -11   5   6   21.70    3.80
  10  -5  -6   30.70    4.60
  10   5  -6   30.10    3.30
 -10   5   6   26.20    3.50
   9  -5  -6   17.80    3.70
   9   5  -6   15.30    2.50
  -9   5   6   17.90    3.10
   8  -5  -6   40.50    4.70
  -8   5   6   45.80    4.30
   8   5  -6   43.10    3.70
   7  -5  -6   35.40    4.40
  -7  -5   6   33.40    3.60
   7   5  -6   40.80    3.60
  -7   5   6   31.10    3.50
   6  -5  -6  111.29    7.40
  -6  -5   6  107.39    6.40
   6   5  -6  119.39    6.40
  -6   5   6  127.99    6.70
  -5  -5   6   13.70    2.50
   5  -5  -6   10.40    2.60
   5   5  -6   13.70    2.30
  -5   5   6   16.30    2.40
   4  -5  -6   66.69    5.20
  -4  -5   6   73.89    4.80
   4   5  -6   74.79    4.80
  -4   5   6   76.09    4.80
  -3  -5   6   79.29    5.00
  -3   5   6   88.19    5.10
   3   5  -6   67.89    4.80
  -2  -5   6  128.19    6.70
   2  -5  -6  118.39    7.00
  -2   5   6  115.39    6.60
   1  -5  -6    0.90    1.70
  -1  -5   6    0.50    1.80
  -1  -5   6    1.10    1.60
   0  -5   6   30.60    3.50
   0  -5  -6   25.60    3.20
   0  -5   6   31.60    3.50
   1  -5   6   28.70    3.40
  -1  -5  -6   31.40    3.60
   1  -5   6   26.80    3.20
   2  -5   6   96.69    6.30
   2  -5   6  101.69    5.90
   3  -5   6   10.50    2.60
   3  -5   6    4.20    1.30
   3   5   6   13.30    2.30
   4  -5   6   38.30    3.90
   4  -5   6   37.30    4.20
   4   5   6   43.70    3.50
   5  -5   6  117.99    7.50
   5  -5   6  125.29    7.20
   5   5   6  132.69    6.60
   6  -5   6  264.27   12.40
   6  -5   6  250.07   12.80
   6   5   6  272.97   11.70
   7  -5   6  123.29    8.10
   7  -5   6  135.19    7.80
   7   5   6  138.59    6.80
   8  -5   6   26.00    3.60
   8  -5   6   20.60    3.90
   8   5   6   31.30    3.00
   9  -5   6    1.70    2.50
   9  -5   6    1.30    2.10
   9   5   6    5.10    1.90
  10  -5   6   11.40    3.60
  10  -5   6   11.30    2.90
  10   5   6    7.00    2.30
  10   5   6   11.40    2.30
  11  -5   6   14.80    3.90
  11  -5   6   17.40    3.40
  11   5   6    9.90    2.50
  11   5   6   16.90    3.20
  12  -5   6    5.90    3.50
  12   5   6    5.40    2.50
  12   5   6    2.80    2.20
  13  -5   6   15.40    4.60
  13   5   6   18.30    3.20
  13   5   6   14.70    3.20
  14  -5   6   13.10    4.60
  14   5   6    2.90    3.00
  14   5   6    3.60    2.40
  16  -6  -6    1.40    5.00
  16   6  -6   -0.50    3.50
  15  -6  -6   -0.50    4.40
  15   6  -6   -0.20    3.00
  14  -6  -6   16.00    5.20
  14   6  -6   13.60    3.50
  13  -6  -6   25.30    6.00
  13   6  -6   19.20    3.30
  12  -6  -6    6.80    4.10
  12   6  -6    4.80    2.40
  11  -6  -6    7.60    3.90
  11   6  -6    5.20    2.40
 -11   6   6    1.10    2.20
  10  -6  -6   63.79    7.00
 -10   6   6   64.79    5.50
  10   6  -6   72.09    5.20
   9  -6  -6  122.19    8.90
  -9   6   6  128.99    7.60
   9   6  -6  127.69    7.30
   8  -6  -6   52.19    6.10
   8   6  -6   70.59    5.10
  -8   6   6   63.69    5.00
   7  -6  -6   74.59    6.70
   7   6  -6   91.19    6.00
  -7   6   6   86.79    5.60
  -6  -6   6   96.99    5.90
   6  -6  -6   84.89    6.80
   6   6  -6   92.69    6.10
  -6   6   6   86.89    5.60
  -5  -6   6  142.19    7.90
   5  -6  -6  158.18    9.10
  -5   6   6  147.19    7.80
   5   6  -6  153.58    8.10
   4  -6  -6  163.08    9.50
  -4  -6   6  171.48    8.70
   4   6  -6  165.18    8.80
  -4   6   6  167.38    8.40
   3  -6  -6   98.29    6.70
  -3  -6   6  101.09    6.20
  -3   6   6   94.79    5.80
   3   6  -6   90.49    6.20
  -2  -6   6   19.50    3.50
  -2  -6   6   25.90    3.40
  -2   6   6   15.00    2.70
  -1  -6   6  144.69    8.20
  -1  -6   6  137.59    7.80
  -1   6   6  143.19    7.70
   0  -6   6  124.59    7.00
   0  -6  -6  117.09    7.50
   0  -6   6  125.59    7.60
  -1  -6  -6   56.79    5.20
   1  -6   6   49.80    4.70
   1  -6   6   44.10    4.70
   2  -6   6   11.80    2.90
   2  -6   6    9.20    2.60
   3  -6   6  103.59    7.00
   3   6   6  104.29    6.20
   4  -6   6  105.09    6.60
   4  -6   6  111.29    7.40
   4   6   6   93.99    6.20
   5  -6   6   77.39    6.20
   5  -6   6   78.19    5.80
   5   6   6   77.49    5.30
   6  -6   6   45.60    4.80
   6  -6   6   53.19    5.80
   6   6   6   66.99    4.70
   7  -6   6   13.40    3.70
   7  -6   6   10.90    2.80
   7   6   6   12.60    2.50
   8  -6   6   29.90    3.90
   8  -6   6   25.50    4.70
   8   6   6   22.60    3.00
   9  -6   6   18.00    4.40
   9  -6   6   23.40    3.50
   9   6   6   17.50    2.80
  10  -6   6   14.10    3.60
  10  -6   6    5.00    3.60
  10   6   6    9.30    2.30
  11  -6   6   -0.80    2.90
  11   6   6    1.40    2.20
  11   6   6   -0.10    2.20
  12  -6   6    3.60    3.80
  12   6   6    1.30    2.50
  12   6   6    1.30    2.50
  13  -6   6   13.00    5.30
  13   6   6    4.40    3.00
  13   6   6    7.60    3.10
  15  -7  -6   -1.00    5.10
  15   7  -6    7.20    3.30
  14  -7  -6   -7.00    4.90
  14   7  -6   -0.20    2.70
  13  -7  -6   -1.10    5.20
  13   7  -6   -0.80    2.80
  12  -7  -6    5.90    4.90
  12   7  -6    2.90    2.50
  11  -7  -6   28.30    6.30
  11   7  -6   22.20    3.60
 -11   7   6   19.60    3.80
  10  -7  -6    3.70    3.90
  10   7  -6    0.00    2.60
 -10   7   6   -2.40    2.20
   9  -7  -6   44.80    6.70
  -9   7   6   37.20    4.30
   9   7  -6   34.50    4.20
   8  -7  -6   11.60    4.50
  -8   7   6    7.10    2.60
   8   7  -6    4.90    2.60
   7  -7  -6    9.50    4.00
  -7   7   6   13.70    2.80
   7   7  -6   11.30    3.00
   6  -7  -6   12.40    4.50
  -6  -7   6   15.20    3.20
   6   7  -6   13.20    3.10
  -6   7   6   18.40    3.00
  -5  -7   6   55.59    5.30
   5  -7  -6   61.69    6.60
   5   7  -6   63.89    5.20
  -5   7   6   57.09    4.60
   4  -7  -6   23.70    4.60
  -4  -7   6   32.30    3.90
   4   7  -6   25.40    3.70
  -4   7   6   22.20    3.00
   3  -7  -6   17.30    4.00
  -3  -7   6   23.10    3.40
  -3   7   6   18.60    2.90
   3   7  -6   20.90    3.50
  -2  -7   6   64.39    5.80
   2  -7  -6   81.99    7.30
  -2  -7   6   56.19    4.90
  -2   7   6   55.79    4.80
  -1  -7   6   65.29    5.20
   1  -7  -6   55.39    5.90
  -1  -7   6   49.80    5.40
  -1   7   6   61.39    4.70
   0  -7   6    8.80    3.30
   0  -7   6   12.60    2.90
   0   7   6   10.50    2.60
   1  -7   6   11.40    3.00
   1  -7   6   13.50    3.40
  -1  -7  -6   15.20    3.80
   2  -7   6   69.19    6.70
   3  -7   6   17.10    3.90
   3  -7   6   15.40    3.20
   3   7   6   14.00    3.10
   4  -7   6   -1.30    2.20
   4  -7   6   -1.50    2.80
   4   7   6    2.30    2.30
   5  -7   6   35.80    4.30
   5  -7   6   42.60    5.60
   5   7   6   35.10    4.10
   6  -7   6   29.60    4.90
   6  -7   6   22.20    3.70
   6   7   6   28.20    3.70
   7  -7   6    7.50    2.80
   7  -7   6   15.90    4.00
   7   7   6   14.30    3.00
   8  -7   6   -4.10    2.90
   8  -7   6   -0.70    2.40
   8   7   6    0.70    2.20
   9  -7   6    5.50    4.00
   9   7   6    8.50    2.60
  10  -7   6    8.40    4.30
  10   7   6   14.90    3.10
  11  -7   6    2.80    4.10
  11   7   6    0.90    2.40
  12  -7   6    8.80    4.90
  12   7   6    3.10    2.80
  12   7   6    4.10    3.00
  14  -8  -6    0.50    6.60
  14   8  -6   -0.90    2.90
  13  -8  -6   15.30    7.50
  13   8  -6    1.70    3.30
  12  -8  -6   13.30    6.30
  12   8  -6    6.30    3.00
  11  -8  -6    1.00    4.80
  11   8  -6    1.70    2.80
  10  -8  -6   19.80    6.40
  10   8  -6   15.20    3.50
   9  -8  -6   16.30    5.90
   9   8  -6    8.80    3.10
   8  -8  -6   -4.60    4.80
   8   8  -6    1.10    3.00
   7  -8  -6   22.80    5.70
   7   8  -6   14.20    3.60
   6  -8  -6   64.49    7.70
   6   8  -6   50.89    5.30
   5  -8  -6   17.70    5.40
  -5  -8   6    5.60    2.70
   5   8  -6    8.20    3.10
  -4  -8   6    0.30    2.30
   4  -8  -6    1.00    3.90
   4   8  -6    5.90    2.90
   3  -8  -6    2.00    3.90
  -3  -8   6    0.30    2.50
   3   8  -6    5.10    3.20
  -2  -8   6    7.80    3.10
   2  -8  -6   13.50    4.90
  -2   8   6   12.60    3.20
  -1  -8   6   34.40    5.50
   1  -8  -6   63.29    7.40
  -1  -8   6   36.10    4.60
  -1   8   6   37.80    4.20
   0  -8   6   68.79    7.10
   0  -8   6   67.89    5.50
   0  -8  -6   70.99    7.60
   0   8   6   52.09    5.20
   1  -8   6   17.50    3.50
  -1  -8  -6   11.60    4.20
   1  -8   6   16.50    4.00
   2  -8   6    6.70    3.80
   2  -8   6    1.10    2.10
   3  -8   6   65.49    7.00
   3  -8   6   53.69    5.30
   3   8   6   43.50    4.90
   4  -8   6   43.50    5.90
   4  -8   6   55.79    5.40
   4   8   6   36.90    4.70
   5  -8   6   23.30    4.80
   5  -8   6   26.90    4.20
   5   8   6   21.50    4.00
   6  -8   6    7.90    3.10
   6   8   6   11.40    3.00
   7  -8   6    9.10    4.40
   7  -8   6   10.80    3.20
   7   8   6    8.60    2.70
   8  -8   6    5.40    4.30
   8   8   6    2.80    2.40
   9  -8   6    4.30    4.40
   9   8   6    0.30    2.60
  10  -8   6    6.90    4.70
  10   8   6    2.90    2.70
  11  -8   6    3.50    4.80
  11   8   6   -1.50    2.60
  12  -9  -6   16.00    8.20
  12   9  -6    0.70    3.20
  11  -9  -6    4.00    7.30
  11   9  -6    3.20    3.60
  10  -9  -6   -3.90    5.50
  10   9  -6   -3.90    3.10
   9  -9  -6    3.50    5.80
   9   9  -6   -0.90    2.90
   8  -9  -6    7.70    6.50
   8   9  -6    1.20    2.90
   7  -9  -6   23.30    7.40
   7   9  -6   15.80    4.10
   6  -9  -6   15.00    6.00
   6   9  -6    9.50    3.90
   5  -9  -6   15.60    6.90
   5   9  -6    8.00    3.40
  -4  -9   6    2.30    2.50
   4  -9  -6    6.10    5.30
   4   9  -6   -0.20    3.20
  -3  -9   6   12.80    3.50
   3  -9  -6   14.40    6.00
   3   9  -6   13.40    3.90
   2  -9  -6    0.10    4.70
  -2  -9   6    6.30    3.10
   2   9  -6   -0.10    2.70
   1  -9  -6    5.70    4.80
  -1  -9   6    5.00    2.70
  -1  -9   6    2.80    3.60
   0  -9  -6    5.10    5.00
   0  -9   6   -1.70    3.60
   0  -9   6    2.40    2.40
  -1  -9  -6   12.90    6.00
   1  -9   6   14.20    4.40
   2  -9   6   22.80    5.40
   2  -9   6   25.20    4.20
   2   9   6   22.10    4.30
   3  -9   6   23.90    5.20
   3  -9   6   15.70    3.80
   3   9   6   24.50    4.40
   4  -9   6    2.30    2.80
   4  -9   6    4.10    4.30
   4   9   6    5.30    3.20
   5  -9   6   -2.60    3.40
   5  -9   6   -0.40    2.50
   5   9   6    2.00    2.60
   6  -9   6    5.70    4.20
   6  -9   6    9.20    3.50
   6   9   6    8.10    3.30
   7  -9   6    8.70    5.10
   7   9   6    4.50    3.10
   8  -9   6    6.70    4.80
   8   9   6    0.60    3.00
   9  -9   6    1.40    4.90
   9   9   6   -3.20    2.60
  10 -10  -6    4.90    7.60
  10  10  -6   -2.10    3.60
   9 -10  -6    8.50    8.80
   9  10  -6   -1.70    3.20
   8 -10  -6    8.30    7.40
   8  10  -6    4.40    4.00
   7 -10  -6   -1.90    7.60
   7  10  -6    3.90    3.80
   6 -10  -6    0.00    6.50
   6  10  -6   -1.50    3.10
   5 -10  -6    1.60    7.50
   5  10  -6    2.90    3.50
   4 -10  -6   17.50    8.00
   4  10  -6   12.50    4.60
  -3 -10   6   15.20    3.80
   3 -10  -6   15.00    7.00
   3  10  -6    6.00    4.10
   2 -10  -6   -1.50    5.80
  -2 -10   6    0.50    2.60
   2  10  -6    4.20    3.40
  -1 -10   6    0.40    2.90
   1 -10  -6    1.40    6.80
   0 -10  -6   -5.00    5.90
   0 -10   6    5.10    4.20
   0 -10   6    7.20    3.10
   1 -10   6   10.60    4.80
   1 -10   6    3.30    2.90
   2 -10   6    3.00    3.00
   2 -10   6    7.30    4.40
   2  10   6    3.70    3.30
   3 -10   6    2.60    3.00
   3 -10   6    0.60    4.50
   3  10   6    0.90    3.30
   4 -10   6   12.70    5.50
   4 -10   6   14.30    3.90
   4  10   6   16.00    4.20
   5 -10   6   14.10    5.70
   5  10   6    5.60    3.70
   6 -10   6   -1.60    4.50
   6  10   6   -2.30    3.10
   7 -10   6    3.20    5.10
   7  10   6    2.60    3.30
   6 -11  -6    7.00    8.30
   6  11  -6    3.30    3.90
   5 -11  -6    9.30    9.60
   5  11  -6   -0.50    3.70
   4 -11  -6   -0.80    7.70
   4  11  -6    1.30    4.10
   3 -11  -6    4.00    8.10
   3  11  -6    6.60    4.50
   2 -11  -6   23.80    9.00
   2  11  -6    4.60    4.40
   1 -11  -6    3.70    8.70
  -1 -11   6   14.80    4.20
   1  11  -6   14.70    4.90
   0 -11   6   -1.80    4.90
   0 -11   6    0.30    1.40
   0 -11  -6  -11.60    8.30
   1 -11   6   10.20    3.70
   1 -11   6   13.10    5.60
   1  11   6    5.70    3.90
   2 -11   6    3.00    5.40
   2 -11   6    7.60    3.60
   2  11   6    4.70    3.50
   3 -11   6    5.90    5.60
   3 -11   6    0.80    3.30
   3  11   6    2.40    3.70
  19   0  -7    2.30    3.20
  18   0  -7    1.30    2.80
  17   0  -7    5.40    3.10
  16   0  -7   -1.40    2.00
  15   0  -7   33.10    4.00
  14   0  -7   18.30    3.30
  13   0  -7  103.79    6.40
  12   0  -7  131.09    7.00
  11   0  -7    9.10    2.10
 -10   0   7   96.89    6.00
  10   0  -7   87.29    5.00
  -9   0   7   -0.60    1.60
   9   0  -7   -0.60    1.20
   8   0  -7  462.85   18.40
  -8   0   7  455.85   19.30
   7   0  -7   -0.50    0.40
  -7   0   7    0.40    1.40
  -7   0   7    0.40    0.90
  -6   0   7   34.30    2.30
  -6   0   7   42.10    3.40
   6   0  -7   37.30    2.50
   5   0  -7   29.40    2.00
  -5   0   7   26.30    2.00
  -5   0   7   29.60    2.60
  -4   0   7   88.89    4.80
   4   0  -7   88.19    4.00
  -4   0   7   87.89    4.20
   3   0  -7   53.19    2.40
  -3   0   7   48.40    2.80
  -3   0   7   44.10    3.30
  -2   0   7  298.57   13.20
   2   0  -7  330.57   12.10
  -2   0   7  302.77   12.60
  -1   0   7   22.80    1.80
   1   0  -7   24.00    1.10
   0   0   7   16.00    1.70
   1   0   7   45.10    2.90
   2   0   7   57.49    2.50
   2   0   7   59.59    3.40
   3   0   7   20.30    2.10
   3   0   7   18.50    1.30
   4   0   7    8.30    1.00
   4   0   7    7.80    1.50
   5   0   7   12.60    1.40
   5   0   7   13.00    1.90
   6   0   7   35.70    2.40
   6   0   7   34.90    2.80
   7   0   7   24.70    2.70
   7   0   7   21.50    2.10
   8   0   7   19.10    2.20
   8   0   7   15.50    2.40
   9   0   7    7.90    2.10
   9   0   7    7.50    1.90
  10   0   7   20.20    2.60
  10   0   7   23.30    3.10
  11   0   7    5.60    2.00
  11   0   7   10.00    2.20
  12   0   7    0.70    1.70
  12   0   7    4.50    1.90
  13   0   7    1.20    0.90
  13   0   7    2.90    2.00
  14   0   7    3.30    2.30
  15   0   7    1.10    2.30
  16   0   7    1.00    2.50
  19  -1  -7   14.70    4.20
  19   1  -7   13.40    3.60
  18  -1  -7    7.30    3.20
  18   1  -7    8.30    3.10
  17  -1  -7    2.20    2.80
  17   1  -7    1.70    2.80
  16  -1  -7    8.10    2.60
  16   1  -7    1.90    2.20
  15  -1  -7   35.20    4.30
  15   1  -7   39.20    4.10
  14  -1  -7    2.30    2.20
  14   1  -7    2.90    2.50
  13  -1  -7   84.99    5.70
  13   1  -7   85.79    5.70
  12  -1  -7   95.29    6.10
  12   1  -7  108.49    5.90
  11  -1  -7  184.58    9.20
  11   1  -7  190.48    8.80
 -11   1   7  189.08    9.80
  10  -1  -7   85.59    5.20
 -10  -1   7   85.59    5.70
  10   1  -7   95.09    5.00
 -10   1   7   86.79    5.70
   9  -1  -7   92.79    5.30
  -9  -1   7   97.49    5.70
   9   1  -7   90.39    5.00
  -9   1   7   91.89    5.70
   8  -1  -7  108.09    5.50
  -8  -1   7  105.99    6.10
   8   1  -7  109.79    5.20
  -8   1   7  104.69    6.00
  -7  -1   7   23.00    2.10
  -7  -1   7   25.20    2.80
  -7   1   7   24.50    2.80
   6  -1  -7 1736.83   63.19
  -6  -1   7 1638.64   62.99
   6   1  -7 1630.44   62.69
  -6   1   7 1634.44   62.39
  -6   1   7 1629.24   63.69
   5  -1  -7  173.38    7.20
  -5  -1   7  164.28    7.30
   5   1  -7  170.78    6.90
  -5   1   7  155.28    6.70
  -5   1   7  157.18    7.80
   4  -1  -7 1440.76   53.89
  -4  -1   7 1431.96   54.39
  -4  -1   7 1393.46   54.19
  -4   1   7 1393.66   54.69
   4   1  -7 1433.26   53.59
  -4   1   7 1402.76   53.69
   3  -1  -7  271.77   11.10
  -3  -1   7  274.97   11.50
  -3  -1   7  264.47   11.60
   3   1  -7  281.07   10.80
  -3   1   7  277.07   12.00
  -3   1   7  281.07   11.00
  -2  -1   7 4356.36  159.08
   2  -1  -7 4284.37  158.28
  -2  -1   7 4182.68  158.78
   2   1  -7 4003.40  158.58
  -2   1   7 4206.58  159.38
  -2   1   7 4211.58  158.38
  -1  -1   7  772.12   29.90
   1  -1  -7  765.02   29.20
  -1   1   7  776.22   29.50
   1   1  -7  750.22   29.00
   0  -1   7  695.23   26.30
   0   1   7  686.73   25.90
   0   1  -7  631.04   25.40
   1  -1   7 1010.50   39.30
   1  -1   7 1010.60   38.60
   1   1   7  974.80   38.20
   1   1   7 1071.59   39.00
   2  -1   7 1456.05   55.39
   2  -1   7 1454.35   56.09
   2   1   7 1480.75   54.99
   2   1   7 1451.45   55.69
   3  -1   7   13.40    1.80
   3  -1   7   13.90    1.40
   3   1   7   11.20    1.10
   3   1   7   11.60    1.50
   4  -1   7  106.79    4.90
   4  -1   7  108.49    5.50
   4   1   7  102.19    4.50
   4   1   7  104.89    5.10
   5  -1   7  284.77   12.20
   5  -1   7  302.67   12.80
   5   1   7  305.27   12.50
   5   1   7  300.07   11.80
   6  -1   7  244.58   10.30
   6  -1   7  229.88   10.60
   6   1   7  247.28    9.80
   6   1   7  234.78   10.40
   7  -1   7  115.29    5.80
   7  -1   7  114.19    6.20
   7   1   7  112.49    5.40
   7   1   7  119.59    6.00
   8  -1   7  218.08   10.40
   8  -1   7  222.48   10.10
   8   1   7  232.18    9.60
   8   1   7  215.38   10.10
   9  -1   7   70.19    4.80
   9  -1   7   62.89    4.60
   9   1   7   72.79    4.50
   9   1   7   69.29    4.30
  10  -1   7   35.30    3.60
  10   1   7   36.00    3.60
  10   1   7   33.30    3.20
  11  -1   7   14.10    2.80
  11  -1   7    7.90    2.20
  11   1   7   17.00    2.50
  11   1   7   19.00    2.80
  12  -1   7   32.60    3.80
  12  -1   7   39.00    4.10
  12   1   7   23.80    3.20
  12   1   7   26.20    3.10
  13  -1   7    6.20    2.60
  13  -1   7   16.70    3.20
  13   1   7   14.80    2.70
  13   1   7    8.00    2.60
  14  -1   7    5.10    2.50
  14   1   7    5.60    2.50
  15  -1   7    5.90    2.70
  15   1   7    2.80    1.20
  16   1   7    6.40    2.70
  19  -2  -7    5.60    3.60
  19   2  -7    2.30    3.10
  18  -2  -7    5.60    3.30
  18   2  -7    6.10    3.50
  17  -2  -7    5.20    3.10
  17   2  -7    4.10    3.10
  16  -2  -7    6.60    3.20
  16   2  -7    3.90    2.50
  15  -2  -7    2.40    2.60
  15   2  -7    1.20    2.30
  14  -2  -7   17.10    3.40
  14   2  -7   18.00    3.00
  13  -2  -7   80.29    6.00
  13   2  -7   84.69    5.60
  12  -2  -7   75.19    5.70
 -12   2   7   80.99    6.20
  12   2  -7   88.89    5.30
  11  -2  -7   67.69    5.00
 -11   2   7   70.39    5.40
  11   2  -7   67.59    4.50
  10  -2  -7  163.98    8.80
 -10   2   7  178.68    9.40
  10   2  -7  183.78    8.20
   9  -2  -7   25.90    3.00
   9   2  -7   23.60    2.40
  -9   2   7   21.70    3.00
  -8  -2   7   36.40    3.60
  -8  -2   7   37.20    2.90
   8  -2  -7   38.60    3.30
  -8   2   7   32.80    3.40
   8   2  -7   40.30    2.70
  -7  -2   7    8.10    1.60
  -7  -2   7    8.00    1.70
   7   2  -7    6.00    1.20
  -7   2   7    6.10    1.80
  -6  -2   7   54.89    3.60
  -6  -2   7   51.89    3.40
   6  -2  -7   53.79    3.60
  -6   2   7   48.30    3.90
   6   2  -7   49.50    2.80
  -5  -2   7  195.98    8.60
  -5  -2   7  193.18    8.60
   5  -2  -7  182.68    8.60
  -5   2   7  189.78    7.60
   5   2  -7  194.08    8.00
  -5   2   7  199.58    9.10
   4  -2  -7   83.59    4.50
  -4  -2   7   84.99    4.60
  -4  -2   7   85.19    4.40
   4   2  -7   83.59    4.00
  -4   2   7   88.69    3.80
  -4   2   7   86.99    5.00
   3  -2  -7   24.30    2.20
  -3  -2   7   23.30    2.10
  -3  -2   7   27.20    2.30
   3   2  -7   23.60    1.70
  -3   2   7   25.40    2.80
  -3   2   7   24.60    1.60
  -2  -2   7   16.30    1.80
  -2  -2   7   17.50    2.00
   2  -2  -7   15.70    1.70
  -2   2   7   15.50    1.30
   2   2  -7   15.00    1.40
  -2   2   7   14.40    2.20
   1  -2  -7  145.09    6.40
  -1  -2   7  145.29    6.90
  -1  -2   7  150.08    6.70
  -1   2   7  149.88    6.20
   1   2  -7  137.49    6.20
   0  -2   7    6.90    1.70
   0  -2  -7   11.00    1.30
   0  -2   7   10.60    1.30
   0   2   7   10.20    1.20
   1  -2   7  120.99    5.90
   1  -2   7  118.79    5.40
   1   2   7  109.29    5.00
   1   2   7  125.89    5.30
   2  -2   7   52.89    3.60
   2  -2   7   49.99    3.10
   2   2   7   50.29    2.50
   2   2   7   57.79    3.00
   3  -2   7   20.40    2.40
   3  -2   7   26.90    2.30
   3   2   7   22.10    1.50
   3   2   7   25.30    2.20
   4  -2   7   52.89    3.40
   4  -2   7   63.69    3.80
   4   2   7   50.69    3.20
   4   2   7   52.19    2.60
   5  -2   7   51.99    3.80
   5  -2   7   52.49    3.50
   5   2   7   51.69    3.30
   5   2   7   53.19    2.70
   6  -2   7   62.29    4.20
   6  -2   7   55.29    3.90
   6   2   7   64.49    3.80
   6   2   7   62.59    3.20
   7  -2   7  129.29    6.70
   7  -2   7  126.79    6.80
   7   2   7  127.89    5.80
   7   2   7  124.69    6.30
   8  -2   7   86.79    5.30
   8   2   7   88.49    4.90
   8   2   7   73.99    4.40
   9  -2   7   69.59    4.80
   9  -2   7   58.29    4.70
   9   2   7   59.79    4.10
   9   2   7   69.39    4.50
  10  -2   7    5.10    2.30
  10  -2   7    3.60    2.10
  10   2   7    1.30    1.90
  10   2   7    3.40    1.90
  11  -2   7   18.30    3.30
  11  -2   7   20.00    3.30
  11   2   7   11.70    2.40
  11   2   7   17.50    2.50
  12  -2   7   11.90    2.90
  12  -2   7   14.10    3.30
  12   2   7   11.70    2.50
  12   2   7    9.30    2.40
  13  -2   7   12.40    3.30
  13  -2   7    6.80    2.60
  13   2   7   10.40    2.90
  13   2   7    7.70    2.50
  14  -2   7    9.20    3.00
  14   2   7    8.40    2.40
  15   2   7    2.70    2.20
  18  -3  -7    7.30    4.00
  18   3  -7    4.00    3.20
  17  -3  -7    1.00    3.50
  17   3  -7    5.50    2.90
  16  -3  -7    7.50    3.60
  16   3  -7    7.70    3.30
  15  -3  -7   23.80    4.30
  15   3  -7   18.20    3.50
  14  -3  -7   19.00    4.10
  14   3  -7   14.90    2.90
  13  -3  -7   13.70    3.60
  13   3  -7   21.60    3.00
  12  -3  -7    5.30    2.60
  12   3  -7    0.00    2.10
 -12   3   7    1.30    2.70
  11  -3  -7  141.09    8.60
  11   3  -7  155.68    7.50
 -11   3   7  142.69    8.50
  10  -3  -7  333.17   15.10
 -10   3   7  297.97   14.70
  10   3  -7  339.57   13.70
   9  -3  -7  421.26   18.70
  -9   3   7  414.06   18.60
   9   3  -7  458.75   17.60
   8  -3  -7  210.88   10.50
  -8  -3   7  226.08   10.10
  -8   3   7  206.28   10.40
   8   3  -7  235.38    9.60
  -7  -3   7  199.98    9.10
   7  -3  -7  174.68    9.40
  -7  -3   7  202.08    9.10
   7   3  -7  208.68    8.70
  -7   3   7  198.48    9.60
  -6  -3   7  816.62   32.10
  -6  -3   7  826.82   31.90
  -6   3   7  790.32   32.40
   5  -3  -7   32.90    3.20
  -5  -3   7   27.90    2.40
  -5  -3   7   25.80    2.70
  -5   3   7   29.90    1.50
   5   3  -7   28.00    2.30
  -5   3   7   30.30    3.20
  -4  -3   7  218.18    9.90
  -4  -3   7  215.58    9.30
   4  -3  -7  217.68   10.00
   4   3  -7  219.78    9.40
  -4   3   7  221.68   10.30
  -4   3   7  221.98    8.60
   3  -3  -7 1230.48   48.30
  -3  -3   7 1252.47   47.60
  -3  -3   7 1266.77   48.30
  -3   3   7 1238.98   48.60
   3   3  -7 1227.78   47.80
  -3   3   7 1248.18   47.10
   2  -3  -7  843.12   33.20
  -2  -3   7  858.71   32.60
  -2  -3   7  857.51   33.40
  -2   3   7  831.62   32.30
  -2   3   7  857.01   33.80
   2   3  -7  825.52   32.80
  -1  -3   7  524.25   20.30
   1  -3  -7  490.55   20.30
  -1  -3   7  508.45   20.60
  -1  -3   7  509.75   19.90
  -1   3   7  486.35   19.50
   0  -3   7  115.29    5.70
   0  -3  -7  109.49    5.60
   0  -3   7  112.89    5.90
   0   3   7  113.39    5.10
   1  -3   7   62.99    4.10
   1  -3   7   60.69    3.90
  -1  -3  -7   68.59    3.80
   1   3   7   62.09    3.40
   2  -3   7  499.05   21.00
   2  -3   7  529.65   21.30
   2   3   7  506.55   20.50
   2   3   7  548.15   20.60
   3  -3   7  641.64   25.00
   3  -3   7  619.04   24.70
   3   3   7  591.34   23.90
   3   3   7  614.14   24.20
   4  -3   7  165.78    7.90
   4  -3   7  169.88    8.10
   4   3   7  156.18    7.00
   4   3   7  170.18    7.50
   5  -3   7   35.50    3.10
   5  -3   7   33.20    3.30
   5   3   7   32.50    2.30
   5   3   7   35.50    2.80
   6  -3   7  479.55   20.50
   6   3   7  501.65   19.30
   6   3   7  495.15   20.00
   7  -3   7  537.75   23.40
   7   3   7  569.14   23.00
   7   3   7  592.34   22.30
   8  -3   7  247.18   12.10
   8  -3   7  249.78   12.10
   8   3   7  268.67   10.80
   8   3   7  265.37   11.70
   9  -3   7    4.20    2.30
   9  -3   7    2.60    2.20
   9   3   7    1.30    1.60
   9   3   7    0.30    1.60
  10  -3   7   46.10    4.60
  10  -3   7   52.79    5.10
  10   3   7   46.60    4.00
  10   3   7   45.50    3.80
  11  -3   7   37.30    4.60
  11  -3   7   49.50    4.80
  11   3   7   37.80    3.80
  11   3   7   35.00    3.40
  12  -3   7   23.10    3.90
  12  -3   7   18.50    3.40
  12   3   7   15.80    2.70
  12   3   7   12.90    2.60
  13  -3   7    7.50    2.80
  13  -3   7    6.60    3.40
  13   3   7   12.90    4.30
  13   3   7   14.40    3.00
  14   3   7    1.80    2.40
  15   3   7   14.80    3.10
  18  -4  -7    4.90    4.50
  18   4  -7   -0.20    3.20
  17  -4  -7    2.20    4.50
  17   4  -7    3.10    3.20
  16  -4  -7   -5.20    2.90
  16   4  -7   -1.80    2.90
  15  -4  -7   20.40    5.00
  15   4  -7   21.00    3.50
  14  -4  -7    4.70    3.20
  14   4  -7    3.90    2.70
  13  -4  -7    6.40    3.20
  13   4  -7    5.50    2.40
  12  -4  -7   11.00    3.40
  12   4  -7   13.60    2.60
 -12   4   7    9.30    3.30
  11  -4  -7   49.60    5.50
 -11   4   7   57.09    5.00
  11   4  -7   52.19    4.10
  10  -4  -7  226.08   12.40
  10   4  -7  260.07   11.10
 -10   4   7  259.87   12.40
   9  -4  -7   63.09    5.90
  -9   4   7   54.49    4.80
   9   4  -7   68.39    4.20
  -8  -4   7   35.90    3.60
   8  -4  -7   45.80    4.80
  -8   4   7   38.30    3.90
   8   4  -7   47.30    3.40
   7  -4  -7   33.60    4.00
  -7  -4   7   34.10    3.40
   7   4  -7   28.20    2.80
  -7   4   7   31.10    3.50
  -6  -4   7  122.39    6.80
   6   4  -7  135.79    6.60
  -6   4   7  135.49    7.20
  -5  -4   7  109.39    6.10
   5  -4  -7  106.49    6.50
  -5   4   7  115.59    6.40
  -5   4   7  117.89    4.60
  -4  -4   7   32.00    2.40
  -4  -4   7   35.00    3.50
   4  -4  -7   38.50    3.50
   4   4  -7   36.20    2.90
  -4   4   7   35.10    3.50
  -4   4   7   35.80    1.90
   3  -4  -7   16.30    2.50
  -3  -4   7   16.40    2.60
  -3  -4   7   19.30    1.70
   3   4  -7   14.40    2.20
  -3   4   7   15.30    1.40
  -3   4   7   21.40    2.70
  -2  -4   7  129.19    5.40
  -2  -4   7  127.29    6.70
   2  -4  -7  130.69    6.80
   2   4  -7  118.79    6.30
  -2   4   7  121.69    6.80
  -1  -4   7   22.90    2.90
  -1  -4   7   19.10    1.60
   1  -4  -7   19.70    2.60
  -1  -4   7   17.00    2.40
   0  -4   7  227.68    9.40
   0  -4   7  227.08   10.40
   0  -4   7  230.08   10.60
   0  -4  -7  223.08   10.40
   1  -4   7   75.79    4.90
   1  -4   7   75.59    5.00
  -1  -4  -7   87.39    5.00
   2  -4   7  121.59    6.70
   2  -4   7  121.49    6.60
   2   4   7  120.99    6.00
   3  -4   7   45.00    3.80
   3  -4   7   44.50    3.80
   3   4   7   49.10    3.20
   4  -4   7  129.59    7.00
   4  -4   7  122.89    7.00
   4   4   7  132.49    6.20
   5  -4   7   29.80    3.50
   5   4   7   33.50    2.90
   5   4   7   30.80    2.60
   6  -4   7   41.20    4.30
   6  -4   7   44.90    4.30
   6   4   7   52.99    3.90
   6   4   7   43.70    3.10
   7  -4   7  288.87   13.20
   7  -4   7  261.57   13.10
   7   4   7  291.97   11.80
   8  -4   7  120.99    7.30
   8  -4   7  120.09    7.40
   8   4   7  118.29    6.60
   8   4   7  120.89    5.90
   9  -4   7    6.10    2.80
   9  -4   7   10.20    2.60
   9   4   7    8.40    1.90
   9   4   7   10.70    2.30
  10  -4   7   14.40    3.10
  10  -4   7    4.40    2.50
  10   4   7    3.80    1.90
  10   4   7    5.30    2.10
  11  -4   7   21.10    4.10
  11  -4   7   17.10    3.50
  11   4   7   15.00    2.60
  11   4   7   23.80    3.30
  12  -4   7   26.10    4.60
  12  -4   7   27.30    4.10
  12   4   7   29.40    3.70
  12   4   7   25.00    3.30
  13  -4   7    7.20    3.70
  13   4   7   10.20    2.70
  14   4   7    0.10    2.40
  17  -5  -7    8.40    5.40
  17   5  -7   -3.00    3.50
  16  -5  -7   13.20    5.50
  16   5  -7    9.70    3.30
  15  -5  -7    3.00    4.00
  15   5  -7   -1.50    2.80
  14  -5  -7   88.59    9.40
  13  -5  -7   16.40    4.30
  13   5  -7   10.00    2.70
  12  -5  -7   35.10    5.40
 -12   5   7   31.60    4.50
  12   5  -7   24.80    3.20
  11  -5  -7   23.00    4.80
 -11   5   7   28.60    4.10
  11   5  -7   26.40    3.20
  10  -5  -7  121.89    8.70
  10   5  -7  148.19    7.40
 -10   5   7  134.59    8.20
   9  -5  -7  163.28    9.90
  -9   5   7  167.68    9.10
   9   5  -7  179.08    8.50
  -8  -5   7   43.60    4.20
   8  -5  -7   49.50    5.20
   8   5  -7   48.80    4.00
  -8   5   7   47.10    4.50
  -7  -5   7  423.66   19.00
   7  -5  -7  435.26   20.10
   7   5  -7  484.05   19.00
  -7   5   7  451.35   19.30
   6  -5  -7  167.78    9.70
  -6  -5   7  183.98    9.20
   6   5  -7  188.48    8.90
  -6   5   7  188.88    9.20
  -5  -5   7  112.59    6.50
  -5   5   7  110.79    6.60
   5   5  -7  125.29    6.50
  -4  -5   7   41.10    3.80
   4  -5  -7   34.60    4.00
  -4   5   7   43.60    4.00
   3  -5  -7  158.48    8.70
  -3  -5   7  176.68    8.60
  -3   5   7  167.88    8.60
   3   5  -7  154.58    8.10
  -2  -5   7  294.17   13.40
   2  -5  -7  289.57   13.70
  -2   5   7  306.07   13.50
  -1  -5   7   40.50    4.00
   1  -5  -7   37.20    3.90
  -1  -5   7   38.80    3.90
   0  -5  -7   18.00    2.80
   0  -5   7   17.50    2.70
   0  -5   7   15.70    2.70
   1  -5   7   56.19    4.60
  -1  -5  -7   54.39    4.50
   1  -5   7   59.49    4.40
   2  -5   7  147.99    7.80
   2  -5   7  136.69    7.80
   2   5   7  137.99    7.20
   3  -5   7  264.57   12.70
   3  -5   7  275.57   12.50
   3   5   7  262.07   11.90
   4  -5   7  449.26   20.00
   4   5   7  465.95   19.00
   5  -5   7   10.50    2.90
   5  -5   7   12.50    2.90
   5   5   7   10.30    2.20
   6  -5   7  213.48   11.20
   6  -5   7  208.48   10.70
   6   5   7  223.28    9.80
   7  -5   7  186.38    9.90
   7  -5   7  164.58   10.00
   7   5   7  201.88    8.70
   8  -5   7   80.79    6.10
   8  -5   7   73.49    6.30
   8   5   7   84.59    4.80
   8   5   7   83.39    5.50
   9  -5   7    5.50    2.80
   9  -5   7    5.80    2.90
   9   5   7   11.20    2.10
   9   5   7   12.30    2.70
  10  -5   7   18.70    3.50
  10  -5   7   21.20    4.10
  10   5   7   17.80    2.60
  10   5   7   15.00    2.90
  11  -5   7   20.20    4.20
  11  -5   7    8.20    3.10
  11   5   7    7.60    2.50
  11   5   7   17.10    2.80
  12  -5   7   21.20    4.50
  12   5   7   17.80    3.00
  12   5   7   14.10    3.00
  13  -5   7    0.90    4.10
  13   5   7    0.30    2.50
  14   5   7   11.90    3.10
  16  -6  -7   -2.90    4.70
  16   6  -7   -4.80    3.20
  15  -6  -7    0.80    4.80
  15   6  -7   -0.10    2.70
  14  -6  -7    3.80    4.60
  14   6  -7   -0.50    2.70
  13  -6  -7    7.80    4.80
  13   6  -7   10.30    3.20
  12  -6  -7   14.30    4.60
 -12   6   7    2.80    2.80
  12   6  -7   10.20    2.70
  11  -6  -7   16.10    4.50
 -11   6   7   10.70    3.20
  11   6  -7   15.80    2.90
  10  -6  -7   41.70    6.10
  10   6  -7   34.70    3.90
 -10   6   7   38.30    4.50
   9  -6  -7   25.40    4.70
  -9   6   7   18.80    3.40
   9   6  -7   27.60    3.50
   8  -6  -7   76.29    7.30
  -8   6   7   72.29    5.60
   8   6  -7   79.89    5.50
  -7  -6   7   39.00    4.20
   7  -6  -7   34.80    4.90
   7   6  -7   38.10    3.90
  -7   6   7   28.40    3.70
  -6  -6   7    9.40    2.80
   6  -6  -7    2.00    2.70
  -6   6   7    9.80    2.30
   6   6  -7    8.10    2.40
   5  -6  -7    0.50    2.70
  -5  -6   7    4.90    2.30
   5   6  -7    3.90    2.20
  -5   6   7    3.80    2.10
  -4  -6   7    1.90    2.00
   4  -6  -7    4.40    1.70
   4   6  -7    0.00    1.80
  -4   6   7    2.10    1.90
   3  -6  -7   21.60    3.50
  -3  -6   7   38.40    3.90
  -3   6   7   29.30    3.40
   3   6  -7   13.50    2.40
  -2  -6   7   32.10    3.90
   2  -6  -7   23.90    4.00
  -2   6   7   24.70    3.30
   1  -6  -7    2.10    2.40
  -1  -6   7    1.20    2.30
  -1  -6   7    2.70    2.20
  -1   6   7    1.60    1.90
   0  -6   7    0.30    2.10
   0  -6   7    2.30    2.20
   0  -6  -7   -0.20    2.30
   1  -6   7   65.29    5.20
   1  -6   7   59.29    5.30
  -1  -6  -7   59.99    5.30
   2  -6   7   51.39    5.30
   2  -6   7   47.40    4.60
   2   6   7   44.70    4.30
   3  -6   7   76.49    5.80
   3  -6   7   96.99    6.80
   3   6   7   96.69    5.90
   4  -6   7    8.80    2.60
   4  -6   7    7.40    2.80
   4   6   7   15.30    2.80
   5  -6   7  123.69    7.50
   5  -6   7  110.59    7.80
   5   6   7  116.29    6.70
   6  -6   7    2.40    2.70
   6  -6   7    1.60    2.20
   6   6   7    6.00    2.10
   7  -6   7   21.20    3.70
   7  -6   7   17.10    3.80
   7   6   7   18.90    2.80
   8  -6   7   15.10    3.40
   8  -6   7   15.20    3.70
   8   6   7   21.50    2.90
   9  -6   7   12.30    3.10
   9  -6   7    7.20    3.40
   9   6   7    9.10    2.30
   9   6   7    7.60    2.60
  10  -6   7    2.60    2.70
  10  -6   7    6.60    3.80
  10   6   7    6.60    2.30
  10   6   7    1.00    2.10
  11  -6   7    3.40    3.80
  11   6   7    8.80    3.00
  11   6   7    4.70    2.40
  12  -6   7   15.00    4.80
  12   6   7    7.40    3.90
  12   6   7    1.90    2.50
  13   6   7   -1.30    2.40
  15  -7  -7    3.70    5.50
  15   7  -7    4.10    3.60
  14  -7  -7    9.90    6.10
  14   7  -7    2.20    2.70
  13  -7  -7    0.80    5.10
  13   7  -7    3.90    2.80
  12  -7  -7   11.30    5.30
 -12   7   7    4.90    3.20
  12   7  -7    8.60    3.20
  11  -7  -7   16.10    5.40
  11   7  -7   15.10    3.50
 -11   7   7   16.40    3.70
  10  -7  -7   12.50    4.70
 -10   7   7    5.90    2.70
  10   7  -7    7.20    3.10
   9  -7  -7    4.70    3.90
  -9   7   7    1.40    2.30
   9   7  -7    7.00    2.80
   8  -7  -7   19.40    4.90
  -8   7   7   15.90    3.30
   8   7  -7   19.30    3.60
  -7  -7   7   60.49    5.30
   7  -7  -7   49.50    6.40
   7   7  -7   68.69    5.70
  -7   7   7   54.69    4.90
   6  -7  -7   74.89    7.60
  -6  -7   7   65.39    5.40
  -6   7   7   68.29    5.20
   6   7  -7   70.89    5.60
   5  -7  -7   26.10    4.80
  -5  -7   7   23.20    3.70
   5   7  -7   23.40    3.80
  -5   7   7   21.80    3.30
  -4  -7   7   18.90    3.50
   4  -7  -7   14.60    4.30
   4   7  -7   11.90    3.00
  -4   7   7   10.20    2.60
  -3  -7   7   18.10    3.50
   3  -7  -7   17.30    4.10
  -3   7   7   21.50    3.20
   3   7  -7   18.10    3.30
  -2  -7   7   13.70    3.10
  -2   7   7   12.10    2.70
  -1  -7   7    9.20    2.70
  -1  -7   7    4.90    2.80
   1  -7  -7    6.30    3.00
  -1   7   7    6.90    2.40
   0  -7   7    3.40    2.80
   0  -7  -7   -2.00    2.70
   0  -7   7    0.10    2.40
   1  -7   7   38.90    4.50
  -1  -7  -7   34.20    4.60
   1  -7   7   30.00    4.60
   2  -7   7   67.99    5.70
   2  -7   7   73.89    6.90
   2   7   7   53.89    5.30
   3  -7   7   57.79    6.30
   3   7   7   51.89    5.00
   4  -7   7   42.60    4.80
   4  -7   7   39.30    5.40
   4   7   7   40.50    4.40
   5  -7   7   26.20    4.60
   5  -7   7   28.20    4.10
   5   7   7   22.30    3.40
   6  -7   7    9.50    3.00
   6  -7   7   19.20    4.40
   6   7   7   18.60    3.20
   7  -7   7    9.30    3.80
   7  -7   7   12.60    3.30
   7   7   7    9.00    2.70
   8  -7   7   11.90    4.30
   8  -7   7   14.40    3.50
   8   7   7   17.30    3.00
   9  -7   7   -4.50    3.40
   9  -7   7    4.40    2.80
   9   7   7    2.20    2.30
  10  -7   7    3.30    4.10
  10   7   7    1.50    2.60
  10   7   7   -0.40    2.30
  11  -7   7    4.90    4.40
  11   7   7    3.40    2.60
  11   7   7    1.60    2.50
  12  -7   7   15.60    5.30
  12   7   7   11.90    3.50
  14  -8  -7    8.10    7.10
  14   8  -7   -3.10    2.80
  13  -8  -7   17.50    7.90
  13   8  -7    1.50    2.90
  12  -8  -7    1.30    6.50
  12   8  -7   -0.80    2.60
  11  -8  -7   -1.20    5.80
  11   8  -7    2.70    3.20
  10  -8  -7   10.60    5.70
  10   8  -7   10.30    3.40
   9  -8  -7   -5.90    4.90
   9   8  -7   -1.10    2.80
   8  -8  -7   10.40    5.30
   8   8  -7    7.50    3.40
   7  -8  -7    4.00    5.10
   7   8  -7    5.60    2.90
  -6  -8   7   12.60    3.20
   6  -8  -7   20.80    5.40
  -6   8   7   14.20    4.30
   6   8  -7    9.90    3.10
  -5  -8   7   12.70    3.40
   5  -8  -7   11.50    4.80
   5   8  -7   18.80    4.00
  -5   8   7   12.80    3.10
   4  -8  -7   89.59    9.30
  -4  -8   7   77.59    6.40
  -4   8   7   72.99    5.60
   4   8  -7   79.99    6.80
   3  -8  -7   37.60    6.50
  -3  -8   7   38.30    4.60
  -3   8   7   28.40    3.80
   3   8  -7   35.00    4.90
   2  -8  -7   46.20    6.40
  -2  -8   7   36.60    4.60
  -2   8   7   36.50    4.30
   1  -8  -7   74.19    5.40
  -1  -8   7   71.19    6.10
  -1  -8   7   70.89    7.20
  -1   8   7   61.09    5.30
   0  -8  -7   24.00    4.60
   0  -8   7   28.50    4.10
   0  -8   7   34.50    5.10
   0   8   7   27.60    4.00
   1  -8   7    8.70    3.20
  -1  -8  -7    5.80    4.40
   1  -8   7   10.10    3.90
   2  -8   7    3.20    2.10
   2  -8   7   11.00    3.70
   2   8   7    3.70    2.80
   3  -8   7   15.80    3.70
   3  -8   7   10.50    3.90
   3   8   7   10.70    3.20
   4  -8   7   15.00    3.50
   4  -8   7   17.90    4.60
   4   8   7   21.10    3.80
   5  -8   7   17.30    3.60
   5  -8   7   13.40    4.50
   5   8   7   12.30    3.20
   6  -8   7    2.10    3.80
   6  -8   7    4.20    2.90
   6   8   7    1.50    2.60
   7  -8   7    4.40    2.80
   7  -8   7   -3.00    3.50
   7   8   7   -0.30    2.30
   8  -8   7   -0.30    3.90
   8   8   7    0.10    2.30
   9  -8   7    3.10    4.20
   9   8   7    2.10    2.70
  10  -8   7    0.50    4.40
  10   8   7    1.00    2.60
  12  -9  -7   12.90    7.50
  12   9  -7    8.90    3.90
  11  -9  -7    1.90    6.60
  11   9  -7    7.40    3.40
  10  -9  -7    1.20    6.90
  10   9  -7   -4.80    3.20
   9  -9  -7    7.30    7.30
   9   9  -7    0.40    3.40
   8  -9  -7    7.30    6.90
   8   9  -7    1.20    3.30
   7  -9  -7   13.80    7.30
   7   9  -7    7.50    3.60
   6  -9  -7   17.40    6.40
   6   9  -7    4.90    3.70
  -5  -9   7    7.30    3.10
   5  -9  -7   11.00    6.80
   5   9  -7    5.70    3.70
   4  -9  -7   -1.70    5.70
  -4  -9   7   -0.80    2.50
   4   9  -7    4.30    3.20
   3  -9  -7   36.20    7.60
  -3  -9   7   20.80    3.90
   3   9  -7   17.90    4.10
  -2  -9   7   15.30    3.90
   2  -9  -7   24.50    7.20
   2   9  -7   16.50    4.20
   1  -9  -7    3.30    5.70
  -1  -9   7    4.20    3.10
  -1  -9   7    1.40    3.80
   0  -9   7    2.20    2.90
   0  -9  -7    1.50    4.40
   0  -9   7    0.70    3.60
   1  -9   7    6.20    3.20
   1  -9   7   15.40    4.50
   2  -9   7   15.90    4.90
   2  -9   7    4.10    2.40
   2   9   7   10.40    3.50
   3  -9   7    6.80    3.10
   3  -9   7   13.40    4.90
   3   9   7   14.40    3.80
   4  -9   7    2.50    3.00
   4  -9   7    5.10    4.10
   4   9   7    0.90    2.90
   5  -9   7   -0.80    2.90
   5  -9   7    2.90    4.30
   5   9   7   -0.60    2.80
   6  -9   7    6.80    3.40
   6  -9   7    6.20    4.60
   6   9   7    8.10    3.30
   7  -9   7    1.90    4.40
   7   9   7    0.80    2.80
   8  -9   7    0.20    4.20
   8   9   7    1.00    2.90
   9  -9   7    0.70    4.80
   9   9   7   -4.50    2.60
  10 -10  -7    0.20    8.00
  10  10  -7    3.60    3.50
   9 -10  -7   10.30    8.70
   9  10  -7   13.40    4.50
   8 -10  -7   -4.80    7.70
   8  10  -7    6.80    3.50
   7 -10  -7    3.70    8.30
   7  10  -7   -2.00    3.40
   6 -10  -7   -6.70    6.40
   6  10  -7    1.90    3.60
   5 -10  -7    1.60    7.70
   5  10  -7    1.80    3.80
   4 -10  -7    8.90    6.70
  -4 -10   7    3.70    3.20
   4  10  -7   -0.50    3.60
   3 -10  -7   22.00    8.60
  -3 -10   7    8.00    3.30
   3  10  -7   13.20    4.30
  -2 -10   7    0.50    3.10
   2 -10  -7   -0.60    7.20
   2  10  -7    1.10    3.80
   1 -10  -7    9.90    6.70
  -1 -10   7    5.90    3.30
   0 -10   7   29.90    5.00
   0 -10   7   29.40    6.10
   0 -10  -7   38.30    9.40
   1 -10   7    8.60    4.70
   1 -10   7    4.20    2.10
   2 -10   7   -1.90    4.30
   2 -10   7    3.70    3.30
   2  10   7   -2.20    3.10
   3 -10   7    7.70    5.30
   3 -10   7    7.20    3.40
   3  10   7    8.20    3.90
   4 -10   7    1.90    4.80
   4 -10   7    6.40    3.70
   4  10   7    2.00    3.40
   5 -10   7    9.30    5.40
   5 -10   7    8.70    4.20
   5  10   7    6.00    3.50
   6 -10   7   -1.60    4.60
   6  10   7   -0.80    2.80
   6 -11  -7   -4.50    7.90
   6  11  -7    5.10    4.10
   5 -11  -7   -6.00    9.00
   5  11  -7    1.60    3.90
   4 -11  -7   19.50    8.70
   3 -11  -7    6.10    8.20
   3  11  -7   -0.10    3.90
   2 -11  -7   30.10   10.10
  -2 -11   7   12.70    3.90
   2  11  -7    4.90    4.10
  -1 -11   7    3.60    3.30
   1 -11  -7    1.30    8.80
   1  11  -7    1.30    3.60
   0 -11   7    4.10    3.50
   0 -11  -7    1.60    8.60
   1 -11   7    5.50    3.20
   1 -11   7    4.30    5.00
   1  11   7    6.90    3.80
   2 -11   7    8.10    5.80
   2 -11   7   15.40    4.30
   2  11   7    9.80    4.20
  19   0  -8    7.40    3.40
  18   0  -8    2.90    3.00
  17   0  -8    8.10    3.00
  16   0  -8   -0.80    2.40
  15   0  -8   15.00    3.30
  14   0  -8  124.99    7.20
  13   0  -8   61.29    4.70
  12   0  -8   27.00    3.20
 -11   0   8   54.49    5.20
  11   0  -8   49.00    4.10
 -10   0   8   -2.20    1.60
  10   0  -8    1.20    1.50
   9   0  -8  604.14   23.50
  -9   0   8  571.74   24.30
  -8   0   8   39.50    2.50
  -8   0   8   35.00    3.50
  -7   0   8    8.60    1.30
   7   0  -8    8.10    1.50
  -7   0   8    8.80    2.00
   6   0  -8 4219.88  160.28
  -6   0   8 4261.57  161.18
  -6   0   8 4280.07  160.28
  -5   0   8  170.38    8.30
   5   0  -8  185.38    7.40
  -5   0   8  162.88    7.40
  -4   0   8 1850.81   71.39
  -4   0   8 1808.22   70.69
   4   0  -8 1921.81   70.39
  -3   0   8   13.90    1.60
   3   0  -8   13.80    1.20
  -3   0   8   10.50    1.90
  -2   0   8   92.79    5.40
  -2   0   8   92.19    4.70
   2   0  -8  102.39    4.00
  -1   0   8  385.46   15.60
   0   0   8  266.17   11.20
   1   0   8  944.41   36.60
   2   0   8  171.68    7.70
   2   0   8  172.38    6.80
   3   0   8  365.96   14.70
   3   0   8  346.57   13.80
   4   0   8    2.20    1.20
   4   0   8    3.00    0.70
   5   0   8    0.60    0.80
   5   0   8   -0.40    1.10
   6   0   8   98.69    4.60
   6   0   8   90.49    5.20
   7   0   8   -0.10    1.30
   7   0   8    1.30    1.10
   8   0   8   16.60    2.10
   8   0   8   12.50    2.30
   9   0   8   52.69    4.40
   9   0   8   56.79    3.90
  10   0   8  133.09    7.60
  10   0   8  144.79    7.10
  11   0   8    4.40    1.90
  11   0   8   -0.20    1.70
  12   0   8    4.70    2.30
  13   0   8    0.30    2.10
  14   0   8    1.70    1.00
  15   0   8    1.60    2.50
  19  -1  -8   14.00    4.20
  19   1  -8   11.60    3.40
  18  -1  -8    6.10    3.00
  18   1  -8    9.80    3.30
  17  -1  -8    4.50    2.80
  17   1  -8    1.90    2.80
  16  -1  -8    4.60    2.80
  16   1  -8    4.50    2.50
  15  -1  -8    4.30    2.60
  15   1  -8    1.70    2.60
  14  -1  -8    2.90    2.50
  14   1  -8    4.90    2.30
  13  -1  -8    6.20    2.30
  13   1  -8    6.30    2.50
  12  -1  -8   90.19    6.00
 -12   1   8   90.49    6.50
  12   1  -8   92.59    5.70
  11  -1  -8   35.30    3.70
  11   1  -8   35.90    3.30
 -11   1   8   30.50    3.90
 -10  -1   8   13.90    2.90
  10  -1  -8   11.20    2.20
  10   1  -8   10.90    2.10
 -10   1   8   16.40    3.00
   9  -1  -8   12.20    2.20
  -9  -1   8   12.10    2.40
   9   1  -8   13.00    2.10
  -9   1   8   15.30    2.60
  -8  -1   8   19.60    2.00
  -8  -1   8   18.30    2.50
  -8   1   8   16.70    2.60
  -7  -1   8    8.00    1.90
   7  -1  -8    9.80    1.60
  -7  -1   8   10.70    1.60
  -7   1   8   10.00    1.10
  -7   1   8    5.80    1.90
   7   1  -8    9.40    1.40
   6  -1  -8  725.63   27.40
  -6  -1   8  691.23   27.30
   6   1  -8  695.53   26.90
  -6   1   8  698.23   26.80
  -6   1   8  672.33   28.00
  -5  -1   8  178.58    7.80
  -5  -1   8  143.69    7.90
   5  -1  -8  178.58    7.60
  -5   1   8  184.58    8.50
  -5   1   8  176.68    7.30
   5   1  -8  183.18    7.30
  -4  -1   8  291.07   12.10
   4  -1  -8  280.37   11.70
  -4  -1   8  296.47   12.50
  -4   1   8  282.17   11.70
   4   1  -8  295.87   11.40
  -4   1   8  290.77   12.80
  -3  -1   8  146.19    7.20
  -3  -1   8  153.38    7.00
   3  -1  -8  150.28    6.50
   3   1  -8  154.58    6.10
  -3   1   8  148.69    6.50
  -3   1   8  151.78    7.60
  -2  -1   8   11.10    1.80
  -2  -1   8   12.40    1.80
   2  -1  -8   13.70    1.30
  -2   1   8   11.00    2.20
  -2   1   8   13.00    1.50
   2   1  -8   13.90    0.90
  -1  -1   8   26.60    2.50
   1  -1  -8   23.00    1.50
   1   1  -8   23.80    1.20
  -1   1   8   20.90    1.90
   0  -1   8   15.00    1.90
   0   1  -8   15.10    0.90
   0   1   8   14.50    0.80
   0   1   8   16.40    1.70
   1  -1   8   23.70    2.40
   1  -1   8   21.60    1.40
   1   1   8   23.40    1.90
   1   1   8   24.10    1.10
   2  -1   8   27.20    2.60
   2  -1   8   22.80    1.70
   2   1   8   24.30    1.30
   2   1   8   26.80    2.30
   3  -1   8    7.40    1.10
   3  -1   8    5.30    1.50
   3   1   8    8.20    1.50
   3   1   8    9.50    0.90
   4  -1   8    8.10    1.30
   4  -1   8   10.30    1.80
   4   1   8    7.80    1.50
   4   1   8   10.40    1.10
   5  -1   8    0.70    0.90
   5  -1   8    2.50    1.40
   5   1   8    1.40    1.10
   5   1   8    1.90    0.90
   6  -1   8   11.40    1.70
   6  -1   8    9.80    2.20
   6   1   8   14.20    1.60
   6   1   8   13.20    2.00
   7  -1   8   21.20    2.40
   7  -1   8   21.20    2.70
   7   1   8   20.00    2.50
   7   1   8   21.20    2.10
   8  -1   8   47.70    3.90
   8  -1   8   51.59    3.70
   8   1   8   40.40    3.60
   8   1   8   49.00    3.30
   9  -1   8   23.80    3.20
   9  -1   8   23.50    2.90
   9   1   8   26.10    2.60
   9   1   8   23.70    3.00
  10  -1   8   10.90    2.40
  10  -1   8    9.10    2.40
  10   1   8   12.20    2.60
  10   1   8    9.70    1.90
  11  -1   8   10.00    2.60
  11  -1   8   18.20    3.00
  11   1   8   16.70    2.90
  11   1   8   17.10    2.60
  12  -1   8    0.50    0.70
  12   1   8    4.70    2.30
  13  -1   8   -2.60    1.90
  13   1   8    4.10    2.20
  14  -1   8    7.50    2.80
  14   1   8    7.10    2.80
  15  -1   8    5.60    2.90
  15   1   8    0.90    2.50
  19  -2  -8    4.60    3.50
  19   2  -8    1.80    3.10
  18  -2  -8   14.60    4.10
  18   2  -8    7.60    3.60
  17  -2  -8    6.40    3.10
  17   2  -8    3.80    3.10
  16  -2  -8    3.40    2.90
  16   2  -8   -1.30    2.60
  15  -2  -8    4.10    3.00
  15   2  -8   -1.90    2.10
  14  -2  -8    3.20    2.80
  14   2  -8    7.70    2.60
  13  -2  -8   28.50    4.00
  13   2  -8   28.20    3.40
 -13   2   8   27.20    4.20
  12  -2  -8   93.89    6.60
  12   2  -8   98.39    6.00
 -12   2   8   97.29    7.00
  11  -2  -8   28.80    3.60
  11   2  -8   35.00    3.30
 -11   2   8   40.90    4.40
  10  -2  -8   92.29    5.70
  10   2  -8   89.19    5.10
 -10   2   8   87.09    5.90
   9  -2  -8  146.69    7.60
  -9   2   8  142.99    8.00
   9   2  -8  143.79    6.70
  -8  -2   8  122.29    6.20
  -8  -2   8  132.99    6.90
  -8   2   8  122.99    7.10
   7  -2  -8  235.58   10.40
  -7  -2   8  214.98   10.30
  -7  -2   8  221.88   10.10
   7   2  -8  244.08    9.60
  -7   2   8  229.68   10.80
  -6  -2   8  453.55   18.30
   6  -2  -8  442.56   18.20
  -6  -2   8  442.36   18.10
  -6   2   8  434.86   18.70
  -6   2   8  433.06   17.00
   6   2  -8  458.05   17.50
  -5  -2   8   49.50    3.50
   5  -2  -8   50.49    3.40
  -5  -2   8   50.79    3.40
  -5   2   8   51.59    3.90
   5   2  -8   53.59    2.80
  -5   2   8   55.49    2.60
  -4  -2   8 1050.99   40.70
  -4  -2   8 1051.09   40.50
   4  -2  -8 1029.00   40.50
   4   2  -8 1026.10   39.90
  -4   2   8 1068.59   41.30
  -4   2   8 1044.10   39.80
   3  -2  -8  452.85   18.20
  -3  -2   8  462.25   18.60
  -3  -2   8  456.75   18.30
  -3   2   8  444.76   19.00
   3   2  -8  436.26   17.70
  -3   2   8  467.05   17.70
  -2  -2   8  533.85   20.80
  -2  -2   8  520.45   20.60
   2  -2  -8  502.05   20.30
  -2   2   8  507.45   21.30
   2   2  -8  488.45   19.90
  -2   2   8  524.95   20.00
   1  -2  -8  164.28    7.10
  -1  -2   8  165.48    7.70
  -1   2   8  172.98    7.00
   1   2  -8  156.38    6.90
   0  -2   8 1613.04   63.99
   0  -2  -8 1695.53   63.29
   0  -2   8 1664.43   63.29
   0   2   8 1688.13   63.29
   1  -2   8  658.03   25.40
   1  -2   8  634.44   24.60
   1   2   8  661.63   24.70
   1   2   8  581.24   24.20
   2  -2   8  665.23   25.70
   2  -2   8  662.73   25.10
   2   2   8  632.84   25.00
   2   2   8  603.34   24.40
   3  -2   8  100.19    5.10
   3  -2   8  105.69    5.70
   3   2   8  103.09    4.40
   3   2   8  111.29    5.20
   4  -2   8  688.23   27.40
   4  -2   8  659.53   26.90
   4   2   8  689.83   26.00
   4   2   8  688.93   26.90
   5  -2   8   16.30    2.40
   5  -2   8   16.40    2.10
   5   2   8   14.90    2.00
   5   2   8   16.90    1.40
   6  -2   8  139.09    6.90
   6  -2   8  154.48    7.60
   6   2   8  136.39    6.10
   6   2   8  135.29    6.80
   7  -2   8   62.99    4.50
   7  -2   8   78.79    5.20
   7   2   8   70.99    3.90
   7   2   8   70.59    4.60
   8  -2   8  323.77   14.30
   8  -2   8  304.67   13.80
   8   2   8  314.17   12.90
   8   2   8  312.97   13.60
   9  -2   8  121.19    7.90
   9  -2   8  166.08    8.30
   9   2   8  167.98    7.30
   9   2   8  158.78    7.90
  10  -2   8   13.00    2.70
  10   2   8   15.50    2.30
  10   2   8   13.30    2.50
  11  -2   8   23.80    3.60
  11  -2   8   26.80    3.90
  11   2   8   33.10    3.70
  11   2   8   26.80    3.30
  12  -2   8    6.90    2.80
  12   2   8   -0.30    1.90
  13  -2   8   10.90    3.10
  13   2   8   14.00    3.00
  14  -2   8    0.20    2.60
  14   2   8    1.60    2.40
  15  -2   8    0.80    2.60
  15   2   8    1.20    2.50
  18  -3  -8    8.40    4.00
  18   3  -8   -1.20    3.00
  17  -3  -8    8.20    3.80
  17   3  -8    4.50    3.30
  16  -3  -8    7.60    3.60
  16   3  -8    8.60    3.30
  15  -3  -8    1.40    2.60
  15   3  -8    0.20    2.40
  14  -3  -8    8.00    3.10
  14   3  -8   -0.30    2.30
  13  -3  -8   17.70    3.60
 -13   3   8   12.70    3.40
  13   3  -8   12.00    2.90
  12  -3  -8   72.59    5.90
  12   3  -8   71.89    4.80
 -12   3   8   68.99    5.80
  11  -3  -8  111.79    7.50
 -11   3   8  114.79    7.40
  11   3  -8  115.99    6.30
  10  -3  -8   61.99    5.30
 -10   3   8   57.69    4.90
  10   3  -8   62.39    4.20
   9  -3  -8  102.69    6.30
  -9   3   8   87.29    6.00
   9   3  -8   94.99    5.00
  -8  -3   8   52.89    4.10
  -8  -3   8   54.49    3.80
   8  -3  -8   37.70    3.70
   8   3  -8   58.09    3.50
  -8   3   8   57.69    4.40
  -7  -3   8   14.30    2.20
   7  -3  -8   15.30    2.60
  -7  -3   8   19.30    2.50
  -7   3   8   16.40    2.70
  -6  -3   8    6.80    1.80
  -6  -3   8    6.10    1.60
   6  -3  -8    6.10    1.90
   6   3  -8    7.60    1.40
  -6   3   8    7.70    2.00
   5  -3  -8   22.70    2.70
  -5  -3   8   20.60    2.20
  -5  -3   8   18.90    2.50
  -5   3   8   18.60    2.70
  -5   3   8   19.00    1.40
   5   3  -8   23.20    2.10
   4  -3  -8  135.89    6.90
  -4  -3   8  135.49    6.90
  -4  -3   8  139.89    6.40
   4   3  -8  127.19    6.20
  -4   3   8  143.99    7.50
  -4   3   8  142.19    5.70
  -3  -3   8  182.48    8.70
  -3  -3   8  192.58    8.10
   3  -3  -8  171.38    8.50
  -3   3   8  183.28    7.50
   3   3  -8  178.88    8.00
  -3   3   8  194.88    9.20
  -2  -3   8  134.49    6.20
  -2  -3   8  139.59    7.00
   2  -3  -8  130.99    6.60
  -2   3   8  133.99    5.80
  -2   3   8  140.09    7.50
   2   3  -8  133.09    6.30
   1  -3  -8   13.90    1.90
  -1  -3   8   17.20    1.90
  -1  -3   8   11.40    2.10
  -1   3   8   12.50    1.40
   0  -3   8   29.30    2.50
   0  -3   8   20.50    2.60
   0  -3  -8   27.30    2.50
   0   3   8   26.60    2.00
   1  -3   8   86.29    5.10
   1  -3   8   86.29    4.80
   1   3   8   84.79    4.40
   1   3   8   94.69    4.40
   2  -3   8   44.00    3.40
   2  -3   8   40.00    3.10
   2   3   8   43.60    2.70
   2   3   8   33.90    2.40
   3  -3   8   90.09    5.30
   3  -3   8   93.29    5.10
   3   3   8   88.89    4.70
   3   3   8   84.49    4.20
   4  -3   8   47.90    3.60
   4  -3   8   51.49    4.10
   4   3   8   48.30    3.30
   4   3   8   50.99    2.80
   5  -3   8   17.00    2.70
   5  -3   8   22.10    2.80
   5   3   8   23.20    1.90
   5   3   8   23.10    2.40
   6  -3   8  133.99    7.40
   6  -3   8  134.79    7.10
   6   3   8  134.39    5.90
   6   3   8  134.39    6.70
   7  -3   8   79.09    5.80
   7  -3   8   92.79    5.80
   7   3   8  106.09    4.80
   7   3   8  100.89    5.60
   8  -3   8  174.48    9.40
   8   3   8  188.78    8.20
   8   3   8  191.48    9.00
   9  -3   8    2.90    2.20
   9  -3   8    6.50    2.60
   9   3   8    2.90    1.80
   9   3   8    3.10    1.80
  10  -3   8    1.80    2.20
  10  -3   8    6.10    2.70
  10   3   8    3.20    2.00
  10   3   8    3.70    2.10
  11  -3   8   10.20    2.90
  11  -3   8   11.30    3.00
  11   3   8   12.90    2.60
  12  -3   8   18.40    3.60
  12   3   8   21.50    3.20
  13  -3   8    3.70    2.60
  13   3   8    1.20    2.10
  14  -3   8    0.70    2.50
  14   3   8    1.00    2.50
  18  -4  -8    1.00    4.30
  18   4  -8    5.30    3.50
  17  -4  -8   -0.20    4.50
  17   4  -8    5.60    3.40
  16  -4  -8    3.10    3.70
  16   4  -8   -2.90    2.60
  15  -4  -8    1.30    3.20
  15   4  -8   -3.20    2.70
  14  -4  -8   18.10    4.70
  14   4  -8   11.40    2.80
  13  -4  -8  116.99    9.20
 -13   4   8  124.39    8.50
  13   4  -8  137.79    7.40
  12  -4  -8   73.49    6.60
 -12   4   8   72.19    6.00
  12   4  -8   78.09    5.30
  11  -4  -8    0.40    2.50
 -11   4   8    3.00    2.70
  11   4  -8    1.10    1.90
  10  -4  -8   37.50    4.80
  10   4  -8   52.99    4.10
 -10   4   8   47.90    4.90
   9  -4  -8  221.38   12.00
   9   4  -8  273.27   11.00
  -9   4   8  229.88   11.80
  -8  -4   8  767.42   31.90
   8  -4  -8  745.33   32.50
  -8   4   8  770.12   32.30
   8   4  -8  886.31   31.50
  -7  -4   8   79.49    4.90
  -7   4   8   72.29    5.30
   7   4  -8   67.79    4.20
  -6  -4   8    4.30    2.00
  -6  -4   8    4.90    1.50
   6  -4  -8    6.30    2.00
   6   4  -8    3.30    1.30
  -6   4   8    5.70    1.90
  -6   4   8    4.40    0.60
  -5  -4   8  206.68    9.00
  -5  -4   8  210.98    9.80
   5  -4  -8  184.88    9.80
  -5   4   8  204.58    8.10
  -5   4   8  195.98    9.90
   5   4  -8  211.78    9.20
  -4  -4   8   19.00    1.90
   4  -4  -8   15.30    2.50
  -4  -4   8   16.30    2.80
  -4   4   8   16.30    2.90
  -4   4   8   17.60    1.40
   4   4  -8   19.90    2.40
   3  -4  -8  434.26   18.80
  -3  -4   8  461.75   17.60
  -3  -4   8  446.66   18.80
  -3   4   8  444.16   19.10
   3   4  -8  434.16   18.30
  -3   4   8  444.86   17.30
  -2  -4   8  464.75   19.30
  -2  -4   8  469.45   18.00
   2  -4  -8  447.06   19.10
  -2   4   8  451.05   17.90
   2   4  -8  454.65   18.70
  -2   4   8  450.95   19.50
   1  -4  -8   25.30    2.90
  -1  -4   8   26.10    3.10
  -1  -4   8   26.80    2.90
  -1  -4   8   29.90    2.20
  -1   4   8   29.50    2.20
   0  -4  -8  143.59    7.20
   0  -4   8  147.99    7.30
   0  -4   8  140.69    7.40
   0  -4   8  146.39    6.50
   0   4   8  132.49    6.30
   1  -4   8  239.78   11.30
  -1  -4  -8  267.37   11.30
   1  -4   8  241.68   11.50
   1   4   8  248.18   10.50
   2  -4   8  168.88    8.10
   2  -4   8  143.39    7.70
   2   4   8  145.89    7.10
   2   4   8  155.78    7.10
   3  -4   8  218.88   10.50
   3  -4   8  220.68   10.30
   3   4   8  211.78    9.40
   3   4   8  217.98    9.60
   4  -4   8  184.28    9.50
   4  -4   8  180.88    9.40
   4   4   8  195.28    8.40
   4   4   8  201.38    8.90
   5  -4   8  234.88   11.30
   5  -4   8  232.48   11.30
   5   4   8  241.48   10.60
   5   4   8  239.28   10.10
   6  -4   8  160.78    9.10
   6   4   8  180.48    8.50
   6   4   8  181.28    7.80
   7  -4   8   17.30    3.20
   7  -4   8   27.80    3.70
   7   4   8   37.90    2.80
   7   4   8   30.10    3.20
   8  -4   8  158.48    9.20
   8  -4   8  175.88    9.50
   8   4   8  167.08    8.60
   8   4   8  183.38    7.80
   9  -4   8   85.19    6.10
   9  -4   8   67.49    5.90
   9   4   8   77.29    4.60
   9   4   8   75.79    5.10
  10  -4   8   22.70    3.70
  10  -4   8   23.90    3.70
  10   4   8   19.00    2.90
  10   4   8   21.30    2.70
  11  -4   8    7.00    2.90
  11  -4   8    5.40    2.90
  11   4   8    1.10    2.00
  12   4   8    9.80    2.60
  13  -4   8    4.30    4.10
  13   4   8    1.50    2.20
  14   4   8    9.30    3.10
  17  -5  -8    1.90    5.00
  17   5  -8   -3.10    3.10
  16  -5  -8    9.80    5.00
  16   5  -8    3.50    3.60
  15  -5  -8   13.80    5.40
  15   5  -8    3.90    2.80
  14  -5  -8    1.10    3.50
  14   5  -8    7.00    2.70
  13  -5  -8   21.20    5.10
 -13   5   8    9.70    3.50
  13   5  -8   12.10    2.80
  12  -5  -8   11.00    4.20
  12   5  -8   10.60    2.80
 -12   5   8   10.40    3.10
  11  -5  -8   -0.70    3.20
 -11   5   8    3.60    2.70
  11   5  -8    3.00    2.10
  10  -5  -8  156.48   10.00
 -10   5   8  146.39    8.80
  10   5  -8  175.88    8.30
   9  -5  -8   31.60    4.60
  -9   5   8   31.20    3.90
   9   5  -8   39.20    3.80
  -8  -5   8   33.50    3.90
   8  -5  -8   31.50    4.60
   8   5  -8   32.80    3.40
  -8   5   8   27.00    3.60
  -7  -5   8   13.50    2.80
   7  -5  -8   11.80    3.00
  -7   5   8   16.00    3.00
   7   5  -8   18.10    2.70
  -6  -5   8    6.00    2.20
   6   5  -8    1.30    1.50
  -6   5   8    4.20    2.20
   5  -5  -8   16.90    3.10
  -5  -5   8   25.50    3.20
  -5   5   8   18.30    1.40
   5   5  -8   10.80    2.20
  -5   5   8   16.90    2.80
   4  -5  -8   -0.80    2.00
  -4  -5   8    2.10    2.10
  -4   5   8    1.70    2.00
  -4   5   8    3.50    1.00
   4   5  -8    2.90    1.70
   3  -5  -8  120.39    7.00
  -3  -5   8  115.29    6.60
   3   5  -8  103.29    6.00
  -3   5   8  103.89    6.50
  -2  -5   8   96.89    6.00
   2  -5  -8   89.09    6.00
   2   5  -8   89.99    5.50
  -2   5   8   90.99    6.10
  -1  -5   8   29.00    3.40
  -1  -5   8   33.80    3.70
   1  -5  -8   35.50    3.70
   0  -5   8   22.40    3.10
   0  -5  -8   30.30    3.50
   0  -5   8   35.10    3.70
  -1  -5  -8   16.80    2.80
   1  -5   8   17.40    2.80
   1  -5   8   20.70    3.10
   2  -5   8    8.60    2.30
   2  -5   8   10.60    2.60
   2   5   8   14.60    2.40
   3  -5   8  123.29    7.20
   3  -5   8  110.99    7.20
   3   5   8  116.69    6.30
   4  -5   8   86.69    6.00
   4  -5   8   72.99    5.50
   4   5   8   79.19    4.80
   5  -5   8  160.18    8.90
   5   5   8  155.48    7.60
   5   5   8  159.38    7.90
   6  -5   8   58.39    5.30
   6  -5   8   55.89    5.50
   6   5   8   67.89    4.30
   6   5   8   66.49    4.50
   7  -5   8    7.30    2.60
   7  -5   8    9.40    3.10
   7   5   8   14.80    2.20
   7   5   8   12.50    2.40
   8  -5   8   10.30    2.80
   8  -5   8    7.30    2.90
   8   5   8    7.10    2.30
   8   5   8    8.00    1.90
   9  -5   8   13.60    3.30
   9  -5   8   11.80    3.10
   9   5   8    6.40    2.30
   9   5   8    6.90    2.00
  10  -5   8    0.70    2.60
  10  -5   8    4.90    2.80
  10   5   8    4.20    2.10
  10   5   8    1.50    1.90
  11  -5   8   10.10    3.80
  11  -5   8    6.60    3.00
  11   5   8    4.80    2.40
  12   5   8    1.10    2.20
  13   5   8    0.30    2.50
  16  -6  -8   11.30    6.10
  16   6  -8    9.40    3.60
  15  -6  -8   12.80    5.70
  15   6  -8   -0.10    2.70
  14  -6  -8    3.10    5.40
  14   6  -8    5.80    2.80
  13  -6  -8   10.40    4.90
 -13   6   8    7.50    3.20
  13   6  -8    5.70    2.60
  12  -6  -8   26.00    5.50
 -12   6   8   11.30    3.50
  12   6  -8   10.30    3.00
  11  -6  -8   31.70    5.80
  11   6  -8   19.70    3.20
 -11   6   8   20.30    3.80
  10  -6  -8   28.70    5.40
  10   6  -8   23.00    3.30
 -10   6   8   19.80    3.70
   9  -6  -8   29.10    5.00
  -9   6   8   18.60    3.30
   9   6  -8   24.80    3.60
  -8  -6   8   34.10    4.00
   8  -6  -8   31.10    4.90
  -8   6   8   32.80    3.90
   8   6  -8   34.30    3.90
   7  -6  -8    9.10    3.70
  -7  -6   8   14.50    2.90
  -7   6   8    8.60    2.60
   7   6  -8   11.00    2.80
   6  -6  -8   40.20    5.20
  -6  -6   8   62.49    5.10
  -6   6   8   48.40    4.70
   6   6  -8   54.49    4.40
  -5  -6   8   14.50    2.90
  -5   6   8   12.70    2.80
   5   6  -8    9.40    2.30
   4  -6  -8   85.69    6.40
  -4  -6   8   88.79    6.10
  -4   6   8   82.19    5.80
  -3  -6   8   23.30    3.50
   3  -6  -8   29.20    4.30
  -3   6   8   18.50    3.00
   3   6  -8   20.80    3.20
  -2  -6   8    1.10    2.00
   2  -6  -8    4.70    2.40
  -2   6   8    2.30    2.00
   2   6  -8   -0.80    1.90
  -1  -6   8   15.70    3.20
  -1  -6   8   13.50    3.10
   1  -6  -8   18.20    3.50
  -1   6   8   12.40    3.00
   0  -6   8   45.30    4.90
   0  -6   8   61.59    5.40
   0  -6  -8   50.19    5.00
   1  -6   8   76.59    5.50
   1  -6   8   66.89    5.70
  -1  -6  -8   75.29    5.80
   2  -6   8   56.69    5.60
   2  -6   8   61.59    5.00
   2   6   8   60.19    4.70
   3  -6   8    0.70    2.10
   3  -6   8   -0.40    2.40
   3   6   8    3.80    2.00
   4  -6   8  103.69    7.50
   4   6   8  107.79    6.30
   5  -6   8  102.09    7.30
   5  -6   8   73.19    6.20
   5   6   8  116.59    6.10
   6  -6   8   46.40    5.40
   6  -6   8   59.19    5.60
   6   6   8   52.39    4.20
   7  -6   8    0.10    2.40
   7  -6   8   -0.50    2.40
   7   6   8    2.10    1.90
   7   6   8   -0.40    1.70
   8  -6   8   17.00    4.00
   8  -6   8   24.30    4.10
   8   6   8   17.40    2.90
   8   6   8   18.90    2.80
   9  -6   8   14.30    3.90
   9  -6   8   15.10    3.50
   9   6   8   15.20    3.00
   9   6   8   18.70    2.70
  10  -6   8    6.70    3.20
  10  -6   8    5.10    3.60
  10   6   8    7.30    2.90
  10   6   8    5.60    2.30
  11  -6   8   -0.10    5.50
  11   6   8    8.80    2.80
  12   6   8    1.50    2.70
  15  -7  -8    2.20    6.70
  15   7  -8   -2.40    2.80
  14  -7  -8    3.80    5.80
  14   7  -8   -4.30    2.80
  13  -7  -8    6.10    5.30
  13   7  -8    0.20    2.90
  12  -7  -8   -3.60    4.90
  12   7  -8   -1.00    2.40
 -12   7   8   -2.60    2.60
  11  -7  -8   -1.00    4.40
  11   7  -8    4.20    3.00
 -11   7   8    1.60    2.80
  10  -7  -8   10.00    5.20
 -10   7   8    1.60    2.70
  10   7  -8    2.00    2.80
   9  -7  -8   13.60    4.90
  -9   7   8   -0.70    2.40
   9   7  -8    7.00    2.70
   8  -7  -8   -3.10    3.90
   8   7  -8    1.00    2.50
  -8   7   8   -1.30    2.30
  -7  -7   8   53.89    5.50
   7  -7  -8   71.59    7.90
  -7   7   8   51.19    5.00
   7   7  -8   56.99    5.10
  -6  -7   8   29.70    4.10
   6  -7  -8   37.10    5.70
   6   7  -8   28.00    3.80
  -6   7   8   27.90    3.90
  -5  -7   8   20.00    3.50
   5  -7  -8   18.90    4.30
   5   7  -8   29.50    4.10
  -5   7   8   18.30    3.30
  -4  -7   8   52.89    5.10
   4  -7  -8   50.69    3.70
   4   7  -8   56.79    5.00
  -4   7   8   59.89    5.00
   3  -7  -8   10.80    3.80
  -3  -7   8   17.50    3.30
   3   7  -8    2.30    1.30
  -3   7   8    7.50    2.60
  -2  -7   8   22.40    3.90
   2  -7  -8   29.00    4.70
   2   7  -8   18.90    3.50
  -2   7   8   18.90    3.40
  -1  -7   8   33.20    4.30
   1  -7  -8   42.70    5.40
  -1  -7   8   38.50    4.80
  -1   7   8   40.10    4.50
   0  -7  -8   33.20    5.00
   0  -7   8   32.50    4.20
   0  -7   8   35.50    4.90
   1  -7   8   41.20    4.70
  -1  -7  -8   39.70    5.10
   1  -7   8   41.90    5.10
   2  -7   8   11.40    3.30
   2  -7   8   10.30    3.40
   2   7   8   10.30    2.80
   3  -7   8    3.20    2.80
   3  -7   8    7.10    3.00
   3   7   8    0.70    2.20
   4  -7   8   21.90    4.40
   4  -7   8   15.90    3.00
   4   7   8   29.30    3.60
   5  -7   8    9.00    3.50
   5  -7   8    7.90    3.20
   5   7   8   11.60    2.70
   6  -7   8    5.30    3.40
   6  -7   8    1.60    2.40
   6   7   8    1.70    2.10
   7  -7   8   10.60    3.20
   7  -7   8    6.10    3.50
   7   7   8    5.20    2.40
   8  -7   8    5.60    3.00
   8  -7   8    2.50    3.50
   8   7   8    3.00    2.20
   8   7   8    5.80    2.40
   9  -7   8    4.10    2.80
   9  -7   8    5.80    3.80
   9   7   8    1.90    2.40
   9   7   8    0.50    2.20
  10  -7   8    0.00    3.70
  10   7   8   -1.20    2.40
  11   7   8    1.40    2.90
  14  -8  -8   -0.60    6.00
  14   8  -8    8.10    3.60
  13  -8  -8   15.40    7.40
  13   8  -8   14.20    4.00
  12  -8  -8   -0.20    5.80
  12   8  -8    0.50    2.80
  11  -8  -8    7.50    5.70
  11   8  -8    3.50    3.30
  10  -8  -8   12.90    5.90
  10   8  -8    5.70    3.30
   9  -8  -8   41.40    8.40
   9   8  -8   30.60    4.40
   8  -8  -8   12.00    5.90
   8   8  -8    1.10    3.00
  -8   8   8   -2.10    2.50
  -7  -8   8    1.50    3.00
   7  -8  -8   -5.80    3.60
   7   8  -8    6.00    3.30
  -7   8   8    3.80    2.50
  -6  -8   8   13.60    3.40
   6  -8  -8   25.40    6.50
  -6   8   8   22.50    3.50
   6   8  -8   19.50    3.80
  -5  -8   8    0.50    2.60
   5  -8  -8    5.00    4.90
   5   8  -8    2.70    2.70
   4  -8  -8   41.20    6.70
  -4  -8   8   54.29    5.60
   4   8  -8   43.30    5.40
  -4   8   8   38.90    4.40
  -3  -8   8   22.30    4.00
   3   8  -8   18.60    4.10
  -3   8   8   19.20    3.30
  -2  -8   8    3.30    2.90
   2  -8  -8    0.90    3.50
  -2   8   8    3.20    2.50
   2   8  -8   -0.40    2.60
   1  -8  -8   39.30    6.20
  -1  -8   8   19.10    3.60
  -1  -8   8   25.90    4.60
  -1   8   8   21.20    3.60
   0  -8   8   18.30    4.50
   0  -8  -8   31.00    5.70
   0  -8   8   21.20    4.10
   0   8   8   13.70    3.30
  -1  -8  -8    0.60    3.70
   1  -8   8   -1.30    2.70
   1  -8   8    1.50    2.50
   2  -8   8    4.70    3.30
   2  -8   8    1.00    2.40
   2   8   8    7.50    2.80
   3  -8   8   -1.80    3.10
   3  -8   8    0.80    1.10
   3   8   8   -1.00    2.40
   4  -8   8    1.90    2.80
   4  -8   8    4.60    3.60
   4   8   8   -0.40    2.30
   5  -8   8    4.20    2.90
   5  -8   8    0.90    3.20
   5   8   8    4.50    2.60
   6  -8   8    3.20    3.00
   6  -8   8   -1.70    3.40
   6   8   8    6.40    2.70
   7  -8   8    2.40    2.80
   7  -8   8    1.60    3.60
   7   8   8   -0.80    2.40
   8  -8   8    0.10    2.90
   8  -8   8    1.30    3.90
   8   8   8   -0.50    2.40
   9  -8   8   11.10    4.80
   9   8   8    6.70    3.10
   9   8   8    8.30    3.50
  10  -8   8    9.90    4.80
  10   8   8    6.00    3.00
  12  -9  -8   -7.40    7.60
  12   9  -8    1.00    3.00
  11  -9  -8    3.80    8.10
  11   9  -8   -1.50    2.90
  10  -9  -8   13.60    8.10
  10   9  -8   10.60    4.00
   9  -9  -8    0.20    7.40
   9   9  -8   -2.60    3.30
   8  -9  -8  -15.20    5.90
   8   9  -8    3.00    3.10
   7  -9  -8   15.90    7.80
   7   9  -8    4.30    3.40
   6  -9  -8   41.80    8.70
  -6  -9   8   27.20    4.60
   6   9  -8   25.40    4.60
  -5  -9   8    3.10    2.80
   5  -9  -8    2.10    5.50
   5   9  -8    1.30    3.00
   4  -9  -8   -2.70    5.10
  -4  -9   8    0.10    2.90
   4   9  -8   -1.60    2.90
  -3  -9   8    1.10    2.70
   3  -9  -8   -3.00    5.10
   3   9  -8   -1.10    2.90
  -2  -9   8    7.80    3.20
   2   9  -8   10.50    3.90
  -1  -9   8    3.90    2.90
   0  -9  -8    2.00    5.30
   0  -9   8    7.00    4.40
   0  -9   8    3.60    2.70
   1  -9   8   14.60    3.90
   1  -9   8   17.60    5.10
   2  -9   8   10.30    3.20
   2  -9   8   13.50    4.70
   2   9   8    2.80    3.00
   3  -9   8   14.40    4.80
   3  -9   8   14.90    3.70
   3   9   8   13.50    3.60
   4  -9   8   -2.60    2.90
   4  -9   8    4.70    4.30
   4   9   8   -0.60    2.80
   5  -9   8   -1.40    4.20
   5  -9   8    3.30    3.10
   5   9   8   -0.50    2.90
   6  -9   8    9.90    4.90
   6  -9   8    6.80    3.50
   6   9   8    8.70    3.20
   7  -9   8   -3.80    4.10
   7   9   8   -1.70    2.60
   8  -9   8    3.60    4.80
   8   9   8    6.80    3.10
   9 -10  -8   -8.00    6.70
   9  10  -8   10.00    4.30
   8 -10  -8    6.20    8.60
   8  10  -8    1.60    3.80
   7 -10  -8    4.80    8.50
   7  10  -8    1.70    3.40
   6 -10  -8   -2.50    6.90
   6  10  -8    5.00    4.20
   5 -10  -8   33.70    8.40
  -5 -10   8   11.80    4.00
   5  10  -8    6.30    3.80
  -4 -10   8   11.90    4.00
   4 -10  -8    5.20    7.90
   4  10  -8    8.60    4.50
   3 -10  -8   -4.00    6.20
  -3 -10   8    3.50    3.20
   3  10  -8    0.50    3.40
   2 -10  -8   -8.90    6.70
  -2 -10   8    0.40    2.80
   2  10  -8   -0.70    3.60
   1 -10  -8    6.40    7.10
  -1 -10   8    6.10    3.70
   1  10  -8    7.90    4.30
   1 -10   8    7.50    3.70
   1 -10   8    8.40    5.20
   1  10   8    4.10    3.30
   2 -10   8    2.90    4.70
   2 -10   8    1.70    1.80
   2  10   8    6.50    3.60
   3 -10   8    2.60    3.10
   3 -10   8    5.70    4.90
   3  10   8   -3.00    3.00
   4 -10   8   -2.10    3.90
   4 -10   8    2.10    3.40
   4  10   8    1.50    3.30
   5 -10   8    7.10    5.00
   5 -10   8    4.50    3.50
   5  10   8    0.40    3.40
   5 -11  -8    0.40    9.10
   5  11  -8   -1.00    4.20
   4 -11  -8    7.50    9.40
   4  11  -8    3.90    4.50
  -3 -11   8    4.10    3.70
   3 -11  -8    3.80    9.20
   3  11  -8    5.70    4.60
   2 -11  -8   12.30    9.40
  -2 -11   8    7.40    3.70
   2  11  -8    6.60    4.60
  -1 -11   8    3.70    3.40
   1 -11  -8    2.30    7.90
   1  11  -8    3.20    3.70
   0 -11   8   -2.80    3.30
   1 -11   8   -3.20    4.50
   1 -11   8   -1.70    2.00
   1  11   8    5.80    3.90
  19   0  -9    5.30    3.30
  18   0  -9    4.00    2.80
  17   0  -9    4.40    2.60
  16   0  -9   -0.80    2.10
  15   0  -9    2.00    2.60
  14   0  -9   15.90    3.10
  13   0  -9    2.30    2.00
  12   0  -9   12.50    2.60
 -12   0   9   12.00    3.10
  11   0  -9   32.20    3.30
 -11   0   9   31.20    3.90
 -10   0   9   41.90    4.30
  10   0  -9   36.40    3.30
   9   0  -9   25.50    2.50
   8   0  -9  336.57   13.70
  -8   0   9  319.87   14.60
  -8   0   9  334.27   13.40
  -7   0   9   -0.60    0.90
  -7   0   9   -0.10    1.40
   7   0  -9   -1.70    1.00
  -6   0   9  158.38    8.00
  -6   0   9  155.58    7.10
   6   0  -9  164.38    7.00
   5   0  -9   -0.10    0.90
  -5   0   9    1.70    1.50
  -5   0   9    0.50    1.00
   4   0  -9    6.70    1.10
  -4   0   9    8.40    1.90
  -4   0   9    3.70    1.30
   3   0  -9   11.20    1.10
  -3   0   9   10.10    1.60
  -3   0   9    8.00    1.80
  -2   0   9   80.09    5.10
  -2   0   9   86.09    4.50
   2   0  -9   87.89    3.60
  -1   0   9   36.90    2.70
   0   0   9    8.50    1.60
   1   0   9   14.80    1.90
   2   0   9   31.40    2.60
   3   0   9    4.20    0.70
   3   0   9    5.40    1.50
   4   0   9   -0.20    0.60
   4   0   9    0.10    1.10
   5   0   9   15.90    2.20
   5   0   9   19.10    1.70
   6   0   9    2.80    1.00
   6   0   9   -0.30    1.50
   7   0   9   41.60    3.50
   7   0   9   32.30    2.60
   8   0   9   32.50    3.60
   8   0   9   31.60    2.90
   9   0   9    2.20    1.90
  10   0   9    3.80    2.30
  11   0   9   26.00    3.50
  12   0   9    5.00    2.40
  13   0   9   -2.30    2.00
  14   0   9    0.20    2.40
  15   0   9    0.60    1.20
  19  -1  -9    7.10    3.40
  19   1  -9    6.60    3.10
  18  -1  -9    5.40    3.20
  18   1  -9    3.00    3.10
  17  -1  -9    4.20    2.60
  17   1  -9    4.00    2.70
  16  -1  -9   13.60    3.20
  16   1  -9    8.60    3.10
  15  -1  -9    2.40    2.20
  15   1  -9    0.90    2.30
  14  -1  -9   14.90    3.30
  14   1  -9   18.30    3.00
  13  -1  -9    9.40    2.60
  13   1  -9    7.20    2.60
 -13   1   9    7.80    3.00
  12  -1  -9   73.09    5.10
  12   1  -9   63.79    4.70
 -12   1   9   82.79    6.00
 -11  -1   9    9.90    2.90
  11  -1  -9   11.50    2.50
 -11   1   9   10.80    2.90
  11   1  -9   22.20    2.90
 -10  -1   9  179.38    9.00
  10  -1  -9  156.28    8.00
 -10   1   9  167.58    8.80
  10   1  -9  155.68    7.60
  -9  -1   9  212.68   10.60
  -9  -1   9  229.68    9.70
  -9   1   9  219.98   10.80
  -8  -1   9  354.66   14.70
   8  -1  -9  363.16   15.00
  -8  -1   9  338.27   15.50
  -8   1   9  365.96   15.80
  -8   1   9  364.66   14.10
   8   1  -9  355.76   14.60
   7  -1  -9  436.06   17.20
  -7  -1   9  437.46   17.10
  -7   1   9  421.76   18.00
   7   1  -9  388.96   16.70
  -7   1   9  426.26   16.50
   6  -1  -9  545.85   21.60
  -6  -1   9  548.85   21.80
  -6   1   9  548.85   21.20
  -6   1   9  549.05   22.60
   6   1  -9  528.15   21.20
   5  -1  -9  589.64   23.00
  -5  -1   9  519.05   23.50
  -5  -1   9  592.64   23.30
  -5   1   9  611.94   24.10
  -5   1   9  601.64   22.80
   5   1  -9  586.44   22.60
   4  -1  -9  714.13   27.80
  -4  -1   9  710.23   28.60
  -4  -1   9  716.93   28.30
  -4   1   9  718.33   27.90
  -4   1   9  721.73   29.10
   4   1  -9  722.33   27.40
   3  -1  -9 1193.28   45.90
  -3  -1   9 1196.48   46.90
  -3  -1   9 1203.88   46.50
   3   1  -9 1241.48   45.50
  -3   1   9 1181.48   47.20
  -3   1   9 1193.38   46.10
   2  -1  -9  808.62   31.00
  -2  -1   9  802.52   32.20
  -2  -1   9  815.22   31.80
  -2   1   9  810.32   31.40
   2   1  -9  813.72   30.70
   1  -1  -9  793.62   30.70
  -1  -1   9  799.32   31.80
  -1   1   9  811.72   31.40
   1   1  -9  832.52   30.60
   0  -1   9  122.69    6.30
   0   1   9  136.69    6.10
   0   1  -9  130.89    5.10
   1  -1   9  325.97   13.70
   1   1   9  318.27   13.30
   2  -1   9  455.65   18.50
   2  -1   9  436.66   17.40
   2   1   9  448.06   18.10
   2   1   9  457.05   17.00
   3  -1   9   77.99    3.70
   3  -1   9   75.09    4.50
   3   1   9   75.59    3.30
   3   1   9   73.29    4.20
   4  -1   9   85.29    4.30
   4  -1   9   88.59    5.10
   4   1   9   87.89    4.80
   4   1   9   92.89    3.90
   5  -1   9  101.49    5.00
   5  -1   9  101.39    5.80
   5   1   9  106.39    4.60
   5   1   9  104.09    5.50
   6  -1   9   83.09    4.50
   6  -1   9   89.49    5.30
   6   1   9   78.79    4.80
   6   1   9   84.29    4.10
   7  -1   9  175.38    8.90
   7  -1   9  178.58    8.30
   7   1   9  187.78    7.80
   7   1   9  172.48    8.60
   8  -1   9   96.59    5.50
   8  -1   9   94.29    6.10
   8   1   9  103.39    5.00
   8   1   9   88.29    5.60
   9  -1   9   51.49    4.40
   9  -1   9   52.19    6.30
   9   1   9   58.59    4.30
  10  -1   9    6.40    2.50
  10   1   9    3.40    1.90
  11  -1   9   39.00    4.30
  11   1   9   39.70    4.10
  12  -1   9   15.10    3.00
  12   1   9   16.00    3.00
  13  -1   9    3.00    1.30
  13   1   9    0.40    1.90
  14  -1   9    0.90    2.60
  14   1   9    2.60    2.60
  19  -2  -9   12.20    3.80
  19   2  -9    8.90    3.60
  18  -2  -9    9.80    4.00
  18   2  -9    6.80    3.20
  17  -2  -9    6.00    3.30
  17   2  -9   -4.00    2.40
  16  -2  -9    1.00    2.50
  16   2  -9    5.40    2.70
  15  -2  -9    5.40    2.80
  15   2  -9    4.60    2.60
  14  -2  -9    6.10    2.80
  14   2  -9   -0.90    2.40
  13  -2  -9    2.90    2.40
  13   2  -9    2.70    2.40
 -13   2   9   -1.10    2.40
  12  -2  -9   32.10    4.10
 -12   2   9   25.10    4.20
  12   2  -9   25.70    3.10
  11  -2  -9   32.90    3.80
 -11   2   9   28.20    3.90
  11   2  -9   29.20    3.10
  10  -2  -9    6.00    2.40
 -10   2   9    9.90    2.70
  10   2  -9   10.90    2.20
  -9  -2   9    6.30    2.00
  -9  -2   9    8.90    1.90
   9   2  -9    2.30    1.00
  -9   2   9    6.10    2.30
  -8  -2   9  105.69    5.70
   8  -2  -9  103.59    6.00
  -8  -2   9  107.69    6.10
   8   2  -9  109.69    5.30
  -8   2   9  109.89    6.50
  -7  -2   9  164.28    7.80
   7  -2  -9  161.28    8.00
  -7  -2   9  170.08    8.20
   7   2  -9  171.88    7.20
  -7   2   9  158.58    6.50
  -7   2   9  164.48    8.50
  -6  -2   9   18.20    2.30
  -6  -2   9   14.50    2.00
   6  -2  -9   11.90    2.00
   6   2  -9   15.60    1.60
  -6   2   9   13.20    2.40
  -6   2   9   16.90    1.30
   5  -2  -9   37.30    3.00
  -5  -2   9   41.00    3.20
  -5  -2   9   36.90    3.00
   5   2  -9   42.40    2.40
  -5   2   9   38.50    2.30
  -5   2   9   46.20    3.70
   4  -2  -9   91.69    5.00
  -4  -2   9   95.99    5.20
  -4  -2   9   95.09    5.30
   4   2  -9   99.79    4.40
  -4   2   9   97.19    4.50
  -4   2   9   94.89    5.80
  -3  -2   9   16.10    2.10
  -3  -2   9   18.30    2.30
   3  -2  -9   17.60    2.00
   3   2  -9   15.70    1.40
  -3   2   9   20.00    1.70
  -3   2   9   21.40    2.90
   2  -2  -9   10.90    1.50
  -2  -2   9   10.30    1.80
  -2  -2   9    7.30    1.80
   2   2  -9   11.30    1.20
  -2   2   9   10.60    1.40
   1  -2  -9  106.79    5.00
  -1  -2   9  103.69    5.70
   1   2  -9  108.49    4.70
  -1   2   9  109.69    5.00
   0  -2   9    9.20    1.90
   0   2  -9   10.00    1.20
   0   2   9   12.00    1.60
   1  -2   9   34.80    2.30
   1  -2   9   41.20    3.30
   1   2   9   34.80    2.40
   1   2   9   32.40    1.80
   2  -2   9   71.69    4.40
   2  -2   9   68.29    3.60
   2   2   9   63.49    2.90
   2   2   9   62.99    3.60
   3  -2   9   30.10    3.10
   3  -2   9   29.80    2.40
   3   2   9   30.00    2.50
   3   2   9   29.20    1.60
   4  -2   9   26.40    3.20
   4  -2   9   27.50    2.60
   4   2   9   31.70    2.80
   4   2   9   25.30    1.70
   5  -2   9   27.30    2.60
   5  -2   9   29.00    3.30
   5   2   9   22.40    1.90
   5   2   9   30.10    2.90
   6  -2   9   53.29    3.80
   6  -2   9   60.39    4.70
   6   2   9   56.39    3.20
   6   2   9   59.29    4.00
   7  -2   9   89.89    5.40
   7  -2   9   92.29    6.10
   7   2   9   89.89    5.60
   7   2   9   96.49    4.80
   8  -2   9   46.30    4.50
   8  -2   9   42.40    3.80
   8   2   9   45.00    4.10
   8   2   9   43.00    3.20
   9  -2   9    3.40    2.30
   9  -2   9   -0.10    2.20
   9   2   9    1.20    1.80
  10  -2   9    2.60    2.20
  10   2   9    6.30    2.10
  11   2   9   10.00    2.50
  12  -2   9   -0.90    2.30
  12   2   9    0.20    2.10
  13  -2   9   -0.30    2.40
  13   2   9   -0.60    2.00
  14  -2   9    2.10    2.80
  14   2   9    2.10    2.60
  18  -3  -9    1.10    4.20
  18   3  -9   -2.50    3.40
  17  -3  -9    5.30    3.50
  17   3  -9   -2.30    2.70
  16  -3  -9   13.80    4.50
  16   3  -9   10.70    3.10
  15  -3  -9    8.00    3.40
  15   3  -9    1.70    2.80
  14  -3  -9   12.70    3.60
  14   3  -9    7.70    2.90
 -14   3   9   11.40    3.80
  13  -3  -9   36.50    4.80
  13   3  -9   31.10    3.80
 -13   3   9   39.30    4.80
  12  -3  -9   61.39    5.90
 -12   3   9   52.59    5.50
  12   3  -9   69.29    4.90
  11  -3  -9  143.29    8.80
 -11   3   9  151.28    8.90
  11   3  -9  154.68    7.40
  10  -3  -9   21.40    3.40
 -10   3   9   30.30    4.00
  10   3  -9   26.20    2.70
  -9  -3   9   37.80    3.90
  -9  -3   9   29.40    3.20
  -9   3   9   37.70    4.30
   9   3  -9   29.80    2.80
  -8  -3   9  102.49    6.00
  -8  -3   9  106.09    5.90
   8  -3  -9  109.99    6.40
  -8   3   9  120.79    6.80
  -7  -3   9  296.57   12.90
  -7  -3   9  297.17   12.90
   7  -3  -9  262.67   13.00
  -7   3   9  302.07   13.50
   7   3  -9  302.87   12.20
  -6  -3   9  509.95   20.00
   6  -3  -9  492.15   20.40
  -6  -3   9  463.25   20.10
  -6   3   9  480.05   18.70
  -6   3   9  501.65   20.80
   6   3  -9  481.95   19.40
   5  -3  -9   12.90    2.20
  -5  -3   9   12.00    2.30
  -5  -3   9   10.20    1.80
  -5   3   9   13.90    1.30
  -5   3   9   13.30    2.40
   5   3  -9   11.70    1.60
  -4  -3   9  194.28    8.80
   4  -3  -9  199.08    9.20
  -4  -3   9  200.28    9.40
  -4   3   9  204.48   10.00
  -4   3   9  189.68    8.10
   4   3  -9  197.88    8.50
  -3  -3   9  183.78    8.20
   3  -3  -9  192.68    8.60
  -3  -3   9  190.18    8.90
   3   3  -9  172.48    7.90
  -3   3   9  181.88    7.60
  -3   3   9  173.88    9.20
  -2  -3   9  415.56   17.50
  -2  -3   9  420.96   17.00
   2  -3  -9  410.66   17.00
  -2   3   9  421.26   16.30
   2   3  -9  400.36   16.60
  -2   3   9  410.56   18.00
   1  -3  -9  790.62   31.90
  -1  -3   9  833.12   32.60
  -1  -3   9  857.41   32.10
   1   3  -9  762.32   31.60
  -1   3   9  833.92   31.50
   0  -3  -9  713.43   27.50
   0  -3   9  688.43   28.20
   0  -3   9  698.73   27.50
   0   3   9  686.43   27.10
   1  -3   9   28.40    3.10
   1  -3   9   30.80    2.60
   1   3   9   32.70    2.30
   1   3   9   30.80    2.30
   2  -3   9  505.45   20.50
   2  -3   9  511.35   20.00
   2   3   9  464.45   19.20
   2   3   9  486.45   19.60
   3  -3   9  219.08   10.00
   3  -3   9  227.88   10.50
   3   3   9  223.18    9.70
   3   3   9  216.28    9.00
   4  -3   9   90.09    5.60
   4  -3   9   80.79    5.00
   4   3   9   87.29    4.00
   4   3   9   86.79    4.80
   5  -3   9   64.39    4.40
   5  -3   9   62.69    4.70
   5   3   9   60.79    4.00
   5   3   9   64.99    3.20
   6  -3   9   87.09    5.80
   6  -3   9   76.99    5.20
   6   3   9   78.49    4.90
   6   3   9   90.09    4.20
   7  -3   9   98.29    6.50
   7  -3   9   92.59    6.10
   7   3   9  112.69    5.10
   7   3   9  105.09    5.80
   8  -3   9   27.90    3.80
   8  -3   9   34.00    3.80
   8   3   9   29.00    3.20
   8   3   9   28.90    2.60
   9  -3   9    0.80    1.10
   9  -3   9    1.80    2.30
   9   3   9   -0.50    1.70
  10  -3   9    6.70    2.50
  10   3   9    2.90    2.00
  11  -3   9    9.10    2.90
  11   3   9   12.70    2.90
  12  -3   9   15.50    3.40
  12   3   9   13.10    2.90
  13  -3   9    1.70    2.90
  13   3   9   -0.10    2.10
  14  -3   9    2.30    2.80
  14   3   9    1.30    2.30
  18  -4  -9    6.90    5.50
  18   4  -9    6.90    4.00
  17  -4  -9    7.00    4.80
  17   4  -9    1.80    3.50
  16  -4  -9   16.80    5.40
  16   4  -9    9.90    3.60
  15  -4  -9   -0.50    3.70
  15   4  -9   -1.90    2.90
  14  -4  -9   12.90    4.00
 -14   4   9    9.80    3.90
  14   4  -9    3.00    2.50
  13  -4  -9    0.10    2.80
  13   4  -9   -1.10    2.40
 -13   4   9    1.40    2.70
  12  -4  -9   16.10    3.70
  12   4  -9   16.20    2.90
 -12   4   9   14.70    3.40
  11  -4  -9   44.80    5.30
  11   4  -9   32.90    3.40
 -11   4   9   35.10    4.50
  10  -4  -9    7.10    3.10
 -10   4   9    8.70    2.90
  10   4  -9    7.40    2.00
   9  -4  -9   45.40    5.00
  -9  -4   9   47.00    4.30
   9   4  -9   42.50    3.40
  -9   4   9   41.40    4.60
  -8  -4   9   21.40    2.90
   8  -4  -9   10.50    2.10
  -8   4   9   16.20    3.00
   8   4  -9    9.20    1.70
   7  -4  -9   10.10    2.70
  -7  -4   9   11.20    2.10
  -7  -4   9    9.90    2.30
   7   4  -9    9.40    2.00
  -7   4   9   11.00    2.60
  -6  -4   9  114.89    5.80
  -6  -4   9  112.39    6.40
   6  -4  -9  106.29    6.60
   6   4  -9  121.79    5.80
  -6   4   9   96.99    4.80
  -6   4   9  110.29    6.80
   5  -4  -9   19.70    2.90
  -5  -4   9   26.00    3.20
  -5  -4   9   25.60    2.50
  -5   4   9   20.30    3.10
   5   4  -9   22.80    2.40
  -5   4   9   26.90    1.70
  -4  -4   9   37.10    3.80
   4  -4  -9   38.40    3.90
  -4  -4   9   33.70    2.70
  -4   4   9   33.80    2.10
   4   4  -9   30.80    2.80
  -4   4   9   34.50    3.80
  -3  -4   9  113.59    6.50
   3  -4  -9   98.99    6.10
  -3  -4   9  105.79    5.20
   3   4  -9  103.59    5.60
  -3   4   9  114.89    6.80
  -3   4   9  110.89    4.90
  -2  -4   9   72.79    4.90
   2  -4  -9   60.39    4.60
  -2  -4   9   71.79    3.80
   2   4  -9   64.19    4.10
  -2   4   9   74.79    5.20
  -2   4   9   65.79    3.50
  -1  -4   9   24.00    3.10
   1  -4  -9   20.60    2.70
  -1  -4   9   25.10    2.20
  -1   4   9   20.50    1.90
   0  -4  -9  101.69    5.50
   0  -4   9   88.59    4.80
   0  -4   9   90.19    5.30
   0  -4   9   97.59    5.90
   0   4   9   87.49    4.60
   1  -4   9   49.60    3.90
   1  -4   9   54.29    4.30
   1   4   9   50.29    3.10
   2  -4   9    7.20    2.00
   2  -4   9    5.30    2.00
   2   4   9    7.10    1.60
   2   4   9    8.00    1.60
   3  -4   9   57.19    4.40
   3  -4   9   55.89    4.50
   3   4   9   59.99    3.80
   3   4   9   61.19    3.60
   4  -4   9   15.20    2.80
   4  -4   9   10.00    2.40
   4   4   9   11.60    1.70
   4   4   9   10.20    1.90
   5  -4   9  130.59    7.60
   5  -4   9  119.19    7.10
   5   4   9  132.19    6.70
   5   4   9  127.69    5.90
   6  -4   9   84.49    6.20
   6  -4   9   74.39    5.60
   6   4   9   79.69    5.00
   6   4   9   88.09    4.40
   7  -4   9   33.60    4.00
   7  -4   9   32.50    4.20
   7   4   9   37.60    3.60
   7   4   9   36.30    2.70
   8  -4   9   -1.50    1.80
   8  -4   9    1.40    1.40
   8   4   9    0.80    1.50
   8   4   9   -0.50    1.70
   9  -4   9    8.00    2.70
   9  -4   9    5.30    2.70
   9   4   9    8.10    2.30
  10  -4   9   -1.90    2.30
  10   4   9   -1.10    1.90
  11  -4   9    7.30    2.80
  11   4   9    6.90    2.30
  12  -4   9   -0.50    2.60
  12   4   9   -1.70    1.90
  13  -4   9    2.00    2.90
  13   4   9    2.00    2.40
  17  -5  -9    5.70    5.00
  17   5  -9   -1.60    3.10
  16  -5  -9    4.40    4.70
  16   5  -9   -0.10    3.00
  15  -5  -9    1.90    4.30
  15   5  -9   12.50    3.50
  14  -5  -9   -0.20    3.60
 -14   5   9   -5.60    2.90
  14   5  -9   -2.80    2.40
  13  -5  -9   -2.60    3.60
  13   5  -9    2.00    2.30
 -13   5   9   -2.60    2.40
  12  -5  -9   31.90    5.60
 -12   5   9   25.30    4.20
  12   5  -9   26.60    3.30
  11  -5  -9   23.10    4.80
 -11   5   9   18.80    3.70
  11   5  -9   17.30    3.00
  10  -5  -9   42.10    5.60
  10   5  -9   48.90    4.30
 -10   5   9   39.60    4.80
  -9  -5   9   37.60    4.20
   9  -5  -9   39.00    5.20
   9   5  -9   38.50    3.70
  -9   5   9   25.60    3.80
  -8  -5   9  125.89    7.50
   8   5  -9  133.59    6.90
  -8   5   9  114.99    7.40
   7  -5  -9  142.69    9.00
  -7  -5   9  180.38    8.80
  -7   5   9  164.28    8.90
   6  -5  -9   37.90    4.50
  -6  -5   9   40.50    4.20
   6   5  -9   46.60    3.80
  -6   5   9   44.10    4.50
  -5  -5   9  133.69    7.40
   5  -5  -9  129.29    7.90
  -5   5   9  121.99    7.40
  -5   5   9  130.59    5.50
   5   5  -9  133.09    7.00
   4  -5  -9    6.90    2.50
  -4  -5   9    7.20    2.30
   4   5  -9    9.40    2.20
  -4   5   9    6.50    2.60
  -4   5   9    5.40    1.10
  -3  -5   9   56.69    4.60
   3  -5  -9   58.69    4.80
  -3   5   9   49.00    4.50
   3   5  -9   54.19    4.20
  -3   5   9   57.79    3.10
  -2  -5   9   92.29    5.80
   2  -5  -9   88.79    5.80
   2   5  -9   83.69    5.30
  -2   5   9   79.09    6.00
  -2   5   9   87.59    4.30
  -1  -5   9  175.08    8.70
   1  -5  -9  161.78    8.70
  -1  -5   9  166.58    8.90
  -1   5   9  166.98    7.50
   0  -5  -9   60.29    4.70
   0  -5   9   47.00    4.60
   0  -5   9   56.79    4.40
   0   5   9   52.39    3.40
  -1  -5  -9   31.60    3.60
   1  -5   9   23.50    3.40
   1  -5   9   37.90    4.00
   1   5   9   31.70    2.60
   2  -5   9  122.19    7.40
   2  -5   9  135.49    7.60
   2   5   9  131.09    6.80
   2   5   9  133.69    6.50
   3  -5   9  165.68    9.10
   3  -5   9  174.88    9.10
   3   5   9  169.18    8.00
   3   5   9  166.68    8.10
   4  -5   9    2.20    2.20
   4  -5   9    3.60    2.30
   4   5   9   -0.50    1.50
   4   5   9    2.70    1.60
   5  -5   9    9.70    2.80
   5  -5   9   10.30    2.70
   5   5   9   11.70    2.20
   5   5   9   13.50    2.10
   6  -5   9    2.30    2.40
   6  -5   9    2.50    2.00
   6   5   9    5.60    1.90
   6   5   9    5.00    1.70
   7  -5   9   64.29    5.70
   7  -5   9   43.20    4.90
   7   5   9   67.99    4.00
   7   5   9   54.89    4.30
   8  -5   9   13.40    3.50
   8  -5   9   16.10    3.40
   8   5   9   10.60    2.40
   8   5   9   12.10    2.10
   9  -5   9   -0.10    2.50
   9  -5   9    0.90    2.90
   9   5   9    1.80    1.90
  10  -5   9    4.60    3.10
  10   5   9    5.50    2.50
  11  -5   9   23.10    4.20
  11   5   9   14.70    3.30
  12  -5   9   -0.40    2.80
  12   5   9    2.10    2.60
  13   5   9    5.40    3.00
  16  -6  -9    8.90    6.20
  16   6  -9    4.80    3.70
  15  -6  -9    4.90    6.00
  15   6  -9   -0.10    2.80
  14  -6  -9    5.90    5.00
 -14   6   9    4.10    3.90
  14   6  -9    4.20    2.70
  13  -6  -9   14.60    5.10
 -13   6   9   12.00    3.90
  13   6  -9   10.00    2.90
  12  -6  -9    0.80    4.20
 -12   6   9    4.10    3.00
  12   6  -9    3.20    2.70
  11  -6  -9    4.30    3.90
 -11   6   9    3.90    2.70
  11   6  -9    5.00    2.50
  10  -6  -9   57.69    7.30
 -10   6   9   47.90    5.40
  10   6  -9   53.89    4.60
  -9  -6   9   30.00    4.20
   9  -6  -9   26.90    4.90
   9   6  -9   26.00    3.40
  -9   6   9   13.90    3.10
   8  -6  -9   31.90    4.90
  -8  -6   9   32.90    4.20
   8   6  -9   36.00    4.00
  -8   6   9   28.40    3.90
  -7  -6   9   14.90    3.10
   7   6  -9   15.20    3.00
  -7   6   9   11.70    3.10
   6  -6  -9   29.20    4.50
  -6  -6   9   30.70    3.90
  -6   6   9   30.80    4.00
   5  -6  -9    6.80    3.10
  -5  -6   9    4.30    2.40
  -5   6   9   11.60    2.90
   5   6  -9    7.20    2.40
  -4  -6   9   50.29    5.00
   4  -6  -9   49.20    5.50
  -4   6   9   46.80    2.90
   4   6  -9   49.40    4.40
  -4   6   9   49.20    4.90
   3  -6  -9    9.70    3.10
  -3  -6   9   13.60    3.00
  -3   6   9   12.90    3.00
  -3   6   9    9.30    1.60
   3   6  -9   18.60    3.00
   2  -6  -9   64.49    5.50
  -2  -6   9   57.69    5.00
  -2   6   9   59.19    5.00
   2   6  -9   55.89    4.50
  -1  -6   9    8.40    2.80
   1  -6  -9    9.70    2.80
  -1  -6   9    8.20    2.70
  -1   6   9   10.10    2.90
   0  -6   9   41.70    4.70
   0  -6  -9   32.00    3.90
   0  -6   9   34.60    4.40
  -1  -6  -9   69.09    5.60
   1  -6   9   62.99    5.50
   1  -6   9   69.19    5.40
   2  -6   9    7.00    2.80
   2  -6   9   10.00    2.90
   2   6   9    7.00    2.30
   3  -6   9   15.00    3.10
   3  -6   9   10.70    3.10
   3   6   9   12.50    2.60
   4  -6   9   28.60    4.10
   4  -6   9   25.30    4.00
   4   6   9   20.00    2.70
   4   6   9   20.70    3.00
   5  -6   9    3.90    2.30
   5  -6   9   -0.70    2.50
   5   6   9   -0.10    1.60
   5   6   9    1.20    1.70
   6  -6   9    9.20    3.10
   6  -6   9    4.10    2.70
   6   6   9    2.80    2.00
   6   6   9    5.30    2.10
   7  -6   9    0.00    2.60
   7  -6   9    1.10    2.60
   7   6   9   -1.70    1.70
   7   6   9    3.50    2.20
   8  -6   9    6.40    3.20
   8  -6   9    4.40    2.70
   8   6   9    2.10    2.00
   9  -6   9   -0.10    4.60
   9  -6   9    2.50    2.90
   9   6   9    1.80    2.10
  10  -6   9    6.60    3.20
  10   6   9    1.60    2.40
  11   6   9    2.00    2.60
  12   6   9    2.10    2.60
  15  -7  -9    2.80    5.90
  15   7  -9   -1.80    3.20
  14  -7  -9   -0.20    6.00
  14   7  -9    0.80    3.10
  13  -7  -9    5.00    5.70
  13   7  -9    5.30    3.20
 -13   7   9    1.40    3.30
  12  -7  -9    4.50    5.80
 -12   7   9    2.90    2.90
  12   7  -9    5.30    2.80
  11  -7  -9   14.20    5.60
  11   7  -9   14.40    3.50
 -11   7   9    9.00    3.40
  10  -7  -9    6.20    5.20
 -10   7   9    6.80    3.10
  10   7  -9    4.20    2.70
   9  -7  -9    4.20    4.80
   9   7  -9    5.60    2.90
  -9   7   9    4.70    2.50
  -8  -7   9   15.50    3.60
   8  -7  -9   25.40    5.40
   8   7  -9   25.20    4.00
  -8   7   9   23.10    3.90
  -7  -7   9   37.60    4.70
   7  -7  -9   41.30    6.10
   7   7  -9   31.20    4.10
  -7   7   9   29.50    4.30
  -6  -7   9   89.49    6.50
   6   7  -9   91.39    6.30
  -6   7   9   86.29    6.40
  -5  -7   9   32.60    4.30
   5  -7  -9   43.50    5.70
  -5   7   9   38.60    4.40
  -4  -7   9   15.20    3.60
   4  -7  -9   16.70    4.20
   4   7  -9   11.90    3.00
  -4   7   9   17.40    3.30
  -3  -7   9    4.80    2.80
   3  -7  -9    3.50    3.40
   3   7  -9    6.70    2.60
  -3   7   9   -1.90    2.20
   2  -7  -9   27.60    4.80
  -2  -7   9   33.40    4.30
   2   7  -9   25.70    4.00
  -2   7   9   32.20    4.20
  -1  -7   9   43.70    5.20
   1  -7  -9   44.60    5.60
  -1  -7   9   35.40    4.60
  -1   7   9   39.00    4.80
   0  -7   9   21.30    3.60
   0  -7  -9   11.80    3.60
   0  -7   9   20.70    4.00
  -1  -7  -9    2.00    2.80
   1  -7   9    2.00    2.50
   1  -7   9    1.30    2.80
   2  -7   9    9.30    3.00
   2  -7   9   16.10    3.80
   2   7   9   14.20    2.90
   3  -7   9   18.70    3.70
   3  -7   9   21.00    4.20
   3   7   9   17.20    3.20
   4  -7   9   27.90    4.20
   4  -7   9   29.10    4.70
   4   7   9   28.30    3.70
   5  -7   9    3.60    3.10
   5  -7   9    1.90    2.00
   5   7   9    7.50    2.50
   6  -7   9    1.90    3.10
   6  -7   9    7.20    3.20
   6   7   9    4.80    2.20
   6   7   9    3.50    2.40
   7  -7   9    9.20    3.80
   7  -7   9    8.30    3.40
   7   7   9   10.10    2.90
   7   7   9   10.90    2.70
   8  -7   9    6.70    3.60
   8  -7   9    8.00    3.40
   8   7   9    3.10    2.40
   9  -7   9    3.00    3.00
   9   7   9    2.80    2.40
  10   7   9    0.40    2.30
  11   7   9    2.60    2.60
  14   8  -9   -0.50    3.40
  13  -8  -9   -3.00    6.10
  13   8  -9   -4.50    2.60
  12  -8  -9    6.70    7.00
  12   8  -9   -3.50    2.60
  11  -8  -9    0.20    5.50
  11   8  -9   -3.70    2.90
  10  -8  -9    6.50    5.50
  10   8  -9    2.10    2.90
 -10   8   9    0.90    3.30
   9  -8  -9   10.40    6.90
   9   8  -9    5.10    3.10
  -9   8   9    9.40    3.30
  -8  -8   9    6.60    3.10
   8  -8  -9   19.00    6.50
  -8   8   9    4.70    2.80
   8   8  -9    7.80    3.20
  -7  -8   9   11.80    3.40
   7  -8  -9   17.80    6.30
  -7   8   9   15.50    3.40
   7   8  -9   22.10    4.00
  -6  -8   9   10.50    3.50
   6  -8  -9    7.10    4.80
  -6   8   9    4.50    2.90
   6   8  -9    2.80    3.00
  -5  -8   9   48.00    5.40
  -5   8   9   40.10    4.80
   5   8  -9   51.99    5.80
   4  -8  -9   47.10    6.90
  -4  -8   9   49.20    5.40
   4   8  -9   43.50    5.40
  -4   8   9   44.60    4.90
  -3  -8   9    3.90    2.70
   3  -8  -9    8.60    4.60
   3   8  -9    0.80    1.20
  -3   8   9    3.50    2.50
  -2  -8   9   32.80    4.60
   2  -8  -9   31.10    5.90
  -2   8   9   30.70    4.30
   2   8  -9   36.00    4.90
   1  -8  -9    3.80    3.70
  -1  -8   9    8.30    3.40
  -1   8   9   10.80    3.10
   0  -8  -9   -2.60    3.30
   0  -8   9    2.20    3.30
   0  -8   9    6.90    3.20
   0   8   9    1.50    2.50
   1  -8   9    7.60    3.50
   1  -8   9    1.80    2.90
   2  -8   9   21.50    4.60
   2  -8   9   15.60    4.00
   2   8   9   22.90    3.80
   3  -8   9    4.90    3.20
   3  -8   9    9.10    3.90
   3   8   9    3.50    2.70
   4  -8   9    0.90    1.50
   4  -8   9    9.10    4.00
   4   8   9    4.00    2.60
   5  -8   9    1.80    3.60
   5  -8   9    4.30    3.00
   5   8   9    5.30    2.70
   6  -8   9   11.90    3.70
   6  -8   9   16.20    4.70
   6   8   9   11.70    3.10
   7  -8   9    9.40    3.60
   7  -8   9    9.00    4.60
   7   8   9    9.80    2.80
   7   8   9    5.50    3.40
   8  -8   9   14.30    4.80
   8  -8   9   11.70    3.80
   8   8   9   11.40    3.50
   9   8   9    4.40    3.10
  12  -9  -9    2.40    7.50
  12   9  -9   -1.50    3.10
  11  -9  -9   -5.70    8.10
  11   9  -9    1.30    3.10
  10  -9  -9   13.20    8.40
  10   9  -9    6.40    3.90
   9  -9  -9    3.10    6.80
   9   9  -9   -1.00    3.10
   8  -9  -9   15.80    7.50
   8   9  -9   -0.10    3.50
   7  -9  -9   25.70    7.80
  -7  -9   9   27.80    5.00
   7   9  -9   22.90    4.70
   6  -9  -9   45.40    8.60
  -6  -9   9   27.30    4.80
   6   9  -9   29.30    5.10
   5  -9  -9   -3.40    6.10
  -5  -9   9    0.90    2.70
   5   9  -9    3.30    3.20
  -4  -9   9    4.80    3.30
   4   9  -9    3.70    3.20
  -3  -9   9    1.70    2.90
   3   9  -9    5.20    3.20
  -2  -9   9   17.80    3.90
   2  -9  -9   31.30    7.30
   2   9  -9    9.00    2.50
   1  -9  -9   12.40    5.60
  -1  -9   9    9.80    3.40
   0  -9   9    7.40    4.30
   0  -9   9    6.50    3.10
   0  -9  -9   11.80    5.80
   1  -9   9   15.90    5.00
   1  -9   9   12.30    4.00
   2  -9   9   12.70    4.70
   2  -9   9   10.10    3.80
   2   9   9    8.70    3.20
   3  -9   9   12.10    4.80
   3  -9   9    2.50    2.10
   3   9   9    7.40    3.20
   4  -9   9   10.30    3.90
   4  -9   9    4.00    4.40
   4   9   9    1.20    2.90
   5  -9   9    4.30    3.30
   5  -9   9    3.00    4.00
   5   9   9   -1.60    2.60
   6  -9   9    1.00    4.10
   6  -9   9   -2.80    2.90
   6   9   9    2.40    2.90
   7  -9   9   -0.40    4.40
   7  -9   9    5.30    4.20
   9 -10  -9   26.00    9.80
   9  10  -9    7.00    3.90
   8 -10  -9   12.30    7.80
   8  10  -9    1.80    4.00
   7 -10  -9   -0.80    7.30
   7  10  -9   -1.70    3.80
   6 -10  -9  -10.70    7.80
  -6 -10   9    2.70    3.70
   6  10  -9    0.40    3.50
   5 -10  -9   16.60    8.70
  -5 -10   9    5.70    3.90
   5  10  -9   12.50    4.60
  -4 -10   9   15.10    4.30
   4 -10  -9   31.70    8.30
   4  10  -9   23.70    5.30
  -3 -10   9    7.10    3.50
   3  10  -9    1.70    3.60
  -2 -10   9    4.40    3.20
   2  10  -9    1.70    3.90
   1 -10  -9   18.40    7.30
  -1 -10   9   20.80    4.70
   1  10  -9   12.40    4.40
   0 -10  -9    3.60    6.90
   0 -10   9    6.10    3.60
   1 -10   9    1.70    3.40
   1 -10   9   -2.10    4.30
   1  10   9    1.70    2.70
   2 -10   9    7.90    5.20
   2 -10   9    5.20    3.10
   2  10   9    5.10    3.50
   3 -10   9    9.00    4.60
   3 -10   9    7.20    3.70
   3  10   9    5.40    3.60
   4 -10   9    6.90    4.50
   4 -10   9    6.50    3.90
   4  10   9    3.80    3.20
  19   0 -10    4.60    3.00
  18   0 -10    7.40    3.40
  17   0 -10    2.50    2.80
  16   0 -10    5.10    2.60
  15   0 -10   25.70    3.60
  14   0 -10    3.20    2.30
 -13   0  10    1.70    2.50
  13   0 -10    0.30    2.30
 -12   0  10   50.99    5.30
  12   0 -10   58.39    4.70
 -11   0  10   20.40    3.50
  11   0 -10   22.70    3.00
  10   0 -10  256.77   11.20
   9   0 -10    0.30    1.40
  -9   0  10    2.40    1.20
  -9   0  10   -0.90    1.70
   8   0 -10  187.68    8.20
  -8   0  10  176.28    7.90
  -8   0  10  174.18    9.20
  -7   0  10   58.19    3.50
  -7   0  10   61.19    4.60
   7   0 -10   60.79    3.50
   6   0 -10  776.82   29.40
  -6   0  10  754.92   29.70
  -6   0  10  741.83   30.60
   5   0 -10 2271.17   82.19
  -5   0  10 2107.49   82.59
  -5   0  10 2129.49   83.49
   4   0 -10  658.43   24.30
  -4   0  10  621.64   24.90
  -4   0  10  602.24   25.70
   3   0 -10   47.00    2.40
  -3   0  10   47.70    3.10
  -3   0  10   43.60    3.80
   2   0 -10    7.20    0.80
  -2   0  10    6.80    1.60
  -2   0  10    5.30    2.00
  -1   0  10   73.79    4.20
   0   0  10   27.90    2.70
   1   0  10 1540.55   59.29
   2   0  10  571.54   23.10
   3   0  10  101.89    4.20
   3   0  10   96.09    5.50
   4   0  10   34.20    2.00
   4   0  10   35.40    3.00
   5   0  10  219.28   10.00
   5   0  10  211.18    8.90
   6   0  10   93.79    5.60
   7   0  10   -0.50    1.60
   8   0  10   83.09    5.50
   9   0  10   42.90    4.20
  10   0  10   17.90    3.30
  11   0  10   -1.30    2.20
  12   0  10   -0.10    2.10
  13   0  10    2.20    2.30
  14   0  10   14.60    3.30
  19  -1 -10    7.70    4.00
  19   1 -10    6.40    3.40
  18  -1 -10    4.00    3.00
  18   1 -10    1.80    3.00
  17  -1 -10    4.70    2.90
  17   1 -10    6.30    3.10
  16  -1 -10   11.50    3.10
  16   1 -10    7.00    3.00
  15  -1 -10    3.90    2.40
  15   1 -10    4.60    2.50
  14  -1 -10    9.60    3.00
 -14   1  10    4.30    3.20
  14   1 -10    6.20    2.40
  13  -1 -10    6.30    2.30
  13   1 -10    4.70    2.50
 -13   1  10    6.00    2.90
  12  -1 -10    3.10    2.30
 -12  -1  10    1.10    2.70
 -12   1  10    1.90    2.50
  12   1 -10    5.10    2.40
  11  -1 -10   35.30    3.70
 -11  -1  10   43.20    4.90
 -11   1  10   40.40    4.50
  11   1 -10   45.20    3.70
 -10  -1  10   64.99    4.90
  10  -1 -10   39.70    3.60
 -10   1  10   62.79    5.00
  -9  -1  10   13.00    2.00
   9  -1 -10   14.50    2.30
  -9  -1  10   13.90    2.90
  -9   1  10   14.70    2.90
   9   1 -10   11.60    1.90
  -8  -1  10  108.89    5.60
   8  -1 -10  109.69    5.80
  -8  -1  10  113.99    6.40
   8   1 -10  101.39    5.40
  -8   1  10  109.79    4.90
  -8   1  10  109.29    6.50
   7  -1 -10   61.29    3.60
  -7  -1  10   55.69    3.60
  -7   1  10   55.09    4.40
   7   1 -10   54.19    3.30
  -7   1  10   55.89    3.10
  -6  -1  10   93.39    5.00
   6  -1 -10   95.79    4.80
   6   1 -10   89.59    4.40
  -6   1  10   94.49    5.80
  -6   1  10   93.19    4.50
   5  -1 -10   83.59    4.60
  -5  -1  10   95.99    5.00
  -5  -1  10   89.49    5.30
   5   1 -10   89.79    4.20
  -5   1  10   93.99    5.70
  -5   1  10   97.19    4.60
  -4  -1  10   44.90    3.20
   4  -1 -10   38.00    2.50
  -4  -1  10   42.00    3.60
  -4   1  10   39.90    2.70
   4   1 -10   40.40    2.30
  -4   1  10   39.20    4.00
  -3  -1  10   23.20    2.50
  -3  -1  10   26.40    3.00
   3  -1 -10   20.40    1.80
  -3   1  10   24.70    2.30
  -3   1  10   20.40    2.90
   3   1 -10   22.20    1.50
  -2  -1  10   14.90    2.20
   2  -1 -10   15.90    1.40
  -2  -1  10   18.30    2.70
  -2   1  10   14.00    1.80
   2   1 -10   16.60    1.10
  -1  -1  10   26.10    2.80
   1   1 -10   22.50    1.10
  -1   1  10   19.80    2.10
   0  -1  10   72.79    4.60
   0   1  10   76.19    4.20
   1  -1  10    6.00    1.60
   1   1  10    5.40    1.50
   2  -1  10   48.00    2.30
   2  -1  10   52.69    3.70
   2   1  10   48.40    3.30
   3  -1  10   11.40    1.20
   3  -1  10   11.30    2.10
   3   1  10   11.90    0.90
   3   1  10    7.30    1.60
   4  -1  10    7.50    2.00
   4  -1  10    9.30    1.30
   4   1  10    9.40    1.00
   4   1  10   12.40    2.10
   5  -1  10    9.50    1.50
   5  -1  10   10.20    2.20
   5   1  10   12.20    1.30
   5   1  10    9.70    1.90
   6  -1  10   24.90    3.20
   6  -1  10   31.10    3.30
   6   1  10   36.80    3.50
   7  -1  10   17.50    3.00
   7   1  10   18.00    2.90
   8  -1  10   24.80    3.40
   8   1  10   22.20    3.00
   9  -1  10   29.20    3.90
   9   1  10   22.60    3.30
  10  -1  10   10.20    2.90
  10   1  10    7.50    2.50
  11  -1  10   -2.40    2.20
  11   1  10    2.30    2.10
  12  -1  10    4.80    2.70
  12   1  10    1.10    2.10
  13  -1  10    4.80    2.90
  13   1  10    5.10    2.40
  14  -1  10    2.20    1.80
  14   1  10    3.40    2.90
  19  -2 -10   13.00    4.30
  19   2 -10    9.60    3.90
  18  -2 -10    6.00    3.40
  18   2 -10    8.50    3.70
  17  -2 -10   10.50    3.90
  17   2 -10    2.80    3.10
  16  -2 -10    2.20    2.70
  16   2 -10   -1.20    2.50
  15  -2 -10   13.30    3.50
  15   2 -10    3.70    2.60
  14  -2 -10   28.30    4.30
 -14   2  10   26.80    4.50
  14   2 -10   25.20    3.50
  13  -2 -10   76.49    6.10
  13   2 -10   93.49    6.00
 -13   2  10   86.59    6.70
  12  -2 -10  121.79    7.50
  12   2 -10  123.69    6.90
 -12   2  10  124.49    8.00
 -11  -2  10   53.59    5.00
  11  -2 -10   81.09    5.50
 -11   2  10   88.99    6.10
  11   2 -10   73.09    4.70
  10  -2 -10   11.20    1.90
 -10  -2  10   23.30    2.80
 -10  -2  10   12.30    2.50
 -10   2  10   16.90    3.20
  -9  -2  10   46.90    4.50
  -9  -2  10   49.99    3.80
   9  -2 -10   44.70    3.90
  -9   2  10   53.39    4.70
   9   2 -10   53.29    3.60
  -8  -2  10  358.56   15.70
  -8  -2  10  356.66   15.20
   8  -2 -10  343.47   15.40
  -8   2  10  364.86   16.10
   8   2 -10  368.86   14.60
  -7  -2  10    2.30    1.70
   7  -2 -10    5.00    1.60
  -7  -2  10    2.40    1.40
  -7   2  10    5.10    2.10
   7   2 -10    2.40    1.10
  -7   2  10    4.00    0.90
  -6  -2  10  121.49    6.40
   6  -2 -10  117.49    6.20
  -6  -2  10  123.39    6.40
   6   2 -10  124.29    5.50
  -6   2  10  122.79    7.00
  -6   2  10  120.29    5.40
  -5  -2  10  185.78    9.00
   5  -2 -10  185.38    8.70
  -5  -2  10  196.08    9.00
  -5   2  10  196.98    8.10
  -5   2  10  186.38    9.60
   5   2 -10  193.18    7.90
   4  -2 -10   93.89    5.00
  -4  -2  10   90.29    5.30
  -4  -2  10   99.69    5.40
   4   2 -10   94.99    4.30
  -4   2  10  103.89    6.30
  -4   2  10  100.49    4.70
   3  -2 -10  346.57   14.20
  -3  -2  10  350.66   14.90
  -3  -2  10  341.57   14.80
  -3   2  10  358.16   14.00
  -3   2  10  341.57   15.40
   3   2 -10  337.77   13.60
   2  -2 -10  130.09    6.10
  -2  -2  10  130.29    6.90
  -2  -2  10  139.09    7.00
   2   2 -10  139.19    5.70
  -2   2  10  138.19    6.20
   1  -2 -10   43.20    2.60
  -1  -2  10   45.00    3.50
   1   2 -10   46.20    2.40
  -1   2  10   47.40    2.90
   0  -2  10   53.09    3.70
   0   2  10   47.00    3.00
   0   2  10   40.60    2.20
   0   2 -10   45.80    2.40
   1  -2  10   81.49    3.80
   1  -2  10   80.09    4.80
   1   2  10   67.39    3.20
   1   2  10   77.69    4.20
   2  -2  10  242.88   10.00
   2  -2  10  235.58   11.00
   2   2  10  244.18   10.40
   2   2  10  238.98    9.30
   3  -2  10  113.49    5.60
   3  -2  10  125.99    6.80
   3   2  10  120.59    6.00
   3   2  10  123.19    4.90
   4  -2  10   74.49    5.10
   4  -2  10   77.19    4.40
   4   2  10   83.09    4.60
   4   2  10   81.99    3.60
   5  -2  10  261.07   11.90
   5  -2  10  243.08   10.90
   5   2  10  248.68   11.20
   5   2  10  256.77   10.20
   6  -2  10   35.30    3.90
   6  -2  10   36.80    3.30
   6   2  10   32.10    3.40
   7  -2  10   93.59    6.00
   7   2  10   85.59    5.30
   8  -2  10   13.60    3.10
   8   2  10    8.40    2.20
   9  -2  10   53.09    5.30
   9   2  10   52.19    4.20
  10  -2  10   13.30    3.30
  10   2  10   19.60    3.00
  11  -2  10    7.60    3.10
  11   2  10    9.10    2.50
  12  -2  10    5.20    2.20
  12   2  10    2.60    2.20
  13  -2  10    8.10    3.00
  13   2  10   12.20    3.20
  14  -2  10    2.00    2.90
  14   2  10    2.40    2.40
  18  -3 -10    7.60    4.20
  18   3 -10    3.80    3.30
  17  -3 -10   10.50    4.10
  17   3 -10    6.40    3.60
  16  -3 -10   -0.50    3.10
  16   3 -10   -1.30    2.50
  15  -3 -10    0.80    2.90
  15   3 -10    2.40    3.00
  14  -3 -10    2.50    3.00
  14   3 -10    3.70    2.60
 -14   3  10    3.00    3.10
  13  -3 -10   -0.70    2.90
 -13   3  10   -1.50    2.70
  13   3 -10   -0.80    2.10
  12  -3 -10   -1.10    2.40
 -12   3  10    1.10    2.80
  12   3 -10    0.60    2.00
  11  -3 -10    4.10    2.70
 -11   3  10    2.90    2.50
  11   3 -10    5.60    2.10
 -10  -3  10   12.10    2.90
 -10  -3  10   16.00    2.80
  10   3 -10   11.90    2.00
 -10   3  10   14.90    3.00
   9  -3 -10   52.39    4.90
  -9  -3  10   56.49    4.60
  -9  -3  10   63.69    4.50
   9   3 -10   55.69    3.60
  -9   3  10   57.19    4.90
   8  -3 -10   10.90    2.60
  -8  -3  10   12.50    2.50
  -8  -3  10   13.70    2.50
  -8   3  10    9.00    2.60
   8   3 -10   11.90    1.90
  -7  -3  10  121.99    6.60
   7  -3 -10  118.39    6.70
  -7  -3  10  121.89    6.50
  -7   3  10  111.69    7.00
   7   3 -10  118.09    5.70
  -6  -3  10    4.10    1.50
   6  -3 -10    2.30    1.70
  -6  -3  10   -1.00    1.70
   6   3 -10    3.40    1.20
  -6   3  10    2.80    0.90
  -6   3  10    3.40    2.10
  -5  -3  10   23.50    3.00
  -5  -3  10   29.80    2.80
   5  -3 -10   21.20    2.70
   5   3 -10   21.90    2.00
  -5   3  10   23.50    3.30
  -5   3  10   22.40    1.80
  -4  -3  10    7.00    1.70
  -4  -3  10    5.60    1.90
   4  -3 -10    7.80    1.90
  -4   3  10    7.70    2.50
   4   3 -10    8.30    1.40
  -4   3  10    8.00    1.30
  -3  -3  10   17.40    2.60
  -3  -3  10   20.90    2.40
   3  -3 -10   16.20    2.30
  -3   3  10   20.80    3.10
  -3   3  10   20.70    1.80
   3   3 -10   15.40    1.80
   2  -3 -10   96.29    5.10
  -2  -3  10   96.89    5.30
  -2  -3  10   86.99    5.50
  -2   3  10   93.29    4.50
   2   3 -10   92.99    4.60
  -1  -3  10  121.49    6.10
  -1  -3  10  128.29    6.70
   1  -3 -10  104.69    5.60
  -1   3  10  113.39    5.30
   1   3 -10  106.09    5.30
   0  -3  10   28.10    3.20
   0  -3 -10   32.70    2.70
   0   3  10   30.70    2.50
   1  -3  10   73.49    4.90
   1  -3  10   63.79    3.80
   1   3  10   62.49    3.60
   1   3  10   60.79    3.30
   2  -3  10  121.39    6.00
   2  -3  10  122.99    6.70
   2   3  10  114.79    5.20
   2   3  10  115.89    5.80
   3  -3  10   14.70    2.20
   3  -3  10   17.10    3.00
   3   3  10   14.60    1.40
   3   3  10   15.40    2.10
   4  -3  10   21.20    3.10
   4  -3  10   22.70    2.80
   4   3  10   27.30    2.80
   4   3  10   25.60    1.80
   5  -3  10  105.09    6.10
   5  -3  10  111.89    6.80
   5   3  10  111.99    4.90
   5   3  10  113.29    6.00
   6  -3  10   48.90    4.10
   6  -3  10   50.09    4.90
   6   3  10   56.39    4.00
   7  -3  10    4.00    2.50
   7   3  10    2.00    1.70
   8  -3  10    5.10    2.70
   8   3  10    5.40    2.00
   9  -3  10    0.90    2.40
   9   3  10    2.70    2.10
  10  -3  10   -2.50    1.90
  10   3  10    0.50    2.10
  11  -3  10    1.40    1.90
  11   3  10   -1.00    2.10
  12  -3  10    2.00    2.70
  12   3  10    0.40    2.00
  13  -3  10    6.70    3.30
  13   3  10    8.00    3.00
  18  -4 -10   -0.80    4.30
  18   4 -10   -6.00    3.10
  17  -4 -10    6.30    5.00
  17   4 -10   -1.00    3.00
  16  -4 -10    7.60    4.40
  16   4 -10    0.20    3.30
  15  -4 -10    3.50    4.10
  15   4 -10   -1.50    2.90
  14  -4 -10   22.70    4.90
  14   4 -10   15.70    3.20
 -14   4  10   25.50    4.60
  13  -4 -10   16.10    4.40
 -13   4  10    9.00    3.50
  13   4 -10    8.90    2.70
  12  -4 -10   66.69    6.70
 -12   4  10   52.39    5.80
  12   4 -10   61.69    4.50
  11  -4 -10    9.20    3.40
 -11   4  10    4.30    2.70
  11   4 -10    8.40    2.30
 -10  -4  10   43.30    4.20
  10  -4 -10   41.70    5.00
 -10   4  10   37.40    4.50
  10   4 -10   42.90    3.50
   9  -4 -10   77.49    6.40
  -9  -4  10   98.39    6.00
  -9   4  10  103.19    6.70
  -8  -4  10   45.70    4.10
  -8  -4  10   42.00    4.30
   8  -4 -10   33.60    4.30
   8   4 -10   56.89    3.70
  -8   4  10   40.60    4.50
   7  -4 -10   64.59    5.30
  -7  -4  10   70.09    4.60
  -7  -4  10   66.29    4.90
   7   4 -10   70.29    4.30
  -7   4  10   68.89    5.30
   6  -4 -10   51.69    4.50
  -6  -4  10   50.79    4.70
  -6  -4  10   51.09    3.80
  -6   4  10   39.30    4.40
   6   4 -10   54.19    3.40
  -5  -4  10  156.08    7.30
  -5  -4  10  153.28    8.20
   5  -4 -10  147.49    8.10
  -5   4  10  142.59    8.40
   5   4 -10  156.08    7.20
  -5   4  10  151.38    6.40
  -4  -4  10  551.44   22.70
   4  -4 -10  528.15   22.50
  -4  -4  10  537.55   21.60
  -4   4  10  549.54   21.10
   4   4 -10  539.25   21.70
  -4   4  10  530.15   23.10
  -3  -4  10   43.40    3.10
  -3  -4  10   38.90    4.00
   3  -4 -10   43.40    3.80
  -3   4  10   51.99    2.80
   3   4 -10   45.30    3.40
  -3   4  10   50.99    5.00
  -2  -4  10   80.89    4.30
  -2  -4  10   77.79    5.20
   2  -4 -10   72.29    4.90
  -2   4  10   79.99    3.90
   2   4 -10   65.29    4.30
  -2   4  10   72.99    5.80
   1  -4 -10  178.78    8.60
  -1  -4  10  181.08    9.20
  -1  -4  10  177.68    8.20
  -1   4  10  179.48    7.70
   1   4 -10  171.38    8.20
   0  -4 -10  248.98   11.10
   0  -4  10  246.48   10.90
   0  -4  10  248.48   11.10
   0  -4  10  252.07   11.80
   0   4  10  240.88   10.40
   1  -4  10  148.39    7.40
   1  -4  10  145.89    8.00
   1   4  10  147.79    6.80
   1   4  10  137.69    6.80
   2  -4  10   10.30    2.60
   2  -4  10    3.40    1.80
   2   4  10   10.30    1.90
   2   4  10    6.10    1.50
   3  -4  10   26.70    3.20
   3  -4  10   30.40    3.70
   3   4  10   32.10    3.00
   3   4  10   27.60    2.40
   4  -4  10   41.30    4.00
   4  -4  10   36.80    4.20
   4   4  10   43.00    2.80
   4   4  10   38.30    3.60
   5  -4  10   64.59    5.10
   5  -4  10   53.89    4.60
   5   4  10   61.59    3.40
   5   4  10   60.19    4.40
   6  -4  10    2.50    2.10
   6  -4  10    4.80    2.50
   6   4  10    5.70    2.10
   6   4  10    3.90    2.00
   7  -4  10   10.80    2.90
   7   4  10    7.60    2.10
   8  -4  10    1.80    2.20
   8   4  10   -1.50    1.50
   9  -4  10    3.30    1.30
   9   4  10    9.20    2.30
  10  -4  10    3.30    2.90
  10   4  10    0.30    1.90
  11  -4  10    0.40    2.40
  11   4  10   -2.80    2.10
  12  -4  10    3.80    2.90
  12   4  10   -1.00    2.10
  13  -4  10    5.70    3.40
  13   4  10    7.00    2.80
  17  -5 -10   10.20    5.80
  17   5 -10    7.30    3.60
  16  -5 -10    9.10    5.00
  16   5 -10   -0.60    3.30
  15  -5 -10    0.30    4.60
  15   5 -10    6.30    3.30
  14  -5 -10    3.60    4.00
 -14   5  10   -2.00    2.90
  14   5 -10   -1.90    2.40
  13  -5 -10   -0.10    3.90
  13   5 -10    1.50    2.30
 -13   5  10   -1.80    2.90
  12  -5 -10    0.20    3.10
  12   5 -10    0.90    2.00
 -12   5  10    0.40    2.90
  11  -5 -10   19.40    4.40
 -11   5  10   19.70    3.80
  11   5 -10   23.70    3.10
 -10  -5  10    5.40    2.50
  10  -5 -10   10.30    3.60
  10   5 -10    5.80    2.30
 -10   5  10    9.00    2.90
  -9  -5  10   25.70    3.60
  -9   5  10   27.40    4.10
   9   5 -10   26.40    3.20
  -8  -5  10    5.50    2.60
   8  -5 -10    7.10    3.20
  -8   5  10    4.40    2.70
   8   5 -10    0.60    1.10
   7  -5 -10    9.60    3.10
  -7  -5  10    6.20    2.60
  -7   5  10   10.00    2.70
   7   5 -10   10.40    2.30
   6  -5 -10  110.89    7.60
  -6  -5  10  125.29    7.40
  -6   5  10  123.39    7.40
   6   5 -10  122.59    6.60
  -5  -5  10    4.80    2.50
   5  -5 -10    4.90    2.50
  -5   5  10    2.40    2.40
   5   5 -10    3.20    1.80
  -4  -5  10   34.90    4.00
   4  -5 -10   34.70    4.00
  -4   5  10   31.90    2.30
  -4   5  10   37.60    4.40
   4   5 -10   37.30    3.40
   3  -5 -10   12.00    2.70
  -3  -5  10   20.30    3.40
  -3   5  10   15.10    3.10
   3   5 -10   15.70    2.50
  -3   5  10   14.60    1.70
   2  -5 -10   30.10    3.60
  -2  -5  10   28.50    3.90
   2   5 -10   25.00    3.10
  -2   5  10   28.10    2.30
  -2   5  10   27.60    4.10
  -1  -5  10   48.30    4.70
   1  -5 -10   49.20    4.50
  -1   5  10   51.69    3.20
   0  -5  10    9.80    2.60
   0  -5 -10   11.30    2.60
   0  -5  10   10.50    2.50
   0   5  10   11.40    1.80
   1  -5  10    9.80    2.90
   1  -5  10    7.50    2.40
   1   5  10    9.60    2.10
   1   5  10   10.00    1.80
   2  -5  10  173.68    9.40
   2  -5  10  159.28    8.80
   2   5  10  169.48    8.20
   2   5  10  176.18    8.00
   3  -5  10   -2.50    2.10
   3  -5  10    1.30    2.10
   3   5  10   -1.40    1.50
   3   5  10    0.20    1.40
   4  -5  10   17.20    3.40
   4  -5  10   16.00    3.10
   4   5  10   16.80    2.50
   4   5  10   15.60    2.20
   5  -5  10   30.50    4.30
   5  -5  10   32.60    4.10
   5   5  10   32.70    2.90
   5   5  10   30.10    3.20
   6  -5  10   24.80    4.10
   6  -5  10   24.60    3.70
   6   5  10   20.40    3.00
   7  -5  10    1.60    2.50
   7   5  10    1.70    1.90
   8  -5  10    4.80    2.30
   8   5  10    6.00    2.30
   9  -5  10   12.60    3.70
   9   5  10    9.90    2.70
  10  -5  10    6.40    3.30
  10   5  10    3.70    2.20
  11  -5  10   -2.00    2.90
  11   5  10   -2.20    2.20
  12  -5  10    3.00    3.40
  12   5  10   -4.80    2.40
  16  -6 -10    6.80    6.50
  16   6 -10   -3.60    3.50
  15  -6 -10   11.30    6.40
  15   6 -10    0.30    3.10
  14  -6 -10   17.80    5.80
 -14   6  10   14.60    4.40
  14   6 -10    8.00    3.00
  13  -6 -10    2.60    4.40
  13   6 -10    0.90    2.50
 -13   6  10    4.00    3.10
  12  -6 -10    2.60    4.40
 -12   6  10   -0.10    2.60
  12   6 -10   -0.20    2.20
  11  -6 -10    2.30    3.80
  11   6 -10    2.70    2.50
 -11   6  10    2.60    3.10
  10  -6 -10   19.10    4.90
  10   6 -10   11.10    2.70
 -10   6  10   11.40    3.40
  -9  -6  10   18.30    3.50
   9  -6 -10   22.70    4.70
   9   6 -10   18.40    3.10
  -9   6  10   24.30    4.00
  -8  -6  10    4.10    2.60
   8   6 -10    7.70    2.60
  -8   6  10    9.60    3.10
  -7  -6  10   52.59    5.20
   7  -6 -10   63.79    6.80
  -7   6  10   53.49    5.40
  -6  -6  10    4.80    2.60
   6  -6 -10    4.30    3.20
   6   6 -10    5.00    2.10
  -6   6  10    8.40    2.60
  -5  -6  10   17.20    3.50
   5  -6 -10    9.90    3.30
   5   6 -10   13.30    2.80
  -5   6  10   13.30    3.00
   4  -6 -10   15.30    3.60
  -4  -6  10   13.40    3.00
   4   6 -10   16.20    2.90
  -4   6  10   13.40    3.20
   3  -6 -10   46.10    5.10
  -3  -6  10   41.00    4.60
  -3   6  10   45.50    5.00
   3   6 -10   52.69    4.50
  -3   6  10   42.20    2.90
   2  -6 -10   -0.30    2.20
  -2  -6  10   -3.40    1.90
  -2   6  10   -2.90    2.20
   2   6 -10   -0.20    1.80
  -2   6  10   -0.50    1.20
   1  -6 -10    5.00    2.50
  -1  -6  10    0.60    2.50
  -1   6  10    4.80    2.50
  -1   6  10    0.60    1.40
   0  -6  10    9.90    2.90
   0  -6  10   16.60    3.20
   0  -6 -10    9.80    3.00
   0   6  10   12.90    2.10
   1  -6  10   28.50    4.10
   1  -6  10   28.70    4.00
   1   6  10   31.40    3.10
   2  -6  10   19.30    3.50
   2  -6  10   19.20    3.50
   2   6  10   18.50    2.70
   2   6  10   22.00    3.00
   3  -6  10    4.10    2.50
   3  -6  10    6.10    2.60
   3   6  10    4.80    2.10
   3   6  10    2.70    2.00
   4  -6  10   35.50    4.70
   4  -6  10   42.10    4.80
   4   6  10   30.40    3.50
   4   6  10   31.10    3.30
   5  -6  10   28.20    4.40
   5  -6  10   22.60    4.10
   5   6  10   20.00    2.90
   5   6  10   21.90    2.80
   6  -6  10   28.30    4.30
   6  -6  10   30.30    4.40
   6   6  10   23.40    3.20
   7  -6  10    0.30    2.40
   7   6  10    2.30    2.00
   8  -6  10    5.10    3.00
   8   6  10    0.00    1.90
   9  -6  10    2.10    3.20
   9   6  10    4.00    2.50
  10  -6  10   11.30    3.70
  10   6  10   13.60    3.10
  11  -6  10    7.30    3.80
  11   6  10   -1.50    2.30
  15  -7 -10    9.50    7.00
  15   7 -10   -0.80    3.50
  14  -7 -10   -0.40    6.10
 -14   7  10   -6.10    3.00
  14   7 -10   -4.30    3.00
  13  -7 -10    2.00    5.50
 -13   7  10    0.70    3.30
  13   7 -10    2.20    3.00
  12  -7 -10    8.50    5.90
  12   7 -10    5.70    3.20
 -12   7  10    1.00    3.20
  11  -7 -10    1.30    4.60
 -11   7  10    1.60    3.00
  11   7 -10    0.10    2.50
  10  -7 -10    3.80    5.20
  10   7 -10    0.10    2.80
 -10   7  10    1.10    3.00
   9  -7 -10    6.20    4.60
  -9  -7  10   11.40    3.30
  -9   7  10    7.90    3.20
   9   7 -10   14.20    3.40
   8  -7 -10   29.70    5.80
  -8  -7  10   24.70    3.90
  -8   7  10   22.30    4.00
   8   7 -10   20.40    3.90
  -7  -7  10   58.59    5.70
   7  -7 -10   41.20    5.90
  -7   7  10   77.19    6.10
   7   7 -10   60.99    5.00
   6  -7 -10   23.50    5.20
  -6  -7  10   11.20    3.20
   6   7 -10    5.60    2.10
  -6   7  10    9.20    2.90
   5  -7 -10    4.50    3.80
  -5  -7  10    9.80    3.10
  -5   7  10   10.90    3.20
   5   7 -10   12.90    3.20
  -4  -7  10   44.50    5.10
   4  -7 -10   52.49    6.40
   4   7 -10   63.59    5.40
  -4   7  10   43.50    5.10
  -3  -7  10   20.00    4.10
   3  -7 -10   23.20    4.50
  -3   7  10   22.90    3.80
   3   7 -10   24.70    3.80
   2  -7 -10   19.90    4.30
  -2  -7  10   18.40    3.60
   2   7 -10   19.60    3.40
  -2   7  10   16.20    2.20
  -2   7  10   27.00    4.10
   1  -7 -10    0.50    2.70
  -1  -7  10   -2.00    2.30
  -1   7  10    2.40    1.60
  -1   7  10    2.40    2.60
   0  -7  10   17.40    3.90
   0  -7  10   17.80    3.90
   0  -7 -10   15.60    3.70
   0   7  10   12.20    2.30
   1  -7  10   -0.10    2.40
   1  -7  10   -2.20    2.40
   1   7  10   -0.90    1.60
   2  -7  10   15.60    3.50
   2  -7  10   17.80    3.80
   2   7  10   13.60    2.60
   2   7  10    9.00    2.70
   3  -7  10    7.80    3.40
   3  -7  10    8.60    3.10
   3   7  10   10.00    2.70
   3   7  10    8.90    2.40
   4  -7  10   36.50    5.00
   4  -7  10   35.70    5.00
   4   7  10   31.10    3.60
   4   7  10   33.60    3.90
   5  -7  10   14.40    4.00
   5  -7  10    5.50    3.00
   5   7  10   12.70    2.70
   5   7  10   13.80    2.90
   6  -7  10   -0.30    3.00
   6  -7  10    3.80    2.70
   6   7  10    1.20    2.00
   7  -7  10   22.30    4.20
   7   7  10   19.10    3.20
   8  -7  10    3.50    3.20
   8   7  10    2.80    2.60
   9  -7  10    6.40    3.50
   9   7  10   17.60    3.20
  10   7  10    0.80    2.80
  13  -8 -10   -1.00    6.40
  13   8 -10   -4.10    3.20
  12  -8 -10    7.00    7.30
  12   8 -10    3.70    3.00
  11  -8 -10   -0.20    6.40
 -11   8  10   -4.00    2.70
  11   8 -10    1.40    2.80
  10  -8 -10   25.00    7.80
 -10   8  10   10.40    3.70
  10   8 -10   12.80    3.80
   9  -8 -10    6.60    5.80
  -9   8  10    1.60    2.80
   9   8 -10    3.10    2.80
  -8  -8  10   17.30    3.90
   8  -8 -10   30.50    7.50
   8   8 -10   14.10    3.50
  -8   8  10   15.30    3.70
  -7  -8  10   14.20    4.00
   7   8 -10   16.70    3.70
  -7   8  10   21.80    3.80
  -6  -8  10   14.80    3.60
   6   8 -10   14.50    3.40
  -6   8  10   11.40    3.40
   5  -8 -10   98.99   10.10
  -5  -8  10   51.59    5.80
  -5   8  10   59.69    5.90
   4  -8 -10   48.80    7.30
  -4  -8  10   32.10    4.70
  -4   8  10   21.50    3.90
   4   8 -10   34.00    4.80
  -3  -8  10    2.60    2.80
   3  -8 -10    6.10    4.30
  -3   8  10    4.10    2.90
   3   8 -10    0.00    2.70
  -2  -8  10   19.80    4.30
   2  -8 -10   19.80    5.10
  -2   8  10   14.40    3.50
   2   8 -10   19.80    4.10
  -1  -8  10   25.10    4.30
   1  -8 -10   19.70    4.90
  -1   8  10   16.70    3.70
   0  -8  10   55.19    6.40
   0  -8 -10   68.09    7.40
   0  -8  10   43.20    5.40
   0   8  10   51.89    5.90
   1  -8  10   33.80    5.40
   1  -8  10   30.10    4.80
   1   8  10   36.10    4.50
   2  -8  10   17.50    4.40
   2  -8  10   13.50    3.90
   2   8  10   20.10    3.60
   3  -8  10    4.60    3.60
   3  -8  10    4.20    3.20
   3   8  10    4.20    2.70
   4  -8  10   20.20    4.60
   4  -8  10   14.20    3.90
   4   8  10   15.50    3.10
   4   8  10   15.10    3.30
   5  -8  10   20.20    4.80
   5  -8  10    8.40    3.00
   5   8  10   19.10    3.20
   6  -8  10    5.00    3.60
   6  -8  10    5.40    4.50
   6   8  10    4.60    2.50
   7  -8  10   -4.60    2.70
   7   8  10   -0.30    2.30
   8  -8  10   -1.20    3.20
   8   8  10    6.30    3.10
  11  -9 -10   -0.40    7.80
  11   9 -10   -5.20    2.90
  10  -9 -10    9.20    8.30
  10   9 -10   -3.70    2.90
   9  -9 -10    6.70    6.90
   9   9 -10   -3.40    3.40
   8  -9 -10   37.20    9.00
   8   9 -10   20.60    4.30
  -7  -9  10   10.70    3.90
   7  -9 -10   15.60    7.40
   7   9 -10   11.20    4.20
   6  -9 -10   10.10    4.60
  -6  -9  10   -4.60    2.90
   6   9 -10   -0.30    3.00
  -5  -9  10   11.80    3.60
   5   9 -10   11.40    3.80
  -4  -9  10   -0.10    3.10
   4  -9 -10   -4.00    4.90
   4   9 -10    0.40    1.70
  -3  -9  10   17.70    4.10
   3  -9 -10   25.90    7.00
   3   9 -10   20.00    4.50
  -2  -9  10   12.10    3.70
   2  -9 -10   19.90    6.10
   2   9 -10    9.00    3.80
   1  -9 -10   -5.20    4.70
  -1  -9  10   -2.90    2.80
   1   9 -10   -2.20    3.00
   0  -9  10    0.50    3.00
   0  -9 -10    3.40    5.20
   0  -9  10    1.80    3.60
   1  -9  10   15.10    4.90
   1  -9  10    8.80    3.80
   1   9  10    1.50    2.80
   2  -9  10   22.80    5.40
   2  -9  10   11.80    4.10
   2   9  10    8.20    3.20
   3  -9  10   20.40    5.30
   3  -9  10   12.90    4.20
   3   9  10   15.30    3.80
   4  -9  10   -1.10    1.40
   4  -9  10   15.60    4.90
   4   9  10    5.50    3.20
   5  -9  10   10.70    4.20
   5  -9  10   15.30    5.00
   5   9  10    8.40    3.00
   6  -9  10    2.30    3.50
   6   9  10    3.10    3.00
   8 -10 -10   15.80    9.60
   8  10 -10   11.10    4.70
   7 -10 -10   27.40    9.60
   7  10 -10    7.30    4.10
  -6 -10  10    2.80    3.30
   6 -10 -10   12.50    8.80
   6  10 -10   -3.30    3.20
   5 -10 -10   15.80    6.50
  -5 -10  10    2.50    3.40
   5  10 -10   10.10    4.50
  -4 -10  10   15.10    4.00
   4  10 -10   14.30    4.80
  -3 -10  10    3.00    3.20
   3 -10 -10    1.20    7.10
   3  10 -10    4.70    3.50
  -2 -10  10    1.40    3.40
   2 -10 -10    1.40    7.20
   2  10 -10    0.50    2.00
   1 -10 -10    4.60    7.50
  -1 -10  10    2.80    3.70
   1  10 -10    6.70    3.70
   0 -10  10    2.50    3.70
   1 -10  10    0.20    4.60
   1 -10  10   -3.30    3.30
   1  10  10    1.80    3.10
   2 -10  10   -1.30    4.50
   2 -10  10    0.80    3.40
   2  10  10   -0.40    2.90
   3 -10  10   -2.40    2.00
   3 -10  10    0.50    4.30
   3  10  10    7.10    3.50
  19   0 -11    7.20    3.20
  18   0 -11    7.20    3.00
  17   0 -11    4.40    3.00
  16   0 -11   15.20    3.30
  15   0 -11   11.10    3.10
 -14   0  11    0.70    2.70
  14   0 -11    1.40    2.50
  13   0 -11   47.80    4.40
 -13   0  11   50.59    5.70
 -12   0  11   21.70    3.80
  12   0 -11   27.10    3.50
 -11   0  11  283.47   13.00
  11   0 -11  240.28   11.50
 -10   0  11  186.98    8.00
  10   0 -11  175.58    8.50
 -10   0  11  164.28    9.40
  -9   0  11    0.60    1.20
   9   0 -11   -0.30    1.40
  -9   0  11   -1.30    2.00
  -8   0  11   23.00    3.30
   8   0 -11   25.80    2.50
  -8   0  11   26.90    2.50
   7   0 -11   10.90    1.70
  -7   0  11   10.00    1.70
  -7   0  11    8.00    2.20
  -6   0  11    6.00    1.50
   6   0 -11    4.80    1.20
  -6   0  11    4.00    1.90
  -5   0  11   11.20    2.40
   5   0 -11   14.20    1.50
  -5   0  11   12.70    1.90
  -4   0  11   80.69    5.40
  -4   0  11   89.49    4.80
   4   0 -11   87.59    4.00
   3   0 -11   26.70    1.70
  -3   0  11   27.60    3.40
  -3   0  11   22.60    2.50
   2   0 -11    0.40    0.50
  -2   0  11   -0.20    1.80
  -2   0  11   -0.40    1.20
  -1   0  11   20.40    2.50
   0   0  11   27.00    2.90
   1   0  11    2.90    1.50
   2   0  11   37.40    3.10
   3   0  11    0.40    1.30
   4   0  11   10.20    2.10
   5   0  11    1.20    1.60
   6   0  11   20.20    2.90
   7   0  11   11.10    2.40
   8   0  11    9.10    2.50
   9   0  11    1.50    2.10
  10   0  11    6.70    2.70
  11   0  11    3.20    2.50
  12   0  11   -0.60    2.00
  13   0  11    7.40    3.20
  19  -1 -11    3.30    3.20
  19   1 -11    2.30    2.90
  18  -1 -11    5.60    3.20
  18   1 -11   -0.40    2.70
  17  -1 -11    5.80    3.00
  17   1 -11    2.30    3.00
  16  -1 -11   13.00    3.20
  16   1 -11    8.30    3.30
  15  -1 -11   22.70    3.80
  15   1 -11   22.90    3.80
  14  -1 -11    1.80    2.30
  14   1 -11    2.50    2.30
 -14   1  11    0.50    3.20
  13  -1 -11   45.30    4.50
 -13  -1  11   47.20    5.40
  13   1 -11   46.10    4.30
 -13   1  11   35.90    4.80
  12  -1 -11   31.60    3.70
 -12  -1  11   27.30    4.10
 -12   1  11   27.00    4.00
  12   1 -11   31.40    3.50
  11  -1 -11  188.18    8.50
  11   1 -11  139.49    7.70
 -10  -1  11  390.56   16.20
  10  -1 -11  392.26   16.70
 -10  -1  11  389.46   17.40
  10   1 -11  382.26   16.20
 -10   1  11  391.56   17.60
  -9  -1  11   22.00    3.40
   9  -1 -11   28.10    3.00
  -9  -1  11   25.30    2.70
  -9   1  11   20.90    3.40
  -9   1  11   25.00    2.00
   9   1 -11   18.50    2.40
  -8  -1  11   92.89    5.80
   8  -1 -11   89.79    5.10
  -8  -1  11   93.89    5.20
   8   1 -11   90.69    4.80
  -8   1  11   91.59    4.50
  -8   1  11   97.19    6.10
   7  -1 -11   23.40    2.50
  -7  -1  11   23.80    2.60
  -7   1  11   26.60    2.20
   7   1 -11   31.60    2.50
  -7   1  11   20.00    3.10
   6  -1 -11   31.10    2.50
  -6  -1  11   33.50    3.10
   6   1 -11   32.80    2.40
  -6   1  11   35.10    2.50
  -6   1  11   27.00    3.40
  -5  -1  11  113.99    6.20
   5  -1 -11  116.89    5.60
  -5  -1  11  122.89    6.80
   5   1 -11  119.19    5.30
  -5   1  11  121.69    5.80
  -5   1  11  122.89    7.00
   4  -1 -11   31.40    2.30
  -4  -1  11   28.40    3.30
  -4  -1  11   36.90    3.20
  -4   1  11   31.70    2.60
  -4   1  11   33.00    3.80
   4   1 -11   30.70    2.00
  -3  -1  11  591.54   23.10
   3  -1 -11  555.84   22.10
  -3  -1  11  543.05   23.40
  -3   1  11  577.14   22.60
   3   1 -11  557.64   21.70
  -3   1  11  580.34   24.00
  -2  -1  11 1469.85   56.79
  -2  -1  11 1467.65   56.29
   2  -1 -11 1406.06   54.99
   2   1 -11 1468.55   54.79
  -2   1  11 1459.15   55.89
  -1  -1  11  252.87   11.50
  -1   1  11  263.07   11.20
   0  -1  11  168.28    8.10
   0   1  11  159.18    7.60
   1  -1  11  226.88   10.50
   1   1  11  225.78   10.00
   2  -1  11  150.88    7.60
   2   1  11  144.79    7.10
   3  -1  11   86.99    5.40
   3   1  11   87.29    5.00
   4  -1  11   47.60    3.90
   4   1  11   47.40    3.70
   5  -1  11   63.79    4.60
   5   1  11   50.19    3.90
   6  -1  11  143.89    7.90
   6   1  11  144.79    7.60
   7  -1  11   58.79    4.70
   7   1  11   52.79    4.20
   8  -1  11   93.99    6.40
   8   1  11  103.59    6.30
   9  -1  11    2.30    2.40
   9   1  11    1.70    1.90
  10  -1  11   25.60    3.80
  10   1  11   20.90    3.30
  11  -1  11    6.80    3.10
  11   1  11    4.60    2.50
  12  -1  11    3.40    2.90
  12   1  11    3.00    2.30
  13  -1  11   13.20    3.60
  13   1  11   12.70    3.20
  18  -2 -11    6.20    3.70
  18   2 -11    7.00    3.70
  17  -2 -11    5.90    3.20
  17   2 -11    5.20    3.30
  16  -2 -11    3.00    2.90
  16   2 -11   -1.90    2.50
  15  -2 -11   11.60    3.30
 -15   2  11   15.20    4.40
  15   2 -11    9.80    3.00
  14  -2 -11   12.30    3.50
  14   2 -11    8.40    2.70
 -14   2  11    6.10    3.30
  13  -2 -11    4.30    2.90
 -13   2  11    6.00    3.20
  13   2 -11   10.80    2.80
 -12  -2  11    4.20    2.80
  12  -2 -11    2.00    2.10
  12   2 -11    4.60    2.40
 -12   2  11    1.90    2.80
  11  -2 -11   21.20    3.20
 -11   2  11   36.20    4.40
 -10  -2  11  203.28   11.00
  10  -2 -11  218.98   10.80
 -10  -2  11  233.18   10.20
  10   2 -11  206.28    9.70
 -10   2  11  233.68   11.50
  -9  -2  11  134.09    6.90
  -9  -2  11  136.79    7.70
   9  -2 -11  131.59    7.30
   9   2 -11  127.59    6.50
  -9   2  11  126.49    7.80
  -8  -2  11   87.59    5.60
  -8  -2  11   91.89    5.30
   8  -2 -11   82.09    5.30
   8   2 -11   88.89    4.50
  -8   2  11   83.79    6.00
  -7  -2  11    5.30    1.80
   7  -2 -11    6.60    1.80
  -7  -2  11    8.40    2.00
   7   2 -11    3.50    1.30
  -7   2  11    4.90    2.20
  -7   2  11    6.10    1.10
  -6  -2  11   12.90    2.40
   6  -2 -11   13.40    2.10
  -6  -2  11   12.80    2.40
  -6   2  11   17.10    2.90
   6   2 -11   16.10    1.60
  -6   2  11   13.70    1.60
  -5  -2  11    7.10    1.90
   5  -2 -11    5.80    1.50
  -5  -2  11    5.30    1.80
  -5   2  11    5.10    1.30
  -5   2  11    6.30    2.20
   5   2 -11    7.40    1.10
  -4  -2  11    7.70    2.10
  -4  -2  11    5.70    1.70
   4  -2 -11    5.70    1.40
  -4   2  11    8.10    1.40
  -4   2  11    3.60    2.00
   4   2 -11    6.50    1.00
  -3  -2  11   17.40    2.60
  -3  -2  11   13.10    2.30
   3  -2 -11   14.90    1.90
  -3   2  11   18.30    2.00
   3   2 -11   13.70    1.30
  -3   2  11   15.10    2.90
  -2  -2  11    2.50    1.60
   2  -2 -11    3.50    1.10
  -2  -2  11    5.10    1.80
  -2   2  11    3.10    1.30
   2   2 -11    3.30    0.70
   1  -2 -11   40.60    2.50
  -1  -2  11   46.40    3.80
   1   2 -11   41.00    2.10
  -1   2  11   39.20    2.90
   0  -2  11    1.80    1.90
   0   2  11    2.90    1.40
   0   2 -11    2.20    0.70
   0   2  11    1.90    0.60
   1  -2  11   12.10    2.50
  -1   2 -11   13.40    1.20
   1   2  11   10.40    0.80
   1   2  11   12.00    1.80
   2  -2  11   47.60    4.00
   2  -2  11   42.50    2.50
   2   2  11   37.50    1.90
   2   2  11   34.70    3.00
   3  -2  11   30.70    3.10
   3  -2  11   35.30    3.80
   3   2  11   31.70    3.10
   4  -2  11   19.50    3.00
   4   2  11   13.40    2.10
   5  -2  11   12.80    2.80
   5   2  11    7.10    2.00
   6  -2  11   16.00    3.00
   6   2  11   10.60    2.30
   7  -2  11   16.70    3.10
   7   2  11   18.50    2.90
   8  -2  11   13.90    3.10
   8   2  11    5.60    2.10
   9  -2  11    4.50    2.30
   9   2  11    0.80    1.90
  10  -2  11    1.70    2.40
  10   2  11    2.50    2.10
  11  -2  11   -1.90    2.10
  11   2  11   -0.10    2.20
  12  -2  11    5.30    3.10
  12   2  11    2.90    2.70
  13  -2  11    5.10    2.80
  13   2  11    0.90    2.60
  18  -3 -11    3.80    4.30
  18   3 -11   -0.90    3.40
  17  -3 -11    6.30    4.10
  17   3 -11   -3.50    3.20
  16  -3 -11    0.30    3.00
  16   3 -11    0.10    2.70
  15  -3 -11    8.90    3.70
 -15   3  11    1.00    3.70
  15   3 -11    6.20    3.10
  14  -3 -11   22.20    4.30
  14   3 -11   19.10    3.30
 -14   3  11   23.80    4.50
  13  -3 -11   46.20    5.50
  13   3 -11   39.90    4.20
 -13   3  11   43.20    5.60
  12  -3 -11   57.29    6.00
  12   3 -11   54.59    4.60
 -12   3  11   51.59    5.80
  11  -3 -11   31.00    2.70
 -11  -3  11   44.60    4.70
 -11   3  11   40.20    4.80
  11   3 -11   23.60    2.80
 -10  -3  11   84.09    6.00
 -10  -3  11   75.69    5.40
  10  -3 -11   73.69    6.20
  10   3 -11   89.99    5.10
 -10   3  11   89.29    6.70
  -9  -3  11   16.10    2.60
   9  -3 -11   17.40    3.30
  -9  -3  11   12.80    2.90
   9   3 -11   18.70    2.20
  -9   3  11   16.70    3.30
  -8  -3  11   61.29    4.60
  -8  -3  11   57.59    4.60
   8  -3 -11   59.39    4.90
   8   3 -11   59.69    3.70
  -8   3  11   59.49    5.40
  -7  -3  11  220.88   11.00
  -7  -3  11  229.48   10.90
   7  -3 -11  218.18   11.00
  -7   3  11  244.08   11.80
   7   3 -11  248.88   10.00
  -6  -3  11   21.80    3.10
   6  -3 -11   17.30    2.60
  -6  -3  11   18.10    2.60
   6   3 -11   18.20    1.90
  -6   3  11   18.90    3.20
  -6   3  11   22.40    1.80
  -5  -3  11   60.19    4.60
   5  -3 -11   56.89    4.10
  -5  -3  11   49.80    4.10
  -5   3  11   59.19    3.20
  -5   3  11   50.19    5.00
   5   3 -11   62.59    3.40
  -4  -3  11  438.26   17.90
   4  -3 -11  428.26   17.90
  -4  -3  11  444.86   18.40
   4   3 -11  429.96   17.00
  -4   3  11  402.06   18.80
  -4   3  11  419.36   17.00
  -3  -3  11  347.97   15.10
   3  -3 -11  336.77   14.30
  -3  -3  11  330.87   14.50
   3   3 -11  343.47   13.70
  -3   3  11  340.77   13.80
  -3   3  11  328.97   15.50
  -2  -3  11  114.39    6.50
  -2  -3  11  116.49    6.20
   2  -3 -11  109.19    5.80
   2   3 -11  117.39    5.30
  -2   3  11  115.49    5.50
  -1  -3  11   73.09    5.00
  -1  -3  11   66.99    4.70
   1  -3 -11   69.39    4.10
   1   3 -11   73.39    3.80
  -1   3  11   72.89    4.00
   0  -3  11    2.30    1.90
   0   3 -11    3.90    1.20
   0   3  11    5.10    1.40
   0   3  11    4.80    1.10
   1  -3  11  142.89    6.50
   1  -3  11  145.59    7.60
   1   3  11  128.39    5.90
   1   3  11  136.69    6.60
   2  -3  11  328.77   13.70
   2  -3  11  322.17   14.70
   2   3  11  325.17   12.90
   2   3  11  330.87   13.80
   3  -3  11   17.60    3.00
   3  -3  11   15.80    2.20
   3   3  11   10.30    1.90
   3   3  11   19.10    2.50
   4  -3  11  135.19    7.90
   4   3  11  140.89    7.00
   5  -3  11    0.20    2.00
   5   3  11    3.30    1.70
   6  -3  11   31.00    4.00
   6   3  11   33.70    3.40
   7  -3  11   61.59    5.20
   7   3  11   47.00    4.00
   8  -3  11   34.10    4.50
   8   3  11   22.90    3.20
   9  -3  11    3.40    2.50
   9   3  11    5.50    2.10
  10  -3  11   -1.10    2.60
  10   3  11   -0.10    2.10
  11  -3  11   11.60    3.70
  11   3  11   15.50    3.20
  12  -3  11    2.60    1.80
  12   3  11    9.60    3.10
  13  -3  11   -0.80    2.90
  13   3  11    3.00    2.50
  17  -4 -11    8.40    4.60
  17   4 -11   -2.80    3.10
  16  -4 -11    6.70    4.00
  16   4 -11   -0.60    3.30
  15  -4 -11    3.10    4.10
 -15   4  11   -0.40    3.60
  15   4 -11    0.90    3.10
  14  -4 -11   13.50    4.60
  14   4 -11   10.40    3.30
 -14   4  11    8.10    3.70
  13  -4 -11    3.10    3.30
  13   4 -11    9.10    2.90
 -13   4  11    8.90    3.70
  12  -4 -11    3.40    3.10
 -12   4  11    5.70    3.20
  12   4 -11    4.40    2.20
  11   4 -11   -0.40    2.00
 -11   4  11   -2.40    2.30
  10  -4 -11   19.30    3.80
 -10  -4  11   11.80    2.90
 -10   4  11   13.20    3.30
   9  -4 -11   77.19    6.00
  -9  -4  11   71.99    5.40
  -9  -4  11   78.19    5.50
  -9   4  11   77.69    6.10
   9   4 -11   86.49    4.70
  -8  -4  11   13.60    2.60
  -8  -4  11    8.50    2.80
   8  -4 -11   12.70    3.00
   8   4 -11   15.50    2.20
  -8   4  11   13.80    3.20
  -7  -4  11   14.80    3.10
   7  -4 -11   18.60    3.20
  -7  -4  11   17.70    2.70
   7   4 -11   19.60    2.30
  -7   4  11   21.00    3.60
  -6  -4  11   92.09    5.30
  -6  -4  11   85.19    6.00
   6  -4 -11   89.69    6.00
  -6   4  11   93.39    6.60
   6   4 -11   83.29    4.80
  -5  -4  11  136.59    7.80
  -5  -4  11  137.19    6.70
   5  -4 -11  117.19    7.20
  -5   4  11  136.39    8.00
  -5   4  11  132.29    5.80
   5   4 -11  127.59    6.40
   4  -4 -11   22.40    3.10
  -4  -4  11   18.80    3.10
  -4  -4  11   23.30    2.60
  -4   4  11   24.80    2.10
  -4   4  11   23.30    3.80
   4   4 -11   22.00    2.40
  -3  -4  11    4.00    2.20
   3  -4 -11    6.20    2.00
  -3  -4  11    5.20    1.60
  -3   4  11    5.00    1.30
   3   4 -11    5.80    1.50
  -3   4  11    7.50    2.60
   2  -4 -11   17.60    2.60
  -2  -4  11   16.20    3.10
  -2  -4  11   18.00    2.30
  -2   4  11   16.90    3.30
   2   4 -11   17.10    2.20
  -2   4  11   15.30    1.80
  -1  -4  11   28.00    2.80
   1  -4 -11   30.10    3.10
  -1  -4  11   25.50    3.40
  -1   4  11   28.20    2.40
   1   4 -11   22.50    2.60
   0  -4 -11   12.40    2.20
   0  -4  11   12.70    2.30
   0  -4  11   12.70    2.90
   0   4  11   10.00    1.60
   1  -4  11   18.10    3.10
   1  -4  11   25.40    2.90
   1   4  11   21.40    2.40
   1   4  11   19.40    2.20
   2  -4  11   11.10    2.40
   2  -4  11   10.70    2.70
   2   4  11   12.70    2.10
   2   4  11    9.00    1.60
   3  -4  11   24.80    3.60
   3  -4  11   25.60    3.10
   3   4  11   28.30    2.90
   3   4  11   24.30    2.30
   4  -4  11   63.69    5.30
   4  -4  11   76.79    5.60
   4   4  11   71.09    4.60
   5  -4  11   19.00    3.40
   5   4  11   13.80    2.30
   6  -4  11   12.90    3.20
   6   4  11   11.70    2.20
   7  -4  11    2.40    2.70
   7   4  11   -0.20    1.60
   8  -4  11    2.20    2.50
   8   4  11    3.90    2.20
   9  -4  11    4.20    3.20
   9   4  11    4.00    2.40
  10  -4  11    0.70    1.30
  10   4  11    0.90    2.30
  11  -4  11    2.70    3.10
  11   4  11    1.20    2.40
  12  -4  11    0.10    3.00
  12   4  11    2.70    2.30
  17  -5 -11    9.90    6.20
  17   5 -11   -1.30    3.40
  16  -5 -11    5.80    4.90
  16   5 -11   -1.20    3.30
  15  -5 -11   13.50    5.40
  15   5 -11    9.60    3.60
 -15   5  11   15.00    4.60
  14  -5 -11   -2.40    3.80
 -14   5  11    3.60    3.50
  14   5 -11   -2.60    2.20
  13  -5 -11    1.90    3.60
  13   5 -11    1.50    2.60
 -13   5  11    0.60    3.20
  12  -5 -11   43.80    6.60
 -12   5  11   35.40    5.20
  12   5 -11   51.89    4.30
  11  -5 -11    5.60    3.70
 -11   5  11    2.80    2.80
  11   5 -11    4.00    2.10
 -10  -5  11    1.40    2.60
 -10   5  11    0.30    2.60
  10   5 -11    0.20    1.70
   9  -5 -11    0.70    2.70
  -9  -5  11    6.70    2.80
   9   5 -11    3.70    1.80
  -9   5  11    3.60    2.60
   8  -5 -11    8.20    3.00
  -8  -5  11   10.20    3.10
  -8   5  11    2.90    2.60
   8   5 -11    9.00    2.20
  -7  -5  11   24.90    3.80
   7  -5 -11   22.80    4.00
  -7   5  11   12.20    3.00
   7   5 -11   16.40    2.60
   6  -5 -11   52.19    5.40
  -6  -5  11   71.59    5.40
  -6   5  11   66.19    5.50
   6   5 -11   64.09    4.40
   5  -5 -11   -0.70    2.00
  -5  -5  11    0.70    2.20
  -5   5  11    0.70    2.40
   5   5 -11    1.60    1.60
   4  -5 -11   -0.80    2.00
  -4  -5  11    4.70    2.50
  -4   5  11    2.20    2.60
  -4   5  11    3.60    1.20
   4   5 -11    1.10    1.60
   3  -5 -11   49.70    4.80
  -3  -5  11   43.50    4.80
  -3   5  11   53.69    5.40
   3   5 -11   50.69    3.90
  -3   5  11   49.30    3.00
   2  -5 -11   26.10    3.50
  -2  -5  11   28.40    3.90
  -2   5  11   27.40    2.40
  -2   5  11   28.40    4.10
   2   5 -11   28.10    3.20
   1  -5 -11   46.80    4.40
  -1  -5  11   45.50    4.70
   1   5 -11   51.19    4.10
  -1   5  11   56.19    3.50
   0  -5 -11    4.40    2.20
   0  -5  11    4.10    2.70
   0  -5  11    2.60    2.00
   0   5  11    4.40    1.60
   1  -5  11   70.39    4.90
   1  -5  11   63.49    5.30
   1   5  11   69.79    4.50
   1   5  11   63.99    4.20
   2  -5  11   38.80    4.50
   2  -5  11   42.70    4.20
   2   5  11   45.50    3.50
   2   5  11   42.20    3.50
   3  -5  11   27.50    3.70
   3  -5  11   25.20    3.90
   3   5  11   30.40    3.20
   3   5  11   32.00    2.90
   4  -5  11   32.70    4.40
   4  -5  11   37.30    4.20
   4   5  11   33.50    3.30
   5  -5  11    3.70    2.60
   5   5  11    7.20    2.30
   6  -5  11   16.90    3.40
   6   5  11   12.50    2.40
   7  -5  11    9.30    3.40
   7   5  11   12.40    2.70
   8  -5  11   18.20    4.10
   8   5  11   18.40    3.00
   9  -5  11    0.90    1.60
   9   5  11   -0.20    1.90
  10  -5  11    3.20    3.20
  10   5  11    3.90    2.60
  11  -5  11   -0.60    3.10
  11   5  11    4.30    2.40
  16  -6 -11   11.00    6.80
  16   6 -11   -0.80    3.80
  15  -6 -11   -6.30    5.40
 -15   6  11    2.70    4.00
  15   6 -11   -4.50    2.60
  14  -6 -11   -3.10    4.20
 -14   6  11   -1.10    3.60
  14   6 -11   -2.70    2.90
  13  -6 -11    9.90    5.50
 -13   6  11    1.80    3.00
  13   6 -11    1.90    2.90
  12  -6 -11    5.10    4.60
  12   6 -11    0.30    2.50
 -12   6  11   -0.50    2.70
  11  -6 -11   15.70    5.40
  11   6 -11   16.40    3.20
 -11   6  11   13.30    3.80
 -10  -6  11   14.80    3.70
  10   6 -11   14.40    2.80
 -10   6  11   16.10    3.60
  -9  -6  11   -1.10    2.60
   9  -6 -11    1.40    3.20
  -9   6  11   -1.80    2.20
   9   6 -11   -1.10    1.20
   8  -6 -11    5.40    3.30
  -8  -6  11    2.90    2.90
   8   6 -11    1.70    2.20
  -8   6  11    1.90    2.70
  -7  -6  11   50.19    5.40
   7  -6 -11   50.99    6.10
  -7   6  11   53.19    5.70
   7   6 -11   56.99    4.70
   6  -6 -11   43.70    5.50
  -6  -6  11   43.40    4.90
  -6   6  11   38.60    4.60
   6   6 -11   35.80    3.70
   5  -6 -11   13.10    3.50
  -5  -6  11   13.10    3.20
   5   6 -11   13.30    2.70
  -5   6  11   11.20    3.20
   4  -6 -11    4.40    2.60
  -4  -6  11    3.20    2.60
  -4   6  11    2.90    2.60
   4   6 -11    2.00    2.00
   3  -6 -11    3.70    2.70
  -3  -6  11    1.70    2.70
   3   6 -11    4.90    2.20
  -3   6  11    6.90    3.00
  -3   6  11    4.20    1.40
  -2  -6  11   12.10    3.10
   2  -6 -11    9.90    2.80
   2   6 -11   11.60    2.50
  -2   6  11   10.00    3.40
  -2   6  11   12.00    1.80
   1  -6 -11   31.30    4.10
  -1  -6  11   26.60    4.00
  -1   6  11   26.90    4.30
  -1   6  11   27.10    2.60
   1   6 -11   25.20    3.40
   0  -6  11   34.40    4.50
   0  -6 -11   36.50    4.30
   0  -6  11   35.00    4.20
   0   6  11   35.90    3.10
   1  -6  11   54.49    5.20
   1  -6  11   57.29    5.60
   1   6  11   45.30    4.20
   1   6  11   48.10    3.70
   2  -6  11    5.70    3.00
   2  -6  11    4.00    2.50
   2   6  11    3.10    2.10
   2   6  11    2.60    1.80
   3  -6  11   23.50    3.80
   3  -6  11   19.10    3.70
   3   6  11   18.10    2.60
   3   6  11   19.10    2.80
   4  -6  11   22.20    3.90
   4  -6  11   14.40    3.50
   4   6  11   17.10    2.80
   5  -6  11   42.00    5.30
   5   6  11   33.90    3.60
   6  -6  11    7.10    3.30
   6   6  11    6.60    2.50
   7  -6  11   20.50    4.10
   7   6  11   21.10    3.20
   8  -6  11    1.40    2.60
   8   6  11   -0.80    2.10
   9  -6  11    2.60    3.00
   9   6  11    2.20    2.60
  10  -6  11    2.00    3.30
  10   6  11    1.90    2.70
  15   7 -11    0.00    3.50
  14  -7 -11    6.30    6.80
  14   7 -11   -2.20    2.90
 -14   7  11    1.70    3.60
  13  -7 -11    3.30    5.70
  13   7 -11    0.70    2.70
 -13   7  11    4.30    3.50
  12  -7 -11    4.80    5.40
 -12   7  11    0.20    3.30
  12   7 -11   -2.50    2.40
  11  -7 -11   17.40    6.30
 -11   7  11    5.30    3.50
  11   7 -11   10.00    3.20
  10  -7 -11   11.20    5.10
  10   7 -11    1.30    2.90
 -10   7  11    1.40    2.80
  -9  -7  11    2.40    2.80
   9   7 -11   10.00    3.10
  -9   7  11    6.40    2.90
  -8  -7  11   25.30    4.50
   8  -7 -11   32.10    6.20
  -8   7  11   21.00    4.10
  -7  -7  11   37.20    5.10
   7  -7 -11   35.80    6.20
   7   7 -11   28.30    4.00
  -7   7  11   27.80    4.40
   6  -7 -11   14.20    4.10
  -6  -7  11    8.40    3.40
  -6   7  11    5.90    3.00
   6   7 -11   11.80    3.10
   5  -7 -11   19.90    4.70
  -5  -7  11   21.80    3.90
   5   7 -11   25.60    3.80
  -5   7  11   16.90    3.60
  -4  -7  11   12.80    3.30
   4  -7 -11    6.90    3.60
  -4   7  11    5.50    2.90
   4   7 -11    8.80    2.80
  -3  -7  11   26.40    4.10
   3  -7 -11   28.80    4.90
  -3   7  11   21.10    4.00
   3   7 -11   23.80    3.90
   2  -7 -11   46.90    5.70
  -2  -7  11   38.70    5.20
   2   7 -11   40.50    4.70
  -2   7  11   41.30    5.20
  -2   7  11   40.80    3.30
   1  -7 -11    5.00    3.00
  -1  -7  11    2.10    2.60
   1   7 -11    6.90    2.80
  -1   7  11    5.80    1.70
  -1   7  11    2.80    2.60
   0  -7  11   18.40    3.80
   0  -7 -11   15.10    3.70
   0  -7  11   12.60    3.70
   0   7  11   11.20    2.20
   1  -7  11   41.90    5.20
   1  -7  11   38.30    5.10
   1   7  11   33.10    4.00
   1   7  11   35.60    3.60
   2  -7  11   29.30    4.60
   2  -7  11   38.90    5.20
   2   7  11   32.30    4.00
   2   7  11   33.70    3.60
   3  -7  11   51.99    5.90
   3  -7  11   68.19    6.70
   3   7  11   52.59    4.50
   3   7  11   49.80    7.00
   4  -7  11   27.40    4.50
   4  -7  11   31.20    5.00
   4   7  11   18.10    3.10
   5  -7  11    5.20    3.00
   5   7  11    3.10    2.30
   6  -7  11   11.60    3.70
   6   7  11    8.30    2.50
   7  -7  11   -2.50    2.60
   7   7  11    8.10    2.70
   8  -7  11   12.40    4.10
   8   7  11    6.20    2.60
   9  -7  11    1.10    3.10
   9   7  11    2.30    2.80
  13  -8 -11   -9.50    6.00
  13   8 -11   -2.00    3.20
  12  -8 -11    3.70    6.40
 -12   8  11    4.30    3.40
  12   8 -11   -2.10    3.10
  11  -8 -11   20.60    7.70
 -11   8  11    1.20    3.10
  11   8 -11    5.40    3.40
  10  -8 -11    8.10    6.10
 -10   8  11    3.10    3.20
  10   8 -11   -1.70    3.10
   9  -8 -11   12.10    5.90
  -9  -8  11   -1.00    3.40
   9   8 -11    4.60    3.30
  -9   8  11    0.50    2.80
  -8  -8  11   41.00    5.20
  -8   8  11   31.40    4.80
   8   8 -11   43.30    5.20
  -7  -8  11    9.60    3.90
   7  -8 -11   15.50    6.40
  -7   8  11   12.80    3.60
  -6  -8  11    6.10    3.20
   6  -8 -11    9.60    5.70
   6   8 -11   12.40    3.70
  -6   8  11    4.00    3.00
  -5  -8  11   14.30    3.80
   5  -8 -11   19.60    5.30
  -5   8  11   19.50    3.90
   5   8 -11   23.00    4.30
  -4  -8  11    1.40    2.70
   4  -8 -11    4.70    4.50
   4   8 -11    1.10    2.80
  -4   8  11    0.10    2.60
  -3  -8  11   21.40    4.50
   3  -8 -11   15.90    5.10
   3   8 -11   22.70    4.10
  -3   8  11   16.90    3.90
   2  -8 -11   -1.60    3.60
  -2  -8  11    8.10    3.30
   2   8 -11    4.70    3.00
  -2   8  11   -1.70    2.60
  -1  -8  11    8.80    3.40
   1  -8 -11    9.30    4.10
  -1   8  11    8.80    3.10
   1   8 -11    1.50    2.80
   0  -8  11   12.10    3.70
   0  -8 -11   14.70    4.30
   0   8  11    8.80    2.40
   0   8  11   10.90    3.60
   1  -8  11    8.10    3.80
   1  -8  11    8.20    3.30
   1   8  11    9.40    2.60
   1   8  11   12.10    3.10
   2  -8  11    3.20    3.20
   2  -8  11    1.20    2.70
   2   8  11    2.90    2.20
   2   8  11    5.90    2.70
   3  -8  11    9.60    4.00
   3  -8  11    2.70    3.10
   3   8  11    3.50    2.30
   4  -8  11   10.90    4.00
   4  -8  11    3.20    5.40
   4   8  11    3.10    2.20
   5  -8  11   21.50    4.50
   5   8  11   18.30    3.50
   6  -8  11   12.80    3.80
   6   8  11   12.20    3.20
   7  -8  11    6.10    3.90
   7   8  11   10.80    3.10
   8  -8  11    4.10    3.70
   8   8  11    1.60    2.90
  11  -9 -11    7.60    7.80
  11   9 -11   10.40    4.10
  10  -9 -11   17.90    8.70
  10   9 -11    4.30    3.70
   9  -9 -11   -0.70    6.20
   9   9 -11   -0.30    3.60
  -8  -9  11   18.00    4.60
   8  -9 -11   11.40    6.90
   8   9 -11   16.90    4.30
  -7  -9  11   27.10    5.00
   7   9 -11   17.30    4.40
   6  -9 -11   19.50    7.60
  -6  -9  11   13.40    3.90
   6   9 -11    5.80    2.50
   5  -9 -11    9.90    6.50
  -5  -9  11   10.50    4.20
   5   9 -11    1.50    3.40
  -4  -9  11    2.90    3.00
   4  -9 -11   -1.40    5.70
   4   9 -11    0.90    3.10
   3  -9 -11   21.50    6.80
  -3  -9  11    8.00    3.70
   3   9 -11   26.70    5.00
   2  -9 -11   25.00    6.40
  -2  -9  11   15.50    4.10
   2   9 -11   23.60    4.60
  -1  -9  11    8.50    3.50
   1  -9 -11    5.10    5.40
   1   9 -11    7.20    3.70
   0  -9  11    3.20    3.50
   1  -9  11   11.10    4.60
   1  -9  11    9.50    4.10
   1   9  11    6.60    3.30
   1   9  11   12.40    2.90
   2  -9  11    8.60    4.00
   2  -9  11   11.40    4.50
   2   9  11    3.60    2.50
   3  -9  11    7.00    3.70
   3  -9  11   11.20    4.50
   3   9  11    7.10    2.60
   4  -9  11    5.60    3.40
   4   9  11    0.60    2.60
   5  -9  11    0.70    2.30
   5   9  11    2.10    2.80
  -7 -10  11    3.90    3.80
   7 -10 -11   14.20    7.40
   7  10 -11    2.50    3.50
  -6 -10  11    4.40    3.80
   6  10 -11   10.10    4.10
   5 -10 -11   17.30    8.60
  -5 -10  11    9.60    4.40
   5  10 -11    8.70    3.60
  -4 -10  11    7.60    4.10
   4 -10 -11   26.00    9.10
   4  10 -11    2.40    3.00
  -3 -10  11   -0.70    3.00
   3 -10 -11  -12.60    6.40
   3  10 -11    4.60    4.00
  -2 -10  11    1.30    3.70
   2 -10 -11    1.20    7.00
   2  10 -11    4.50    4.00
  -1 -10  11    4.50    4.00
   1 -10 -11   -4.00    6.50
   1  10 -11    2.40    3.40
   0 -10  11   -0.40    3.70
   0  10 -11    9.20    4.10
   0  10  11    9.50    3.50
   1 -10  11   11.60    4.50
   1  10  11   12.10    6.10
   2 -10  11    1.40    4.70
   2 -10  11   -0.20    3.20
  18   0 -12    7.20    3.10
  17   0 -12    8.20    3.30
  16   0 -12    1.60    2.30
  15   0 -12    3.70    2.40
 -14   0  12    8.20    3.40
  14   0 -12    7.80    2.70
  13   0 -12   96.69    6.30
 -13   0  12  137.89    8.30
 -12   0  12   50.89    5.40
  12   0 -12   52.39    4.60
  11   0 -12   20.90    3.00
 -11   0  12   21.70    3.70
  10   0 -12   42.30    3.80
 -10   0  12   36.10    3.00
 -10   0  12   37.90    4.40
  -9   0  12   68.09    5.60
   9   0 -12   68.99    4.30
  -9   0  12   56.19    3.90
  -8   0  12   20.10    2.40
  -8   0  12   17.60    3.10
   8   0 -12   21.10    2.40
  -7   0  12  195.78    9.00
  -7   0  12  198.08   10.10
   7   0 -12  204.68    8.70
  -6   0  12   43.80    3.40
  -6   0  12   51.29    4.30
   6   0 -12   49.40    3.00
  -5   0  12  324.87   14.80
   5   0 -12  333.57   13.10
  -5   0  12  314.27   13.80
  -4   0  12   -0.90    1.20
  -4   0  12    3.70    2.20
   4   0 -12    2.70    0.80
  -3   0  12    8.60    1.90
  -3   0  12   12.80    2.70
   3   0 -12    8.70    1.00
  -2   0  12  149.59    7.40
  -2   0  12  151.08    8.30
  -1   0  12  324.77   14.00
   0   0  12  738.53   29.60
   1   0  12  352.46   15.20
   2   0  12   51.09    4.00
   3   0  12   75.09    4.90
   4   0  12   76.69    5.00
   5   0  12  287.47   13.10
   6   0  12   -0.80    1.70
   7   0  12   13.70    2.80
   8   0  12   53.09    5.20
   9   0  12   32.20    4.10
  10   0  12   28.00    4.20
  11   0  12    5.40    2.60
  12   0  12    0.20    2.80
  13   0  12   22.60    4.10
  18  -1 -12    7.60    3.70
  18   1 -12    4.60    3.00
  17  -1 -12    2.20    2.60
  17   1 -12    1.90    2.70
  16  -1 -12    8.40    3.10
  16   1 -12    9.50    3.00
  15  -1 -12    5.30    2.70
  15   1 -12    3.10    2.50
 -15   1  12   -1.10    3.00
 -14  -1  12   32.00    5.10
  14  -1 -12   22.80    3.90
 -14   1  12   25.40    4.50
  14   1 -12   27.00    3.70
 -13  -1  12   11.60    3.60
  13  -1 -12    8.70    2.40
 -13   1  12   16.70    3.80
  13   1 -12   17.60    3.10
  12  -1 -12   26.70    3.60
 -12  -1  12   23.70    3.90
  12   1 -12   25.00    3.20
 -12   1  12   25.50    4.10
 -11  -1  12   18.00    3.70
  11  -1 -12   15.80    2.90
 -11   1  12   11.90    3.40
  11   1 -12   15.20    2.50
 -10  -1  12   22.70    2.80
  10  -1 -12   28.60    3.30
 -10  -1  12   26.50    3.90
 -10   1  12   26.40    4.10
  10   1 -12   23.50    3.00
   9  -1 -12   32.30    3.30
  -9  -1  12   26.70    3.60
  -9  -1  12   34.90    3.20
  -9   1  12   28.00    3.90
   9   1 -12   32.10    3.00
   8  -1 -12   66.59    4.30
  -8  -1  12   62.29    4.10
  -8  -1  12   56.69    4.90
   8   1 -12   58.49    3.90
  -8   1  12   65.39    3.70
  -8   1  12   76.49    5.50
   7  -1 -12   18.20    2.30
  -7  -1  12   21.90    2.60
   7   1 -12   17.30    2.00
  -7   1  12   16.70    2.00
  -7   1  12   14.20    2.80
   6  -1 -12   16.40    2.00
  -6  -1  12    7.40    2.10
  -6  -1  12   20.80    2.60
   6   1 -12   16.80    1.80
  -6   1  12   21.70    3.40
  -6   1  12   13.30    1.90
   5  -1 -12    2.10    1.10
  -5  -1  12    0.50    1.80
  -5  -1  12    0.40    1.50
  -5   1  12    1.80    2.10
   5   1 -12    2.00    1.10
  -5   1  12    0.50    1.20
   4  -1 -12    3.10    1.10
  -4  -1  12    0.70    1.60
  -4  -1  12    2.80    1.80
  -4   1  12    4.10    1.50
   4   1 -12    1.10    0.90
  -4   1  12    2.40    2.00
  -3  -1  12   66.19    4.50
  -3  -1  12   71.09    5.20
   3  -1 -12   71.99    3.60
  -3   1  12   73.39    4.30
  -3   1  12   68.89    5.30
   3   1 -12   73.59    3.30
  -2  -1  12   29.10    3.10
  -2  -1  12   30.40    3.50
  -2   1  12   29.70    2.80
   2   1 -12   28.20    1.60
  -1  -1  12   29.50    3.20
  -1   1  12   35.10    3.20
   0  -1  12    7.70    2.10
   0   1  12    6.50    1.70
   1  -1  12   30.50    3.20
   1   1  12   22.60    2.80
   2  -1  12    2.30    1.70
   2   1  12   -0.10    1.50
   3  -1  12    6.80    2.10
   3   1  12    6.90    2.00
   4  -1  12   12.60    2.80
   4   1  12   13.30    2.40
   5  -1  12   20.50    3.10
   5   1  12   16.30    2.60
   6  -1  12   12.90    2.80
   6   1  12   18.80    2.80
   7  -1  12   23.70    3.60
   7   1  12   19.20    3.00
   8  -1  12    5.50    2.50
   8   1  12    0.10    2.00
   9  -1  12    9.20    2.90
   9   1  12    4.50    2.40
  10  -1  12    5.90    2.70
  10   1  12    4.30    2.50
  11  -1  12    9.90    3.40
  11   1  12    4.50    2.70
  12  -1  12    5.00    3.20
  12   1  12    3.60    2.60
  13  -1  12    2.30    3.00
  13   1  12   -2.50    2.20
  18  -2 -12   10.50    4.10
  18   2 -12    8.00    3.80
  17  -2 -12    2.60    3.40
  17   2 -12   -1.70    3.00
  16  -2 -12   -2.00    2.90
  16   2 -12   -0.50    2.60
  15  -2 -12    3.20    3.10
  15   2 -12   -3.50    2.70
 -15   2  12   -1.00    3.10
  14  -2 -12   95.39    7.50
  14   2 -12  103.99    6.50
 -14   2  12  108.59    7.90
  13  -2 -12   21.90    3.90
 -13  -2  12   24.70    4.40
  13   2 -12   25.30    3.40
 -13   2  12   10.80    3.50
 -12  -2  12    5.50    2.40
  12  -2 -12   12.80    2.90
 -12   2  12   10.10    3.20
  12   2 -12    2.90    1.70
  11  -2 -12   15.70    3.10
 -11  -2  12   15.00    2.70
 -11   2  12    7.80    3.00
  11   2 -12   15.30    2.70
 -10  -2  12  125.09    6.60
  10  -2 -12  108.19    6.90
 -10  -2  12  117.79    7.20
  10   2 -12  109.49    6.00
 -10   2  12  124.99    7.70
  -9  -2  12  227.78   11.00
  -9  -2  12  223.48   10.30
   9  -2 -12  212.08   10.40
   9   2 -12  200.28    9.40
  -9   2  12  214.98   11.30
  -8  -2  12  230.68   11.00
  -8  -2  12  222.98   10.40
   8  -2 -12  218.58   10.40
   8   2 -12  213.68    9.50
  -8   2  12  224.58   11.40
  -7  -2  12  177.48    9.10
   7  -2 -12  172.98    8.60
  -7  -2  12  167.18    8.60
   7   2 -12  185.38    7.70
  -7   2  12  173.98    7.70
  -7   2  12  178.68    9.50
   6  -2 -12   74.89    4.60
  -6  -2  12   70.69    4.80
  -6  -2  12   75.79    5.10
   6   2 -12   74.19    3.80
  -6   2  12   71.29    4.00
  -6   2  12   71.19    5.50
  -5  -2  12  169.08    8.40
   5  -2 -12  164.78    7.80
  -5  -2  12  165.08    8.50
  -5   2  12  166.28    7.50
   5   2 -12  166.08    7.00
  -5   2  12  166.18    9.10
  -4  -2  12  535.55   21.80
  -4  -2  12  520.55   21.60
   4  -2 -12  509.85   20.80
  -4   2  12  505.85   20.70
   4   2 -12  535.95   20.10
  -4   2  12  501.45   22.40
  -3  -2  12   15.40    2.60
   3  -2 -12   17.30    2.00
  -3  -2  12   16.60    2.60
  -3   2  12   18.40    3.20
   3   2 -12   21.70    1.50
  -3   2  12   20.60    2.20
  -2  -2  12  218.28   10.30
  -2  -2  12  208.08   10.10
   2  -2 -12  201.78    8.80
   2   2 -12  208.48    8.30
  -2   2  12  213.88    9.30
  -1  -2  12   50.09    4.10
  -1   2  12   55.19    3.60
   0  -2  12  191.38    9.50
   0   2  12  183.98    8.50
   1  -2  12  492.65   20.70
   1   2  12  487.45   20.00
   2  -2  12   23.30    3.10
   2   2  12   21.10    2.60
   3  -2  12   48.90    4.60
   3   2  12   46.30    3.50
   4  -2  12  369.66   16.20
   4   2  12  342.77   15.20
   5  -2  12   14.00    3.10
   5   2  12    7.80    2.00
   6  -2  12   74.99    5.70
   6   2  12   83.49    5.40
   7  -2  12   -0.50    2.40
   7   2  12    5.10    2.10
   8  -2  12    1.80    2.60
   8   2  12    5.40    2.10
   9  -2  12   15.10    3.50
   9   2  12   16.00    2.90
  10  -2  12   17.60    3.90
  10   2  12   12.90    3.00
  11  -2  12    1.60    2.90
  11   2  12   -0.60    2.00
  12  -2  12   16.00    4.00
  12   2  12    9.90    3.10
  18  -3 -12    2.30    4.40
  18   3 -12    3.10    3.80
  17  -3 -12    3.90    3.90
  17   3 -12    5.70    3.70
  16  -3 -12    1.50    3.70
  16   3 -12   -3.50    3.00
 -16   3  12    3.80    3.70
  15  -3 -12    5.70    3.80
 -15   3  12    5.50    3.50
  15   3 -12    5.80    2.90
  14  -3 -12   14.80    4.00
  14   3 -12    8.30    2.80
 -14   3  12   12.60    3.80
  13  -3 -12   34.60    4.90
  13   3 -12   28.60    3.80
 -13   3  12   28.70    4.60
  12  -3 -12    6.20    2.30
  12   3 -12   -0.80    0.90
 -12   3  12    1.50    2.70
 -11  -3  12    8.20    2.80
 -11  -3  12    4.40    2.40
  11  -3 -12    5.20    2.80
 -11   3  12   12.00    3.20
  11   3 -12    9.50    2.40
 -10  -3  12   24.20    3.40
  10  -3 -12   18.90    3.30
 -10  -3  12   23.50    3.50
 -10   3  12   25.00    3.90
  10   3 -12   21.00    2.70
  -9  -3  12    7.50    2.60
  -9  -3  12    6.70    2.20
   9  -3 -12    9.00    2.90
   9   3 -12    5.90    1.70
  -9   3  12    6.50    3.00
  -8  -3  12   42.80    4.30
  -8  -3  12   37.40    4.10
   8  -3 -12   40.80    4.20
   8   3 -12   42.70    3.20
  -8   3  12   45.80    5.00
  -7  -3  12   34.20    3.70
  -7  -3  12   28.90    3.40
   7  -3 -12   31.10    3.60
  -7   3  12   29.40    3.90
   7   3 -12   37.50    2.70
   6  -3 -12   40.20    3.70
  -6  -3  12   44.70    3.80
  -6  -3  12   44.30    4.20
   6   3 -12   43.20    2.90
  -6   3  12   42.00    4.60
  -6   3  12   40.70    2.80
   5  -3 -12   76.89    5.00
  -5  -3  12   79.49    5.30
  -5  -3  12   73.49    4.90
  -5   3  12   69.19    4.00
   5   3 -12   78.89    3.90
  -5   3  12   82.69    6.00
   4  -3 -12    6.90    1.90
  -4  -3  12    6.10    2.20
  -4  -3  12    6.90    2.00
  -4   3  12    8.80    1.60
   4   3 -12    6.30    1.20
  -4   3  12    5.40    2.40
  -3  -3  12   50.19    4.70
   3  -3 -12   48.50    3.70
  -3  -3  12   61.49    4.40
  -3   3  12   58.99    5.60
   3   3 -12   55.69    3.00
  -3   3  12   54.89    3.40
  -2  -3  12   33.80    3.50
  -2  -3  12   35.10    3.80
   2  -3 -12   31.30    2.80
  -2   3  12   29.50    4.10
  -2   3  12   33.80    2.80
   2   3 -12   26.50    2.10
  -1  -3  12    1.60    1.80
  -1  -3  12    3.70    2.10
   1   3 -12    2.10    1.00
  -1   3  12    2.20    1.30
   0  -3  12   76.99    5.30
   0   3  12   79.49    4.40
   0   3  12   65.19    3.80
   1  -3  12   83.39    5.90
   1   3  12   83.99    4.70
   2  -3  12   22.50    3.30
   2   3  12   16.90    2.40
   3  -3  12   27.10    3.80
   3   3  12   31.50    3.10
   4  -3  12   26.00    3.70
   4   3  12   26.00    2.90
   5  -3  12    1.80    2.30
   5   3  12    0.90    1.50
   6  -3  12   22.70    3.90
   6   3  12   21.80    2.90
   7  -3  12    5.50    3.00
   7   3  12   10.80    2.60
   8  -3  12   -1.50    2.20
   8   3  12    4.90    2.20
   9  -3  12    1.20    2.40
   9   3  12   -1.50    1.70
  10  -3  12    4.30    3.20
  10   3  12    2.60    2.50
  11  -3  12    3.40    3.30
  11   3  12    7.30    2.70
  12  -3  12    1.30    3.20
  12   3  12    2.80    2.80
  17  -4 -12   31.60    6.60
  17   4 -12   11.00    4.10
  16  -4 -12   -1.50    4.30
 -16   4  12    6.30    4.00
  16   4 -12    0.10    3.30
  15  -4 -12   10.60    4.30
  15   4 -12   11.70    3.30
 -15   4  12   20.50    4.60
  14  -4 -12    3.80    3.50
 -14   4  12    7.40    3.50
  14   4 -12    5.30    2.80
  13  -4 -12   42.10    6.10
 -13   4  12   31.60    5.00
  13   4 -12   38.30    4.00
 -12   4  12   16.60    3.90
  12   4 -12   24.70    3.10
  11  -4 -12    1.20    2.90
 -11  -4  12    3.90    2.50
 -11   4  12   -0.90    2.80
  11   4 -12   -0.60    1.70
 -10  -4  12   44.70    4.60
 -10  -4  12   38.30    4.40
  10  -4 -12   32.50    4.70
  10   4 -12   45.00    3.50
 -10   4  12   50.49    5.50
  -9  -4  12   53.79    5.00
   9  -4 -12   46.80    5.20
  -9  -4  12   48.50    4.60
   9   4 -12   52.39    3.60
  -9   4  12   49.40    5.20
  -8  -4  12   31.00    4.00
   8  -4 -12   34.80    4.30
  -8  -4  12   31.70    3.70
   8   4 -12   30.50    2.90
  -8   4  12   23.80    4.00
  -7  -4  12   78.59    5.80
   7  -4 -12   75.99    5.90
  -7  -4  12   72.19    4.90
  -7   4  12   72.79    5.80
   7   4 -12   72.59    4.40
  -6  -4  12   11.00    2.20
  -6  -4  12    6.40    2.50
   6  -4 -12   10.40    2.70
   6   4 -12    9.10    1.80
  -6   4  12    9.40    3.00
  -5  -4  12  106.69    6.70
  -5  -4  12   98.69    5.60
   5  -4 -12   82.69    5.90
  -5   4  12   92.79    6.70
   5   4 -12   98.49    5.10
  -5   4  12   99.69    4.80
   4  -4 -12   26.30    3.20
  -4  -4  12   23.30    2.70
  -4  -4  12   24.00    3.70
  -4   4  12   22.20    2.10
   4   4 -12   19.80    2.20
  -4   4  12   17.20    3.40
  -3  -4  12    9.80    2.70
  -3  -4  12   11.50    2.20
   3  -4 -12   11.10    2.30
  -3   4  12   14.80    1.90
   3   4 -12   13.00    1.90
  -3   4  12   12.50    3.30
  -2  -4  12   81.19    6.00
  -2  -4  12   92.89    5.40
   2  -4 -12   86.89    5.40
  -2   4  12   93.89    4.80
  -2   4  12   94.39    6.70
   2   4 -12   93.49    4.90
  -1  -4  12  109.19    6.90
  -1  -4  12  103.29    5.90
   1  -4 -12   97.39    5.70
   1   4 -12   98.09    5.30
  -1   4  12  100.49    5.20
   0  -4  12   75.09    5.60
   0  -4  12   75.89    5.10
   0   4  12   73.19    4.30
   0   4 -12   84.09    4.80
   0   4  12   81.09    4.50
   1  -4  12   89.29    6.00
   1  -4  12   83.19    5.00
   1   4  12   76.99    4.60
   2  -4  12   49.10    5.20
   2   4  12   49.00    3.70
   3  -4  12  241.28   12.10
   3   4  12  238.38   10.90
   4  -4  12   94.29    6.50
   4   4  12   82.79    5.10
   5  -4  12   15.40    3.50
   5   4  12   17.60    2.70
   6  -4  12    8.20    3.10
   6   4  12   12.50    2.40
   7  -4  12    0.60    2.80
   7   4  12    3.10    1.90
   8  -4  12   12.60    3.50
   8   4  12    7.00    2.30
   9  -4  12   13.70    3.80
   9   4  12   10.50    2.60
  10  -4  12   10.90    3.50
  10   4  12   18.00    3.30
  11  -4  12    2.00    2.20
  11   4  12    5.10    2.80
  16  -5 -12    6.70    4.70
  16   5 -12   -1.40    3.10
 -16   5  12   -3.10    3.60
  15  -5 -12    0.80    4.20
  15   5 -12   -1.10    2.80
 -15   5  12    2.00    3.70
  14  -5 -12   15.80    5.60
 -14   5  12   14.40    4.00
  14   5 -12   10.80    3.10
  13  -5 -12   -0.60    4.10
 -13   5  12    0.10    2.90
  13   5 -12    1.00    2.60
  12  -5 -12   15.10    4.40
  12   5 -12   13.70    2.80
 -12   5  12   14.60    3.90
 -11  -5  12    3.00    2.80
  11  -5 -12   10.30    3.80
  11   5 -12    0.20    1.00
 -11   5  12   11.30    3.40
  10  -5 -12   -3.00    2.90
 -10  -5  12    1.20    2.60
  10   5 -12    0.70    1.80
 -10   5  12   -3.10    2.40
  -9  -5  12   12.30    3.20
   9  -5 -12   11.70    3.60
  -9   5  12    8.60    3.10
   9   5 -12   12.60    2.50
  -8  -5  12    8.30    2.70
   8  -5 -12    4.80    3.00
  -8   5  12    4.10    3.00
   8   5 -12    6.00    1.90
  -7  -5  12    6.00    2.70
   7  -5 -12    1.10    2.60
  -7   5  12    4.70    2.90
   7   5 -12    3.90    1.90
   6  -5 -12   64.39    5.80
  -6  -5  12   83.09    6.30
  -6   5  12   78.39    6.20
   6   5 -12   75.49    4.80
  -5  -5  12    5.50    2.60
   5  -5 -12    3.50    2.30
  -5   5  12    2.90    2.50
   5   5 -12    5.50    1.80
   4  -5 -12   10.50    2.70
  -4  -5  12    5.40    2.60
  -4   5  12   13.20    1.70
   4   5 -12    9.40    2.10
  -4   5  12    6.40    3.10
   3  -5 -12   11.00    2.70
  -3  -5  12   15.90    3.50
   3   5 -12   15.10    2.40
  -3   5  12   11.60    3.50
  -3   5  12   10.00    1.70
   2  -5 -12   39.00    4.10
  -2  -5  12   47.40    5.00
  -2   5  12   46.20    3.10
   2   5 -12   41.00    3.60
  -2   5  12   38.30    5.10
   1  -5 -12  147.59    7.70
  -1  -5  12  134.19    8.40
  -1   5  12  129.49    6.50
   1   5 -12  136.09    7.20
   0  -5  12   61.39    5.60
   0   5  12   55.49    3.80
   0   5 -12   51.39    4.00
   1  -5  12   40.30    4.10
   1  -5  12   42.30    4.80
   1   5  12   40.60    3.40
   2  -5  12   57.39    5.70
   2   5  12   50.99    3.70
   3  -5  12   33.30    4.40
   3   5  12   32.00    3.30
   4  -5  12   24.60    3.90
   4   5  12   21.20    2.90
   5  -5  12   33.80    4.70
   5   5  12   23.10    2.90
   6  -5  12   10.60    3.30
   6   5  12    1.90    1.80
   7  -5  12   18.30    4.10
   7   5  12   17.30    3.10
   8  -5  12    4.60    3.30
   8   5  12    2.30    2.10
   9  -5  12    1.60    3.20
   9   5  12    0.40    2.10
  10  -5  12    2.50    1.80
  10   5  12   -0.70    2.10
  11  -5  12    1.10    3.10
  11   5  12   -1.40    2.30
  15  -6 -12    0.60    5.40
 -15   6  12   -1.80    3.90
  15   6 -12   -3.00    3.30
  14  -6 -12    1.90    5.10
 -14   6  12    1.80    3.30
  14   6 -12   -2.40    2.50
  13  -6 -12    2.10    4.30
 -13   6  12   -2.50    3.20
  13   6 -12    1.10    2.90
  12  -6 -12    3.10    4.30
 -12   6  12    2.40    3.20
  12   6 -12    1.30    2.70
  11   6 -12   12.90    3.10
 -11   6  12    6.10    3.50
 -10  -6  12   16.00    3.50
  10  -6 -12   29.60    5.90
 -10   6  12   22.90    4.30
  -9  -6  12   20.70    3.80
   9  -6 -12   26.30    5.30
  -9   6  12   18.50    3.80
   9   6 -12   21.20    3.20
  -8  -6  12   27.30    4.30
   8  -6 -12   33.80    5.40
  -8   6  12   25.30    4.40
   8   6 -12   27.40    3.40
  -7  -6  12   13.20    3.70
   7  -6 -12    9.80    3.60
   7   6 -12    9.90    2.50
  -7   6  12    8.80    3.00
  -6  -6  12   10.50    3.10
   6  -6 -12    7.10    3.20
   6   6 -12   11.50    2.70
  -6   6  12    7.20    2.90
  -5  -6  12   50.09    5.60
   5  -6 -12   38.40    5.00
   5   6 -12   44.70    4.20
  -5   6  12   37.50    5.00
   4  -6 -12   23.90    3.90
  -4  -6  12   22.50    4.00
   4   6 -12   27.30    3.40
  -4   6  12   21.60    4.20
   3  -6 -12   30.30    4.20
  -3  -6  12   32.90    4.60
  -3   6  12   29.80    3.10
   3   6 -12   30.00    3.60
  -3   6  12   34.10    4.80
   2  -6 -12   11.80    3.00
  -2  -6  12    4.30    2.70
   2   6 -12    8.40    2.60
  -2   6  12   15.00    2.00
  -2   6  12    5.90    2.90
  -1  -6  12    7.50    3.20
   1  -6 -12   13.50    3.10
  -1   6  12    7.20    3.10
   1   6 -12    7.90    2.50
  -1   6  12   10.70    2.00
   0  -6  12   79.99    6.60
   0   6  12   91.79    5.10
   1  -6  12   22.40    4.00
   1  -6  12   31.50    4.20
   1   6  12   28.50    3.10
   2  -6  12    3.20    3.80
   2  -6  12    1.50    2.50
   2   6  12   -0.10    1.60
   3  -6  12    4.20    2.90
   3   6  12    2.60    1.80
   4  -6  12   24.30    4.20
   4   6  12   22.50    3.20
   5  -6  12   53.29    6.10
   5   6  12   41.70    4.30
   6  -6  12   19.60    4.30
   6   6  12   13.90    3.00
   7  -6  12    2.00    3.20
   7   6  12    4.50    2.20
   8  -6  12    4.30    3.20
   8   6  12    1.00    2.00
   9  -6  12   -0.10    2.40
   9   6  12    6.40    2.60
  10  -6  12    5.10    3.40
  10   6  12    3.40    2.60
  14  -7 -12   -1.30    5.50
  14   7 -12   -4.80    3.00
 -14   7  12    2.60    3.70
  13  -7 -12    3.10    6.20
  13   7 -12   -1.20    2.90
 -13   7  12   -2.60    3.40
  12  -7 -12   -0.20    5.30
 -12   7  12    5.30    3.30
  12   7 -12   -2.90    2.70
  11  -7 -12   12.70    5.60
 -11   7  12   13.00    4.00
  11   7 -12   11.40    3.40
 -10  -7  12   19.20    4.00
 -10   7  12   16.00    4.10
  10   7 -12   21.40    3.80
  -9  -7  12   -2.20    2.50
   9  -7 -12    0.20    4.60
   9   7 -12   -2.10    1.70
  -9   7  12   -1.20    2.90
   8  -7 -12   18.00    5.50
  -8  -7  12   14.60    4.00
   8   7 -12   23.30    3.80
  -8   7  12   18.10    4.00
  -7  -7  12   10.40    3.60
   7  -7 -12   12.90    4.70
   7   7 -12   12.10    3.20
  -7   7  12    7.70    3.50
  -6  -7  12    1.00    2.60
   6  -7 -12    0.80    3.40
   6   7 -12   -0.80    2.40
  -6   7  12    0.50    2.60
   5  -7 -12   20.00    4.60
  -5  -7  12   10.40    3.30
  -5   7  12   15.40    3.80
   5   7 -12   10.80    2.80
  -4  -7  12   13.20    3.60
   4  -7 -12    9.00    3.80
  -4   7  12   11.30    3.50
   4   7 -12   15.30    3.30
  -3  -7  12   53.89    6.10
   3  -7 -12   56.79    6.00
  -3   7  12   38.20    5.30
   3   7 -12   45.70    4.90
  -2  -7  12    3.00    3.20
   2  -7 -12   -1.10    2.80
   2   7 -12    1.00    2.30
  -2   7  12    1.40    3.00
   1  -7 -12    6.90    3.20
  -1  -7  12    8.80    3.20
   1   7 -12    4.30    2.50
  -1   7  12    4.70    3.00
  -1   7  12    2.60    1.70
   0  -7  12   12.50    3.60
   0   7  12   11.10    2.30
   1  -7  12    1.40    2.90
   1  -7  12    4.30    2.90
   1   7  12    6.00    2.20
   2  -7  12   34.40    5.20
   2   7  12   30.00    3.30
   3  -7  12   34.40    5.20
   3   7  12   24.30    3.40
   4  -7  12    3.60    3.00
   4   7  12    3.30    2.10
   5  -7  12    3.80    3.10
   5   7  12   -0.10    1.90
   6  -7  12   24.90    4.60
   6   7  12   18.90    3.50
   7  -7  12    3.20    2.80
   7   7  12    4.00    2.40
   8  -7  12   10.60    3.60
   8   7  12   12.80    3.10
  13   8 -12    5.90    3.60
  12  -8 -12    6.10    7.60
 -12   8  12   -1.00    3.50
  12   8 -12    0.10    3.40
  11  -8 -12   -2.20    6.70
 -11   8  12    6.40    3.70
  11   8 -12    3.70    3.40
 -10   8  12    4.40    3.40
  10   8 -12   -2.40    3.00
   9  -8 -12   30.20    7.40
  -9  -8  12   19.50    4.50
   9   8 -12   17.30    3.50
  -9   8  12   12.20    3.80
   8  -8 -12   17.40    6.80
  -8  -8  12   15.70    4.00
  -8   8  12   20.10    4.30
   8   8 -12   11.80    3.40
   7  -8 -12    4.10    5.30
  -7  -8  12    0.00    3.00
  -7   8  12    1.00    2.90
   7   8 -12    1.70    2.70
  -6  -8  12    1.50    2.90
   6  -8 -12   -1.90    4.70
   6   8 -12    7.50    3.40
  -6   8  12    1.30    3.00
   5  -8 -12   20.60    5.20
  -5  -8  12   12.20    3.80
  -5   8  12   12.40    3.70
   5   8 -12   15.50    3.80
  -4  -8  12    1.40    3.00
   4  -8 -12    4.90    4.30
   4   8 -12   -0.90    2.80
  -4   8  12    1.90    2.90
   3  -8 -12    5.00    4.00
  -3  -8  12    6.90    3.70
   3   8 -12   -0.80    2.70
  -3   8  12    6.80    3.30
   2  -8 -12   -2.80    3.30
  -2  -8  12   -2.80    2.60
  -2   8  12    1.70    2.60
   2   8 -12   -2.80    2.60
  -1  -8  12    7.20    3.40
   1   8 -12    7.40    3.20
  -1   8  12    4.30    3.40
   0  -8  12   10.50    3.70
   0   8 -12   11.40    3.40
   0   8  12   10.90    3.80
   0   8  12   13.80    2.50
   1  -8  12    8.00    3.60
   1  -8  12    6.70    3.50
   1   8  12   10.80    2.50
   2  -8  12   11.70    3.80
   2   8  12    5.10    2.40
   3  -8  12    3.40    3.30
   3   8  12    4.20    2.30
   4  -8  12   12.70    4.00
   4   8  12   10.30    2.80
   5  -8  12    6.20    3.90
   5   8  12    5.90    2.50
   6  -8  12    2.20    3.20
   6   8  12    2.40    2.70
   7  -8  12    1.50    3.20
   7   8  12    1.60    2.60
  10  -9 -12  -11.20    6.30
  10   9 -12   -7.70    3.20
  -9  -9  12    3.40    3.50
   9   9 -12    4.20    3.80
   8  -9 -12   -2.30    6.90
  -8  -9  12    0.80    3.10
   8   9 -12   -0.80    3.00
   7  -9 -12    6.50    7.00
  -7  -9  12    7.70    3.60
   7   9 -12    5.70    3.30
   6  -9 -12    4.00    6.70
  -6  -9  12    3.10    3.70
   6   9 -12   -0.10    3.20
   5  -9 -12    2.80    5.90
  -5  -9  12    1.50    3.20
   5   9 -12    4.00    3.70
   4  -9 -12   12.00    6.30
  -4  -9  12   -1.40    3.10
   4   9 -12    6.10    3.40
   3  -9 -12   -5.70    4.80
  -3  -9  12    3.80    3.20
   3   9 -12   -2.30    3.10
   2  -9 -12    7.90    5.90
  -2  -9  12    6.90    3.60
   2   9 -12   -7.50    2.90
  -2   9  12    1.30    4.30
  -1  -9  12    4.40    3.80
   1   9 -12    1.30    3.10
  -1   9  12   -0.20    3.40
   0  -9  12    9.50    3.80
   0   9  12   10.00    3.70
   0   9 -12   15.80    4.60
   1  -9  12   13.40    4.10
   1   9  12   10.70    4.00
   2  -9  12    6.70    3.90
   2   9  12    2.20    2.50
   3  -9  12    7.50    3.70
   3   9  12    9.20    2.90
   4  -9  12    5.40    3.60
   4   9  12    6.90    2.90
  -6 -10  12    1.80    3.90
   6 -10 -12    1.80    8.00
   6  10 -12   -0.30    2.90
  -5 -10  12    0.50    3.80
   5 -10 -12    8.40    7.60
   5  10 -12    0.80    4.00
   4 -10 -12    7.60    7.60
  -4 -10  12    9.60    4.40
   4  10 -12   10.80    4.40
  -3 -10  12    2.90    3.40
   3 -10 -12   -2.80    7.00
   3  10 -12    5.20    4.00
  -2 -10  12    8.00    4.20
   2  10 -12    3.20    3.70
  -1 -10  12   -4.10    3.60
   1  10 -12   -0.40    3.60
   0 -10  12    8.20    4.20
  18   0 -13   12.50    3.70
  17   0 -13    6.80    3.00
  16   0 -13    8.10    2.90
 -15   0  13   -1.60    3.00
  15   0 -13    3.00    2.50
  14   0 -13   19.40    2.70
 -14   0  13   33.80    4.90
  13   0 -13   -1.60    2.10
 -13   0  13   -0.40    2.50
 -12   0  13   19.20    3.70
  12   0 -13   18.50    3.10
 -11   0  13   34.00    4.50
  11   0 -13   37.90    3.80
 -10   0  13   -3.60    2.00
  10   0 -13    0.90    1.70
  -9   0  13   46.80    4.80
  -9   0  13   41.50    3.50
   9   0 -13   46.00    3.60
   8   0 -13    1.10    1.40
  -8   0  13    1.70    1.50
  -8   0  13    0.60    2.00
  -7   0  13    0.30    1.90
   7   0 -13   -0.40    1.20
  -7   0  13    1.10    1.60
   6   0 -13    2.20    1.10
  -6   0  13    1.90    1.50
  -6   0  13    2.20    2.10
  -5   0  13   24.30    3.40
   5   0 -13   25.90    2.10
  -5   0  13   23.90    2.80
  -4   0  13    7.50    2.40
   4   0 -13    4.40    1.00
  -4   0  13    5.80    1.80
  -3   0  13   27.20    3.60
  -3   0  13   24.80    2.80
  -2   0  13    3.20    2.10
  -2   0  13    0.60    1.70
  -1   0  13    9.50    2.30
   0   0  13    1.00    1.50
   1   0  13    1.10    1.80
   2   0  13    1.50    1.70
   3   0  13    0.10    1.90
   4   0  13   34.30    3.80
   5   0  13    4.70    2.10
   6   0  13    3.50    2.20
   7   0  13   27.80    3.80
   8   0  13   23.00    3.80
   9   0  13    8.60    3.00
  10   0  13   -0.10    2.20
  11   0  13   -2.40    2.20
  12   0  13    6.60    3.00
  18  -1 -13    6.10    3.40
  18   1 -13    9.70    3.50
  17  -1 -13    5.10    3.50
  17   1 -13    3.00    3.20
  16  -1 -13   10.10    3.40
 -16   1  13    7.40    4.00
  16   1 -13    6.50    3.20
  15  -1 -13    4.30    3.00
  15   1 -13    4.70    2.80
 -15   1  13    1.10    3.20
 -14  -1  13   24.60    4.60
 -14   1  13   27.50    5.00
  14   1 -13   16.00    2.80
  13  -1 -13   10.00    2.70
 -13  -1  13    8.90    3.10
 -13   1  13    2.80    2.90
  13   1 -13    6.40    2.60
  12  -1 -13   71.89    5.30
 -12  -1  13   81.09    6.50
 -12   1  13   75.09    6.50
  12   1 -13   85.19    5.50
  11  -1 -13   75.89    5.40
 -11  -1  13   88.19    5.10
 -11  -1  13   83.39    6.30
  11   1 -13   77.49    5.00
 -11   1  13   86.59    6.60
 -10  -1  13   75.49    6.00
  10  -1 -13   77.79    5.30
 -10  -1  13   84.89    5.20
  10   1 -13   94.89    5.20
 -10   1  13   81.79    6.40
  -9  -1  13  145.09    8.50
  -9  -1  13  139.89    7.20
   9  -1 -13  141.99    7.50
   9   1 -13  144.69    7.00
  -9   1  13  148.79    8.80
  -8  -1  13   54.89    5.00
   8  -1 -13   77.19    4.70
  -8  -1  13   81.99    5.00
  -8   1  13   80.69    6.20
  -8   1  13   78.59    4.40
   8   1 -13   81.29    4.50
  -7  -1  13  200.78    9.40
   7  -1 -13  193.48    9.00
  -7   1  13  197.08    8.90
  -7   1  13  194.68   10.30
   7   1 -13  198.18    8.60
   6  -1 -13   76.99    4.40
  -6  -1  13   79.09    5.00
   6   1 -13   77.09    4.00
  -6   1  13   77.09    5.80
  -6   1  13   77.39    4.60
   5  -1 -13  149.19    6.80
  -5  -1  13  146.29    7.60
  -5  -1  13  139.29    8.10
  -5   1  13  147.29    7.10
   5   1 -13  148.49    6.40
  -5   1  13  149.88    8.70
  -4  -1  13  472.85   19.60
   4  -1 -13  447.96   18.50
  -4  -1  13  468.45   20.20
  -4   1  13  462.45   19.10
  -4   1  13  462.95   20.50
   4   1 -13  480.15   18.10
  -3  -1  13  502.05   21.00
  -3  -1  13  513.25   21.70
  -3   1  13  501.75   20.60
  -3   1  13  496.25   22.00
  -2  -1  13  103.39    6.70
  -2  -1  13  109.09    6.30
  -2   1  13  116.49    6.00
  -1  -1  13  312.87   13.70
  -1   1  13  298.27   13.20
   0  -1  13   75.69    5.00
   0   1  13   72.69    4.70
   1  -1  13   74.99    5.00
   1   1  13   64.09    4.40
   2  -1  13   31.30    3.70
   2   1  13   22.30    2.90
   3  -1  13  252.57   11.70
   3   1  13  227.68   11.10
   4  -1  13   95.09    6.50
   4   1  13  102.99    6.00
   5  -1  13   30.30    3.80
   5   1  13   31.20    3.70
   6  -1  13  120.89    7.40
   6   1  13  119.59    7.10
   7  -1  13  172.68    9.50
   7   1  13  171.18    9.10
   8  -1  13   27.20    4.30
   8   1  13   34.60    4.10
   9  -1  13    0.40    2.50
   9   1  13    0.40    2.30
  10  -1  13    1.20    2.90
  10   1  13   -1.10    2.30
  11  -1  13    3.30    2.80
  11   1  13    2.80    2.80
  12  -1  13   22.10    4.50
  12   1  13   24.40    4.10
  18  -2 -13    8.50    3.70
  18   2 -13   -0.60    3.40
  17  -2 -13   13.10    3.90
  17   2 -13    4.10    3.10
  16  -2 -13    7.00    3.10
  16   2 -13    2.90    2.80
 -16   2  13    6.80    3.90
  15  -2 -13    4.90    3.20
 -15   2  13   -0.20    3.20
  15   2 -13    0.70    2.90
  14   2 -13    3.50    2.50
 -14   2  13    6.10    3.70
  13  -2 -13   10.50    3.20
 -13  -2  13    8.80    3.50
 -13   2  13    8.90    3.30
  13   2 -13    2.40    2.40
  12  -2 -13   17.00    3.50
  12   2 -13   16.40    2.70
 -12   2  13   21.00    4.00
 -11  -2  13    8.50    2.40
 -11  -2  13    9.40    3.00
  11  -2 -13   11.10    3.00
  11   2 -13   10.00    2.50
 -11   2  13   13.50    3.50
  10  -2 -13   34.60    4.00
 -10  -2  13   33.90    4.30
 -10  -2  13   35.30    3.70
  10   2 -13   34.40    3.30
 -10   2  13   35.20    4.60
   9  -2 -13    4.10    2.20
  -9  -2  13    4.40    2.10
  -9  -2  13    2.60    2.40
  -9   2  13    4.70    2.80
   9   2 -13    3.70    1.80
  -8  -2  13    8.50    2.40
  -8  -2  13    2.50    2.30
   8  -2 -13    6.00    2.10
   8   2 -13    7.40    1.90
  -8   2  13    8.90    3.00
  -7  -2  13   20.90    3.10
  -7  -2  13   24.40    3.50
   7  -2 -13   28.70    3.20
  -7   2  13   29.80    2.50
  -7   2  13   21.70    3.60
   7   2 -13   26.00    2.40
  -6  -2  13   39.00    3.90
  -6  -2  13   37.30    3.90
   6  -2 -13   41.40    3.50
   6   2 -13   39.00    2.70
  -6   2  13   44.20    3.10
  -6   2  13   48.50    5.00
  -5  -2  13   11.90    2.70
   5  -2 -13    8.70    1.90
  -5  -2  13   13.00    2.70
   5   2 -13    9.90    1.40
  -5   2  13   14.70    2.10
  -5   2  13   12.20    3.30
  -4  -2  13   41.90    4.20
   4  -2 -13   35.20    3.00
  -4  -2  13   36.40    3.80
  -4   2  13   41.90    3.20
   4   2 -13   35.60    2.20
  -4   2  13   39.00    4.60
  -3  -2  13   39.50    3.90
  -3  -2  13   32.80    3.90
  -3   2  13   40.20    3.10
  -3   2  13   33.30    4.30
  -2  -2  13   11.10    2.70
  -2  -2  13   10.80    2.70
  -2   2  13    8.20    1.80
  -1  -2  13    7.80    2.50
  -1   2  13   11.40    2.10
   0  -2  13   51.49    4.30
   0   2  13   42.80    3.60
   1  -2  13   15.50    2.80
   1   2  13   17.80    2.40
   2  -2  13   67.29    5.10
   2   2  13   70.39    4.70
   3  -2  13   68.49    5.30
   3   2  13   69.59    4.80
   4  -2  13    3.00    2.50
   4   2  13   -0.70    1.50
   5  -2  13   22.10    3.70
   5   2  13   18.00    2.70
   6  -2  13    5.40    2.80
   6   2  13    9.50    2.50
   7  -2  13   25.30    3.90
   7   2  13   27.70    3.60
   8  -2  13    7.40    2.90
   8   2  13    4.10    2.10
   9  -2  13    0.10    2.70
   9   2  13    2.60    2.20
  10  -2  13    6.60    3.00
  10   2  13    4.00    2.50
  11  -2  13    7.90    3.40
  11   2  13    3.00    2.70
  12  -2  13    1.20    2.70
  12   2  13    1.70    2.60
  18  -3 -13    1.50    4.10
  18   3 -13    4.90    3.40
  17  -3 -13    2.20    4.30
  17   3 -13   -0.60    3.00
  16  -3 -13   19.00    4.60
 -16   3  13   19.00    4.80
  16   3 -13   12.10    3.40
  15  -3 -13   41.10    5.80
  15   3 -13   27.20    3.90
 -15   3  13   34.20    5.40
  14  -3 -13    9.40    3.40
 -14   3  13    7.50    3.70
  14   3 -13   -0.80    2.40
  13  -3 -13   26.80    4.40
 -13   3  13   25.00    4.40
  12  -3 -13   60.49    6.10
 -12  -3  13   46.40    5.20
  12   3 -13   51.09    4.40
 -12   3  13   33.30    5.00
 -11  -3  13   75.79    5.40
 -11  -3  13   76.59    6.00
  11  -3 -13   74.79    6.30
  11   3 -13   61.39    4.50
 -11   3  13   70.99    6.20
 -10  -3  13  105.89    6.50
 -10  -3  13  105.99    7.10
  10  -3 -13   99.79    6.70
 -10   3  13  115.99    7.70
  10   3 -13   96.09    5.70
  -9  -3  13    5.10    2.40
  -9  -3  13    2.00    2.20
   9  -3 -13    2.50    2.20
   9   3 -13    1.90    1.70
  -9   3  13    1.80    2.60
   8  -3 -13   55.09    4.80
  -8  -3  13   52.19    4.50
  -8  -3  13   56.49    4.90
  -8   3  13   51.39    5.40
   8   3 -13   54.29    3.60
  -7  -3  13   57.79    4.70
   7  -3 -13   57.59    4.60
  -7  -3  13   61.59    5.10
   7   3 -13   59.59    3.50
  -7   3  13   51.49    5.30
  -6  -3  13  203.48   10.30
  -6  -3  13  208.88   10.00
   6  -3 -13  190.18    9.70
  -6   3  13  195.28   10.70
   6   3 -13  206.38    8.60
  -6   3  13  194.08    8.80
  -5  -3  13   67.19    4.90
   5  -3 -13   60.59    4.70
  -5  -3  13   74.49    5.60
  -5   3  13   63.59    5.70
  -5   3  13   69.49    4.10
   5   3 -13   73.59    3.70
  -4  -3  13  126.19    7.50
   4  -3 -13  139.39    6.90
  -4  -3  13  127.39    7.20
  -4   3  13  132.39    6.40
   4   3 -13  129.89    5.80
  -4   3  13  127.39    8.30
  -3  -3  13  257.37   11.80
  -3  -3  13  251.37   12.00
  -3   3  13  254.27   10.90
  -3   3  13  224.68   12.50
   3   3 -13  252.87   10.20
  -2  -3  13  395.96   16.70
  -2  -3  13  374.46   16.90
  -2   3  13  376.76   15.70
  -2   3  13  366.76   17.60
  -1  -3  13   83.29    5.70
  -1  -3  13   78.59    5.50
  -1   3  13   76.79    4.70
   0  -3  13   90.09    6.00
   0   3  13   86.29    5.00
   1  -3  13  100.49    6.70
   1   3  13   93.69    5.40
   2  -3  13  141.09    8.20
   2   3  13  128.59    6.90
   3  -3  13  292.07   14.00
   3   3  13  292.17   12.90
   4  -3  13    4.40    2.70
   4   3  13    7.10    1.90
   5  -3  13   86.79    6.80
   5   3  13   99.09    5.90
   6  -3  13   46.20    5.10
   6   3  13   44.40    4.30
   7  -3  13   36.20    4.70
   7   3  13   33.90    3.70
   8  -3  13    3.70    2.70
   8   3  13    1.70    2.10
   9  -3  13    5.90    3.00
   9   3  13   -0.10    2.00
  10  -3  13    8.80    3.70
  10   3  13   -0.30    2.10
  11  -3  13    9.50    3.90
  11   3  13    5.40    2.60
  17  -4 -13    5.30    5.10
  17   4 -13   -3.80    3.40
  16  -4 -13   12.00    4.70
  16   4 -13    1.10    3.50
 -16   4  13    2.00    3.90
  15  -4 -13    7.50    4.60
 -15   4  13    1.50    3.50
  15   4 -13   -2.30    3.00
  14  -4 -13    2.10    3.60
  14   4 -13   -3.70    2.40
 -14   4  13    1.40    3.20
 -13   4  13   20.70    4.30
  13   4 -13    8.60    2.60
  12  -4 -13   25.20    4.90
 -12   4  13   14.10    3.80
  12   4 -13   14.60    3.00
 -11  -4  13    2.90    2.50
 -11  -4  13   -0.60    2.40
  11  -4 -13    1.20    2.90
 -11   4  13    0.90    3.20
  11   4 -13    3.70    2.30
 -10  -4  13    9.30    2.80
 -10  -4  13   10.40    3.00
  10  -4 -13    4.20    3.00
 -10   4  13    6.90    3.10
  10   4 -13    6.60    2.00
  -9  -4  13   14.00    3.00
  -9  -4  13   16.30    3.30
   9  -4 -13   11.60    3.20
  -9   4  13   15.60    4.00
   9   4 -13   19.00    2.50
  -8  -4  13   32.00    4.00
   8  -4 -13   31.90    4.20
  -8  -4  13   40.40    4.10
   8   4 -13   37.30    3.20
  -8   4  13   30.60    4.50
   7  -4 -13   12.00    3.00
  -7  -4  13    9.20    3.10
  -7  -4  13    9.50    2.50
  -7   4  13    7.10    2.90
   7   4 -13    5.60    1.70
   6  -4 -13   15.50    3.00
  -6  -4  13   11.20    2.40
  -6  -4  13   17.60    3.20
  -6   4  13   12.00    3.30
   6   4 -13   11.50    2.00
   5  -4 -13   33.10    3.80
  -5  -4  13   36.80    3.70
  -5  -4  13   38.50    4.40
   5   4 -13   39.00    2.90
  -5   4  13   41.00    4.20
  -5   4  13   29.20    4.40
   4  -4 -13   40.40    4.10
  -4  -4  13   50.79    5.20
  -4  -4  13   41.80    3.90
  -4   4  13   53.29    3.30
   4   4 -13   44.80    3.20
  -4   4  13   49.30    5.30
  -3  -4  13   56.69    5.30
  -3  -4  13   54.89    4.00
  -3   4  13   35.00    3.10
   3   4 -13   42.50    3.00
  -3   4  13   35.80    4.70
  -2  -4  13   19.30    2.80
  -2  -4  13   13.40    3.00
  -2   4  13   19.60    4.00
  -2   4  13   15.60    2.10
  -1  -4  13    4.10    2.10
  -1  -4  13    2.90    2.30
  -1   4  13    6.30    1.80
   0  -4  13   18.40    3.40
   0  -4  13   18.60    3.00
   0   4  13   18.50    2.50
   1  -4  13  146.19    8.60
   1   4  13  147.89    7.30
   2  -4  13   97.09    6.80
   2   4  13  101.29    5.60
   3  -4  13    8.90    2.90
   3   4  13    9.80    2.10
   4  -4  13   -1.50    2.20
   4   4  13    1.00    1.80
   5  -4  13   14.30    3.30
   5   4  13   14.50    2.60
   6  -4  13   15.10    3.70
   6   4  13   12.20    2.70
   7  -4  13    4.30    3.20
   7   4  13   -0.40    2.00
   8  -4  13    5.80    3.10
   8   4  13    6.90    2.60
   9  -4  13    1.70    2.80
   9   4  13    1.40    2.00
  10  -4  13    3.80    3.60
  10   4  13    3.80    2.70
  11  -4  13    4.90    3.30
  11   4  13    0.00    2.60
  16  -5 -13   13.60    6.20
 -16   5  13   10.40    4.60
  16   5 -13   10.00    4.00
  15  -5 -13    3.60    4.90
 -15   5  13    9.00    4.10
  15   5 -13    4.50    3.40
  14  -5 -13    1.60    4.70
 -14   5  13   -2.90    2.80
  14   5 -13    0.70    2.90
  13   5 -13    2.30    2.80
 -13   5  13    1.50    3.10
  12  -5 -13   18.60    5.10
 -12   5  13   15.10    3.90
  11  -5 -13   48.90    6.40
 -11  -5  13   46.90    5.00
  11   5 -13   48.20    4.40
 -11   5  13   36.20    5.30
  10  -5 -13   14.30    4.00
 -10  -5  13    5.70    2.70
  10   5 -13   11.00    2.30
 -10   5  13    5.80    3.50
   9  -5 -13    8.90    3.60
  -9  -5  13    7.20    3.00
   9   5 -13    9.00    2.20
  -9   5  13    6.70    3.40
   8  -5 -13   74.09    6.60
  -8  -5  13   75.09    6.30
   8   5 -13   74.29    4.80
  -8   5  13   67.19    6.20
   7  -5 -13   52.99    5.60
  -7  -5  13   39.70    4.90
   7   5 -13   52.69    4.00
  -7   5  13   62.49    6.10
  -6  -5  13  156.18    8.90
   6  -5 -13  148.19    8.90
   6   5 -13  147.39    7.40
  -6   5  13  153.98    9.30
   5  -5 -13   45.50    4.80
  -5  -5  13   47.70    5.10
   5   5 -13   46.70    3.60
  -5   5  13   42.20    5.30
   4  -5 -13    2.00    2.20
  -4  -5  13    0.70    2.50
  -4   5  13    0.00    2.90
   4   5 -13    1.20    1.60
   3  -5 -13   77.89    8.30
  -3  -5  13   78.39    6.30
  -3   5  13   87.49    4.70
   3   5 -13   85.99    5.10
  -3   5  13   77.09    6.60
  -2  -5  13   76.69    6.20
  -2   5  13   80.89    6.70
  -2   5  13   80.69    4.60
   2   5 -13   81.29    5.50
  -1  -5  13   64.19    6.30
  -1   5  13   78.59    4.50
   0  -5  13   60.39    5.90
   0   5  13   63.59    4.30
   1  -5  13   75.39    6.40
   1   5  13   68.89    4.60
   2  -5  13   26.30    4.10
   2   5  13   25.70    3.10
   3  -5  13   35.20    4.80
   3   5  13   28.10    3.20
   4  -5  13   -1.40    2.20
   4   5  13   -0.40    1.70
   5  -5  13   -0.70    2.80
   5   5  13   -2.00    1.80
   6  -5  13   29.30    4.50
   6   5  13   20.70    3.10
   7  -5  13   26.30    4.50
   7   5  13   20.20    3.20
   8  -5  13    6.90    3.50
   8   5  13    7.50    2.90
   9  -5  13   -1.10    2.80
   9   5  13   -1.30    2.10
  10  -5  13   -0.20    3.30
  10   5  13    3.20    2.40
  15  -6 -13   -2.70    5.40
 -15   6  13    0.80    3.60
  15   6 -13   -4.60    2.80
  14  -6 -13    2.80    5.50
  14   6 -13    1.00    3.10
 -14   6  13   -0.50    3.20
  13  -6 -13   13.50    5.00
 -13   6  13   20.30    4.70
  13   6 -13    9.90    3.30
  12  -6 -13   12.40    5.10
 -12   6  13    9.00    4.00
  12   6 -13   -0.30    2.10
 -11  -6  13    4.90    3.00
  11  -6 -13   -1.20    3.90
  11   6 -13    5.80    2.40
 -11   6  13   -0.20    3.20
 -10  -6  13    3.20    2.80
  10  -6 -13    4.60    4.10
  10   6 -13    4.30    2.30
 -10   6  13    4.90    3.20
  -9  -6  13   10.10    3.30
   9  -6 -13   20.10    5.00
  -9   6  13   13.00    3.80
   9   6 -13   13.10    2.80
  -8  -6  13   39.00    5.20
   8  -6 -13   34.70    5.40
  -8   6  13   40.50    5.30
   8   6 -13   37.50    4.00
  -7  -6  13    8.10    3.30
   7  -6 -13    2.90    3.20
  -7   6  13    1.00    2.60
   7   6 -13    7.50    2.50
   6  -6 -13   28.70    4.50
  -6  -6  13   24.30    4.10
   6   6 -13   19.90    3.00
  -6   6  13   19.80    4.00
   5  -6 -13    3.30    2.80
  -5  -6  13    4.10    2.90
   5   6 -13    0.40    1.90
  -5   6  13   -4.10    2.60
   4  -6 -13   22.50    3.80
  -4  -6  13   33.10    4.70
   4   6 -13   24.40    3.20
  -4   6  13   18.60    3.90
  -3  -6  13   16.40    3.90
   3  -6 -13   14.00    5.30
   3   6 -13   15.70    2.80
  -3   6  13   13.60    3.60
  -2  -6  13   24.90    4.40
  -2   6  13   26.40    2.70
   2   6 -13   23.90    3.30
  -2   6  13   16.30    3.90
  -1  -6  13   27.30    4.50
  -1   6  13   18.60    4.40
  -1   6  13   24.90    2.80
   0  -6  13   14.20    3.60
   0   6  13   11.50    2.30
   1  -6  13   16.10    3.70
   1   6  13   12.40    2.30
   2  -6  13   30.70    4.70
   2   6  13   20.60    2.90
   3  -6  13    5.90    3.20
   3   6  13    1.40    1.80
   4  -6  13   17.30    3.90
   4   6  13   18.10    2.80
   5  -6  13   -0.50    2.60
   5   6  13   -0.30    2.10
   6  -6  13    5.20    3.50
   6   6  13    4.50    2.40
   7  -6  13    1.80    3.30
   7   6  13    3.30    2.30
   8  -6  13   10.40    4.30
   8   6  13    7.30    3.00
   9  -6  13    7.10    3.70
   9   6  13    7.00    3.00
  14  -7 -13   12.80    7.10
 -14   7  13    7.70    3.90
  14   7 -13    4.10    3.10
  13  -7 -13    9.00    6.90
  13   7 -13   -4.20    2.90
 -13   7  13    1.00    3.70
 -12   7  13    3.30    3.40
  12   7 -13   -0.30    2.50
  11  -7 -13   32.20    7.50
 -11   7  13    9.50    3.50
  10  -7 -13   31.60    7.00
 -10  -7  13   22.20    4.60
  10   7 -13   25.60    3.70
 -10   7  13   20.80    4.50
  -9  -7  13    5.80    3.20
   9  -7 -13    9.10    4.80
  -9   7  13    3.90    3.50
   9   7 -13    8.10    2.90
  -8  -7  13    7.00    3.20
   8  -7 -13    8.00    4.50
   8   7 -13    9.20    3.00
  -8   7  13    6.50    3.40
  -7  -7  13   23.50    4.30
   7  -7 -13   27.50    5.70
  -7   7  13   18.90    4.20
   7   7 -13   19.70    3.50
  -6  -7  13   27.20    4.80
   6  -7 -13   31.50    5.60
   6   7 -13   23.50    3.60
  -6   7  13   19.60    4.20
  -5  -7  13   16.00    3.90
   5  -7 -13   19.00    4.50
  -5   7  13   14.40    4.00
   5   7 -13   15.70    3.10
   4  -7 -13    8.40    3.70
  -4  -7  13    5.90    3.20
   4   7 -13    7.00    2.70
  -4   7  13   10.10    3.60
  -3  -7  13   -1.40    2.70
  -3   7  13    0.40    2.60
   3   7 -13   -0.90    2.30
  -2  -7  13   16.50    3.90
  -2   7  13   14.70    4.00
   2   7 -13   17.40    3.60
  -1  -7  13    4.00    3.20
  -1   7  13   11.00    3.60
  -1   7  13    8.50    2.10
   0  -7  13   11.60    3.60
   0   7  13    9.80    2.30
   1  -7  13   13.60    3.80
   1   7  13   12.10    2.60
   2  -7  13   15.80    4.00
   2   7  13   17.00    2.90
   3  -7  13   29.50    4.90
   3   7  13   25.90    3.50
   4  -7  13   13.20    4.00
   4   7  13    9.80    2.80
   5  -7  13    0.10    3.10
   5   7  13    7.00    2.70
   6  -7  13    5.40    3.60
   6   7  13   -1.50    2.40
   7  -7  13   11.00    4.20
   7   7  13    3.00    2.40
  12  -8 -13   -0.60    6.70
 -12   8  13   10.50    3.80
  12   8 -13   -0.90    3.30
  11   8 -13    3.30    3.30
 -11   8  13   -0.90    3.60
  10  -8 -13   10.10    7.10
 -10  -8  13    8.00    3.90
 -10   8  13    7.50    3.80
  -9  -8  13    3.40    3.30
   9  -8 -13   10.50    7.00
  -9   8  13    7.50    3.80
   9   8 -13   11.00    3.80
   8  -8 -13    0.70    5.50
  -8  -8  13    0.30    3.00
  -8   8  13    4.30    3.40
   8   8 -13    3.80    3.30
   7  -8 -13    1.70    4.80
  -7  -8  13    0.30    3.30
  -7   8  13    8.00    3.50
   7   8 -13    4.70    2.80
   6  -8 -13    1.50    4.90
  -6  -8  13    7.90    4.00
   6   8 -13    7.60    3.30
  -6   8  13    3.50    3.30
   5  -8 -13   10.10    4.90
  -5  -8  13    8.00    3.80
   5   8 -13    4.40    3.00
  -5   8  13    5.20    3.40
  -4  -8  13    3.80    3.30
   4  -8 -13    1.40    4.80
   4   8 -13    6.50    3.20
  -4   8  13    2.30    3.10
  -3  -8  13   11.90    4.30
   3   8 -13    5.80    3.20
  -3   8  13    8.50    3.70
  -2  -8  13   -1.00    3.20
  -2   8  13   -2.20    2.80
   2   8 -13   -4.00    4.00
  -1  -8  13    6.50    3.70
  -1   8  13    2.10    3.20
   0  -8  13   11.80    4.00
   0   8  13    4.80    3.50
   1  -8  13    5.50    3.30
   1   8  13   15.30    2.80
   2  -8  13   17.20    4.30
   2   8  13   15.40    3.10
   3  -8  13    9.10    4.20
   3   8  13    9.80    2.80
   4  -8  13   21.30    4.90
   4   8  13   19.00    3.40
   5  -8  13    2.60    3.70
   5   8  13   -0.30    2.60
   6  -8  13    3.90    3.60
   6   8  13    0.40    2.80
   9  -9 -13    4.40    7.80
  -9  -9  13    3.60    3.60
   9   9 -13    2.00    2.00
  -8  -9  13   -0.50    3.40
   8  -9 -13    3.40    7.30
   8   9 -13   -1.60    3.00
  -7  -9  13    1.50    3.40
   7  -9 -13    5.00    7.00
   7   9 -13    0.80    3.40
  -6  -9  13   17.30    4.80
   6  -9 -13    8.00    6.70
   6   9 -13   12.80    4.10
  -5  -9  13    5.70    3.40
   5  -9 -13    9.60    6.40
   5   9 -13    2.80    3.50
  -4  -9  13    4.00    3.50
   4   9 -13    5.60    3.70
  -4   9  13    3.30    3.80
  -3  -9  13    7.00    3.80
  -3   9  13    5.30    3.60
   3   9 -13    4.60    3.50
  -2  -9  13   17.90    4.90
  -2   9  13   14.00    4.20
  -1  -9  13    2.20    3.40
  -1   9  13    2.70    3.50
   0  -9  13   11.80    4.10
   0   9  13   12.50    4.10
   1  -9  13    3.30    3.60
   1   9  13    4.70    3.70
   2  -9  13    1.80    4.00
   2   9  13    5.30    2.90
   3  -9  13   12.10    4.20
   3   9  13   11.30    3.20
  18   0 -14    7.10    3.00
  17   0 -14   12.80    3.50
  16   0 -14    5.70    2.80
 -16   0  14   -1.30    3.30
 -15   0  14    8.20    3.70
  14   0 -14   13.70    3.20
 -14   0  14   13.00    3.80
 -13   0  14   36.20    5.20
  13   0 -14   46.10    4.50
 -12   0  14   85.59    6.80
  12   0 -14   72.19    5.30
 -11   0  14   -2.00    2.20
  11   0 -14   -1.80    1.50
  10   0 -14   16.70    2.60
 -10   0  14   13.40    3.30
   9   0 -14  163.88    8.00
  -9   0  14  161.58    8.00
  -9   0  14  177.98    9.80
  -8   0  14  289.07   13.90
   8   0 -14  274.37   12.00
  -8   0  14  280.27   12.40
   7   0 -14    5.80    1.50
  -7   0  14    3.10    2.40
  -7   0  14    5.30    1.90
  -6   0  14    6.60    2.70
   6   0 -14   12.60    1.70
  -6   0  14   14.30    2.40
  -5   0  14    6.30    3.00
  -5   0  14   13.70    2.50
  -4   0  14  362.96   15.50
  -4   0  14  350.56   16.60
  -3   0  14 2170.58   86.79
  -3   0  14 2290.77   85.79
  -2   0  14  338.67   15.60
  -2   0  14  315.87   14.30
  -1   0  14   54.69    4.50
   0   0  14  327.67   14.60
   1   0  14   26.80    3.50
   2   0  14  921.11   37.00
   3   0  14  313.17   14.30
   4   0  14   86.99    6.10
   5   0  14   42.10    4.60
   6   0  14   62.69    5.20
   7   0  14   29.50    4.20
   8   0  14   27.10    4.00
   9   0  14   10.40    3.10
  10   0  14   40.70    5.20
  11   0  14    5.60    3.30
  18  -1 -14    8.20    3.80
  18   1 -14    7.00    3.10
  17  -1 -14    7.60    3.30
  17   1 -14    3.90    2.80
  16  -1 -14    7.00    3.40
  16   1 -14    5.50    3.20
 -16   1  14    1.40    3.80
 -15  -1  14   19.70    4.40
 -15   1  14   23.80    4.80
 -14  -1  14    5.30    3.30
  14  -1 -14    5.70    2.60
  14   1 -14    6.00    2.70
 -14   1  14    9.20    3.60
 -13  -1  14    1.80    3.20
  13  -1 -14    5.10    2.50
 -13   1  14    9.00    3.30
  13   1 -14    4.30    2.50
 -12  -1  14    4.20    2.80
  12  -1 -14    0.80    1.80
  12   1 -14    7.10    2.40
 -12   1  14    0.20    2.60
 -11  -1  14    8.70    3.20
  11  -1 -14    8.20    2.20
 -11   1  14    5.40    3.20
  11   1 -14    0.30    2.00
 -10  -1  14   16.60    2.70
 -10  -1  14   15.30    3.50
  10  -1 -14   14.50    2.60
  10   1 -14   11.60    2.30
 -10   1  14   14.00    3.60
  -9  -1  14   11.20    3.10
  -9  -1  14   12.10    2.40
   9  -1 -14   12.20    2.40
  -9   1  14   10.20    3.10
   9   1 -14   10.90    2.10
  -8  -1  14   -2.30    1.60
   8  -1 -14    2.00    1.60
  -8  -1  14   -2.70    1.70
   8   1 -14    2.30    1.60
  -8   1  14    1.50    1.40
  -8   1  14   -0.30    2.20
  -7  -1  14    0.40    1.90
   7  -1 -14    3.50    1.50
  -7  -1  14   -0.20    0.80
   7   1 -14    1.50    1.40
  -7   1  14   -2.20    1.90
  -7   1  14    0.30    1.50
  -6  -1  14    6.00    2.20
  -6  -1  14    4.80    2.10
   6  -1 -14    9.80    1.80
   6   1 -14    7.90    1.60
  -6   1  14   10.40    2.20
  -6   1  14    8.90    3.10
  -5  -1  14   58.59    5.20
  -5  -1  14   56.59    4.60
  -5   1  14   56.49    4.10
  -5   1  14   55.19    5.50
  -4  -1  14   17.30    3.10
  -4  -1  14   16.50    3.10
  -4   1  14   16.60    2.60
  -4   1  14   18.30    3.50
  -3  -1  14   56.19    5.10
  -3  -1  14   61.59    4.90
  -3   1  14   65.39    5.90
  -3   1  14   63.89    4.50
  -2  -1  14   13.30    2.80
  -2  -1  14   17.60    3.50
  -2   1  14   19.50    2.80
  -2   1  14   18.20    3.70
  -1  -1  14    7.70    2.20
  -1   1  14    4.80    2.20
   0  -1  14    0.00    2.10
   0   1  14    6.10    2.20
   1  -1  14    2.00    2.00
   1   1  14    1.90    1.80
   2  -1  14   13.90    2.90
   2   1  14   13.40    2.60
   3  -1  14   18.80    3.20
   3   1  14   16.00    3.00
   4  -1  14    7.20    2.50
   4   1  14    5.90    2.20
   5  -1  14   20.50    3.50
   5   1  14   18.10    3.10
   6  -1  14   17.10    3.40
   6   1  14   15.40    3.00
   7  -1  14   11.40    3.00
   7   1  14    8.40    2.80
   8  -1  14   -0.50    2.50
   8   1  14   -2.30    2.10
   9  -1  14    2.40    2.60
   9   1  14    5.10    2.70
  10  -1  14    7.40    3.40
  10   1  14   12.70    3.50
  11  -1  14   11.00    3.50
  11   1  14    4.70    3.20
  18  -2 -14   12.60    4.60
  18   2 -14   10.60    3.90
  17  -2 -14   12.20    4.30
 -17   2  14   14.50    4.70
  17   2 -14   10.70    3.40
  16  -2 -14    6.10    3.50
 -16   2  14    7.00    4.20
  16   2 -14    7.40    3.40
  15   2 -14   10.30    2.90
 -15   2  14   16.70    4.30
  14  -2 -14    5.50    3.10
 -14  -2  14    6.80    3.70
  14   2 -14    5.10    3.00
 -14   2  14    8.00    3.70
  13  -2 -14   44.80    5.10
 -13  -2  14   26.40    4.50
  13   2 -14   23.70    3.60
 -13   2  14   23.90    4.40
  12  -2 -14   56.49    5.60
 -12  -2  14   62.09    5.60
 -12   2  14   47.40    5.70
  12   2 -14   52.69    4.30
  11  -2 -14    8.80    2.60
 -11  -2  14    5.80    2.70
 -11  -2  14    8.30    2.50
  11   2 -14    9.20    2.30
 -11   2  14   13.30    3.70
 -10  -2  14   28.20    4.20
  10  -2 -14   25.70    3.50
 -10  -2  14   23.50    3.30
 -10   2  14   29.70    4.60
  10   2 -14   23.30    2.90
   9  -2 -14   29.40    3.60
  -9  -2  14   30.60    4.00
  -9  -2  14   40.10    4.10
  -9   2  14   39.80    4.90
   9   2 -14   39.20    3.30
   8  -2 -14   -0.60    1.70
  -8  -2  14    0.40    2.20
  -8  -2  14   -1.50    1.90
   8   2 -14    1.80    1.60
  -8   2  14    1.80    2.40
  -7  -2  14   24.30    3.30
  -7  -2  14   26.30    3.70
   7  -2 -14   27.00    3.10
   7   2 -14   25.90    2.40
  -7   2  14   27.90    4.10
  -7   2  14   23.50    3.60
   6  -2 -14  143.79    7.20
  -6  -2  14  160.68    8.20
  -6  -2  14  140.49    8.10
  -6   2  14  141.69    6.90
   6   2 -14  130.69    6.30
  -6   2  14  134.79    8.70
  -5  -2  14  391.46   17.50
  -5  -2  14  401.26   17.30
  -5   2  14  374.66   18.10
  -5   2  14  401.56   16.40
  -4  -2  14  213.18   10.80
  -4  -2  14  205.18   10.40
  -4   2  14  208.28   11.20
  -4   2  14  210.28    9.60
  -3  -2  14  114.69    6.80
  -3  -2  14  110.79    7.20
  -3   2  14  113.39    7.70
  -3   2  14  112.89    6.10
  -2  -2  14  545.55   22.70
  -2  -2  14  531.25   23.00
  -2   2  14  522.55   21.80
  -2   2  14  538.05   23.70
  -1  -2  14   92.19    6.20
  -1   2  14  107.19    5.80
   0  -2  14   20.20    3.50
   0   2  14   16.10    2.50
   1  -2  14  604.54   25.40
   1   2  14  600.14   24.60
   2  -2  14  147.29    8.40
   2   2  14  136.79    7.40
   3  -2  14   25.90    3.80
   3   2  14   20.70    3.10
   4  -2  14   88.89    6.40
   4   2  14   75.79    5.30
   5  -2  14  134.39    8.10
   5   2  14  121.99    7.10
   6  -2  14   51.29    5.50
   6   2  14   50.69    4.40
   7  -2  14    4.90    2.90
   7   2  14    2.30    2.00
   8  -2  14    1.70    2.90
   8   2  14    4.20    2.50
   9  -2  14   26.30    4.50
   9   2  14   36.30    4.50
  10  -2  14   11.20    3.70
  10   2  14    7.40    3.10
  11  -2  14    8.90    3.50
  11   2  14   13.50    3.60
  17  -3 -14    8.00    4.10
  17   3 -14    5.20    3.70
 -17   3  14    5.40    4.20
  16  -3 -14    1.80    3.90
 -16   3  14    2.60    4.30
  16   3 -14   -1.70    2.70
 -15   3  14    5.30    3.50
  15   3 -14   -1.60    2.50
  14  -3 -14   14.30    3.90
  14   3 -14    2.70    2.40
 -14   3  14    9.70    3.80
  13  -3 -14    7.40    3.70
 -13  -3  14    4.10    3.30
 -13   3  14    1.40    3.10
  13   3 -14    3.40    2.80
 -12  -3  14    0.70    2.80
  12  -3 -14   -0.90    2.70
 -12  -3  14    4.10    2.60
  12   3 -14   -0.40    2.30
 -12   3  14    6.70    3.30
  11  -3 -14   18.60    3.70
 -11  -3  14   15.50    3.10
 -11  -3  14   10.10    3.20
 -11   3  14   17.80    4.00
  11   3 -14   19.30    3.00
 -10  -3  14    7.80    2.80
 -10  -3  14    6.80    2.50
  10  -3 -14   11.00    3.00
 -10   3  14    2.80    2.80
  10   3 -14    3.60    2.00
  -9  -3  14   53.59    4.90
   9  -3 -14   49.80    4.90
  -9  -3  14   45.50    4.70
  -9   3  14   46.60    5.40
   9   3 -14   47.40    3.60
  -8  -3  14    0.60    2.10
  -8  -3  14    2.00    2.10
   8  -3 -14    4.90    2.20
  -8   3  14   -1.50    2.60
   8   3 -14   -1.20    1.40
   7  -3 -14    7.90    2.20
  -7  -3  14    6.20    2.80
  -7  -3  14    8.10    2.40
   7   3 -14    3.30    1.40
  -7   3  14    3.10    2.70
   6  -3 -14    2.50    1.90
  -6  -3  14    7.00    2.80
  -6  -3  14    0.20    2.10
   6   3 -14    3.70    1.30
  -6   3  14    2.60    2.60
  -5  -3  14    3.00    2.20
  -5  -3  14    5.90    2.60
  -5   3  14    9.10    3.00
  -5   3  14    5.50    1.70
   5   3 -14    5.00    1.20
  -4  -3  14   23.40    3.30
  -4  -3  14   23.20    3.60
  -4   3  14   22.50    3.80
  -4   3  14   25.90    2.70
  -3  -3  14   52.09    4.60
  -3  -3  14   56.09    5.20
  -3   3  14   50.09    3.70
  -3   3  14   38.10    4.90
  -2  -3  14   15.90    3.00
  -2  -3  14   18.20    3.30
  -2   3  14   16.40    3.70
  -2   3  14   18.20    2.40
  -1  -3  14    0.80    2.30
  -1  -3  14    2.00    2.30
  -1   3  14    2.80    1.70
   0  -3  14   24.60    3.80
   0   3  14   31.90    3.40
   1  -3  14   17.40    3.40
   1   3  14   18.70    2.60
   2  -3  14   44.50    4.90
   2   3  14   54.19    4.20
   3  -3  14   15.80    3.40
   3   3  14   16.80    2.80
   4  -3  14    4.80    2.80
   4   3  14   12.50    2.50
   5  -3  14   10.90    3.20
   5   3  14    5.90    2.10
   6  -3  14   24.90    4.30
   6   3  14   18.00    3.00
   7  -3  14    3.10    2.80
   7   3  14   -1.10    1.70
   8  -3  14    2.80    2.90
   8   3  14    3.30    2.30
   9  -3  14   15.70    3.80
   9   3  14   12.00    3.10
  10  -3  14    9.10    3.80
  10   3  14    8.20    2.90
  17  -4 -14    0.80    4.90
 -17   4  14   -6.50    3.60
  17   4 -14    0.00    3.70
  16  -4 -14    6.00    4.50
 -16   4  14    2.10    4.60
  16   4 -14    1.00    3.10
 -15   4  14    6.00    4.20
  15   4 -14    3.40    3.20
  14  -4 -14   19.40    4.80
 -14   4  14   13.00    4.10
  13  -4 -14   29.20    5.30
 -13   4  14   31.60    5.30
  13   4 -14   25.50    3.70
  12  -4 -14    4.70    3.40
 -12  -4  14    1.30    2.40
  12   4 -14    3.00    2.50
 -12   4  14    4.70    3.10
 -11  -4  14   23.20    3.80
  11  -4 -14   29.20    4.80
 -11  -4  14   20.30    3.80
 -11   4  14   18.00    4.10
  11   4 -14   24.10    3.20
  10  -4 -14   33.80    4.90
 -10  -4  14   37.00    4.40
 -10  -4  14   39.20    4.60
  10   4 -14   32.20    3.30
 -10   4  14   44.40    5.60
  -9  -4  14  117.89    7.50
   9  -4 -14   95.79    7.20
  -9  -4  14  119.09    7.30
   9   4 -14  115.79    5.90
  -9   4  14   97.69    8.00
  -8  -4  14  200.98   10.30
  -8  -4  14  195.58   10.50
   8  -4 -14  190.58   10.70
  -8   4  14  202.18   11.50
   8   4 -14  210.38    9.10
   7  -4 -14    2.00    2.40
  -7  -4  14   -0.20    2.00
  -7  -4  14   -0.90    2.50
   7   4 -14    0.90    1.50
  -7   4  14    0.80    2.70
  -6  -4  14  113.99    7.50
  -6  -4  14  102.59    6.50
   6  -4 -14  108.69    6.80
  -6   4  14  108.99    8.00
   6   4 -14  107.69    5.40
  -5  -4  14  158.38    8.30
  -5  -4  14  158.18    9.20
   5   4 -14  166.98    7.40
  -5   4  14  157.28    9.70
  -4  -4  14  187.38   10.10
  -4  -4  14  189.28    9.20
  -4   4  14  183.18    8.50
  -4   4  14  169.68   10.60
  -3  -4  14    6.10    2.20
  -3  -4  14    9.40    3.20
  -3   4  14    7.20    1.90
  -3   4  14    5.80    3.00
  -2  -4  14    9.10    3.20
  -2  -4  14    5.90    3.70
  -2   4  14    5.50    1.90
  -2   4  14    7.70    3.20
  -1  -4  14   74.19    5.90
  -1   4  14   65.79    4.40
   0  -4  14   99.79    7.00
   0   4  14   99.49    5.70
   1  -4  14   13.50    3.20
   1   4  14   11.80    2.40
   2  -4  14   13.70    3.60
   2   4  14   11.90    2.50
   3  -4  14   -3.50    2.30
   3   4  14    5.60    1.90
   4  -4  14   25.00    4.10
   4   4  14   21.00    2.90
   5  -4  14    5.60    3.00
   5   4  14    9.10    2.30
   6  -4  14   11.40    3.60
   6   4  14    8.50    2.30
   7  -4  14    2.40    3.00
   7   4  14    3.80    2.30
   8  -4  14    7.30    3.70
   8   4  14    1.60    2.30
   9  -4  14   11.40    4.20
   9   4  14   12.50    3.00
  10  -4  14    1.50    3.10
  10   4  14    6.10    2.90
  16  -5 -14    9.10    6.20
  16   5 -14    0.80    3.80
 -16   5  14    9.80    5.00
  15  -5 -14    1.90    4.80
 -15   5  14   -1.90    3.70
  15   5 -14   -3.60    3.10
 -14   5  14    2.10    3.30
  14   5 -14    0.20    2.50
  13  -5 -14    0.10    3.70
  13   5 -14   -2.70    2.20
 -13   5  14    1.10    3.50
 -12  -5  14   10.00    3.40
  12  -5 -14   11.90    4.60
  12   5 -14    8.60    2.70
 -12   5  14   14.30    4.20
  11  -5 -14   15.20    4.50
 -11  -5  14    8.10    3.20
  11   5 -14    7.30    2.50
 -11   5  14    4.80    3.70
  10  -5 -14   14.00    4.10
 -10  -5  14   16.70    3.50
  10   5 -14   15.40    2.80
 -10   5  14   12.30    3.70
  -9  -5  14   28.90    4.40
   9  -5 -14   20.30    4.20
   9   5 -14   22.50    3.00
  -9   5  14   29.90    4.80
  -8  -5  14   10.90    3.20
   8  -5 -14   10.30    3.50
  -8   5  14   13.20    3.90
   8   5 -14   12.60    2.40
   7  -5 -14   32.10    4.40
  -7  -5  14   37.00    4.90
   7   5 -14   27.20    3.00
  -7   5  14   31.70    4.80
   6  -5 -14   11.10    3.00
  -6  -5  14   22.20    4.20
   6   5 -14   16.00    2.40
  -6   5  14   17.30    3.80
  -5  -5  14   22.60    3.90
   5   5 -14   25.30    2.70
  -5   5  14   17.90    4.00
  -4  -5  14   13.90    3.70
  -4   5  14   12.30    3.60
  -3  -5  14   11.20    3.50
  -3   5  14   14.80    3.80
  -3   5  14   10.30    2.10
  -2  -5  14   69.59    5.90
  -2   5  14   70.59    4.40
  -2   5  14   48.40    6.00
  -1  -5  14   72.59    6.20
  -1   5  14   71.99    4.60
   0  -5  14   27.90    4.50
   0   5  14   28.00    3.10
   1  -5  14   29.70    4.40
   1   5  14   27.70    3.10
   2  -5  14   22.20    4.20
   2   5  14   28.60    3.30
   3  -5  14   14.30    3.90
   3   5  14    8.60    2.50
   4  -5  14   -1.10    2.60
   4   5  14    3.50    2.10
   5  -5  14    9.30    3.40
   5   5  14   11.40    2.70
   6  -5  14    7.10    3.50
   6   5  14    3.50    2.10
   7  -5  14    9.80    3.80
   7   5  14    5.50    2.60
   8  -5  14    1.70    3.00
   8   5  14   -1.60    2.00
   9  -5  14    1.90    3.30
   9   5  14    3.70    2.70
  15  -6 -14    2.00    5.80
  15   6 -14   -3.40    3.20
 -15   6  14   -2.60    3.70
 -14   6  14    6.70    4.20
  14   6 -14    0.40    3.00
  13  -6 -14    6.10    5.70
 -13   6  14    6.70    4.10
  12  -6 -14   11.40    5.50
  12   6 -14   10.10    3.20
 -12   6  14    3.60    3.40
  11  -6 -14   17.00    5.60
 -11  -6  14   17.80    4.10
  11   6 -14   19.80    3.30
 -11   6  14   17.70    4.20
  10  -6 -14   20.70    5.40
 -10  -6  14   10.20    3.70
  10   6 -14   12.00    2.60
 -10   6  14   11.60    3.80
   9  -6 -14   63.99    7.30
  -9  -6  14   61.09    6.40
  -9   6  14   52.29    6.40
   9   6 -14   57.79    4.80
   8  -6 -14   20.40    4.60
  -8  -6  14   22.50    4.20
  -8   6  14   18.40    4.40
   8   6 -14   26.70    3.30
   7  -6 -14   10.00    3.80
  -7  -6  14   17.70    3.90
  -7   6  14   11.70    3.60
   7   6 -14   11.60    2.60
   6  -6 -14    2.20    2.80
  -6  -6  14    1.30    2.90
  -6   6  14    4.70    2.90
   6   6 -14    2.60    2.10
  -5  -6  14   15.00    3.70
   5   6 -14   18.20    2.80
  -5   6  14   10.80    3.70
  -4  -6  14   14.30    4.00
  -4   6  14   10.40    3.60
  -3  -6  14   53.89    5.90
  -3   6  14   38.20    5.70
  -2  -6  14   20.20    4.10
  -2   6  14   11.50    4.20
  -2   6  14   18.80    2.60
  -1  -6  14   25.80    4.50
  -1   6  14   30.00    5.20
  -1   6  14   30.00    3.10
   0  -6  14   59.49    6.30
   0   6  14   51.19    4.30
   1  -6  14   33.90    4.90
   1   6  14   36.60    3.60
   2  -6  14   13.80    3.70
   2   6  14   11.90    2.40
   3  -6  14    3.60    3.00
   3   6  14   -2.30    1.90
   4  -6  14    8.70    3.80
   4   6  14   12.40    2.80
   5  -6  14   21.80    4.40
   5   6  14   15.30    2.90
   6  -6  14   11.70    4.20
   6   6  14    7.10    2.70
   7  -6  14    4.50    3.70
   7   6  14   -1.30    2.40
   8  -6  14    4.10    3.80
   8   6  14    3.40    2.70
 -13   7  14   -0.30    3.10
  13   7 -14    4.10    3.10
  12  -7 -14    6.70    6.50
 -12   7  14    1.30    3.70
  12   7 -14   -1.00    2.20
  11  -7 -14    4.50    5.70
 -11  -7  14    3.20    3.20
 -11   7  14    5.70    4.00
  11   7 -14    5.50    3.00
 -10  -7  14    0.10    3.20
  10  -7 -14    5.90    5.40
 -10   7  14    4.50    3.80
  10   7 -14    3.80    2.70
   9  -7 -14   -1.30    4.30
  -9  -7  14    2.80    3.30
  -9   7  14    0.10    3.30
   9   7 -14    0.90    2.50
   8  -7 -14    8.30    4.80
  -8  -7  14    4.20    3.30
   8   7 -14    3.20    2.70
  -8   7  14    2.80    3.30
   7  -7 -14    6.90    4.20
  -7  -7  14    3.70    3.30
  -7   7  14    1.90    3.20
   7   7 -14    5.50    2.80
   6  -7 -14   46.40    9.90
  -6  -7  14   39.10    5.70
   6   7 -14   43.70    4.50
  -6   7  14   34.20    5.30
  -5  -7  14    2.50    3.10
  -5   7  14   -0.10    2.80
   5   7 -14   -2.40    2.30
  -4  -7  14    5.50    3.30
  -4   7  14    3.60    3.40
  -3  -7  14   18.20    4.50
  -3   7  14   16.70    4.30
  -2  -7  14    7.20    3.30
  -2   7  14    4.10    3.50
  -1  -7  14   24.40    4.60
  -1   7  14   26.90    5.20
   0  -7  14    2.90    3.20
   0   7  14    4.20    2.10
   0   7  14    6.70    3.90
   1  -7  14   17.80    4.20
   1   7  14   13.10    2.70
   2  -7  14   10.50    3.80
   2   7  14   18.90    2.80
   3  -7  14   10.30    3.80
   3   7  14   10.00    2.80
   4  -7  14   16.10    4.30
   4   7  14   14.70    3.00
   5  -7  14   10.40    4.10
   5   7  14    7.70    2.90
   6  -7  14    6.90    3.80
   6   7  14    8.90    3.00
   7   7  14    4.30    2.80
  11  -8 -14   -0.60    6.20
 -11   8  14   -0.70    2.90
  11   8 -14    2.00    3.20
 -10  -8  14    6.20    3.90
  10  -8 -14   14.10    7.20
 -10   8  14    7.40    3.90
  10   8 -14   14.60    3.90
  -9  -8  14    6.50    3.70
   9  -8 -14   14.90    6.80
  -9   8  14    4.70    3.70
   9   8 -14   11.30    3.70
  -8  -8  14    9.90    3.80
   8  -8 -14   15.70    6.50
  -8   8  14   12.70    4.00
   8   8 -14   15.50    3.90
  -7  -8  14   13.10    4.30
   7  -8 -14   10.90    5.70
  -7   8  14    6.10    3.70
   7   8 -14    7.70    3.40
  -6  -8  14    0.20    3.60
   6   8 -14    3.70    3.00
  -6   8  14    1.10    3.20
  -5  -8  14   -1.60    3.00
  -5   8  14   -4.10    2.50
   5   8 -14    5.80    3.30
  -4  -8  14   16.90    4.70
  -4   8  14   18.00    4.50
  -3  -8  14   37.00    5.60
  -3   8  14   44.10    6.10
  -2  -8  14   13.50    4.10
  -2   8  14   11.40    3.80
  -1  -8  14    4.20    3.80
  -1   8  14    5.10    3.80
   0  -8  14   14.40    4.20
   0   8  14   19.10    4.80
   1  -8  14   26.40    5.10
   1   8  14   27.70    3.50
   2  -8  14   13.20    4.50
   2   8  14    7.60    2.70
   3  -8  14    6.20    3.70
   3   8  14    3.70    2.50
   4  -8  14   12.80    4.30
   4   8  14    3.00    2.70
   5  -8  14    8.00    4.30
   5   8  14    4.40    2.80
  -8  -9  14    0.70    3.50
   8  -9 -14    4.30    7.50
   8   9 -14    0.90    3.40
  -7  -9  14   -1.10    3.20
   7   9 -14    0.30    3.30
  -6  -9  14    4.00    3.80
   6   9 -14    1.50    3.40
  -6   9  14   -0.20    4.30
  -5  -9  14    6.20    4.10
  -5   9  14    3.00    3.40
  -4  -9  14    0.70    3.70
  -4   9  14   -0.40    3.10
  -3  -9  14    1.10    3.60
  -3   9  14   -0.90    3.40
  -2  -9  14   11.80    4.20
  -2   9  14    2.10    3.80
  -1  -9  14    5.00    3.70
  -1   9  14    6.00    3.70
   0  -9  14    8.10    4.10
   0   9  14    7.70    4.10
   1  -9  14    9.40    4.20
   1   9  14    6.40    4.20
   2   9  14    5.40    4.10
  18   0 -15   10.10    3.50
  17   0 -15    5.30    2.90
 -16   0  15    4.50    3.90
  15   0 -15   10.30    3.10
 -15   0  15    7.50    3.80
 -14   0  15    1.20    3.20
  14   0 -15    9.20    2.80
  13   0 -15    5.20    2.50
 -13   0  15   -1.20    3.10
  12   0 -15    3.70    2.10
 -12   0  15    7.50    3.40
  11   0 -15    2.80    1.90
 -11   0  15    0.30    2.50
  10   0 -15    9.80    2.10
 -10   0  15    5.70    3.20
  -9   0  15   12.90    2.50
  -9   0  15   12.80    3.10
   9   0 -15   11.00    2.00
  -8   0  15    5.40    2.00
   8   0 -15    2.50    1.50
  -8   0  15    3.20    2.50
  -7   0  15   17.60    2.80
  -7   0  15   13.80    3.30
  -6   0  15   -1.60    2.40
  -6   0  15   -0.20    1.70
  -5   0  15    2.00    2.10
  -5   0  15    1.60    2.50
  -4   0  15   40.20    4.90
  -4   0  15   30.80    3.70
  -3   0  15    6.50    2.50
  -3   0  15    8.40    3.30
  -2   0  15    0.10    2.60
  -2   0  15    1.50    2.20
  -1   0  15    1.00    2.00
   0   0  15   -0.60    1.80
   1   0  15    2.00    2.40
   2   0  15   16.60    3.20
   3   0  15    1.60    2.30
   4   0  15    0.50    2.00
   5   0  15   -1.00    2.00
   6   0  15    2.00    2.40
   7   0  15    2.10    2.40
   8   0  15    2.50    2.80
   9   0  15   16.30    3.70
  10   0  15    2.40    3.00
  18  -1 -15    6.00    3.90
  18   1 -15    6.00    3.30
  17  -1 -15    4.40    3.00
 -17   1  15   -6.20    3.40
  17   1 -15    2.30    2.50
 -16   1  15   -4.40    3.90
  15  -1 -15   34.70    4.90
 -15  -1  15   28.90    5.70
 -15   1  15   38.00    6.00
  15   1 -15   40.40    4.60
 -14  -1  15    8.70    3.60
  14  -1 -15    6.10    2.90
 -14   1  15    1.90    3.20
  14   1 -15   11.80    3.00
 -13  -1  15    3.60    3.20
  13  -1 -15    7.10    2.60
  13   1 -15    5.00    2.60
 -13   1  15    2.80    3.40
 -12  -1  15    2.20    2.70
  12  -1 -15    5.70    2.50
  12   1 -15    4.40    2.20
 -12   1  15    7.20    3.50
  11  -1 -15   16.30    2.90
 -11  -1  15   17.10    3.70
  11   1 -15   17.60    2.70
 -11   1  15   13.80    3.70
 -10  -1  15   41.20    5.00
 -10  -1  15   43.90    4.10
  10  -1 -15   58.29    4.40
 -10   1  15   46.80    5.50
  10   1 -15   44.00    3.70
   9  -1 -15   27.80    3.10
  -9  -1  15   16.10    3.40
  -9  -1  15   18.20    3.00
   9   1 -15   22.20    2.60
  -9   1  15   20.80    3.90
  -8  -1  15   12.60    2.60
   8  -1 -15   14.10    2.40
   8   1 -15   13.70    2.10
  -8   1  15   11.50    3.20
  -7  -1  15   95.19    6.00
  -7   1  15   93.59    5.50
  -7   1  15   94.79    6.90
  -6  -1  15  147.49    7.80
  -6   1  15  133.09    7.20
  -6   1  15  139.29    8.60
  -5  -1  15  213.88   11.40
  -5  -1  15  227.18   10.90
  -5   1  15  226.28   10.40
  -5   1  15  219.58   11.90
  -4  -1  15  291.27   13.50
  -4  -1  15  295.47   14.20
  -4   1  15  282.27   14.40
  -4   1  15  291.17   13.00
  -3  -1  15  177.38    9.60
  -3  -1  15  202.58   10.70
  -3   1  15  191.88   10.80
  -3   1  15  188.68    9.30
  -2  -1  15  810.82   33.70
  -2  -1  15  848.42   34.80
  -2   1  15  819.92   33.40
  -2   1  15  860.11   35.20
  -1  -1  15  200.58   10.20
  -1   1  15  201.08    9.90
   0  -1  15  146.89    8.10
   0   1  15  128.59    7.40
   1  -1  15   30.50    4.20
   1   1  15   27.90    3.70
   2  -1  15  421.26   18.70
   2   1  15  423.56   18.30
   3  -1  15   66.79    5.30
   3   1  15   60.99    5.10
   4  -1  15   23.80    3.60
   4   1  15   23.40    3.60
   5  -1  15    7.40    2.70
   5   1  15    3.40    2.20
   6  -1  15   26.20    4.10
   6   1  15   34.60    4.20
   7  -1  15   25.50    4.10
   7   1  15   26.40    4.10
   8  -1  15   30.40    4.70
   8   1  15   41.50    5.10
   9  -1  15   25.50    4.70
   9   1  15   24.80    4.00
  10  -1  15    3.50    3.30
  10   1  15   10.10    3.40
  17  -2 -15    3.20    3.70
  17   2 -15    3.70    3.00
 -17   2  15  -10.90    3.70
  16   2 -15    3.00    1.10
 -16   2  15    1.00    4.30
  15  -2 -15    3.90    3.10
  15   2 -15    0.90    2.50
 -15   2  15    1.70    4.00
 -14  -2  15    2.10    3.50
  14  -2 -15    7.90    3.50
  14   2 -15    3.20    2.40
 -14   2  15    3.30    3.30
 -13  -2  15    3.00    1.80
  13  -2 -15   14.40    3.60
  13   2 -15    3.80    2.60
 -13   2  15    5.80    3.90
  12  -2 -15    5.60    2.70
 -12  -2  15    2.80    2.40
 -12   2  15    3.30    3.30
  12   2 -15    1.30    2.30
 -11  -2  15    3.50    2.60
  11  -2 -15    9.70    2.80
 -11  -2  15    4.50    2.40
 -11   2  15    7.70    3.30
  11   2 -15    5.50    2.30
  10  -2 -15    8.00    2.60
 -10  -2  15    9.80    2.60
 -10  -2  15   11.40    3.30
  10   2 -15    7.60    2.20
 -10   2  15    5.00    3.20
  -9  -2  15    5.20    2.90
   9  -2 -15    4.40    2.10
  -9  -2  15    2.30    2.30
  -9   2  15    1.60    2.90
   9   2 -15    2.70    1.80
  -8  -2  15   39.20    4.20
   8  -2 -15   38.80    4.00
  -8  -2  15   42.70    4.70
  -8   2  15   36.60    4.70
   8   2 -15   35.00    3.20
  -7  -2  15    1.30    2.30
  -7  -2  15    4.30    2.70
  -7   2  15    6.80    3.00
  -6  -2  15    4.00    2.30
  -6  -2  15    3.70    2.20
  -6   2  15    2.00    1.70
  -6   2  15    2.80    2.60
  -5  -2  15   15.80    3.00
  -5  -2  15   14.50    3.10
  -5   2  15   15.00    2.40
  -5   2  15   16.90    3.80
  -4  -2  15   18.50    3.40
  -4  -2  15   20.40    3.60
  -4   2  15   19.50    2.80
  -4   2  15   16.70    3.70
  -3  -2  15   38.10    4.50
  -3  -2  15   27.40    4.10
  -3   2  15   36.80    4.90
  -3   2  15   36.30    3.60
  -2  -2  15    4.00    2.30
  -2  -2  15    7.00    2.80
  -2   2  15    9.60    2.30
  -2   2  15   10.60    3.30
  -1  -2  15    7.50    2.90
  -1  -2  15    9.70    3.20
  -1   2  15    5.40    2.20
   0  -2  15   40.00    4.70
   0   2  15   31.70    3.70
   1  -2  15    9.80    3.20
   1   2  15    9.70    2.60
   2  -2  15    5.50    2.50
   2   2  15    9.20    2.60
   3  -2  15   16.70    3.50
   3   2  15   12.00    2.60
   4  -2  15    5.50    2.90
   4   2  15    2.40    2.30
   5  -2  15    1.80    2.60
   5   2  15    1.70    2.20
   6  -2  15    5.90    2.80
   6   2  15    3.00    2.20
   7  -2  15    2.50    2.80
   7   2  15    4.50    2.40
   8  -2  15    1.10    2.70
   8   2  15    4.40    2.50
   9  -2  15   11.10    4.00
   9   2  15    5.00    2.90
  10  -2  15    2.60    3.50
  10   2  15    2.20    2.90
  17  -3 -15   10.90    4.90
  17   3 -15    6.90    3.70
 -17   3  15    5.10    4.40
  16   3 -15    1.10    2.40
 -16   3  15    1.30    3.80
  15  -3 -15    6.40    4.10
  15   3 -15   -7.20    2.70
 -15   3  15    1.70    3.60
  14  -3 -15    3.60    3.60
 -14   3  15    2.30    3.80
  14   3 -15    2.10    2.80
 -13  -3  15    1.30    3.10
  13  -3 -15    1.30    3.10
 -13   3  15    8.00    3.60
  13   3 -15    0.80    2.60
  12  -3 -15    9.20    3.20
 -12  -3  15   11.00    3.40
 -12  -3  15   11.40    3.00
 -12   3  15    3.30    3.10
  12   3 -15    7.20    2.70
 -11  -3  15   43.80    4.70
  11  -3 -15   45.20    5.10
 -11  -3  15   42.90    5.10
 -11   3  15   39.20    5.60
  11   3 -15   33.40    3.60
  10  -3 -15    6.90    2.70
 -10  -3  15    6.00    2.80
 -10  -3  15    4.30    2.80
 -10   3  15    4.20    3.10
  10   3 -15    4.70    2.20
  -9  -3  15   24.90    3.80
   9  -3 -15   18.80    3.40
  -9  -3  15   24.70    3.80
   9   3 -15   20.20    2.60
  -9   3  15   17.80    3.90
  -8  -3  15   50.89    5.10
  -8  -3  15   55.89    5.10
   8  -3 -15   40.40    4.50
  -8   3  15   44.20    5.30
   8   3 -15   42.20    3.30
  -7  -3  15   74.49    5.90
  -7  -3  15   76.59    5.60
   7   3 -15   60.29    5.20
  -7   3  15   61.69    6.20
  -6  -3  15  135.09    8.00
  -6  -3  15  116.69    7.40
  -6   3  15  125.59    8.60
  -5  -3  15   46.70    4.70
  -5  -3  15   47.60    5.10
  -5   3  15   42.90    5.30
  -5   3  15   48.60    3.70
  -4  -3  15  133.09    7.90
  -4  -3  15  143.19    8.30
  -4   3  15  140.09    7.00
  -4   3  15  134.89    8.90
  -3  -3  15   71.89    5.80
  -3  -3  15   61.79    5.20
  -3   3  15   50.99    6.00
  -3   3  15   62.09    4.30
  -2  -3  15    9.50    2.70
  -2  -3  15    8.00    3.00
  -2   3  15   10.50    3.30
  -2   3  15    5.30    2.00
  -1  -3  15  139.89    8.20
  -1  -3  15  128.99    8.10
  -1   3  15  133.09    7.10
   0  -3  15   69.49    5.90
   0   3  15   66.59    4.60
   1  -3  15  108.99    7.70
   1   3  15  122.19    6.70
   2  -3  15    6.10    2.80
   2   3  15    7.10    2.10
   3  -3  15   26.70    4.20
   3   3  15   23.30    3.10
   4  -3  15   36.50    4.90
   4   3  15   32.70    3.80
   5  -3  15   29.20    4.70
   5   3  15   21.60    3.20
   6  -3  15    9.60    3.40
   6   3  15    5.30    2.30
   7  -3  15   16.80    3.90
   7   3  15   16.00    3.10
   8  -3  15   18.00    4.00
   8   3  15   19.80    3.60
   9  -3  15    5.50    3.20
   9   3  15    0.30    2.50
  10  -3  15   -1.50    2.70
  10   3  15    3.80    2.90
 -16   4  15    3.50    4.10
  16   4 -15   -2.80    3.30
  15  -4 -15    0.10    4.00
  15   4 -15   -3.60    1.80
 -15   4  15   -1.60    3.40
  14  -4 -15    0.80    4.00
 -14   4  15    1.30    3.80
  14   4 -15   -0.80    2.70
  13  -4 -15    2.30    3.60
 -13   4  15    5.10    3.40
  13   4 -15   -2.50    2.50
 -12  -4  15    5.10    3.00
 -12  -4  15   -0.40    2.60
  12  -4 -15    3.40    3.20
  12   4 -15    2.90    2.60
 -12   4  15   -2.20    2.80
 -11  -4  15    0.50    2.60
 -11  -4  15    6.20    2.90
  11  -4 -15    4.30    3.00
  11   4 -15   -0.70    2.10
 -11   4  15   -5.30    2.50
 -10  -4  15   14.30    3.50
  10  -4 -15   11.20    3.20
 -10  -4  15    6.40    2.90
 -10   4  15    4.70    3.50
  10   4 -15    7.30    2.20
  -9  -4  15   26.10    3.80
  -9  -4  15   18.80    3.80
   9  -4 -15   18.40    3.80
   9   4 -15   23.90    2.80
  -9   4  15   18.40    4.10
  -8  -4  15   30.90    3.90
  -8  -4  15   29.60    4.40
   8  -4 -15   24.50    4.40
  -8   4  15   20.20    4.10
   8   4 -15   27.00    2.70
  -7  -4  15    5.10    3.20
  -7  -4  15   12.10    2.80
  -7   4  15    3.50    2.90
   7   4 -15    4.70    1.90
  -6  -4  15   10.00    3.00
  -6  -4  15   16.00    3.30
  -6   4  15   10.00    3.50
  -5  -4  15    4.40    2.80
  -5   4  15    7.90    3.40
  -4  -4  15   49.50    5.30
  -4   4  15   49.90    3.70
  -4   4  15   42.70    5.40
  -3  -4  15   31.10    4.30
  -3   4  15   20.30    4.30
  -3   4  15   23.80    2.80
  -2  -4  15  133.69    8.20
  -2   4  15  112.89    8.30
  -2   4  15  110.99    6.30
  -1  -4  15   53.39    5.50
  -1   4  15   49.00    4.00
   0  -4  15   28.20    4.20
   0   4  15   23.30    3.10
   1  -4  15    1.50    2.50
   1   4  15    2.70    2.00
   2  -4  15   16.20    3.70
   2   4  15   12.00    2.40
   3  -4  15   26.30    4.20
   3   4  15   27.60    3.50
   4  -4  15    4.90    2.90
   4   4  15    3.70    2.10
   5  -4  15   20.50    4.10
   5   4  15   21.00    3.30
   6  -4  15    2.80    2.90
   6   4  15   -1.00    2.10
   7  -4  15    2.00    2.90
   7   4  15    5.30    2.40
   8  -4  15    3.30    3.20
   8   4  15    3.90    2.40
   9  -4  15   -3.00    2.60
   9   4  15   -0.60    2.30
  15  -5 -15    5.40    4.70
 -15   5  15    3.60    3.80
  14  -5 -15    3.60    4.20
 -14   5  15    4.80    3.70
  14   5 -15   -0.70    3.10
  13  -5 -15    6.60    4.70
 -13   5  15   -4.30    3.40
  13   5 -15   -3.60    2.70
  12  -5 -15    7.80    4.20
 -12  -5  15   -1.00    2.70
  12   5 -15    7.40    2.70
 -12   5  15    8.90    4.20
  11  -5 -15   49.00    6.50
 -11  -5  15   36.90    4.80
  11   5 -15   38.30    3.80
 -11   5  15   51.09    6.30
 -10  -5  15   10.00    3.60
  10  -5 -15   21.00    4.60
  10   5 -15   14.00    2.70
 -10   5  15   14.10    4.10
   9  -5 -15    9.00    3.40
  -9  -5  15    6.50    3.10
  -9   5  15    7.20    3.40
   9   5 -15    4.30    2.00
  -8  -5  15   22.70    4.30
   8   5 -15   23.60    2.80
  -8   5  15   23.00    4.30
  -7  -5  15   60.69    6.20
   7   5 -15   55.49    4.60
  -7   5  15   47.10    6.10
  -6  -5  15   18.20    3.90
  -6   5  15   17.20    3.90
  -5  -5  15   29.00    4.60
  -5   5  15   17.50    4.20
  -4  -5  15    1.60    3.10
  -4   5  15    1.60    3.40
  -3  -5  15   19.50    3.90
  -3   5  15   20.70    4.00
  -3   5  15   15.70    4.00
  -2  -5  15   14.10    3.50
  -2   5  15   16.00    2.50
  -2   5  15   10.80    3.70
  -1  -5  15    3.50    2.90
  -1   5  15    3.90    1.90
   0  -5  15   16.00    3.70
   0   5  15   15.50    2.60
   1  -5  15    2.30    2.70
   1   5  15    4.90    2.10
   2  -5  15   31.50    4.70
   2   5  15   25.10    3.40
   3  -5  15   47.00    5.90
   3   5  15   41.80    4.20
   4  -5  15   10.90    3.60
   4   5  15   15.60    2.80
   5  -5  15    1.90    3.20
   5   5  15    3.50    2.10
   6  -5  15   18.20    4.60
   6   5  15   11.30    3.00
   7  -5  15    5.00    3.80
   7   5  15    4.90    2.50
   8  -5  15   12.00    3.90
   8   5  15    7.10    2.80
  14  -6 -15    0.30    5.50
  14   6 -15   -6.00    2.40
 -14   6  15   -1.60    3.30
  13  -6 -15    1.00    5.20
  13   6 -15   -4.80    2.70
 -13   6  15    1.60    3.90
  12  -6 -15    8.00    5.10
 -12  -6  15   -3.40    3.10
  12   6 -15   -0.60    2.70
 -12   6  15   -2.70    2.90
  11  -6 -15    4.50    4.50
 -11  -6  15    1.00    3.30
 -11   6  15    7.00    3.60
  11   6 -15    3.30    2.60
  10  -6 -15    6.90    4.60
 -10  -6  15   12.80    3.60
  10   6 -15    7.50    2.70
 -10   6  15   11.40    3.80
   9  -6 -15   15.60    4.60
  -9  -6  15   21.20    4.50
   9   6 -15   13.60    2.80
  -9   6  15    9.60    3.60
  -8  -6  15   10.50    3.50
  -8   6  15    8.30    4.00
   8   6 -15    9.90    2.50
  -7  -6  15   11.60    3.90
   7   6 -15   11.40    3.70
  -7   6  15   11.90    3.70
  -6  -6  15   15.50    4.20
  -6   6  15   12.80    4.10
  -5  -6  15   11.40    3.70
  -5   6  15   14.20    4.10
  -4  -6  15   12.30    3.80
  -4   6  15    8.40    3.60
  -3  -6  15    5.50    3.50
  -3   6  15    7.70    3.80
  -2  -6  15   21.50    4.50
  -2   6  15   20.50    4.40
  -1  -6  15   15.90    4.30
  -1   6  15   12.40    2.50
  -1   6  15    9.00    4.00
   0  -6  15   11.20    3.90
   0   6  15    3.20    2.00
   1  -6  15   45.90    5.70
   1   6  15   35.00    3.70
   2  -6  15   17.50    4.10
   2   6  15   14.20    2.90
   3  -6  15    6.50    3.70
   3   6  15    9.30    2.60
   4  -6  15   13.90    4.30
   4   6  15    8.10    2.70
   5  -6  15    5.60    3.60
   5   6  15    0.60    2.30
   6  -6  15   17.40    4.80
   6   6  15   19.20    3.60
   7  -6  15    6.50    4.00
   7   6  15    7.50    2.90
  13  -7 -15   -5.50    5.50
  13   7 -15   -6.80    2.90
  12  -7 -15   17.90    7.00
 -12   7  15    5.60    3.60
  12   7 -15    2.60    2.70
  11  -7 -15   12.00    6.20
 -11  -7  15   17.00    4.50
  11   7 -15   14.80    3.50
 -11   7  15   14.30    4.40
 -10  -7  15    8.20    4.00
  10  -7 -15   12.40    5.90
 -10   7  15   10.80    4.10
  10   7 -15    8.00    3.00
   9  -7 -15    4.60    7.80
  -9  -7  15    2.90    3.50
   9   7 -15    4.80    2.80
  -9   7  15   -0.10    3.50
  -8  -7  15    0.20    3.10
  -8   7  15    1.90    3.40
   8   7 -15    3.00    2.70
  -7  -7  15   28.00    5.30
  -7   7  15   26.70    5.00
  -6  -7  15   22.00    4.60
  -6   7  15   26.20    4.60
  -5  -7  15   20.90    4.50
  -5   7  15   19.20    4.30
  -4  -7  15   -1.30    2.90
  -4   7  15    4.40    3.30
  -3  -7  15   26.60    5.00
  -3   7  15   18.40    4.50
  -2  -7  15   28.80    4.90
  -2   7  15   23.00    5.10
  -1  -7  15   43.20    6.00
  -1   7  15   39.90    6.10
   0  -7  15    5.90    3.50
   0   7  15    4.60    4.10
   0   7  15    5.20    2.40
   1  -7  15    9.90    4.10
   1   7  15    6.30    2.40
   2  -7  15   22.10    4.80
   2   7  15   20.90    3.30
   3  -7  15   13.40    4.50
   3   7  15   10.30    2.80
   4  -7  15   11.20    4.40
   4   7  15   11.10    3.00
   5  -7  15    6.50    3.80
   5   7  15    3.00    2.70
  10  -8 -15   -0.70    9.60
 -10  -8  15    2.70    3.80
  10   8 -15    0.80    3.10
 -10   8  15   -4.20    3.50
  -9  -8  15   -0.10    3.60
  -9   8  15    2.30    3.70
   9   8 -15    3.10    3.10
  -8  -8  15   10.40    4.10
  -8   8  15    7.40    3.90
   8   8 -15    5.80    3.30
  -7  -8  15    8.80    3.90
  -7   8  15   15.10    4.30
  -6  -8  15   -0.90    3.00
  -6   8  15    3.10    3.70
  -5  -8  15    6.80    4.10
  -5   8  15    3.80    3.60
  -4  -8  15   14.10    4.20
  -4   8  15   10.70    3.90
  -3  -8  15    5.00    3.60
  -3   8  15    1.00    3.60
  -2  -8  15    2.40    3.90
  -2   8  15    3.40    3.30
  -1  -8  15    5.60    3.80
  -1   8  15    6.60    3.80
   0  -8  15   20.30    5.00
   0   8  15   13.90    4.90
   1  -8  15    9.80    4.10
   1   8  15   22.30    5.10
   2  -8  15    6.80    4.20
   2   8  15    2.50    2.60
   3  -8  15    4.00    3.60
   3   8  15    6.70    2.80
  -6  -9  15    3.00    4.00
  -6   9  15    2.30    3.50
  -5  -9  15    2.40    3.40
  -5   9  15    8.20    4.10
  -4  -9  15    6.60    4.30
  -4   9  15    1.60    3.70
  -3  -9  15   -1.50    3.60
  -3   9  15   -0.90    3.80
  -2  -9  15    7.10    4.00
  -2   9  15   11.90    4.60
  -1  -9  15    4.20    3.70
  -1   9  15    4.30    3.90
 -17   0  16    3.20    4.60
  16   0 -16    9.50    3.20
 -16   0  16   -3.80    3.50
  15   0 -16    3.20    2.60
 -15   0  16    1.70    3.30
 -14   0  16   -1.00    3.10
  14   0 -16    5.80    2.60
 -13   0  16   22.30    4.50
  13   0 -16   20.90    3.20
  12   0 -16    3.00    1.90
 -12   0  16   -2.60    2.90
 -11   0  16   21.00    4.20
  11   0 -16   33.30    3.60
 -10   0  16   16.20    4.00
  10   0 -16   18.10    3.20
  -9   0  16   11.20    3.30
  -8   0  16   13.40    2.50
  -8   0  16   16.50    3.70
  -7   0  16    1.20    2.40
  -7   0  16    3.80    2.10
  -6   0  16    1.80    2.40
  -6   0  16    3.00    2.10
  -5   0  16  304.07   15.40
  -5   0  16  317.67   14.20
  -4   0  16  327.17   14.90
  -4   0  16  338.87   16.30
  -3   0  16   10.00    2.60
  -3   0  16    6.40    3.10
  -2   0  16  111.09    6.90
  -2   0  16  115.39    8.20
  -1   0  16    5.10    2.30
   0   0  16  277.47   13.10
   1   0  16   31.00    4.00
   2   0  16   -0.30    2.30
   3   0  16    9.10    2.70
   4   0  16   -1.70    2.40
   5   0  16   57.49    5.80
   6   0  16   68.99    6.40
   7   0  16   18.50    4.10
   8   0  16    6.90    3.40
   9   0  16   61.79    6.60
  10   0  16   -2.00    2.90
  17  -1 -16    7.40    3.40
  17   1 -16   13.00    3.20
 -17   1  16    1.00    3.90
 -16  -1  16    1.30    4.10
  16  -1 -16    5.00    3.40
  16   1 -16   10.20    3.20
 -16   1  16    5.60    4.10
  15  -1 -16    3.90    3.00
 -15  -1  16   -1.30    3.40
 -15   1  16    3.80    3.50
  15   1 -16    7.60    2.90
  14  -1 -16    4.60    2.70
 -14  -1  16    2.50    3.20
  14   1 -16    2.50    2.40
 -14   1  16   -1.20    3.00
 -13  -1  16    4.60    3.50
  13  -1 -16    5.10    2.60
 -13   1  16    2.40    3.60
  13   1 -16    4.20    2.30
  12  -1 -16    4.90    2.30
 -12  -1  16   10.10    3.70
  12   1 -16    7.00    2.40
 -12   1  16    2.10    3.30
  11  -1 -16   18.60    3.00
 -11  -1  16   16.00    3.90
 -11   1  16   20.70    4.30
  11   1 -16   16.00    2.60
 -10  -1  16   14.00    3.50
  10   1 -16   14.20    2.80
 -10   1  16    5.80    3.20
  -9  -1  16   13.00    3.20
  -9  -1  16   10.00    2.70
  -9   1  16   14.60    3.60
  -8  -1  16    5.10    2.20
  -8  -1  16   -0.10    1.40
  -8   1  16    1.80    2.60
  -7  -1  16    1.30    1.40
  -7  -1  16    6.20    2.40
  -7   1  16    6.60    2.10
  -7   1  16    9.50    3.50
  -6  -1  16    5.10    2.60
  -6  -1  16    1.40    2.20
  -6   1  16    6.10    2.10
  -6   1  16    1.60    2.60
  -5  -1  16   23.60    3.90
  -5  -1  16   29.40    3.70
  -5   1  16   22.10    3.20
  -5   1  16   16.70    4.10
  -4  -1  16   15.10    3.20
  -4  -1  16   13.70    3.30
  -4   1  16   17.80    3.80
  -4   1  16   14.20    2.80
  -3  -1  16   20.40    3.90
  -3  -1  16   17.60    3.30
  -3   1  16   15.40    3.80
  -3   1  16   19.40    3.10
  -2  -1  16    3.70    2.30
  -2  -1  16    4.70    2.80
  -2   1  16    4.30    2.20
  -2   1  16    0.70    2.60
  -1  -1  16    5.00    2.80
  -1   1  16    6.20    2.50
   0  -1  16    5.70    2.60
   0   1  16    5.10    2.40
   1  -1  16   -0.20    2.30
   1   1  16   -2.90    2.00
   2  -1  16    1.80    2.50
   2   1  16    0.10    1.90
   3  -1  16   -2.10    2.30
   3   1  16   -0.10    2.30
   4  -1  16    0.80    2.20
   4   1  16   -0.70    2.30
   5  -1  16   -1.00    2.20
   5   1  16    5.00    2.60
   6  -1  16    0.20    2.70
   6   1  16    3.90    2.50
   7  -1  16    4.60    2.90
   7   1  16    5.80    3.00
   8  -1  16    2.60    2.90
   8   1  16    2.60    2.90
   9  -1  16    6.00    3.60
   9   1  16    5.60    3.00
  17  -2 -16    5.20    3.30
 -17   2  16    3.90    4.70
  16  -2 -16    3.90    3.70
 -16   2  16    1.30    4.00
  16   2 -16    2.00    3.20
 -15  -2  16    8.20    3.80
  15  -2 -16    9.20    3.80
 -15   2  16    7.70    4.30
  15   2 -16   11.50    3.40
 -14  -2  16   26.80    5.00
  14  -2 -16   41.50    5.30
  14   2 -16   34.40    4.10
 -14   2  16   28.60    5.20
  13  -2 -16   20.40    4.00
  13   2 -16   20.70    3.40
 -13   2  16   18.00    4.70
  12  -2 -16   16.50    3.40
 -12  -2  16    9.00    3.70
 -12   2  16   12.20    4.10
  12   2 -16   13.30    2.70
 -11  -2  16    8.50    3.40
 -11  -2  16    6.50    2.70
  11  -2 -16    8.90    2.70
  11   2 -16    5.20    2.30
 -11   2  16    3.10    3.50
 -10  -2  16    6.50    2.70
 -10  -2  16    8.00    3.00
 -10   2  16    6.80    3.30
  10   2 -16   10.20    2.40
  -9  -2  16   14.80    3.00
  -9  -2  16   14.80    3.30
  -9   2  16   15.40    3.70
  -8  -2  16   65.39    5.30
  -8  -2  16   65.19    5.80
  -8   2  16   52.99    6.10
  -7  -2  16   49.99    5.10
  -7  -2  16   48.20    4.70
  -7   2  16   55.69    5.90
  -6  -2  16   34.50    4.40
  -6  -2  16   38.00    4.30
  -6   2  16   38.40    5.10
  -6   2  16   44.20    3.70
  -5  -2  16   62.99    5.70
  -5  -2  16   67.39    5.60
  -5   2  16   66.19    4.70
  -5   2  16   58.19    6.30
  -4  -2  16  211.98   11.30
  -4  -2  16  215.18   10.90
  -4   2  16  213.18   10.10
  -4   2  16  204.88   11.70
  -3  -2  16  101.59    7.10
  -3  -2  16   91.09    6.40
  -3   2  16   88.59    7.30
  -3   2  16   91.29    5.70
  -2  -2  16  177.38   10.00
  -2  -2  16  170.68    9.50
  -2   2  16  167.18   10.70
  -2   2  16  178.18    8.90
  -1  -2  16   37.00    4.50
  -1  -2  16   40.80    5.00
  -1   2  16   43.00    4.20
   0  -2  16   21.70    3.80
   0   2  16   14.80    2.80
   1  -2  16   21.60    3.70
   1   2  16   22.50    3.20
   2  -2  16   22.00    3.70
   2   2  16   24.30    3.30
   3  -2  16   30.10    4.50
   3   2  16   29.80    3.70
   4  -2  16   24.60    4.00
   4   2  16   23.40    3.50
   5  -2  16   51.89    5.90
   5   2  16   50.29    5.00
   6  -2  16    3.50    3.10
   6   2  16   11.50    3.20
   7  -2  16    1.40    3.10
   7   2  16    1.30    2.40
   8  -2  16    5.90    3.60
   8   2  16   12.30    3.50
   9  -2  16    6.50    3.40
   9   2  16    8.50    3.20
  16  -3 -16    1.00    4.20
 -16   3  16    4.00    3.90
  16   3 -16    2.30    3.30
  15  -3 -16    9.60    4.50
  15   3 -16   -1.50    3.00
 -15   3  16    8.00    4.10
  14  -3 -16    3.00    3.70
 -14  -3  16    4.70    3.50
 -14   3  16    0.80    3.70
  14   3 -16    3.90    2.90
  13  -3 -16    2.50    3.20
 -13  -3  16    5.00    3.30
  13   3 -16   -0.40    2.50
 -13   3  16    1.70    3.20
 -12  -3  16   -0.90    2.80
  12  -3 -16    3.30    2.80
 -12  -3  16    2.60    2.70
  12   3 -16    2.90    2.50
 -12   3  16    1.20    3.10
  11  -3 -16    6.60    2.90
 -11  -3  16    9.00    3.00
 -11  -3  16    1.90    2.90
 -11   3  16    4.50    3.10
  11   3 -16    0.20    2.20
 -10  -3  16   10.60    3.00
 -10  -3  16    9.50    3.20
  10   3 -16    5.90    2.30
 -10   3  16    7.70    3.60
  -9  -3  16   24.40    3.80
  -9  -3  16   30.00    4.10
  -9   3  16   26.30    4.40
  -8  -3  16   26.80    3.90
  -8  -3  16   25.40    4.00
  -8   3  16   27.50    4.50
  -7  -3  16   -2.50    2.40
  -7  -3  16    2.60    2.30
  -7   3  16    1.20    3.00
  -6  -3  16   39.00    4.70
  -6  -3  16   25.10    3.70
  -6   3  16   24.20    4.50
  -5  -3  16    4.30    2.60
  -5  -3  16    5.30    2.50
  -5   3  16   10.40    3.40
  -5   3  16    8.50    2.60
  -4  -3  16    4.60    2.50
  -4  -3  16    2.10    2.50
  -4   3  16    2.40    2.70
  -4   3  16    1.80    1.80
  -3  -3  16   19.10    3.60
  -3  -3  16   22.40    3.80
  -3   3  16   27.50    4.90
  -3   3  16   26.50    3.20
  -2  -3  16   16.40    3.40
  -2  -3  16   11.50    3.20
  -2   3  16    9.80    2.50
  -2   3  16   11.40    3.60
  -1  -3  16   20.00    3.80
  -1  -3  16   24.40    3.90
  -1   3  16   27.80    3.40
   0  -3  16   11.00    3.10
   0   3  16    5.40    2.10
   1  -3  16    1.00    2.40
   1   3  16   -0.10    2.00
   2  -3  16    7.00    2.90
   2   3  16    4.30    2.10
   3  -3  16   13.40    3.60
   3   3  16   17.30    3.00
   4  -3  16   23.00    4.30
   4   3  16   22.10    3.60
   5  -3  16    4.70    3.40
   5   3  16    0.00    2.20
   6  -3  16    9.70    3.70
   6   3  16    2.80    2.70
   7  -3  16    7.90    3.30
   7   3  16    2.70    2.70
   8  -3  16   -4.30    2.50
   8   3  16   -0.40    2.40
   9  -3  16    0.00    3.30
   9   3  16   -0.10    2.60
  16  -4 -16    7.50    5.30
 -16   4  16    1.10    3.80
  16   4 -16   -3.40    3.30
  15  -4 -16   -4.00    4.10
 -15   4  16   -6.70    3.00
  15   4 -16   -3.30    3.00
  14  -4 -16    5.50    4.30
 -14   4  16    8.80    4.20
 -13  -4  16    0.30    2.90
  13  -4 -16    1.90    3.40
  13   4 -16   -3.80    2.50
 -13   4  16    0.40    3.30
 -12  -4  16    9.50    3.40
  12  -4 -16   10.00    3.80
 -12  -4  16   14.90    3.80
  12   4 -16    7.50    2.80
 -12   4  16    8.90    4.30
 -11  -4  16    5.90    3.00
  11  -4 -16    3.00    3.00
 -11  -4  16    6.80    3.10
  11   4 -16    1.70    2.20
 -11   4  16   -0.50    3.30
 -10  -4  16   10.50    3.40
 -10  -4  16   12.80    3.60
 -10   4  16   11.40    3.70
  10   4 -16    7.00    2.30
  -9  -4  16    3.10    4.00
  -9  -4  16    6.00    3.10
  -9   4  16    6.50    3.30
  -8  -4  16    2.20    2.90
  -8   4  16    2.80    3.20
  -7  -4  16    9.70    3.20
  -7   4  16    9.20    3.40
  -6  -4  16    2.60    2.90
  -6   4  16   -0.70    2.60
  -5  -4  16   10.40    3.20
  -5   4  16    7.40    3.60
  -4  -4  16   10.20    3.50
  -4   4  16    7.50    3.30
  -3  -4  16   41.90    5.10
  -3   4  16   41.10    5.40
  -3   4  16   41.90    3.90
  -2  -4  16   12.80    3.60
  -2   4  16   11.00    2.40
  -2   4  16    7.00    3.30
  -1  -4  16   18.80    3.80
  -1   4  16   20.10    2.90
   0  -4  16   12.30    3.40
   0   4  16    9.70    2.40
   1  -4  16  100.09    7.30
   1   4  16   93.49    5.90
   2  -4  16   41.60    5.30
   2   4  16   37.50    4.00
   3  -4  16    1.00    2.70
   3   4  16    1.60    2.20
   4  -4  16   59.69    6.50
   4   4  16   62.09    5.10
   5  -4  16   12.50    4.10
   5   4  16   13.10    2.80
   6  -4  16   23.70    4.90
   6   4  16   20.40    3.50
   7  -4  16    0.70    3.30
   7   4  16    0.50    2.00
   8  -4  16    3.50    3.70
   8   4  16    1.00    2.50
  15  -5 -16   -2.80    4.90
  15   5 -16   -4.70    3.20
 -15   5  16   -1.90    3.50
  14  -5 -16    3.40    4.70
  14   5 -16   -7.20    2.90
 -14   5  16    2.80    3.70
  13  -5 -16    0.30    4.20
 -13   5  16    0.70    3.70
  13   5 -16   -3.30    2.70
 -12  -5  16    7.10    3.40
  12  -5 -16    6.30    4.20
  12   5 -16   -0.90    2.60
 -12   5  16    2.30    3.50
 -11  -5  16    2.90    3.20
  11   5 -16   -0.10    2.30
 -11   5  16   -3.60    2.70
 -10  -5  16    2.90    3.20
 -10   5  16    0.50    3.10
  10   5 -16   -0.80    2.20
  -9  -5  16    4.70    3.10
  -9   5  16    2.00    3.00
  -8  -5  16   21.60    4.10
  -8   5  16   13.80    4.10
  -7  -5  16   16.70    3.80
  -7   5  16   15.30    3.90
  -6  -5  16    2.60    3.30
  -6   5  16    3.70    3.10
  -5  -5  16   10.80    3.90
  -5   5  16   12.00    4.10
  -4  -5  16    9.00    3.30
  -4   5  16    9.40    3.90
  -3  -5  16   12.30    3.80
  -3   5  16   12.60    4.20
  -2  -5  16    1.00    2.80
  -2   5  16    8.00    3.40
  -2   5  16    7.50    2.30
  -1  -5  16   25.20    4.80
  -1   5  16   13.20    4.10
  -1   5  16   17.60    2.90
   0  -5  16   12.00    3.80
   0   5  16    9.50    2.50
   1  -5  16   15.40    4.00
   1   5  16   18.50    3.10
   2  -5  16   16.50    4.10
   2   5  16   18.50    3.10
   3  -5  16   40.10    5.50
   3   5  16   43.70    4.50
   4  -5  16    1.80    3.20
   4   5  16   -1.10    1.90
   5  -5  16    2.30    3.70
   5   5  16    5.20    2.70
   6  -5  16    0.90    3.30
   6   5  16    4.50    2.50
   7  -5  16    9.60    4.30
   7   5  16    7.40    3.10
  14   6 -16   -1.60    3.10
  13  -6 -16   10.40    6.10
  13   6 -16   -1.30    3.00
 -13   6  16    8.20    4.40
  12  -6 -16   11.40    6.50
 -12  -6  16   14.70    4.20
 -12   6  16    6.10    3.70
  12   6 -16    3.90    3.00
 -11  -6  16    1.70    3.30
  11   6 -16   -0.30    2.50
 -11   6  16    4.10    4.00
 -10  -6  16    8.30    3.50
  10   6 -16    9.10    4.40
 -10   6  16   15.70    4.50
  -9  -6  16   33.30    5.30
  -9   6  16   22.40    5.00
  -8  -6  16   22.20    4.50
  -8   6  16   30.30    5.20
  -7  -6  16   16.60    4.20
  -7   6  16   17.50    4.40
  -6  -6  16   -1.60    2.70
  -6   6  16    4.60    3.60
  -5  -6  16   24.20    4.60
  -5   6  16   31.10    5.40
  -4  -6  16   30.70    5.10
  -4   6  16   26.10    5.20
  -3  -6  16   13.10    4.00
  -3   6  16   18.50    4.30
  -2  -6  16   -1.40    3.20
  -2   6  16    1.20    3.60
  -1  -6  16   18.80    4.70
  -1   6  16   19.50    3.20
  -1   6  16   15.00    4.70
   0  -6  16   41.20    5.60
   0   6  16   50.29    4.50
   1  -6  16   38.10    5.80
   1   6  16   41.90    4.30
   2  -6  16   17.30    4.30
   2   6  16   23.20    3.50
   3  -6  16    2.90    3.80
   3   6  16   -1.00    2.20
   4  -6  16   11.70    4.20
   4   6  16    9.00    2.90
   5  -6  16   12.10    4.10
   5   6  16   11.10    3.20
   6  -6  16    6.40    3.80
   6   6  16    3.00    2.40
 -12  -7  16    2.00    3.30
 -12   7  16   -5.10    3.30
  12   7 -16   -3.40    2.40
 -11  -7  16    0.30    3.40
 -11   7  16    3.60    3.70
  11   7 -16   -3.00    2.50
 -10  -7  16    3.60    3.40
 -10   7  16    1.90    3.80
  -9  -7  16    1.70    3.20
  -9   7  16    1.00    3.70
  -8  -7  16    7.30    4.10
  -8   7  16    5.00    3.80
  -7  -7  16   13.50    4.20
  -7   7  16    7.40    3.60
  -6  -7  16    7.00    4.00
  -6   7  16   18.20    4.30
  -5  -7  16    2.20    3.40
  -5   7  16   -0.20    3.20
  -4  -7  16    3.90    3.50
  -4   7  16    4.40    3.80
  -3  -7  16   -0.60    3.20
  -3   7  16    1.10    3.30
  -2  -7  16    6.30    3.80
  -2   7  16   10.80    4.00
  -1  -7  16    8.20    3.70
  -1   7  16    3.80    3.50
   0  -7  16    0.60    3.30
   0   7  16    2.00    3.60
   1  -7  16   12.70    4.30
   1   7  16   20.30    3.30
   2  -7  16   14.30    4.70
   2   7  16   11.70    2.90
   3  -7  16    7.10    3.90
   3   7  16   10.00    3.00
   4  -7  16    8.70    4.40
   4   7  16    9.20    2.90
  -9  -8  16    4.10    4.00
  -9   8  16    4.50    4.00
  -8  -8  16    9.80    4.50
  -8   8  16    0.70    3.60
  -7  -8  16   -2.20    3.70
  -7   8  16   -1.40    3.00
  -6  -8  16   -0.50    3.20
  -6   8  16   -7.50    3.10
  -5  -8  16   10.00    4.40
  -5   8  16    3.80    3.70
  -4  -8  16   20.30    5.30
  -4   8  16   22.00    5.10
  -3  -8  16    7.70    4.30
  -3   8  16    1.30    3.90
  -2  -8  16    1.60    3.40
  -2   8  16    3.00    3.90
  -1  -8  16   11.40    4.50
  -1   8  16    6.60    4.30
   0  -8  16    7.00    4.40
   0   8  16    8.80    4.40
   1  -8  16    4.50    3.80
   1   8  16   -1.50    3.90
  17   0 -17   17.00    3.70
 -17   0  17   16.10    5.70
  16   0 -17    9.10    3.10
 -16   0  17   -2.20    3.60
 -15   0  17    0.90    3.50
  15   0 -17    5.70    2.70
  14   0 -17    9.10    2.70
 -14   0  17    4.50    3.70
 -13   0  17   -4.20    3.20
  13   0 -17    1.70    2.40
 -12   0  17    5.10    3.60
 -11   0  17    1.60    3.20
 -10   0  17   46.70    5.60
  -9   0  17   -2.20    2.80
  -8   0  17   14.20    3.70
  -8   0  17    9.80    2.70
  -7   0  17    3.50    3.00
  -7   0  17    7.00    2.50
  -6   0  17    2.60    2.90
  -6   0  17    2.80    2.20
  -5   0  17    3.10    2.40
  -5   0  17    3.40    2.80
  -4   0  17    3.20    2.80
  -4   0  17    6.70    2.50
  -3   0  17   -3.40    2.30
  -3   0  17   -2.20    2.10
  -2   0  17   17.30    3.40
  -2   0  17   14.00    3.70
  -1   0  17   -1.80    2.10
   0   0  17    2.10    2.30
   1   0  17    0.10    2.50
   2   0  17    0.10    2.10
   3   0  17    0.40    2.20
   4   0  17    6.90    2.80
   5   0  17   -2.10    2.20
   6   0  17    4.20    2.70
   7   0  17    1.90    2.70
   8   0  17    7.40    3.10
   9   0  17    2.60    3.00
  17  -1 -17   16.10    3.80
  17   1 -17    7.70    3.00
 -17   1  17    3.40    4.30
 -16  -1  17   10.80    5.00
  16  -1 -17   14.00    3.80
 -16   1  17    7.90    4.20
 -15  -1  17    2.80    3.50
  15  -1 -17   14.90    3.40
  15   1 -17   10.60    3.10
 -15   1  17    5.70    3.90
 -14  -1  17    5.00    3.60
  14  -1 -17   10.90    3.20
 -14   1  17    4.90    3.80
  14   1 -17   13.70    2.90
 -13  -1  17    1.30    3.70
 -13   1  17    1.30    3.60
  13   1 -17    2.00    2.60
 -12  -1  17   16.60    4.20
 -12   1  17   13.20    3.90
 -11  -1  17   12.10    3.90
 -11   1  17   10.60    3.60
 -10  -1  17   33.30    5.00
 -10   1  17   32.80    5.20
  -9  -1  17    0.40    2.20
  -9  -1  17    1.00    2.50
  -9   1  17    3.30    3.00
  -8  -1  17   48.60    4.70
  -8   1  17   43.50    5.40
  -7  -1  17    7.00    2.50
  -7  -1  17   18.90    3.30
  -7   1  17   22.40    4.00
  -7   1  17   26.40    3.80
  -6  -1  17    6.20    2.70
  -6  -1  17   10.00    2.90
  -6   1  17    9.90    2.60
  -6   1  17   10.10    3.30
  -5  -1  17   58.19    6.10
  -5  -1  17   61.49    5.30
  -5   1  17   65.99    6.60
  -5   1  17   53.09    4.60
  -4  -1  17  128.39    8.70
  -4  -1  17  143.99    8.40
  -4   1  17  147.39    8.00
  -4   1  17  146.29    9.50
  -3  -1  17   69.99    6.70
  -3  -1  17   51.39    5.10
  -3   1  17   59.69    6.30
  -3   1  17   56.89    4.90
  -2  -1  17   78.29    6.00
  -2  -1  17   80.99    7.40
  -2   1  17   68.19    5.50
  -2   1  17   79.99    7.20
  -1  -1  17   30.20    4.70
  -1  -1  17   27.20    4.10
  -1   1  17   17.00    3.00
   0  -1  17   18.80    3.40
   0   1  17   13.50    2.80
   1  -1  17   17.90    3.40
   1   1  17   20.70    3.40
   2  -1  17   23.40    3.80
   2   1  17   16.30    3.20
   3  -1  17   17.30    3.50
   3   1  17    7.60    2.90
   4  -1  17    1.80    2.80
   4   1  17    2.50    2.70
   5  -1  17    5.30    2.80
   5   1  17    3.20    2.60
   6  -1  17    9.90    3.60
   6   1  17   12.60    3.40
   7  -1  17   31.40    5.00
   7   1  17   39.70    5.30
   8  -1  17   16.40    4.10
  16  -2 -17    6.60    3.80
 -16   2  17    2.90    4.40
  16   2 -17    7.00    3.30
  15  -2 -17    6.00    3.50
 -15  -2  17   -1.40    3.70
  15   2 -17    2.90    2.80
 -15   2  17   -0.70    4.00
 -14  -2  17    0.40    1.60
  14  -2 -17    7.00    3.30
  14   2 -17    2.70    2.60
 -14   2  17    1.20    3.90
 -13  -2  17    2.60    2.70
  13   2 -17    2.40    2.70
 -13   2  17    6.10    3.60
 -12  -2  17    1.00    3.30
 -12   2  17    3.90    3.20
 -11  -2  17   -1.50    2.70
 -11   2  17   -0.90    2.90
 -10  -2  17    4.70    2.60
 -10  -2  17    8.20    3.10
 -10   2  17    0.30    2.90
  -9  -2  17    8.50    3.30
  -9  -2  17   10.60    3.10
  -9   2  17    8.10    3.80
  -8  -2  17   19.90    3.60
  -8  -2  17   25.10    4.30
  -8   2  17   23.30    4.30
  -7  -2  17    2.20    2.40
  -7  -2  17    2.30    2.40
  -7   2  17   -1.70    2.40
  -6  -2  17    8.00    3.00
  -6  -2  17    7.30    2.90
  -6   2  17    0.90    3.00
  -5  -2  17   14.50    3.50
  -5  -2  17   13.70    3.40
  -5   2  17   11.50    2.70
  -5   2  17   10.80    3.50
  -4  -2  17    8.40    3.10
  -4  -2  17    9.50    3.20
  -4   2  17   15.10    2.80
  -4   2  17    9.60    3.80
  -3  -2  17    2.20    2.60
  -3  -2  17   -1.10    2.60
  -3   2  17    0.30    2.90
  -3   2  17   -0.70    1.90
  -2  -2  17    8.90    2.90
  -2  -2  17   12.30    3.50
  -2   2  17    9.80    2.70
  -2   2  17   17.90    4.20
  -1  -2  17   10.70    3.50
  -1  -2  17   14.70    3.40
  -1   2  17   15.90    3.10
   0  -2  17    1.40    2.40
   0   2  17    1.90    2.30
   1  -2  17    2.80    3.00
   1   2  17    6.80    2.70
   2  -2  17    1.70    2.60
   2   2  17    1.20    2.40
   3  -2  17    9.90    3.40
   3   2  17    2.80    2.60
   4  -2  17   18.30    3.90
   4   2  17   25.70    4.00
   5  -2  17   -1.10    2.40
   5   2  17    0.90    2.50
   6  -2  17   -0.10    2.80
   6   2  17    2.10    2.50
   7  -2  17    8.80    3.60
   7   2  17   14.50    3.60
   8  -2  17    0.90    3.40
   8   2  17    2.80    3.00
  16  -3 -17   14.10    4.90
 -16   3  17    0.60    3.90
  16   3 -17    0.40    3.20
  15  -3 -17    7.50    4.30
 -15   3  17    6.20    4.00
  15   3 -17    5.00    3.20
 -14  -3  17   20.50    4.90
  14  -3 -17   16.80    4.80
  14   3 -17   15.10    3.50
 -14   3  17   19.00    4.90
 -13  -3  17    7.10    3.60
 -13   3  17    5.10    3.50
  13   3 -17    9.90    3.20
 -12  -3  17    7.80    3.70
 -12   3  17   11.60    4.20
 -11  -3  17   12.40    3.30
 -11  -3  17   10.70    3.50
 -11   3  17   11.70    3.80
 -10  -3  17    3.70    2.80
 -10  -3  17    6.30    3.20
 -10   3  17    7.40    3.70
  -9  -3  17    1.40    2.50
  -9  -3  17    2.90    2.80
  -9   3  17    3.40    2.90
  -8  -3  17   11.00    3.00
  -8  -3  17   17.80    3.70
  -8   3  17   16.50    3.90
  -7  -3  17   10.00    3.30
  -7  -3  17   17.90    3.50
  -7   3  17   14.90    4.00
  -6  -3  17   42.20    5.10
  -6  -3  17   37.40    4.60
  -6   3  17   45.70    5.80
  -5  -3  17   13.40    3.30
  -5  -3  17   20.50    3.90
  -5   3  17   14.40    4.00
  -4  -3  17   37.90    4.90
  -4  -3  17   40.70    4.60
  -4   3  17   27.80    3.50
  -4   3  17   37.40    5.60
  -3  -3  17   27.80    4.20
  -3  -3  17   21.20    4.20
  -3   3  17   23.10    3.20
  -3   3  17   16.30    4.50
  -2  -3  17  121.39    7.90
  -2  -3  17  120.39    8.00
  -2   3  17  125.79    9.00
  -2   3  17  114.39    6.90
  -1  -3  17   36.00    5.00
  -1  -3  17   41.30    5.20
  -1   3  17   37.80    4.00
   0  -3  17   61.99    6.30
   0  -3  17   59.49    6.20
   0   3  17   58.49    5.00
   1  -3  17   38.60    5.00
   1   3  17   42.10    4.50
   2  -3  17   31.80    4.80
   2   3  17   31.00    3.90
   3  -3  17   41.40    5.40
   3   3  17   43.10    4.60
   4  -3  17    6.80    3.60
   4   3  17    5.70    2.80
   5  -3  17    7.50    3.50
   5   3  17    6.50    2.80
   6  -3  17    3.50    3.50
   6   3  17    6.80    3.10
   7  -3  17    5.70    3.50
   7   3  17    7.10    3.30
   8  -3  17   10.50    3.80
   8   3  17   13.60    3.80
  15  -4 -17    6.50    5.00
  15   4 -17    3.00    3.30
 -15   4  17   11.90    4.50
  14   4 -17    3.00    3.20
 -14   4  17    2.20    3.80
  13   4 -17   -3.60    3.10
 -13   4  17   -0.50    3.70
 -12  -4  17    3.00    3.10
 -12   4  17    4.00    3.50
 -11  -4  17    8.10    3.30
 -11   4  17    9.30    3.90
 -10  -4  17    7.30    3.30
 -10   4  17    1.90    3.20
  -9  -4  17   -0.70    2.90
  -9   4  17    0.00    2.90
  -8  -4  17   25.50    4.20
  -8   4  17   25.30    4.60
  -7  -4  17   -0.10    2.80
  -7   4  17    0.80    2.80
  -6  -4  17    2.80    2.90
  -6   4  17    5.70    3.80
  -5  -4  17    8.20    3.70
  -5   4  17   10.70    4.20
  -4  -4  17   25.80    4.50
  -4   4  17   23.00    4.80
  -3  -4  17    9.10    3.40
  -3   4  17   13.20    2.60
  -3   4  17    3.60    3.30
  -2  -4  17   10.10    3.30
  -2   4  17    5.20    2.30
  -2   4  17    6.20    3.80
  -1  -4  17   13.20    3.60
  -1   4  17   19.70    3.20
   0  -4  17   18.10    3.90
   0   4  17   21.30    3.40
   1  -4  17    7.00    3.20
   1   4  17    7.20    2.70
   2  -4  17    4.50    3.20
   2   4  17    6.10    2.70
   3  -4  17   32.90    5.00
   3   4  17   46.30    4.80
   4  -4  17   -1.30    2.80
   4   4  17    0.60    2.30
   5  -4  17   10.70    4.00
   5   4  17   11.30    2.90
   6  -4  17    3.30    3.30
   6   4  17    1.80    2.30
   7  -4  17   11.70    4.30
   7   4  17   10.50    3.10
  14   5 -17   -1.10    3.20
 -14   5  17   -4.30    3.30
 -13  -5  17    5.50    3.30
 -13   5  17    0.20    3.60
 -12  -5  17   13.10    3.90
 -12   5  17   10.50    4.60
 -11  -5  17   23.60    4.50
 -11   5  17   11.90    4.20
 -10  -5  17   16.00    4.10
 -10   5  17    4.30    3.60
  -9  -5  17    8.50    3.80
  -9   5  17   13.80    4.00
  -8  -5  17   10.80    4.00
  -8   5  17    9.20    3.60
  -7  -5  17   20.70    4.30
  -7   5  17   19.20    4.50
  -6  -5  17   33.40    5.20
  -6   5  17   26.10    5.00
  -5  -5  17   25.70    4.60
  -5   5  17   31.80    5.60
  -4  -5  17    5.50    3.50
  -4   5  17    6.60    3.70
  -3  -5  17   14.20    4.10
  -3   5  17    6.90    3.70
  -2  -5  17   44.20    5.50
  -2   5  17   40.30    6.10
  -2   5  17   41.90    6.30
  -1  -5  17   82.59    6.90
  -1   5  17   60.79    4.90
  -1   5  17   56.79    7.00
   0  -5  17    3.30    3.20
   0   5  17    0.00    2.30
   1  -5  17   12.30    3.80
   1   5  17   12.80    3.00
   2  -5  17   68.19    7.20
   2   5  17   64.89    5.30
   3  -5  17   35.60    5.80
   3   5  17   21.60    3.60
   4  -5  17    3.40    3.70
   4   5  17    3.70    2.60
   5  -5  17    4.50    3.50
   5   5  17    5.10    2.40
   6  -5  17    0.50    3.70
   6   5  17    3.40    2.40
 -13  -6  17   -0.10    3.60
 -13   6  17    1.30    3.60
 -12  -6  17    2.80    3.70
 -12   6  17    7.30    4.20
 -11  -6  17    1.80    3.60
 -11   6  17    4.70    4.00
 -10  -6  17    0.40    3.50
 -10   6  17    3.50    4.00
  -9  -6  17    3.20    3.40
  -9   6  17    1.30    3.20
  -8  -6  17    5.90    3.70
  -8   6  17   -0.40    2.90
  -7  -6  17    1.20    3.10
  -7   6  17    4.20    3.80
  -6  -6  17    7.60    4.10
  -6   6  17    7.50    3.70
  -5  -6  17   -0.40    2.90
  -5   6  17    4.90    3.70
  -4  -6  17   10.80    3.80
  -4   6  17   16.40    4.80
  -3  -6  17    1.10    3.50
  -3   6  17    0.30    3.80
  -2  -6  17    2.10    3.50
  -2   6  17   -1.10    3.70
  -1  -6  17   15.10    4.20
  -1   6  17    4.40    3.70
   0  -6  17   15.00    4.50
   0   6  17   13.00    2.90
   1  -6  17   32.60    5.60
   1   6  17   26.50    3.70
   2  -6  17    7.00    3.60
   2   6  17    1.30    2.40
   3  -6  17    7.10    4.10
   3   6  17    0.50    2.30
   4  -6  17   30.00    5.40
   4   6  17   25.70    3.90
   5  -6  17    5.10    4.20
   5   6  17    2.40    2.40
 -11  -7  17   -5.50    3.50
 -11   7  17   -4.60    3.50
 -10  -7  17   15.30    4.70
 -10   7  17    8.30    4.40
  -9  -7  17    4.80    3.90
  -9   7  17    5.70    4.00
  -8  -7  17    7.80    3.70
  -8   7  17    7.80    4.10
  -7  -7  17    7.70    3.80
  -7   7  17    9.90    4.20
  -6  -7  17    7.90    3.80
  -6   7  17   12.50    4.00
  -5  -7  17   12.70    4.20
  -5   7  17    4.50    3.50
  -4  -7  17    3.30    3.90
  -4   7  17   -0.30    3.70
  -3  -7  17   13.90    4.60
  -3   7  17   13.60    4.70
  -2  -7  17   20.90    5.10
  -2   7  17   18.90    5.10
  -1  -7  17   13.90    4.20
  -1   7  17   15.00    5.10
   0  -7  17    7.60    3.80
   0   7  17    1.60    3.90
   1  -7  17    9.00    4.60
   2  -7  17   17.70    4.60
   2   7  17   14.50    3.30
   3  -7  17    9.90    4.00
   3   7  17    7.20    3.00
  -7  -8  17   -1.60    3.70
  -7   8  17   -3.90    3.40
  -6  -8  17   -1.40    3.10
  -6   8  17   -0.10    3.80
  -5  -8  17    5.00    3.70
  -5   8  17    0.60    3.70
  -4  -8  17   -2.70    3.40
  -4   8  17   -2.30    3.70
  -3  -8  17    2.00    3.50
  -3   8  17    1.70    4.00
  -2  -8  17    6.20    4.30
  -2   8  17   -0.70    3.70
  -1  -8  17   12.60    4.80
  -1   8  17    8.00    4.80
 -16   0  18    6.00    4.40
 -15   0  18    3.90    4.40
 -14   0  18   38.70    6.00
 -13   0  18   20.60    4.80
 -12   0  18    9.50    3.70
 -11   0  18    0.50    3.40
 -10   0  18   -3.80    2.60
  -9   0  18   38.80    5.20
  -8   0  18   31.90    5.00
  -7   0  18   14.70    3.10
  -7   0  18   19.50    4.30
  -6   0  18    1.50    2.80
  -6   0  18    5.10    2.60
  -5   0  18   62.39    6.40
  -5   0  18   61.29    5.30
  -4   0  18   -1.70    2.80
  -4   0  18    3.30    2.60
  -3   0  18    6.20    2.50
  -3   0  18    2.90    3.00
  -2   0  18   56.99    6.40
  -2   0  18   58.09    5.60
  -1   0  18   -0.30    2.60
  -1   0  18    4.50    2.40
   0   0  18   21.40    4.00
   1   0  18    1.00    2.70
   2   0  18    6.00    2.70
   3   0  18   28.60    4.40
   4   0  18   20.30    3.90
   5   0  18   36.10    5.10
   6   0  18   12.60    3.80
   7   0  18   18.90    4.40
 -16  -1  18   -0.90    3.80
 -16   1  18   -6.20    3.80
 -15  -1  18    3.80    3.90
 -15   1  18    7.60    4.40
 -14  -1  18    9.60    4.00
 -14   1  18    7.00    4.40
 -13  -1  18    3.30    3.50
 -13   1  18    3.20    3.50
 -12  -1  18    0.40    3.00
 -12   1  18    1.50    3.60
 -11  -1  18    2.50    3.40
 -11   1  18    2.80    3.30
 -10  -1  18    0.40    2.70
 -10   1  18   -0.50    3.30
  -9  -1  18    0.60    2.30
  -9  -1  18    6.20    3.20
  -9   1  18    4.10    3.50
  -8  -1  18    1.60    2.30
  -8  -1  18   -0.90    0.90
  -8   1  18   -0.10    2.60
  -7  -1  18    1.80    2.30
  -7  -1  18    1.00    2.40
  -7   1  18    0.30    3.00
  -6  -1  18    3.00    2.90
  -6  -1  18    3.10    2.40
  -6   1  18    0.50    2.10
  -6   1  18    5.20    3.00
  -5  -1  18    5.70    3.20
  -5  -1  18    6.50    2.90
  -5   1  18   11.90    3.90
  -5   1  18    7.00    2.60
  -4  -1  18   11.90    3.50
  -4  -1  18    9.10    3.10
  -4   1  18   10.60    3.60
  -4   1  18    5.10    2.60
  -3  -1  18    0.60    2.20
  -3  -1  18    4.60    3.10
  -3   1  18    1.50    3.00
  -3   1  18   -0.60    2.20
  -2  -1  18    1.80    2.70
  -2  -1  18    0.80    2.60
  -2   1  18    5.00    3.30
  -2   1  18    4.40    2.60
  -1  -1  18    4.10    2.60
  -1  -1  18    4.70    3.00
  -1   1  18    2.10    2.10
   0  -1  18    1.80    2.90
   0   1  18    2.10    2.60
   1  -1  18    0.50    2.50
   1   1  18    4.10    2.70
   2  -1  18   -1.10    2.20
   2   1  18    0.90    2.60
   3  -1  18    3.50    2.70
   3   1  18    2.70    2.50
   4  -1  18   10.10    3.60
   4   1  18    5.30    3.00
   5  -1  18    1.50    2.80
   5   1  18   -1.80    2.30
   6  -1  18    4.90    3.40
   6   1  18    3.40    2.90
   7  -1  18    3.40    3.40
   7   1  18    0.80    3.20
 -16  -2  18    4.70    4.50
 -16   2  18   -2.00    3.80
 -15  -2  18    8.50    3.80
 -15   2  18    3.00    3.90
 -14  -2  18    0.20    1.50
 -14   2  18   -0.50    3.50
 -13  -2  18    2.80    3.30
 -13   2  18   12.00    4.60
 -12  -2  18    8.10    4.00
 -12   2  18    4.80    3.60
 -11  -2  18   -1.20    2.90
 -11   2  18   -0.10    3.10
 -10  -2  18   27.50    4.60
 -10  -2  18   22.80    3.90
 -10   2  18   25.10    4.80
  -9  -2  18   21.60    3.90
  -9  -2  18   23.70    4.50
  -9   2  18   25.20    4.60
  -8  -2  18   14.20    3.90
  -8  -2  18   15.00    3.40
  -8   2  18   21.70    4.40
  -7  -2  18    4.60    2.90
  -7  -2  18    6.90    3.30
  -7   2  18    1.00    3.10
  -6  -2  18   49.30    5.20
  -6  -2  18   34.00    4.90
  -6   2  18   28.70    5.00
  -5  -2  18   28.70    4.20
  -5  -2  18   32.00    4.50
  -5   2  18   22.10    4.60
  -5   2  18   28.30    3.60
  -4  -2  18   58.79    6.10
  -4  -2  18   67.19    6.10
  -4   2  18   48.50    6.10
  -4   2  18   52.79    4.90
  -3  -2  18  124.09    8.50
  -3  -2  18  110.79    7.70
  -3   2  18  124.19    8.90
  -3   2  18  116.89    7.20
  -2  -2  18   38.70    5.30
  -2  -2  18   41.50    5.20
  -2   2  18   29.60    3.90
  -2   2  18   37.20    5.70
  -1  -2  18   15.90    4.10
  -1  -2  18   17.90    3.80
  -1   2  18   13.60    3.10
   0  -2  18    5.30    3.20
   0   2  18    9.00    2.80
   1  -2  18   39.20    5.20
   1   2  18   26.30    4.00
   2  -2  18    6.70    3.20
   2   2  18   13.40    3.10
   3  -2  18   15.30    3.80
   3   2  18   10.10    3.20
   4  -2  18   24.40    4.60
   4   2  18   21.30    3.80
   5  -2  18   27.40    5.00
   5   2  18   30.60    4.30
   6  -2  18    4.40    3.20
   6   2  18    1.40    2.70
   7  -2  18    1.90    3.40
   7   2  18    3.00    2.80
 -15  -3  18   -0.40    3.30
 -15   3  18   -2.90    4.00
 -14  -3  18   -5.40    3.30
 -14   3  18    4.30    4.40
 -13  -3  18    7.90    3.80
 -13   3  18    0.70    3.60
 -12  -3  18    6.40    3.80
 -12   3  18   10.00    4.40
 -11  -3  18   -4.70    2.70
 -11  -3  18    3.90    3.10
 -11   3  18   -3.50    3.00
 -10  -3  18    1.80    2.80
 -10  -3  18    1.00    2.70
 -10   3  18    2.40    3.20
  -9  -3  18    5.10    3.10
  -9  -3  18    1.40    2.80
  -9   3  18    0.70    3.00
  -8  -3  18   10.00    3.50
  -8  -3  18    4.70    2.90
  -8   3  18    3.00    3.20
  -7  -3  18   28.80    4.20
  -7  -3  18   23.80    4.20
  -7   3  18   18.40    4.20
  -6  -3  18    9.40    3.20
  -6  -3  18    8.40    3.50
  -6   3  18    0.30    3.00
  -5  -3  18   11.30    3.40
  -5  -3  18   12.80    3.40
  -5   3  18   11.40    3.80
  -4  -3  18   18.70    3.80
  -4  -3  18   16.20    3.70
  -4   3  18   21.80    3.40
  -4   3  18   26.40    4.90
  -3  -3  18    2.70    3.00
  -3  -3  18    2.40    2.70
  -3   3  18   -1.40    2.10
  -3   3  18    5.00    3.80
  -2  -3  18   13.40    3.60
  -2  -3  18   16.00    4.00
  -2   3  18   11.50    2.90
  -2   3  18   12.10    4.30
  -1  -3  18    2.90    3.10
  -1  -3  18    2.00    2.90
  -1   3  18    9.40    2.80
   0  -3  18    8.20    3.50
   0  -3  18    4.20    3.30
   0   3  18    3.30    2.50
   1  -3  18    5.20    3.30
   1   3  18   13.40    3.10
   2  -3  18   10.50    3.40
   2   3  18    8.50    3.10
   3  -3  18   -0.20    2.80
   3   3  18    4.20    2.80
   4  -3  18    5.50    3.20
   4   3  18    2.10    2.70
   5  -3  18    4.10    3.40
   5   3  18   10.00    3.40
   6  -3  18   -0.30    3.40
   6   3  18    2.80    2.60
   7  -3  18    7.30    4.10
   7   3  18    7.70    3.30
 -14   4  18    2.10    4.40
 -13   4  18   28.20    5.80
 -12  -4  18   13.70    3.90
 -12   4  18   20.60    4.90
 -11  -4  18    1.70    3.00
 -11   4  18    2.40    3.80
 -10  -4  18   -5.30    2.60
 -10   4  18   -3.10    2.80
  -9  -4  18   40.80    5.40
  -9   4  18   26.00    5.00
  -8  -4  18   37.20    5.00
  -8   4  18   27.30    4.90
  -7  -4  18    9.60    3.30
  -7   4  18   13.00    3.90
  -6  -4  18   13.90    4.00
  -6   4  18   13.70    4.60
  -5  -4  18   59.49    6.40
  -5   4  18   48.00    6.30
  -4  -4  18   91.19    7.20
  -4   4  18   82.99    7.70
  -3  -4  18    0.70    2.80
  -3   4  18    2.10    3.30
  -2  -4  18    9.50    3.40
  -2   4  18    5.40    2.40
  -2   4  18    5.10    3.70
  -1  -4  18    2.80    2.80
  -1   4  18    0.40    2.30
  -1   4  18    2.10    3.40
   0  -4  18   38.60    5.50
   0   4  18   42.90    4.60
   1  -4  18   26.30    4.90
   1   4  18   26.40    3.90
   2  -4  18   10.20    3.60
   2   4  18   12.80    3.30
   3  -4  18    4.30    3.40
   3   4  18    0.30    2.50
   4  -4  18    8.00    4.10
   4   4  18    7.50    3.10
   5  -4  18    7.90    3.80
   5   4  18    9.70    3.00
   6  -4  18   12.60    4.40
   6   4  18   13.50    3.70
 -13  -5  18   -1.70    3.10
 -13   5  18   -3.80    3.90
 -12  -5  18    3.60    3.50
 -12   5  18    0.20    4.10
 -11  -5  18    3.10    3.20
 -11   5  18    1.60    3.60
 -10  -5  18    4.00    3.60
 -10   5  18   -1.70    3.80
  -9  -5  18    0.40    2.90
  -9   5  18    2.00    3.40
  -8  -5  18   -0.70    3.40
  -8   5  18    0.40    2.90
  -7  -5  18    0.20    3.00
  -7   5  18   11.60    4.20
  -6  -5  18   -0.20    3.30
  -6   5  18   -1.00    2.90
  -5  -5  18   -2.90    3.00
  -5   5  18   -2.50    3.30
  -4  -5  18    6.10    3.70
  -4   5  18    2.20    3.40
  -3  -5  18   13.60    4.00
  -3   5  18    9.00    4.00
  -2  -5  18    6.30    3.80
  -2   5  18    9.20    4.40
  -1  -5  18    0.50    2.90
  -1   5  18    2.70    2.40
  -1   5  18    3.50    3.60
   0  -5  18    9.40    4.00
   0   5  18   15.50    3.30
   1  -5  18   22.70    4.80
   1   5  18   25.20    3.70
   2  -5  18    3.40    3.30
   2   5  18    8.50    2.70
   3  -5  18    2.50    3.20
   3   5  18    1.60    2.60
   4  -5  18   12.50    4.60
   4   5  18    0.00    2.70
   5  -5  18    8.50    4.40
   5   5  18   10.70    3.20
 -12  -6  18    5.90    3.70
 -12   6  18   -2.70    3.90
 -11  -6  18   -1.40    3.50
 -11   6  18    3.10    4.20
 -10  -6  18   -1.20    2.90
 -10   6  18    0.90    3.50
  -9  -6  18   14.90    4.50
  -9   6  18    2.40    4.00
  -8  -6  18   27.70    5.30
  -8   6  18   22.20    4.90
  -7  -6  18   11.90    4.20
  -7   6  18    2.80    3.60
  -6  -6  18    6.30    3.90
  -6   6  18    7.60    4.20
  -5  -6  18   25.10    4.80
  -5   6  18   18.40    4.70
  -4  -6  18   24.00    4.70
  -4   6  18   17.30    4.80
  -3  -6  18   12.20    4.00
  -3   6  18    6.60    3.90
  -2  -6  18   -1.50    2.90
  -2   6  18    0.10    3.80
  -1  -6  18   13.80    4.50
  -1   6  18   19.40    5.20
   0  -6  18   27.90    5.20
   0   6  18   30.30    6.00
   1  -6  18   22.00    5.20
   1   6  18   27.90    4.00
   2  -6  18    7.80    3.90
   2   6  18    7.90    2.90
   3  -6  18    1.80    3.40
   3   6  18    4.30    2.80
  -9  -7  18    2.30    4.00
  -9   7  18   -2.80    3.60
  -8  -7  18    1.00    3.40
  -8   7  18   -2.60    3.00
  -7  -7  18    2.90    3.50
  -7   7  18    2.70    3.50
  -6  -7  18   14.30    4.30
  -6   7  18   12.50    4.60
  -5  -7  18   -1.40    3.60
  -5   7  18    5.10    4.20
  -4  -7  18    2.70    3.80
  -4   7  18    0.30    3.80
  -3  -7  18    3.60    3.90
  -3   7  18   -1.10    3.30
  -2  -7  18   10.60    4.30
  -2   7  18    9.70    4.50
  -1  -7  18    3.20    3.90
  -1   7  18    7.90    4.50
   0  -7  18    9.90    4.50
   0   7  18    2.60    4.00
   1  -7  18   -2.10    3.20
   1   7  18    2.00    4.40
 -15   0  19    1.80    3.90
 -14   0  19    0.00    3.50
 -13   0  19   -1.50    3.70
 -12   0  19   -2.50    2.90
 -11   0  19   -0.90    3.50
 -10   0  19    1.30    3.50
  -9   0  19   -2.70    3.00
  -8   0  19    3.40    3.50
  -7   0  19    8.90    3.70
  -7   0  19    9.00    3.00
  -6   0  19    6.70    2.90
  -6   0  19    4.70    3.50
  -5   0  19    1.40    3.50
  -5   0  19    6.90    2.90
  -4   0  19    1.30    3.40
  -4   0  19    0.40    2.50
  -3   0  19    0.60    2.50
  -3   0  19    5.70    3.70
  -2   0  19   -1.80    2.80
  -2   0  19    3.60    2.80
  -1   0  19   -4.60    3.00
  -1   0  19   -0.20    2.70
   0   0  19    6.30    2.80
   1   0  19   -0.50    2.70
   2   0  19    7.40    3.00
   3   0  19    4.30    3.10
   4   0  19    3.10    3.20
   5   0  19    2.30    3.00
   6   0  19   11.40    3.80
 -15  -1  19   14.70    5.20
 -15   1  19   15.90    5.40
 -14  -1  19    4.50    4.30
 -14   1  19    2.00    4.40
 -13  -1  19   11.90    4.80
 -13   1  19    6.00    3.90
 -12  -1  19    9.20    3.90
 -12   1  19   14.10    4.50
 -11  -1  19   39.80    5.90
 -11   1  19   32.60    5.40
 -10  -1  19   21.70    4.80
 -10   1  19   22.80    4.80
  -9  -1  19   -4.80    1.50
  -9   1  19   -4.10    2.60
  -8  -1  19   13.70    3.40
  -8  -1  19   -1.20    1.20
  -8   1  19    5.00    3.50
  -7  -1  19   64.29    7.00
  -7  -1  19   95.99    7.00
  -7   1  19  101.99    7.90
  -6  -1  19   89.69    7.50
  -6  -1  19  127.89    7.70
  -6   1  19  105.79    7.00
  -6   1  19   99.49    8.20
  -5  -1  19    0.20    3.10
  -5  -1  19    2.80    2.80
  -5   1  19    1.00    2.40
  -5   1  19    1.30    3.10
  -4  -1  19    3.10    2.50
  -4  -1  19    9.30    3.40
  -4   1  19    5.30    3.50
  -4   1  19    5.60    2.70
  -3  -1  19   14.50    4.10
  -3  -1  19   27.90    4.20
  -3   1  19   23.00    3.80
  -3   1  19   20.00    5.00
  -2  -1  19   78.69    6.50
  -2  -1  19   78.19    7.10
  -2   1  19   71.39    6.40
  -2   1  19   73.89    7.80
  -1  -1  19   24.90    4.10
  -1  -1  19   34.20    5.50
  -1   1  19   25.60    5.20
  -1   1  19   28.50    4.20
   0  -1  19   -2.00    2.70
   0   1  19    0.00    2.30
   1  -1  19   21.10    4.30
   1   1  19   22.70    4.00
   2  -1  19   23.90    4.50
   2   1  19   22.70    4.10
   3  -1  19    3.30    3.20
   3   1  19    3.90    2.80
   4  -1  19    2.10    3.30
   4   1  19    4.70    2.90
   5  -1  19    1.50    3.30
   5   1  19    6.80    3.40
   6  -1  19   32.20    5.50
   6   1  19   33.30    4.90
 -15  -2  19    0.40    2.00
 -15   2  19    3.20    3.80
 -14  -2  19    0.10    3.20
 -14   2  19   -1.80    3.60
 -13  -2  19    1.80    3.70
 -13   2  19   -3.30    3.70
 -12  -2  19    2.70    3.80
 -12   2  19   -2.40    3.20
 -11  -2  19   -3.00    3.00
 -11   2  19    0.60    3.70
 -10  -2  19    3.70    3.30
 -10   2  19    5.20    3.70
  -9  -2  19   -0.90    3.00
  -9  -2  19   -5.10    2.40
  -9   2  19    3.40    3.30
  -8  -2  19   -4.70    2.60
  -8  -2  19   -0.20    2.70
  -8   2  19   -2.20    2.70
  -7  -2  19    9.10    3.60
  -7  -2  19    6.00    3.30
  -7   2  19    3.80    3.30
  -6  -2  19    2.60    2.80
  -6  -2  19   -2.10    2.70
  -6   2  19   -3.00    3.30
  -5  -2  19    8.70    3.20
  -5  -2  19    7.90    3.10
  -5   2  19    8.00    3.80
  -4  -2  19    2.20    2.50
  -4  -2  19    2.60    3.20
  -4   2  19    2.20    2.40
  -4   2  19    0.70    3.10
  -3  -2  19    1.50    2.90
  -3  -2  19    1.10    3.00
  -3   2  19    2.30    3.80
  -3   2  19    0.30    2.40
  -2  -2  19    1.50    3.00
  -2  -2  19    1.20    3.20
  -2   2  19   -0.10    3.70
  -2   2  19    5.60    2.80
  -1  -2  19    0.10    2.80
  -1  -2  19   -1.50    3.10
  -1   2  19   -0.80    2.40
  -1   2  19   -0.50    3.20
   0  -2  19   -2.60    2.60
   0  -2  19    0.00    2.70
   0   2  19    0.10    2.40
   1  -2  19    1.10    2.70
   1   2  19   -1.10    2.50
   2  -2  19    5.10    3.20
   2   2  19   -1.00    2.30
   3  -2  19    5.90    3.40
   3   2  19    3.50    2.50
   4  -2  19    4.60    3.50
   4   2  19    4.70    2.90
   5  -2  19    1.20    3.10
   5   2  19    2.90    2.80
   6  -2  19   -2.80    3.30
   6   2  19   -2.40    3.00
 -14  -3  19   -0.70    3.50
 -14   3  19    1.90    3.80
 -13  -3  19    5.40    3.50
 -13   3  19    1.40    3.60
 -12  -3  19   25.10    5.00
 -12   3  19   28.20    5.50
 -11  -3  19   20.00    4.50
 -11   3  19   17.10    4.60
 -10  -3  19   14.00    3.90
 -10  -3  19   13.00    3.80
 -10   3  19    8.20    4.40
  -9  -3  19    4.10    3.20
  -9  -3  19    2.50    3.00
  -9   3  19    2.20    3.20
  -8  -3  19   11.30    3.50
  -8  -3  19   15.80    3.90
  -8   3  19   12.20    4.00
  -7  -3  19   21.40    4.20
  -7  -3  19   19.80    4.30
  -7   3  19   12.10    4.30
  -6  -3  19   17.80    3.90
  -6  -3  19   13.00    3.80
  -6   3  19    5.50    3.70
  -5  -3  19   41.30    5.60
  -5  -3  19   48.00    5.60
  -5   3  19   50.89    6.80
  -4  -3  19   11.90    3.60
  -4  -3  19    9.90    3.50
  -4   3  19    9.60    4.00
  -3  -3  19   39.40    5.50
  -3  -3  19   53.59    6.90
  -3   3  19   46.50    4.70
  -3   3  19   47.10    6.50
  -2  -3  19   23.90    4.30
  -2   3  19   26.60    3.80
  -2   3  19   18.60    4.80
  -1  -3  19   21.20    4.10
  -1   3  19   18.30    5.00
  -1   3  19   10.50    2.80
   0  -3  19    1.40    2.80
   0   3  19    1.70    2.30
   1  -3  19    7.70    3.40
   1   3  19    5.90    3.00
   2  -3  19   12.60    4.20
   2   3  19   16.70    3.70
   3  -3  19   33.10    5.50
   3   3  19   26.80    4.30
   4  -3  19    8.00    3.70
   4   3  19    8.00    3.00
   5  -3  19   -0.30    3.10
   5   3  19    0.40    2.40
 -13   4  19    2.70    4.30
 -12   4  19   -4.10    3.20
 -11  -4  19    1.50    3.40
 -11   4  19   -2.40    3.20
 -10  -4  19    2.30    3.20
 -10   4  19   -1.60    3.50
  -9  -4  19    1.60    3.40
  -9   4  19    1.00    3.20
  -8  -4  19    1.90    3.50
  -8   4  19    0.70    3.60
  -7  -4  19   -1.10    3.20
  -7   4  19    2.00    3.40
  -6  -4  19   10.30    3.90
  -6   4  19    7.10    4.30
  -5  -4  19    0.50    3.20
  -5   4  19   -0.50    3.20
  -4  -4  19    1.10    3.20
  -4   4  19   10.30    4.10
  -3  -4  19    8.90    3.80
  -3   4  19    4.80    3.90
  -2  -4  19    3.30    3.50
  -2   4  19    1.50    3.90
  -2   4  19   -0.20    2.60
  -1  -4  19    3.60    3.40
  -1   4  19    1.50    2.50
  -1   4  19    6.90    3.90
   0  -4  19   10.90    4.00
   0   4  19    7.50    2.90
   1  -4  19    0.10    3.30
   1   4  19    4.70    2.80
   2  -4  19   12.60    4.00
   2   4  19   13.70    3.50
   3  -4  19    1.30    3.70
   3   4  19    4.60    3.00
   4  -4  19    8.50    3.80
   4   4  19    4.30    3.00
 -12  -5  19    0.00    3.30
 -12   5  19    1.60    4.20
 -11  -5  19   17.10    4.50
 -11   5  19   10.90    4.80
 -10  -5  19   13.10    4.20
 -10   5  19   11.60    4.40
  -9  -5  19    4.50    3.30
  -9   5  19    5.20    3.80
  -8  -5  19   -1.30    3.50
  -8   5  19    3.40    3.80
  -7  -5  19   24.40    5.20
  -7   5  19   16.50    4.50
  -6  -5  19   29.00    5.10
  -6   5  19   16.60    4.70
  -5  -5  19   21.30    4.50
  -5   5  19   15.80    4.60
  -4  -5  19    1.10    3.20
  -4   5  19    6.30    3.90
  -3  -5  19   25.10    5.20
  -3   5  19   23.10    5.30
  -2  -5  19   32.70    5.50
  -2   5  19   34.80    6.10
  -1  -5  19   10.10    3.90
  -1   5  19   15.50    4.90
   0  -5  19    3.80    3.40
   0   5  19    9.80    4.60
   0   5  19    4.10    2.80
   1  -5  19    8.50    3.70
   1   5  19    3.70    2.90
   2  -5  19   12.30    4.20
   2   5  19   11.80    3.30
   3  -5  19    8.70    4.10
   3   5  19    6.80    3.10
 -10  -6  19    9.30    4.00
 -10   6  19    5.60    4.20
  -9  -6  19    0.60    3.30
  -9   6  19    1.40    4.10
  -8  -6  19   -0.80    3.10
  -8   6  19    4.40    4.10
  -7  -6  19    4.90    4.00
  -7   6  19   11.90    4.50
  -6  -6  19    2.40    3.80
  -6   6  19    3.20    4.00
  -5  -6  19    3.80    3.70
  -5   6  19   -0.80    4.00
  -4  -6  19    2.90    3.90
  -4   6  19    1.30    4.00
  -3  -6  19    1.40    3.30
  -3   6  19    4.40    3.80
  -2  -6  19    1.20    3.90
  -2   6  19    4.40    3.90
  -1  -6  19    0.20    3.20
  -1   6  19    4.60    4.10
   0  -6  19    6.50    4.30
   0   6  19    3.90    4.50
   1  -6  19    3.50    4.20
   1   6  19    3.90    3.50
  -7  -7  19    8.20    4.50
  -7   7  19    3.40    4.30
  -6  -7  19   14.50    4.60
  -6   7  19   16.10    5.30
  -5  -7  19   15.80    5.00
  -5   7  19    4.40    4.40
  -4  -7  19    4.20    4.20
  -4   7  19    6.80    4.20
  -3  -7  19    5.80    4.10
  -3   7  19    4.90    4.00
  -2  -7  19    0.80    4.00
  -2   7  19    6.70    4.10
 -14   0  20   24.90    5.50
 -13   0  20    5.20    4.00
 -12   0  20    9.80    4.50
 -11   0  20    3.90    3.70
 -10   0  20   69.09    7.60
  -9   0  20   81.79    8.10
  -8   0  20   22.10    4.70
  -7   0  20   -4.40    2.70
  -6   0  20   86.69    6.70
  -6   0  20   87.19    7.80
  -5   0  20  257.07   14.80
  -5   0  20  287.77   13.80
  -4   0  20  103.79    9.10
  -4   0  20  108.99    7.60
  -3   0  20   39.00    5.90
  -3   0  20   44.40    5.30
  -2   0  20   -0.50    2.60
  -2   0  20   -6.60    3.30
  -1   0  20    3.50    3.60
  -1   0  20    2.90    2.60
   0   0  20   39.10    5.00
   1   0  20   24.70    4.50
   2   0  20    4.70    3.40
   3   0  20    0.30    2.70
   4   0  20   70.09    7.00
   5   0  20   52.59    6.50
 -14  -1  20    3.40    4.40
 -14   1  20   11.50    4.90
 -13  -1  20    2.50    4.00
 -13   1  20    2.60    4.40
 -12  -1  20    2.20    3.20
 -12   1  20    2.60    3.80
 -11  -1  20    1.20    3.50
 -11   1  20   -1.20    3.60
 -10  -1  20    2.50    3.00
 -10   1  20    0.80    3.40
  -9  -1  20   -1.40    1.40
  -9   1  20    2.70    3.70
  -8  -1  20   -2.10    4.70
  -8  -1  20    1.70    2.10
  -8   1  20    1.80    3.60
  -7  -1  20   -1.30    2.60
  -7  -1  20   -1.20    2.80
  -7   1  20    1.70    3.30
  -6  -1  20    6.40    3.30
  -6  -1  20    2.10    2.90
  -6   1  20    8.60    3.90
  -5  -1  20    1.80    2.60
  -5  -1  20    4.50    3.40
  -5   1  20   -1.80    3.80
  -5   1  20    5.20    2.90
  -4  -1  20   -2.20    2.70
  -4  -1  20   -0.60    2.50
  -4   1  20    2.20    2.70
  -4   1  20   -0.30    3.30
  -3  -1  20    8.10    3.50
  -3  -1  20    6.00    4.00
  -3   1  20    6.10    3.00
  -3   1  20    5.90    3.80
  -2  -1  20   -3.00    2.30
  -2  -1  20    2.20    3.50
  -2   1  20   -3.50    3.30
  -2   1  20    7.70    3.20
  -1  -1  20   -0.30    3.60
  -1  -1  20    3.00    2.80
  -1   1  20   -0.10    3.90
  -1   1  20   -2.30    2.60
   0  -1  20   -2.00    2.90
   0  -1  20   -0.40    2.60
   0   1  20    3.30    3.00
   1  -1  20    4.10    3.00
   1   1  20    3.70    3.00
   2  -1  20    2.10    2.90
   2   1  20    3.00    2.70
   3  -1  20   -1.20    3.10
   3   1  20   -0.50    3.10
   4  -1  20   -0.90    3.50
   4   1  20    3.20    3.00
   5  -1  20    3.20    3.80
   5   1  20    3.00    3.50
 -14  -2  20    5.20    4.30
 -14   2  20   -1.50    3.90
 -13  -2  20   46.50    6.70
 -13   2  20   46.50    6.60
 -12  -2  20   25.90    5.30
 -12   2  20   21.70    5.50
 -11  -2  20   -4.60    2.90
 -11   2  20    1.40    4.00
 -10  -2  20    2.20    3.20
 -10   2  20    9.60    4.00
  -9  -2  20   13.50    4.20
  -9  -2  20    9.90    3.60
  -9   2  20   14.70    4.70
  -8  -2  20   42.60    5.60
  -8  -2  20   56.09    6.00
  -8   2  20   33.80    5.60
  -7  -2  20    3.70    3.30
  -7  -2  20    4.00    3.40
  -7   2  20    1.30    3.20
  -6  -2  20   42.00    5.50
  -6  -2  20   46.70    5.90
  -6   2  20   42.30    6.30
  -5  -2  20    5.70    3.50
  -5  -2  20   14.90    4.20
  -5   2  20   10.30    4.00
  -4  -2  20   79.09    7.00
  -4  -2  20   85.69    7.60
  -4   2  20   86.89    8.50
  -4   2  20   70.39    6.00
  -3  -2  20    3.00    3.10
  -3  -2  20    3.40    3.40
  -3   2  20    5.40    3.70
  -3   2  20    3.60    2.70
  -2  -2  20   17.10    3.90
  -2  -2  20   23.10    4.60
  -2   2  20   14.50    5.10
  -2   2  20   13.10    3.40
  -1  -2  20    3.90    2.90
  -1  -2  20    4.60    3.70
  -1   2  20    0.40    3.50
  -1   2  20    7.30    2.80
   0  -2  20   40.30    5.40
   0  -2  20   40.50    6.00
   0   2  20   38.30    4.70
   1  -2  20   13.10    3.90
   1   2  20   12.80    3.70
   2  -2  20    3.90    3.20
   2   2  20    2.40    2.70
   3  -2  20   23.80    5.10
   3   2  20   13.00    3.50
   4  -2  20    5.60    3.60
   4   2  20   20.30    4.20
 -13  -3  20    3.90    3.90
 -13   3  20    4.20    4.40
 -12  -3  20    5.50    3.70
 -12   3  20    4.20    3.80
 -11  -3  20   -0.10    3.50
 -11   3  20    0.30    3.50
 -10  -3  20    7.80    3.70
 -10  -3  20    9.90    3.90
 -10   3  20    4.40    4.00
  -9  -3  20    3.50    3.40
  -9  -3  20   -4.20    2.90
  -9   3  20    3.00    3.40
  -8  -3  20    3.60    3.30
  -8  -3  20    1.20    3.50
  -8   3  20    4.50    3.70
  -7  -3  20    0.50    3.20
  -7   3  20   -6.00    3.00
  -6  -3  20    6.10    3.70
  -6   3  20   15.30    4.40
  -5  -3  20   11.20    4.00
  -5   3  20    7.60    4.00
  -4  -3  20   -1.80    2.70
  -4   3  20    0.90    3.60
  -3  -3  20    2.60    3.40
  -3   3  20    3.80    4.00
  -3   3  20   -3.60    3.70
  -2  -3  20    5.70    3.20
  -2   3  20    1.20    3.60
  -2   3  20    6.00    2.80
  -1  -3  20   13.40    4.20
  -1   3  20    1.80    3.60
  -1   3  20    3.10    2.80
   0  -3  20    6.20    3.30
   0   3  20    0.40    2.80
   1  -3  20    3.90    3.70
   1   3  20    1.50    2.80
   2  -3  20   10.10    4.20
   2   3  20    2.50    3.10
   3  -3  20    4.10    3.90
   3   3  20    0.90    2.70
   4  -3  20    1.10    3.70
   4   3  20    3.00    3.20
 -12   4  20    2.70    4.10
 -11  -4  20   -0.90    3.40
 -11   4  20    0.40    3.50
 -10  -4  20    3.10    3.40
 -10   4  20   -1.30    3.90
  -9  -4  20    0.20    3.40
  -9   4  20    0.00    3.40
  -8  -4  20   11.30    3.90
  -8   4  20    9.00    4.20
  -7  -4  20    8.80    4.00
  -7   4  20   10.40    4.10
  -6  -4  20    9.20    4.00
  -6   4  20   12.60    4.20
  -5  -4  20   19.00    4.90
  -5   4  20   20.60    5.00
  -4  -4  20   23.50    5.10
  -4   4  20   21.10    5.10
  -3  -4  20   73.09    7.40
  -3   4  20   79.79    8.80
  -2  -4  20    9.80    3.70
  -2   4  20    7.20    4.50
  -1  -4  20    0.40    3.50
  -1   4  20    4.60    4.60
  -1   4  20    4.30    2.80
   0  -4  20   31.90    5.60
   0   4  20   17.70    5.10
   0   4  20   23.10    4.20
   1  -4  20   15.90    4.60
   1   4  20   17.20    3.90
   2  -4  20    7.60    4.20
   2   4  20   11.40    3.60
   3  -4  20    5.70    3.90
   3   4  20    3.90    3.30
 -11  -5  20    1.70    3.50
 -11   5  20   -3.50    4.10
 -10  -5  20    7.30    3.80
 -10   5  20   -0.10    3.50
  -9  -5  20   10.80    4.50
  -9   5  20    5.40    4.00
  -8  -5  20    1.40    3.80
  -8   5  20   -0.90    3.30
  -7  -5  20    5.10    4.10
  -7   5  20    4.60    3.90
  -6  -5  20    6.70    4.10
  -6   5  20    4.70    3.90
  -5  -5  20    0.80    3.80
  -5   5  20    2.70    4.50
  -4  -5  20    4.40    4.00
  -4   5  20    1.90    3.90
  -3  -5  20    6.00    4.30
  -3   5  20    0.60    4.30
  -2  -5  20    4.60    3.90
  -2   5  20   -0.70    4.30
  -1  -5  20   14.20    4.80
  -1   5  20   14.50    5.30
   0  -5  20    8.00    4.10
   0   5  20    3.90    4.30
   0   5  20    6.40    4.50
   1  -5  20   -2.90    3.00
   1   5  20   -1.00    2.80
  -8  -6  20   15.20    4.80
  -8   6  20    8.90    4.30
  -7  -6  20    7.80    4.60
  -7   6  20    5.50    4.00
  -6  -6  20    5.30    4.30
  -6   6  20    5.90    4.40
  -5  -6  20   17.50    4.60
  -5   6  20   13.20    4.90
  -4  -6  20   14.90    4.60
  -4   6  20   23.20    5.90
  -3  -6  20    7.50    3.90
  -3   6  20    6.20    4.80
  -2  -6  20    8.20    4.50
  -2   6  20    3.40    4.50
  -1  -6  20    6.70    4.30
  -1   6  20    1.00    3.80
 -13   0  21    1.90    4.30
 -12   0  21    9.30    4.10
 -11   0  21    2.60    3.70
 -10   0  21    0.50    3.70
  -9   0  21    5.20    3.70
  -8   0  21    4.10    3.90
  -7   0  21    3.10    3.30
  -6   0  21    6.20    3.20
  -6   0  21    5.60    4.10
  -5   0  21   -1.90    3.40
  -5   0  21   -0.10    2.80
  -4   0  21   -0.40    2.70
  -4   0  21    4.20    4.00
  -3   0  21   -1.80    3.70
  -3   0  21    2.40    3.00
  -2   0  21   -0.90    3.50
  -2   0  21   -0.50    3.00
  -1   0  21    2.50    3.20
  -1   0  21   -2.50    3.80
   0   0  21    0.70    3.20
   0   0  21    7.20    4.80
   1   0  21    4.10    3.30
   2   0  21   -3.40    3.00
   3   0  21   -1.70    2.80
 -13  -1  21   -0.10    3.60
 -13   1  21    3.40    4.10
 -12  -1  21   16.90    4.90
 -12   1  21    9.80    4.50
 -11  -1  21   23.90    5.20
 -11   1  21   16.50    5.00
 -10  -1  21    3.30    2.60
 -10   1  21    8.50    4.00
  -9   1  21   23.90    5.00
  -8  -1  21   19.10    4.20
  -8   1  21   38.50    6.00
  -7  -1  21   54.39    5.90
  -7  -1  21   37.20    5.60
  -7   1  21   48.20    6.40
  -6  -1  21   21.70    4.30
  -6  -1  21   15.50    4.60
  -6   1  21   22.00    5.00
  -5  -1  21   22.70    4.30
  -5  -1  21   23.40    5.00
  -5   1  21   21.70    5.30
  -5   1  21   21.50    5.60
  -4  -1  21    4.90    3.50
  -4  -1  21    8.30    3.80
  -4   1  21    6.30    3.30
  -4   1  21   13.60    5.00
  -3  -1  21   22.50    5.10
  -3  -1  21   38.50    5.30
  -3   1  21   25.50    5.70
  -3   1  21   27.80    4.50
  -2  -1  21   45.50    6.50
  -2  -1  21   44.90    5.70
  -2   1  21   47.10    5.50
  -2   1  21   43.30    6.70
  -1  -1  21   23.00    5.20
  -1  -1  21   25.50    5.00
  -1   1  21   22.60    4.40
  -1   1  21   27.00    5.70
   0  -1  21   13.00    3.80
   0  -1  21    6.70    4.30
   0   1  21   13.20    3.90
   0   1  21   21.80    5.50
   1  -1  21    6.40    3.90
   1   1  21    9.10    3.70
   2  -1  21   24.50    5.00
   2   1  21   32.40    5.10
   3  -1  21   48.80    6.60
   3   1  21   53.79    6.40
 -13  -2  21    6.30    4.40
 -13   2  21    4.50    4.60
 -12  -2  21   12.40    4.70
 -12   2  21   11.70    5.00
 -11  -2  21   -1.60    3.50
 -11   2  21    0.60    4.00
 -10  -2  21   -0.90    3.40
 -10   2  21   -1.80    3.20
  -9  -2  21    4.50    3.70
  -9   2  21    7.30    4.00
  -8  -2  21    7.10    3.80
  -8  -2  21    7.20    3.50
  -8   2  21   10.10    4.30
  -7  -2  21    3.40    3.40
  -7  -2  21    2.00    3.40
  -7   2  21    2.40    4.00
  -6  -2  21    2.00    3.50
  -6  -2  21    5.30    3.40
  -6   2  21    0.40    3.30
  -5  -2  21    5.90    3.80
  -5  -2  21    3.10    3.40
  -5   2  21    1.60    3.60
  -4  -2  21   -1.10    3.00
  -4  -2  21    1.80    3.30
  -4   2  21    1.90    4.10
  -3  -2  21    2.30    3.60
  -3  -2  21   -3.20    3.20
  -3   2  21    0.70    2.60
  -3   2  21   -0.80    3.50
  -2  -2  21    0.00    3.30
  -2  -2  21    2.80    3.60
  -2   2  21    0.50    2.80
  -2   2  21   -3.90    4.10
  -1  -2  21    6.80    3.50
  -1  -2  21   -1.40    3.50
  -1   2  21    2.30    3.00
  -1   2  21   -1.90    3.90
   0  -2  21    0.70    3.80
   0  -2  21   -4.50    2.60
   0   2  21    2.00    2.90
   0   2  21    1.50    4.00
   1  -2  21   -3.00    3.70
   1  -2  21    7.60    4.00
   1   2  21    0.20    2.90
   2  -2  21   -3.10    3.60
   2   2  21    3.80    2.90
   3  -2  21    6.60    3.80
   3   2  21    0.80    2.80
 -12   3  21    8.00    4.40
 -11   3  21    4.30    4.00
 -10   3  21    5.90    4.00
  -9  -3  21    4.30    3.70
  -9   3  21    8.50    4.10
  -8  -3  21    3.60    3.40
  -8   3  21    5.80    3.90
  -7  -3  21   13.70    4.00
  -7   3  21   10.90    4.20
  -6  -3  21   46.90    6.10
  -6   3  21   29.30    5.70
  -5  -3  21   22.10    5.00
  -5   3  21   15.80    4.80
  -4  -3  21    1.90    3.60
  -4   3  21    5.70    4.60
  -3  -3  21   22.00    4.60
  -3   3  21   22.00    5.30
  -2  -3  21   13.30    4.10
  -2   3  21   19.40    3.80
  -2   3  21   22.10    5.30
  -1  -3  21   39.00    6.00
  -1   3  21   38.50    6.80
  -1   3  21   35.40    4.90
   0  -3  21   12.80    4.50
   0   3  21   12.80    3.60
   0   3  21   11.50    5.20
   1  -3  21   -0.20    3.30
   1   3  21    0.00    3.00
   2  -3  21   25.00    4.90
   2   3  21   15.30    4.10
 -11   4  21   -0.30    3.90
 -10  -4  21    4.40    3.80
 -10   4  21   -1.90    3.50
  -9  -4  21    5.70    3.90
  -9   4  21   -2.20    3.30
  -8  -4  21   25.60    5.00
  -8   4  21   15.40    4.60
  -7  -4  21   -6.40    2.50
  -7   4  21    4.10    3.90
  -6  -4  21    0.80    3.60
  -6   4  21    3.40    3.60
  -5  -4  21   -1.20    3.60
  -5   4  21   -0.10    4.20
  -4  -4  21   10.60    4.30
  -4   4  21   18.50    5.10
  -3  -4  21    4.90    3.90
  -3   4  21    3.40    3.80
  -2  -4  21   -3.60    3.30
  -2   4  21    3.50    3.90
  -1  -4  21    7.90    4.20
  -1   4  21   12.70    5.20
   0  -4  21   -1.10    3.50
   0   4  21    3.70    4.30
   0   4  21    2.60    3.00
   1  -4  21    4.70    3.60
   1   4  21    3.00    3.10
  -9  -5  21   10.40    4.60
  -9   5  21   12.60    4.80
  -8  -5  21    5.00    4.30
  -8   5  21    4.60    4.00
  -7  -5  21    8.20    4.10
  -7   5  21    2.00    3.90
  -6  -5  21   28.70    5.40
  -6   5  21   17.20    5.30
  -5  -5  21   24.40    5.10
  -5   5  21   15.10    5.00
  -4  -5  21    6.00    4.20
  -4   5  21   -0.30    3.90
  -3  -5  21   -0.10    3.90
  -3   5  21    6.50    4.40
  -2  -5  21   18.70    4.70
  -2   5  21   11.00    4.80
  -1  -5  21    3.90    3.90
  -1   5  21    4.50    5.00
 -12   0  22    1.60    3.70
 -11   0  22   -7.10    3.00
 -10   0  22    0.70    3.50
  -9   0  22    1.90    3.70
  -8   0  22    0.50    3.70
  -7   0  22    2.80    3.60
  -6   0  22   -2.10    3.10
  -5   0  22   33.10    5.10
  -5   0  22   23.20    5.20
  -4   0  22    6.50    3.50
  -4   0  22    6.90    4.10
  -3   0  22   30.30    6.20
  -3   0  22   33.20    5.00
  -2   0  22    3.10    3.00
  -2   0  22    3.20    4.10
  -1   0  22   67.79    7.20
  -1   0  22   83.69    9.00
   0   0  22    4.40    3.60
   0   0  22    4.40    4.70
   1   0  22    2.40    3.70
   2   0  22    2.20    3.60
 -12  -1  22    5.40    4.40
 -12   1  22    3.50    4.00
 -11  -1  22    8.20    4.10
 -11   1  22    5.90    4.20
 -10  -1  22    1.10    2.10
 -10   1  22   -2.50    3.40
  -9  -1  22    0.50    1.90
  -9   1  22   -1.10    3.90
  -8  -1  22    3.20    3.50
  -8   1  22    2.50    3.80
  -7  -1  22    3.20    3.90
  -7   1  22   -2.00    3.80
  -6  -1  22    1.70    3.80
  -6  -1  22    2.10    3.00
  -6   1  22    1.50    4.00
  -5  -1  22    2.30    3.20
  -5  -1  22    4.20    4.10
  -5   1  22    9.00    4.60
  -4  -1  22    3.00    4.30
  -4  -1  22    2.20    3.50
  -4   1  22    0.50    3.60
  -4   1  22    4.10    3.20
  -3  -1  22   -6.00    3.40
  -3  -1  22    5.60    3.40
  -3   1  22    3.20    4.40
  -3   1  22   -0.20    3.10
  -2  -1  22   -0.10    3.40
  -2  -1  22    3.00    3.30
  -2   1  22   -1.70    4.30
  -2   1  22    0.40    3.20
  -1  -1  22    0.50    3.40
  -1  -1  22   -1.10    3.90
  -1   1  22    3.10    4.70
  -1   1  22    2.50    3.20
   0  -1  22   -1.70    3.40
   0  -1  22    4.20    4.30
   0   1  22    3.00    4.10
   0   1  22    4.40    3.30
   1  -1  22    7.90    4.60
   1  -1  22   -3.10    3.40
   1   1  22   -0.10    3.20
 -11  -2  22    2.00    3.90
 -11   2  22    4.80    4.30
 -10  -2  22    2.80    3.80
 -10   2  22    5.30    4.30
  -9  -2  22   14.40    4.60
  -9   2  22   11.10    4.70
  -8  -2  22   27.70    5.40
  -8   2  22   23.30    5.20
  -7  -2  22    5.00    3.80
  -7  -2  22    4.10    3.50
  -7   2  22    4.50    3.80
  -6  -2  22    6.40    3.80
  -6  -2  22   15.20    4.30
  -6   2  22    7.60    4.00
  -5  -2  22    1.90    3.40
  -5  -2  22    2.10    3.70
  -5   2  22    3.40    4.70
  -4  -2  22   52.79    6.80
  -4  -2  22   30.00    5.40
  -4   2  22   35.30    6.30
  -3  -2  22   32.10    5.20
  -3  -2  22   24.90    5.50
  -3   2  22   30.40    6.10
  -3   2  22   39.10    6.70
  -2  -2  22    1.70    3.90
  -2  -2  22   10.60    3.90
  -2   2  22    4.30    4.90
  -2   2  22    9.10    3.50
  -1  -2  22   11.70    4.40
  -1  -2  22    9.30    4.70
  -1   2  22   14.20    4.10
  -1   2  22   10.10    4.80
   0  -2  22   26.30    5.10
   0  -2  22   19.70    8.80
   0   2  22   36.80    5.40
   0   2  22   38.80    7.20
   1  -2  22   14.40    4.80
   1   2  22   11.70    4.00
 -10   3  22    2.40    4.20
  -9  -3  22    2.30    5.70
  -9   3  22    2.90    3.70
  -8  -3  22    7.10    4.10
  -8   3  22    4.20    3.90
  -7  -3  22    5.20    3.90
  -7   3  22   -2.00    3.50
  -6  -3  22   -2.40    3.60
  -6   3  22    4.50    4.40
  -5  -3  22   -4.70    2.80
  -5   3  22   -0.90    3.80
  -4  -3  22    0.90    3.70
  -4   3  22    2.00    4.00
  -3  -3  22   -2.30    3.00
  -3   3  22    4.60    4.50
  -2  -3  22    2.70    3.90
  -2   3  22   -2.70    3.60
  -1  -3  22    1.50    3.30
  -1   3  22    7.20    5.10
  -1   3  22    3.20    3.30
   0  -3  22    6.80    4.10
   0   3  22    2.20    3.10
   0   3  22    3.50    4.20
  -9  -4  22   10.00    4.40
  -9   4  22    8.80    4.40
  -8  -4  22   13.40    4.60
  -8   4  22   10.30    4.50
  -7  -4  22   -0.20    3.70
  -7   4  22    3.60    4.50
  -6  -4  22   10.80    4.50
  -6   4  22    8.80    4.40
  -5  -4  22   13.50    4.70
  -5   4  22    3.60    4.50
  -4  -4  22    5.30    3.60
  -4   4  22    1.80    4.60
  -3  -4  22    9.90    4.00
  -3   4  22    3.40    4.50
  -2  -4  22    0.30    3.80
  -2   4  22   -3.90    3.80
 -10   0  23   -5.50    3.80
  -9   0  23    9.40    4.70
  -8   0  23    4.90    4.30
  -7   0  23    1.70    3.90
  -6   0  23    3.20    3.70
  -5   0  23   -0.70    3.30
  -4   0  23    5.80    4.30
  -4   0  23    0.60    3.10
  -3   0  23    2.50    4.50
  -3   0  23    4.40    3.80
  -2   0  23    5.30    3.90
  -2   0  23    4.00    4.60
  -1   0  23    6.80    4.80
  -1   0  23   -3.00    3.30
 -10  -1  23   -0.40    1.80
 -10   1  23   -1.30    4.10
  -9  -1  23    4.40    3.50
  -9   1  23    6.70    4.60
  -8  -1  23    8.40    4.40
  -8   1  23    8.20    4.20
  -7  -1  23    7.20    4.40
  -7   1  23    5.30    3.90
  -6  -1  23   42.70    6.20
  -6  -1  23   28.70    5.90
  -6   1  23   41.50    6.80
  -5  -1  23    7.80    4.30
  -5  -1  23   21.60    4.70
  -5   1  23   12.10    4.80
  -4  -1  23    2.70    3.70
  -4  -1  23    2.50    3.50
  -4   1  23    1.60    4.40
  -3  -1  23    8.10    4.00
  -3  -1  23   12.40    5.00
  -3   1  23    7.50    3.80
  -3   1  23    4.30    4.60
  -2  -1  23   12.60    4.00
  -2  -1  23   15.90    5.20
  -2   1  23   17.70    4.40
  -2   1  23   24.60    6.30
  -1  -1  23    2.60    4.70
  -1  -1  23    3.80    4.00
  -1   1  23    3.20    4.30
  -1   1  23    2.50    3.40
  -9  -2  23    2.90    3.80
  -9   2  23    1.00    3.90
  -8  -2  23    4.00    4.20
  -8   2  23    1.20    3.70
  -7  -2  23   -2.60    3.40
  -7  -2  23    2.40    3.60
  -7   2  23   -1.60    4.00
  -6  -2  23    2.30    3.70
  -6  -2  23    1.90    3.70
  -6   2  23    3.40    3.90
  -5  -2  23   -1.70    3.40
  -5  -2  23    1.30    3.80
  -5   2  23   -2.00    4.30
  -4  -2  23    2.90    5.80
  -4  -2  23   -0.80    3.50
  -4   2  23    3.70    4.70
  -3  -2  23    0.50    3.70
  -3   2  23   -0.10    4.50
  -2  -2  23   -0.80    3.60
  -2   2  23    2.80    4.20
  -2   2  23   -2.30    3.10
  -7  -3  23   13.50    4.40
  -7   3  23    2.20    4.10
  -6  -3  23    6.80    4.30
  -6   3  23    9.70    5.00
  -5  -3  23    0.30    3.80
  -5   3  23    6.10    4.50
  -4  -3  23    5.50    4.00
  -4   3  23    1.80    4.80

_computing_structure_solution     'SHELXT 2014/4 (Sheldrick, 2014)'
;
_shelx_hkl_checksum              61562
loop_
_space_group_symop_operation_xyz
'x, y, z'
'-x, y+1/2, -z'
loop_
_atom_site_label
_atom_site_type_symbol
_atom_site_fract_x
_atom_site_fract_y
_atom_site_fract_z
_atom_site_U_iso_or_equiv
_atom_site_adp_type
_atom_site_occupancy
_atom_site_site_symmetry_order
_atom_site_calc_flag
_atom_site_refinement_flags_posn
_atom_site_refinement_flags_adp
C1 C 0.1217(5) 0.1745(9) 0.3513(3) 0.0825(18) Uani 1 1 d . .
H1C H 0.0667 0.1085 0.3386 0.124 Uiso 1 1 calc R U
H1D H 0.1792 0.1167 0.3742 0.124 Uiso 1 1 calc R U
H1E H 0.1264 0.2230 0.3045 0.124 Uiso 1 1 calc R U
C2 C 0.0182(6) 0.3777(9) 0.3768(4) 0.113(3) Uani 1 1 d . .
H2C H 0.0186 0.4270 0.3291 0.170 Uiso 1 1 calc R U
H2D H 0.0112 0.4520 0.4139 0.170 Uiso 1 1 calc R U
H2E H -0.0348 0.3079 0.3663 0.170 Uiso 1 1 calc R U
C3 C 0.1985(7) 0.3939(11) 0.4321(4) 0.134(4) Uani 1 1 d . .
H3A H 0.2091 0.4355 0.3857 0.200 Uiso 1 1 calc R U
H3B H 0.2537 0.3351 0.4599 0.200 Uiso 1 1 calc R U
H3C H 0.1889 0.4745 0.4650 0.200 Uiso 1 1 calc R U
C4 C 0.1104(4) 0.2943(7) 0.4095(3) 0.0703(15) Uani 1 1 d . .
C5 C 0.1662(3) 0.2861(5) 0.6410(2) 0.0463(10) Uani 1 1 d . .
H5 H 0.1803 0.1775 0.6432 0.056 Uiso 1 1 calc R U
C6 C 0.1065(4) 0.3144(7) 0.6958(3) 0.0591(13) Uani 1 1 d . .
C7 C 0.2645(3) 0.3683(5) 0.6663(2) 0.0479(11) Uani 1 1 d . .
C8 C 0.2711(3) 0.5345(6) 0.6810(3) 0.0494(11) Uani 1 1 d . .
C9 C 0.2268(4) 0.6547(7) 0.6362(3) 0.0716(16) Uani 1 1 d . .
H9 H 0.1810 0.6404 0.5879 0.086 Uiso 1 1 calc R U
C10 C 0.2532(6) 0.7989(8) 0.6659(5) 0.097(2) Uani 1 1 d . .
H10 H 0.2250 0.8827 0.6366 0.117 Uiso 1 1 calc R U
C11 C 0.3194(6) 0.8196(9) 0.7368(5) 0.098(2) Uani 1 1 d . .
H11 H 0.3346 0.9176 0.7552 0.117 Uiso 1 1 calc R U
C12 C 0.3645(4) 0.7002(8) 0.7823(3) 0.0761(16) Uani 1 1 d . .
H12 H 0.4103 0.7154 0.8306 0.091 Uiso 1 1 calc R U
C13 C 0.3392(3) 0.5586(6) 0.7534(3) 0.0506(12) Uani 1 1 d . .
C14 C 0.3348(3) 0.3043(6) 0.7419(3) 0.0602(13) Uani 1 1 d . .
C15 C 0.4574(3) 0.4063(8) 0.8580(3) 0.0724(17) Uani 1 1 d . .
H15A H 0.5047 0.4830 0.8566 0.087 Uiso 1 1 calc R U
H15B H 0.4873 0.3084 0.8572 0.087 Uiso 1 1 calc R U
C16 C 0.4330(4) 0.4214(7) 0.9338(3) 0.0673(14) Uani 1 1 d . .
C17 C 0.3503(5) 0.3614(11) 0.9434(4) 0.106(3) Uani 1 1 d . .
H17 H 0.3059 0.3154 0.9011 0.128 Uiso 1 1 calc R U
C18 C 0.3314(6) 0.3675(14) 1.0134(5) 0.140(4) Uani 1 1 d . .
H18 H 0.2746 0.3268 1.0188 0.168 Uiso 1 1 calc R U
C19 C 0.3976(7) 0.4349(14) 1.0763(5) 0.132(4) Uani 1 1 d . .
H19 H 0.3854 0.4399 1.1245 0.159 Uiso 1 1 calc R U
C20 C 0.4798(7) 0.4934(11) 1.0681(4) 0.118(3) Uani 1 1 d . .
H20 H 0.5241 0.5388 1.1108 0.142 Uiso 1 1 calc R U
C21 C 0.4991(5) 0.4867(9) 0.9970(4) 0.091(2) Uani 1 1 d . .
H21 H 0.5564 0.5261 0.9919 0.109 Uiso 1 1 calc R U
C22 C 0.7686(5) 0.3601(11) 1.0688(3) 0.108(3) Uani 1 1 d . .
H22A H 0.7243 0.2855 1.0398 0.162 Uiso 1 1 calc R U
H22B H 0.7636 0.4501 1.0378 0.162 Uiso 1 1 calc R U
H22C H 0.7533 0.3836 1.1162 0.162 Uiso 1 1 calc R U
C23 C 0.8831(5) 0.1745(10) 1.1486(3) 0.095(2) Uani 1 1 d . .
H23A H 0.9484 0.1383 1.1626 0.143 Uiso 1 1 calc R U
H23B H 0.8397 0.0930 1.1270 0.143 Uiso 1 1 calc R U
H23C H 0.8694 0.2129 1.1944 0.143 Uiso 1 1 calc R U
C24 C 0.9448(5) 0.4209(10) 1.1159(4) 0.103(2) Uani 1 1 d . .
H24A H 0.9374 0.4674 1.1624 0.154 Uiso 1 1 calc R U
H24B H 0.9367 0.4958 1.0757 0.154 Uiso 1 1 calc R U
H24C H 1.0081 0.3773 1.1273 0.154 Uiso 1 1 calc R U
C25 C 0.8701(3) 0.2994(7) 1.0887(3) 0.0587(13) Uani 1 1 d . .
C26 C 0.8095(3) 0.3255(6) 0.8591(2) 0.0459(10) Uani 1 1 d . .
H26 H 0.7824 0.2238 0.8583 0.055 Uiso 1 1 calc R U
C27 C 0.8690(3) 0.3210(6) 0.8025(3) 0.0538(11) Uani 1 1 d . .
C28 C 0.7229(3) 0.4327(6) 0.8335(2) 0.0462(11) Uani 1 1 d . .
C29 C 0.7324(3) 0.5948(6) 0.8122(2) 0.0493(11) Uani 1 1 d . .
C30 C 0.7931(3) 0.7086(7) 0.8493(3) 0.0633(13) Uani 1 1 d . .
H30 H 0.8423 0.6892 0.8951 0.076 Uiso 1 1 calc R U
C31 C 0.7799(4) 0.8525(7) 0.8177(4) 0.0761(16) Uani 1 1 d . .
H31 H 0.8208 0.9306 0.8418 0.091 Uiso 1 1 calc R U
C32 C 0.7059(4) 0.8797(7) 0.7501(4) 0.0753(16) Uani 1 1 d . .
H32 H 0.6970 0.9776 0.7303 0.090 Uiso 1 1 calc R U
C33 C 0.6452(4) 0.7680(7) 0.7112(3) 0.0626(14) Uani 1 1 d . .
H33 H 0.5964 0.7878 0.6652 0.075 Uiso 1 1 calc R U
C34 C 0.6595(3) 0.6249(6) 0.7433(3) 0.0486(11) Uani 1 1 d . .
C35 C 0.6420(3) 0.3725(6) 0.7622(2) 0.0511(12) Uani 1 1 d . .
C36 C 0.5211(3) 0.4860(7) 0.6477(2) 0.0629(14) Uani 1 1 d . .
H36A H 0.4776 0.5662 0.6525 0.075 Uiso 1 1 calc R U
H36B H 0.4886 0.3905 0.6487 0.075 Uiso 1 1 calc R U
C37 C 0.5405(4) 0.5013(7) 0.5696(3) 0.0601(13) Uani 1 1 d . .
C38 C 0.6250(4) 0.4494(10) 0.5582(3) 0.091(2) Uani 1 1 d . .
H38 H 0.6732 0.4082 0.5997 0.109 Uiso 1 1 calc R U
C39 C 0.6379(6) 0.4588(13) 0.4849(4) 0.124(3) Uani 1 1 d . .
H39 H 0.6945 0.4222 0.4772 0.149 Uiso 1 1 calc R U
C40 C 0.5692(8) 0.5204(11) 0.4239(4) 0.120(3) Uani 1 1 d . .
H40 H 0.5793 0.5281 0.3751 0.145 Uiso 1 1 calc R U
C41 C 0.4859(8) 0.5708(10) 0.4346(4) 0.111(3) Uani 1 1 d . .
H41 H 0.4386 0.6122 0.3926 0.134 Uiso 1 1 calc R U
C42 C 0.4702(5) 0.5615(9) 0.5071(3) 0.090(2) Uani 1 1 d . .
H42 H 0.4125 0.5958 0.5136 0.108 Uiso 1 1 calc R U
F1 F 0.0759(3) 0.4546(5) 0.69514(19) 0.0870(10) Uani 1 1 d . .
F2 F 0.0286(3) 0.2296(6) 0.6786(2) 0.1225(18) Uani 1 1 d . .
F3 F 0.1553(3) 0.2883(6) 0.76942(17) 0.1033(13) Uani 1 1 d . .
F4 F 0.30704(19) 0.3302(4) 0.60782(15) 0.0718(9) Uani 1 1 d . .
F5 F 0.8140(2) 0.3160(5) 0.72804(15) 0.0850(10) Uani 1 1 d . .
F6 F 0.9247(2) 0.4415(4) 0.80757(19) 0.0803(9) Uani 1 1 d . .
F7 F 0.9257(3) 0.2019(4) 0.81364(19) 0.0916(11) Uani 1 1 d . .
F8 F 0.68140(18) 0.4278(4) 0.89510(13) 0.0685(9) Uani 1 1 d . .
N1 N 0.1122(3) 0.3198(5) 0.56070(19) 0.0490(9) Uani 1 1 d . .
H1A H 0.1386 0.4006 0.5455 0.059 Uiso 1 1 calc R U
H1B H 0.0524 0.3447 0.5595 0.059 Uiso 1 1 calc R U
N2 N 0.8693(2) 0.3502(5) 0.93870(18) 0.0476(9) Uani 1 1 d . .
H2A H 0.8440 0.4264 0.9585 0.057 Uiso 1 1 calc R U
H2B H 0.9273 0.3798 0.9371 0.057 Uiso 1 1 calc R U
N3 N 0.3763(3) 0.4205(5) 0.7878(2) 0.0560(10) Uani 1 1 d . .
N4 N 0.6067(3) 0.4922(5) 0.7149(2) 0.0522(10) Uani 1 1 d . .
O1 O 0.0087(3) 0.1128(5) 0.47277(18) 0.0743(11) Uani 1 1 d . .
O2 O 0.3524(3) 0.1704(5) 0.7550(2) 0.0956(14) Uani 1 1 d . .
O3 O 0.9858(3) 0.1531(5) 1.02273(19) 0.0811(13) Uani 1 1 d . .
O4 O 0.6132(3) 0.2435(5) 0.7542(2) 0.0728(11) Uani 1 1 d . .
S1 S 0.10581(8) 0.18283(15) 0.49570(6) 0.0531(3) Uani 1 1 d . .
S2 S 0.88445(8) 0.20477(15) 1.00068(6) 0.0532(3) Uani 1 1 d . .
loop_
_atom_site_aniso_label
_atom_site_aniso_U_11
_atom_site_aniso_U_22
_atom_site_aniso_U_33
_atom_site_aniso_U_23
_atom_site_aniso_U_13
_atom_site_aniso_U_12
C1 0.095(4) 0.105(5) 0.058(3) -0.025(3) 0.038(3) -0.014(4)
C2 0.190(8) 0.100(6) 0.056(4) 0.012(3) 0.047(4) 0.041(6)
C3 0.189(8) 0.155(8) 0.070(4) -0.026(4) 0.059(5) -0.120(7)
C4 0.093(4) 0.076(4) 0.045(3) -0.009(3) 0.025(3) -0.017(3)
C5 0.056(2) 0.039(3) 0.041(2) -0.0052(18) 0.0095(19) -0.003(2)
C6 0.068(3) 0.066(4) 0.043(3) -0.009(2) 0.017(2) -0.025(3)
C7 0.051(2) 0.050(3) 0.042(2) -0.0112(19) 0.0120(19) 0.000(2)
C8 0.047(2) 0.047(3) 0.056(3) -0.002(2) 0.019(2) -0.009(2)
C9 0.076(3) 0.063(4) 0.074(4) 0.016(3) 0.020(3) -0.012(3)
C10 0.131(6) 0.051(4) 0.117(6) 0.020(4) 0.048(5) -0.003(4)
C11 0.132(6) 0.056(4) 0.111(6) -0.016(4) 0.046(5) -0.035(4)
C12 0.087(4) 0.066(4) 0.080(4) -0.021(3) 0.033(3) -0.034(4)
C13 0.051(3) 0.051(3) 0.055(3) -0.009(2) 0.025(2) -0.013(2)
C14 0.058(3) 0.055(3) 0.058(3) -0.010(2) 0.002(2) 0.010(3)
C15 0.048(3) 0.104(5) 0.055(3) -0.022(3) 0.000(2) 0.005(3)
C16 0.060(3) 0.076(4) 0.057(3) -0.005(3) 0.003(2) 0.011(3)
C17 0.080(4) 0.175(9) 0.060(4) -0.002(4) 0.016(3) -0.011(5)
C18 0.109(6) 0.232(13) 0.084(5) 0.014(6) 0.035(5) -0.010(7)
C19 0.143(8) 0.190(11) 0.070(5) 0.018(6) 0.041(5) 0.036(8)
C20 0.153(8) 0.130(7) 0.054(4) -0.020(4) 0.003(4) 0.008(6)
C21 0.095(4) 0.105(6) 0.057(3) -0.013(3) -0.001(3) -0.007(4)
C22 0.098(5) 0.173(9) 0.060(4) 0.015(4) 0.035(3) 0.053(5)
C23 0.122(5) 0.109(6) 0.055(3) 0.029(4) 0.027(3) 0.018(5)
C24 0.123(5) 0.119(6) 0.069(4) -0.033(4) 0.033(4) -0.041(5)
C25 0.061(3) 0.077(4) 0.038(2) 0.014(2) 0.015(2) 0.008(3)
C26 0.051(2) 0.050(3) 0.035(2) 0.0026(19) 0.0104(18) -0.005(2)
C27 0.062(3) 0.054(3) 0.046(3) 0.006(2) 0.018(2) 0.013(3)
C28 0.045(2) 0.062(3) 0.032(2) -0.001(2) 0.0115(17) -0.004(2)
C29 0.048(3) 0.055(3) 0.045(3) -0.009(2) 0.013(2) 0.007(2)
C30 0.055(3) 0.057(3) 0.070(3) -0.018(3) 0.005(2) 0.008(3)
C31 0.078(4) 0.047(4) 0.096(4) -0.018(3) 0.014(3) 0.005(3)
C32 0.085(4) 0.049(3) 0.090(4) -0.003(3) 0.023(3) 0.012(3)
C33 0.064(3) 0.065(4) 0.057(3) 0.005(3) 0.016(2) 0.020(3)
C34 0.045(2) 0.059(3) 0.042(2) -0.001(2) 0.0134(19) 0.008(2)
C35 0.048(2) 0.065(4) 0.039(2) 0.003(2) 0.0104(19) -0.009(2)
C36 0.045(2) 0.096(4) 0.042(3) 0.001(3) 0.0048(19) -0.004(3)
C37 0.063(3) 0.070(3) 0.040(3) 0.003(2) 0.004(2) -0.018(3)
C38 0.075(4) 0.139(7) 0.057(3) -0.002(4) 0.019(3) -0.014(4)
C39 0.128(6) 0.192(10) 0.067(5) -0.022(5) 0.052(4) -0.050(7)
C40 0.189(9) 0.121(7) 0.055(4) -0.006(4) 0.041(5) -0.078(7)
C41 0.175(9) 0.097(6) 0.044(4) 0.014(3) 0.004(4) -0.018(6)
C42 0.108(5) 0.094(5) 0.052(3) 0.010(3) -0.003(3) -0.002(4)
F1 0.099(2) 0.088(3) 0.088(2) -0.0107(19) 0.0505(19) 0.016(2)
F2 0.122(3) 0.154(4) 0.117(3) -0.060(3) 0.074(2) -0.085(3)
F3 0.111(3) 0.155(4) 0.0468(17) 0.019(2) 0.0280(17) 0.010(3)
F4 0.0541(15) 0.100(2) 0.0638(17) -0.0291(17) 0.0208(13) -0.0034(16)
F5 0.091(2) 0.126(3) 0.0399(15) -0.0045(17) 0.0219(14) 0.012(2)
F6 0.086(2) 0.085(2) 0.087(2) 0.0041(19) 0.0522(18) -0.011(2)
F7 0.109(2) 0.088(3) 0.093(2) 0.027(2) 0.0533(19) 0.053(2)
F8 0.0501(14) 0.120(3) 0.0374(14) 0.0017(15) 0.0158(11) 0.0034(16)
N1 0.0494(19) 0.055(2) 0.0415(19) -0.0081(17) 0.0123(15) -0.0090(18)
N2 0.0471(19) 0.058(3) 0.0362(18) 0.0054(16) 0.0107(15) 0.0029(18)
N3 0.050(2) 0.066(3) 0.046(2) -0.0121(19) 0.0053(17) 0.000(2)
N4 0.045(2) 0.069(3) 0.037(2) -0.0014(18) 0.0048(15) -0.0040(19)
O1 0.085(3) 0.083(3) 0.053(2) -0.0138(18) 0.0180(18) -0.043(2)
O2 0.101(3) 0.056(3) 0.100(3) -0.008(2) -0.018(2) 0.023(2)
O3 0.077(2) 0.107(4) 0.056(2) 0.010(2) 0.0130(17) 0.044(2)
O4 0.077(2) 0.074(3) 0.057(2) 0.0046(18) 0.0026(17) -0.024(2)
S1 0.0612(7) 0.0554(8) 0.0425(6) -0.0117(5) 0.0148(5) -0.0133(6)
S2 0.0614(7) 0.0542(8) 0.0405(6) 0.0088(5) 0.0094(5) 0.0082(6)
loop_
_atom_type_symbol
_atom_type_description
_atom_type_scat_dispersion_real
_atom_type_scat_dispersion_imag
_atom_type_scat_source
C C 0.0033 0.0016 'International Tables Vol C Tables 4.2.6.8 and 6.1.1.4'
H H 0.0000 0.0000 'International Tables Vol C Tables 4.2.6.8 and 6.1.1.4'
N N 0.0061 0.0033 'International Tables Vol C Tables 4.2.6.8 and 6.1.1.4'
O O 0.0106 0.0060 'International Tables Vol C Tables 4.2.6.8 and 6.1.1.4'
F F 0.0171 0.0103 'International Tables Vol C Tables 4.2.6.8 and 6.1.1.4'
S S 0.1246 0.1234 'International Tables Vol C Tables 4.2.6.8 and 6.1.1.4'
loop_
_geom_angle_atom_site_label_1
_geom_angle_atom_site_label_2
_geom_angle_atom_site_label_3
_geom_angle
C4 C1 H1C 109.5
C4 C1 H1D 109.5
H1C C1 H1D 109.5
C4 C1 H1E 109.5
H1C C1 H1E 109.5
H1D C1 H1E 109.5
C4 C2 H2C 109.5
C4 C2 H2D 109.5
H2C C2 H2D 109.5
C4 C2 H2E 109.5
H2C C2 H2E 109.5
H2D C2 H2E 109.5
C4 C3 H3A 109.5
C4 C3 H3B 109.5
H3A C3 H3B 109.5
C4 C3 H3C 109.5
H3A C3 H3C 109.5
H3B C3 H3C 109.5
C2 C4 C3 114.1(7)
C2 C4 C1 109.9(5)
C3 C4 C1 109.5(5)
C2 C4 S1 110.0(4)
C3 C4 S1 109.0(4)
C1 C4 S1 103.6(5)
N1 C5 C6 111.3(4)
N1 C5 C7 112.0(3)
C6 C5 C7 112.9(3)
N1 C5 H5 106.7
C6 C5 H5 106.7
C7 C5 H5 106.7
F2 C6 F1 105.7(5)
F2 C6 F3 107.8(4)
F1 C6 F3 104.7(4)
F2 C6 C5 111.8(4)
F1 C6 C5 114.0(4)
F3 C6 C5 112.2(4)
F4 C7 C8 110.4(4)
F4 C7 C14 104.1(3)
C8 C7 C14 102.4(4)
F4 C7 C5 103.9(3)
C8 C7 C5 121.5(4)
C14 C7 C5 113.4(4)
C9 C8 C13 120.3(5)
C9 C8 C7 131.8(5)
C13 C8 C7 107.8(4)
C8 C9 C10 117.3(6)
C8 C9 H9 121.3
C10 C9 H9 121.3
C11 C10 C9 121.3(7)
C11 C10 H10 119.4
C9 C10 H10 119.4
C10 C11 C12 122.1(7)
C10 C11 H11 119.0
C12 C11 H11 119.0
C13 C12 C11 116.9(6)
C13 C12 H12 121.5
C11 C12 H12 121.5
C12 C13 C8 122.1(5)
C12 C13 N3 127.4(5)
C8 C13 N3 110.5(4)
O2 C14 N3 126.6(5)
O2 C14 C7 124.9(5)
N3 C14 C7 108.4(4)
N3 C15 C16 115.2(4)
N3 C15 H15A 108.5
C16 C15 H15A 108.5
N3 C15 H15B 108.5
C16 C15 H15B 108.5
H15A C15 H15B 107.5
C17 C16 C21 118.9(6)
C17 C16 C15 121.8(5)
C21 C16 C15 119.1(6)
C18 C17 C16 121.5(7)
C18 C17 H17 119.2
C16 C17 H17 119.2
C17 C18 C19 119.2(8)
C17 C18 H18 120.4
C19 C18 H18 120.4
C20 C19 C18 120.1(7)
C20 C19 H19 119.9
C18 C19 H19 119.9
C19 C20 C21 120.7(8)
C19 C20 H20 119.7
C21 C20 H20 119.7
C16 C21 C20 119.6(8)
C16 C21 H21 120.2
C20 C21 H21 120.2
C25 C22 H22A 109.5
C25 C22 H22B 109.5
H22A C22 H22B 109.5
C25 C22 H22C 109.5
H22A C22 H22C 109.5
H22B C22 H22C 109.5
C25 C23 H23A 109.5
C25 C23 H23B 109.5
H23A C23 H23B 109.5
C25 C23 H23C 109.5
H23A C23 H23C 109.5
H23B C23 H23C 109.5
C25 C24 H24A 109.5
C25 C24 H24B 109.5
H24A C24 H24B 109.5
C25 C24 H24C 109.5
H24A C24 H24C 109.5
H24B C24 H24C 109.5
C24 C25 C22 112.4(6)
C24 C25 C23 111.5(5)
C22 C25 C23 109.6(5)
C24 C25 S2 110.4(4)
C22 C25 S2 108.0(4)
C23 C25 S2 104.6(4)
N2 C26 C27 111.6(4)
N2 C26 C28 113.6(4)
C27 C26 C28 113.3(3)
N2 C26 H26 105.8
C27 C26 H26 105.8
C28 C26 H26 105.8
F7 C27 F6 107.0(4)
F7 C27 F5 106.7(4)
F6 C27 F5 105.6(4)
F7 C27 C26 112.0(4)
F6 C27 C26 113.0(4)
F5 C27 C26 112.2(4)
F8 C28 C29 108.8(4)
F8 C28 C26 104.5(3)
C29 C28 C26 122.6(4)
F8 C28 C35 103.9(3)
C29 C28 C35 102.9(4)
C26 C28 C35 112.8(4)
C30 C29 C34 119.9(5)
C30 C29 C28 132.2(4)
C34 C29 C28 107.7(4)
C29 C30 C31 119.1(5)
C29 C30 H30 120.5
C31 C30 H30 120.5
C32 C31 C30 119.8(6)
C32 C31 H31 120.1
C30 C31 H31 120.1
C33 C32 C31 122.4(6)
C33 C32 H32 118.8
C31 C32 H32 118.8
C32 C33 C34 117.1(5)
C32 C33 H33 121.4
C34 C33 H33 121.4
C33 C34 C29 121.7(5)
C33 C34 N4 127.9(4)
C29 C34 N4 110.4(4)
O4 C35 N4 127.5(4)
O4 C35 C28 124.9(4)
N4 C35 C28 107.4(4)
N4 C36 C37 114.6(4)
N4 C36 H36A 108.6
C37 C36 H36A 108.6
N4 C36 H36B 108.6
C37 C36 H36B 108.6
H36A C36 H36B 107.6
C42 C37 C38 119.0(5)
C42 C37 C36 119.4(5)
C38 C37 C36 121.6(5)
C39 C38 C37 119.8(7)
C39 C38 H38 120.1
C37 C38 H38 120.1
C40 C39 C38 121.0(8)
C40 C39 H39 119.5
C38 C39 H39 119.5
C41 C40 C39 119.6(7)
C41 C40 H40 120.2
C39 C40 H40 120.2
C40 C41 C42 120.9(7)
C40 C41 H41 119.5
C42 C41 H41 119.5
C37 C42 C41 119.8(7)
C37 C42 H42 120.1
C41 C42 H42 120.1
C5 N1 S1 116.4(3)
C5 N1 H1A 108.2
S1 N1 H1A 108.2
C5 N1 H1B 108.2
S1 N1 H1B 108.2
H1A N1 H1B 107.3
C26 N2 S2 117.4(3)
C26 N2 H2A 108.0
S2 N2 H2A 108.0
C26 N2 H2B 108.0
S2 N2 H2B 108.0
H2A N2 H2B 107.2
C14 N3 C13 110.8(4)
C14 N3 C15 124.4(5)
C13 N3 C15 124.3(5)
C35 N4 C34 111.1(4)
C35 N4 C36 124.0(4)
C34 N4 C36 124.7(4)
O1 S1 N1 110.5(2)
O1 S1 C4 105.0(2)
N1 S1 C4 100.7(2)
O3 S2 N2 109.9(2)
O3 S2 C25 105.4(2)
N2 S2 C25 101.0(2)
loop_
_geom_bond_atom_site_label_1
_geom_bond_atom_site_label_2
_geom_bond_distance
C1 C4 1.528(8)
C1 H1C 0.9600
C1 H1D 0.9600
C1 H1E 0.9600
C2 C4 1.487(9)
C2 H2C 0.9600
C2 H2D 0.9600
C2 H2E 0.9600
C3 C4 1.505(8)
C3 H3A 0.9600
C3 H3B 0.9600
C3 H3C 0.9600
C4 S1 1.847(6)
C5 N1 1.448(5)
C5 C6 1.509(6)
C5 C7 1.543(6)
C5 H5 0.9800
C6 F2 1.314(6)
C6 F1 1.316(7)
C6 F3 1.317(5)
C7 F4 1.403(5)
C7 C8 1.491(7)
C7 C14 1.541(6)
C8 C9 1.371(7)
C8 C13 1.393(7)
C9 C10 1.390(10)
C9 H9 0.9300
C10 C11 1.357(10)
C10 H10 0.9300
C11 C12 1.375(10)
C11 H11 0.9300
C12 C13 1.363(8)
C12 H12 0.9300
C13 N3 1.402(7)
C14 O2 1.219(7)
C14 N3 1.342(6)
C15 N3 1.449(6)
C15 C16 1.505(7)
C15 H15A 0.9700
C15 H15B 0.9700
C16 C17 1.368(9)
C16 C21 1.373(8)
C17 C18 1.359(10)
C17 H17 0.9300
C18 C19 1.379(13)
C18 H18 0.9300
C19 C20 1.347(12)
C19 H19 0.9300
C20 C21 1.381(11)
C20 H20 0.9300
C21 H21 0.9300
C22 C25 1.508(7)
C22 H22A 0.9600
C22 H22B 0.9600
C22 H22C 0.9600
C23 C25 1.512(8)
C23 H23A 0.9600
C23 H23B 0.9600
C23 H23C 0.9600
C24 C25 1.501(8)
C24 H24A 0.9600
C24 H24B 0.9600
C24 H24C 0.9600
C25 S2 1.847(5)
C26 N2 1.448(5)
C26 C27 1.512(6)
C26 C28 1.532(6)
C26 H26 0.9800
C27 F7 1.315(6)
C27 F6 1.324(6)
C27 F5 1.335(5)
C28 F8 1.404(4)
C28 C29 1.500(7)
C28 C35 1.549(6)
C29 C30 1.372(7)
C29 C34 1.391(6)
C30 C31 1.383(8)
C30 H30 0.9300
C31 C32 1.379(8)
C31 H31 0.9300
C32 C33 1.368(8)
C32 H32 0.9300
C33 C34 1.380(7)
C33 H33 0.9300
C34 N4 1.412(6)
C35 O4 1.209(6)
C35 N4 1.357(6)
C36 N4 1.451(5)
C36 C37 1.510(6)
C36 H36A 0.9700
C36 H36B 0.9700
C37 C42 1.378(7)
C37 C38 1.380(8)
C38 C39 1.380(8)
C38 H38 0.9300
C39 C40 1.354(12)
C39 H39 0.9300
C40 C41 1.352(13)
C40 H40 0.9300
C41 C42 1.384(10)
C41 H41 0.9300
C42 H42 0.9300
N1 S1 1.662(4)
N1 H1A 0.8900
N1 H1B 0.8900
N2 S2 1.669(4)
N2 H2A 0.8900
N2 H2B 0.8900
O1 S1 1.481(4)
O3 S2 1.476(4)
