#------------------------------------------------------------------------------
#$Date: 2016-09-08 10:32:43 +0300 (Thu, 08 Sep 2016) $
#$Revision: 186281 $
#$URL: file:///home/coder/svn-repositories/cod/cif/1/54/40/1544040.cif $
#------------------------------------------------------------------------------
#
# This file is available in the Crystallography Open Database (COD),
# http://www.crystallography.net/
#
# All data on this site have been placed in the public domain by the
# contributors.
#
data_1544040
loop_
_publ_author_name
'Paek, S.'
'Zimmermann, I.'
'Gao, P.'
'Gratia, P.'
'Rakstys, K.'
'Grancini, G.'
'Nazeeruddin, Mohammad Khaja'
'Rub, Malik Abdul'
'Kosa, Samia A.'
'Alamry, Khalid A.'
'Asiri, Abdullah M.'
_publ_section_title
;
 Donor--\p--donor type hole transporting materials: marked \p-bridge
 effects on optoelectronic properties, solid-state structure, and
 perovskite solar cell efficiency
;
_journal_issue                   9
_journal_name_full               'Chem. Sci.'
_journal_page_first              6068
_journal_paper_doi               10.1039/C6SC01478J
_journal_volume                  7
_journal_year                    2016
_chemical_formula_moiety         'C46 H38 N2 O4 S2'
_chemical_formula_sum            'C46 H38 N2 O4 S2'
_chemical_formula_weight         746.90
_chemical_name_systematic
;
 ?
;
_space_group_crystal_system      monoclinic
_space_group_IT_number           14
_space_group_name_Hall           '-P 2yn'
_space_group_name_H-M_alt        'P 1 21/n 1'
_symmetry_space_group_name_Hall  '-P 2yn'
_symmetry_space_group_name_H-M   'P 1 21/n 1'
_atom_sites_solution_hydrogens   geom
_audit_creation_date             2016-01-11
_audit_creation_method
;
Olex2 1.2
(compiled 2015.09.30 svn.r3233 for OlexSys, GUI svn.r5103)
;
_audit_update_record
;
2016-01-11 deposited with the CCDC.
2016-05-24 downloaded from the CCDC.
;
_cell_angle_alpha                90
_cell_angle_beta                 93.313(5)
_cell_angle_gamma                90
_cell_formula_units_Z            2
_cell_length_a                   11.0264(6)
_cell_length_b                   10.3433(14)
_cell_length_c                   17.0214(17)
_cell_measurement_temperature    120(2)
_cell_volume                     1938.0(3)
_computing_molecular_graphics    'Olex2 (Dolomanov et al., 2009)'
_computing_publication_material  'Olex2 (Dolomanov et al., 2009)'
_computing_structure_refinement  'ShelXL (Sheldrick, 2015)'
_diffrn_ambient_temperature      120.15
_diffrn_measured_fraction_theta_full 0.999
_diffrn_measured_fraction_theta_max 0.986
_diffrn_measurement_device_type  'Bruker P4'
_diffrn_measurement_method       '\w scans'
_diffrn_radiation_monochromator  graphite
_diffrn_radiation_type           MoK\a
_diffrn_radiation_wavelength     0.71073
_diffrn_reflns_av_R_equivalents  0.0375
_diffrn_reflns_av_unetI/netI     0.0367
_diffrn_reflns_Laue_measured_fraction_full 0.999
_diffrn_reflns_Laue_measured_fraction_max 0.986
_diffrn_reflns_limit_h_max       15
_diffrn_reflns_limit_h_min       -15
_diffrn_reflns_limit_k_max       14
_diffrn_reflns_limit_k_min       -14
_diffrn_reflns_limit_l_max       23
_diffrn_reflns_limit_l_min       -23
_diffrn_reflns_number            27653
_diffrn_reflns_point_group_measured_fraction_full 0.999
_diffrn_reflns_point_group_measured_fraction_max 0.986
_diffrn_reflns_theta_full        25.242
_diffrn_reflns_theta_max         29.997
_diffrn_reflns_theta_min         2.145
_exptl_absorpt_coefficient_mu    0.184
_exptl_absorpt_correction_type   none
_exptl_crystal_density_diffrn    1.280
_exptl_crystal_F_000             784
_refine_diff_density_max         0.385
_refine_diff_density_min         -0.352
_refine_diff_density_rms         0.069
_refine_ls_extinction_coef       0.0020(10)
_refine_ls_extinction_expression Fc^*^=kFc[1+0.001xFc^2^\l^3^/sin(2\q)]^-1/4^
_refine_ls_extinction_method     SHELXL
_refine_ls_goodness_of_fit_ref   1.164
_refine_ls_hydrogen_treatment    constr
_refine_ls_matrix_type           full
_refine_ls_number_parameters     247
_refine_ls_number_reflns         5567
_refine_ls_number_restraints     0
_refine_ls_restrained_S_all      1.164
_refine_ls_R_factor_all          0.0787
_refine_ls_R_factor_gt           0.0525
_refine_ls_shift/su_max          0.001
_refine_ls_shift/su_mean         0.000
_refine_ls_structure_factor_coef Fsqd
_refine_ls_weighting_details
;
 w=1/[\s^2^(Fo^2^)+(0.0468P)^2^+1.1828P]
 where P=(Fo^2^+2Fc^2^)/3
;
_refine_ls_weighting_scheme      calc
_refine_ls_wR_factor_gt          0.1177
_refine_ls_wR_factor_ref         0.1336
_reflns_Friedel_coverage         0.000
_reflns_number_gt                4221
_reflns_number_total             5567
_reflns_threshold_expression     'I > 2\s(I)'
_cod_data_source_file            c6sc01478j2.cif
_cod_data_source_block           ometpa-thth
_cod_database_code               1544040
_shelxl_version_number           2013-2
_shelx_space_group_comment
;
The symmetry employed for this shelxl refinement is uniquely defined
by the following loop, which should always be used as a source of
symmetry information in preference to the above space-group names.
They are only intended as comments.
;
_olex2_refinement_description
;
1. Fixed Uiso
 At 1.2 times of:
  All C(H) groups
 At 1.5 times of:
  All C(H,H,H) groups
2.a Aromatic/amide H refined with riding coordinates:
 C3(H3), C4(H4), C6(H6), C7(H7), C9(H9), C10(H10), C13(H13), C14(H14),
 C16(H16), C17(H17), C19(H19), C20(H20), C23(H23)
2.b Idealised Me refined as rotating group:
 C1(H1A,H1B,H1C), C11(H11A,H11B,H11C)
;
_shelx_res_file
;
TITL ometpa-thth in P2(1)/n
CELL 0.71073 11.0264 10.3433 17.0214 90 93.3125 90
ZERR 2 0.0006 0.0014 0.0017 0 0.005 0
LATT 1
SYMM 0.5-X,0.5+Y,0.5-Z
SFAC C H N O S
UNIT 92 76 4 8 4

L.S. 10
PLAN  10
TEMP -153
MORE -1
BOND $H
CONF
fmap 2
acta
REM <olex2.extras>
REM <HklSrc "%.\\ometpa-thth.hkl">
REM </olex2.extras>

WGHT    0.046800    1.182800
EXTI    0.002000
FVAR       0.57707
C1    1    0.674182    1.057848    0.391361    11.00000    0.03719    0.03339 =
         0.04409   -0.01537   -0.01206    0.00290
AFIX 137
H1A   2    0.735088    1.078695    0.433677    11.00000   -1.50000
H1B   2    0.597181    1.100089    0.401750    11.00000   -1.50000
H1C   2    0.702222    1.088596    0.341060    11.00000   -1.50000
AFIX   0
C2    1    0.573249    0.875789    0.331024    11.00000    0.02018    0.02840 =
         0.02374   -0.00646   -0.00138    0.00395
C3    1    0.513734    0.952657    0.273540    11.00000    0.01840    0.02134 =
         0.02957   -0.00196   -0.00017    0.00191
AFIX  43
H3    2    0.526274    1.043526    0.273534    11.00000   -1.20000
AFIX   0
C4    1    0.435647    0.895649    0.215987    11.00000    0.01952    0.02512 =
         0.02667    0.00123   -0.00112    0.00461
AFIX  43
H4    2    0.397314    0.947896    0.175919    11.00000   -1.20000
AFIX   0
C5    1    0.413325    0.763205    0.216638    11.00000    0.01977    0.02469 =
         0.02196   -0.00514    0.00045    0.00178
C6    1    0.470121    0.687701    0.276605    11.00000    0.03480    0.02083 =
         0.02625   -0.00042    0.00004    0.00098
AFIX  43
H6    2    0.453371    0.597726    0.278867    11.00000   -1.20000
AFIX   0
C7    1    0.550362    0.743056    0.332532    11.00000    0.03625    0.02703 =
         0.02198    0.00012   -0.00535    0.00563
AFIX  43
H7    2    0.589915    0.690576    0.372008    11.00000   -1.20000
AFIX   0
C8    1    0.210466    0.754204    0.150104    11.00000    0.01972    0.02019 =
         0.02489   -0.00362    0.00005    0.00075
C9    1    0.145995    0.775804    0.216584    11.00000    0.02664    0.02508 =
         0.02065   -0.00357   -0.00313    0.00358
AFIX  43
H9    2    0.182577    0.756504    0.267124    11.00000   -1.20000
AFIX   0
C10   1    0.028099    0.825520    0.210109    11.00000    0.02442    0.02610 =
         0.02131   -0.00660    0.00216    0.00187
AFIX  43
H10   2   -0.015110    0.840418    0.255949    11.00000   -1.20000
AFIX   0
C11   1   -0.214055    0.911028    0.189815    11.00000    0.02677    0.05234 =
         0.03954    0.00074    0.01011    0.00999
AFIX 137
H11A  2   -0.295610    0.941193    0.172724    11.00000   -1.50000
H11B  2   -0.176588    0.972539    0.227695    11.00000   -1.50000
H11C  2   -0.219767    0.825988    0.214716    11.00000   -1.50000
AFIX   0
C12   1   -0.025543    0.853039    0.136131    11.00000    0.01831    0.02620 =
         0.02724   -0.00227    0.00079    0.00023
C13   1    0.038369    0.830672    0.069030    11.00000    0.02347    0.04404 =
         0.02202    0.00424    0.00026    0.00241
AFIX  43
H13   2    0.001642    0.849476    0.018460    11.00000   -1.20000
AFIX   0
C14   1    0.155476    0.781018    0.075980    11.00000    0.02330    0.04108 =
         0.02208    0.00091    0.00552    0.00209
AFIX  43
H14   2    0.198346    0.765231    0.030105    11.00000   -1.20000
AFIX   0
C15   1    0.359193    0.582519    0.127935    11.00000    0.02299    0.02171 =
         0.01897   -0.00282    0.00048    0.00134
C16   1    0.268239    0.489423    0.111835    11.00000    0.01875    0.02784 =
         0.02309   -0.00284    0.00266    0.00100
AFIX  43
H16   2    0.185741    0.510139    0.119238    11.00000   -1.20000
AFIX   0
C17   1    0.298429    0.367069    0.085109    11.00000    0.02000    0.02379 =
         0.02029   -0.00287    0.00023   -0.00260
AFIX  43
H17   2    0.235772    0.305253    0.074892    11.00000   -1.20000
AFIX   0
C19   1    0.508858    0.427245    0.087710    11.00000    0.01865    0.02448 =
         0.01934   -0.00210    0.00092    0.00112
AFIX  43
H19   2    0.591123    0.406939    0.079290    11.00000   -1.20000
AFIX   0
C20   1    0.479855    0.549816    0.114445    11.00000    0.02086    0.02348 =
         0.02024   -0.00337    0.00014   -0.00078
AFIX  43
H20   2    0.542350    0.612130    0.123689    11.00000   -1.20000
AFIX   0
C21   1    0.418607    0.332682    0.072888    11.00000    0.02190    0.02159 =
         0.01474   -0.00104    0.00117    0.00115
C22   1    0.449287    0.202834    0.044846    11.00000    0.01905    0.02436 =
         0.01731   -0.00108    0.00148    0.00060
C23   1    0.374930    0.114589    0.005281    11.00000    0.02010    0.02654 =
         0.02550   -0.00521   -0.00071    0.00229
AFIX  43
H23   2    0.291171    0.128450   -0.008338    11.00000   -1.20000
AFIX   0
C24   1    0.560648    0.000260    0.012716    11.00000    0.02190    0.02306 =
         0.02079   -0.00569   -0.00088   -0.00158
N1    3    0.332302    0.705730    0.157721    11.00000    0.02073    0.02435 =
         0.02902   -0.00884   -0.00376    0.00360
O1    4   -0.141338    0.901341    0.123100    11.00000    0.01938    0.05193 =
         0.03283    0.00217    0.00239    0.00883
O2    4    0.656781    0.921143    0.387858    11.00000    0.03470    0.03217 =
         0.03383   -0.00902   -0.01463    0.00539
S1    5    0.597701    0.143801    0.061046    11.00000    0.01933    0.02499 =
         0.03252   -0.00971   -0.00261    0.00031
HKLF 4

REM  ometpa-thth in P2(1)/n
REM R1 =  0.0525 for    4221 Fo > 4sig(Fo)  and  0.0787 for all    5567 data
REM    247 parameters refined using      0 restraints

END

WGHT      0.0467      1.1841

REM Highest difference peak  0.385,  deepest hole -0.352,  1-sigma level  0.069
Q1    1   0.0093  0.8379  0.1024  11.00000  0.05    0.39
Q2    1   0.5586  0.9186  0.2975  11.00000  0.05    0.36
Q3    1   0.0944  0.8251  0.2004  11.00000  0.05    0.35
Q4    1   0.5990  0.1586  0.0100  11.00000  0.05    0.34
Q5    1   0.5843  0.0593  0.0326  11.00000  0.05    0.34
Q6    1   0.0054  0.8768  0.1782  11.00000  0.05    0.32
Q7    1  -0.0087  0.8239  0.1698  11.00000  0.05    0.32
Q8    1   0.1767  0.7818  0.1160  11.00000  0.05    0.31
Q9    1   0.4332  0.7331  0.2519  11.00000  0.05    0.29
Q10   1   0.3182  0.5270  0.1147  11.00000  0.05    0.29
;
_shelx_res_checksum              69974
_shelx_hkl_file
;
   1   0   0 -6.8369  0.2607   4
  -1   0   0 -7.2294  0.3003   4
   1   0   0 -7.1491  0.3119   3
  -1   0   0 -6.2553  0.3112   3
  -2   0   0 4334.08   53.65   3
   2   0   0 4370.90   59.23   4
  -2   0   0 4448.10   51.05   4
   2   0   0 4342.60   59.59   3
   3   0   0 0.44068 1.32901   3
  -3   0   0 -1.2046  1.1464   4
  -4   0   0 99.0849  5.8484   3
  -4   0   0 95.8487  5.2546   4
   4   0   0 96.6035  5.1585   4
  -5   0   0 0.94513 1.59290   3
  -6   0   0 145.797   8.805   3
   6   0   0 154.412   7.536   2
  -6   0   0 143.547   7.971   4
   6   0   0 139.514   7.523   5
   7   0   0 2.52022 2.48839   5
   7   0   0 0.69874 2.05220   2
  -7   0   0 2.59836 3.01301   4
  -7   0   0 3.46516 2.82470   3
  -8   0   0 40.8811  5.6274   4
   8   0   0 33.0663  4.3988   5
   8   0   0 32.1074  4.1094   2
  -8   0   0 28.4485  5.1853   3
  -9   0   0 -8.0962  4.2005   3
   9   0   0 -5.4777  2.8558   2
   9   0   0 2.85235 3.01951   5
 -10   0   0 1.56970 2.93553   4
  10   0   0 2.51797 2.91915   5
  10   0   0 1.55922 2.40771   2
 -10   0   0 -6.7680  4.4850   3
 -11   0   0 9.15002 3.64827   4
  11   0   0 0.63940 2.77794   2
  11   0   0 4.16753 3.11390   5
 -11   0   0 6.07095 4.98655   3
  12   0   0 13.3602  4.3787   5
 -12   0   0 -0.8495  4.4334   3
  13   0   0 -1.3271  2.7460   2
 -13   0   0 9.89489 5.97425   3
  13   0   0 2.45690 2.56181   5
  14   0   0 20.0384  5.1184   5
 -14   0   0 32.0691  8.1273   3
 -15   0   0 0.10780 4.93094   3
   0  -1   0 -1.3276  0.2429   1
   0  -1   0 -2.1221  0.6968   1
   0   1   0 -1.6437  0.3980   1
  -1  -1   0 7.72270 1.15701   1
   1  -1   0 6.18811 0.63205   2
  -1  -1   0 7.48404 1.33071   1
  -1   1   0 7.07423 1.30103   1
   1   1   0 4.66931 1.10162   1
  -1   1   0 7.43830 1.29921   1
  -1   1   0 5.62414 0.56864   2
   2  -1   0 23.6679  1.3053   2
   2  -1   0 23.6869  2.1793   3
   2  -1   0 23.2965  2.1465   5
   2  -1   0 22.6506  1.5109   1
  -2  -1   0 21.4845  1.3292   1
   2  -1   0 24.3771  1.5243   1
   2  -1   0 21.4491  1.5889   4
  -2  -1   0 21.2922  2.2642   4
  -2   1   0 22.7517  1.6514   4
  -2   1   0 23.3456  1.3575   2
   2   1   0 23.7846  2.1944   3
  -2   1   0 20.7881  1.9373   5
   2   1   0 22.8017  2.1157   4
  -2   1   0 21.8548  1.5098   1
   2   1   0 20.9821  1.2777   1
   2   1   0 23.1245  1.3188   1
  -2   1   0 23.9936  1.5882   1
  -2   1   0 25.0545  2.4425   3
   3  -1   0 148.644   3.936   1
   3  -1   0 154.058   4.514   2
   3  -1   0 153.055   5.258   4
   3  -1   0 153.497   4.026   1
  -3  -1   0 153.150   6.375   3
  -3  -1   0 156.506   3.473   1
   3  -1   0 151.947   6.407   3
   3  -1   0 152.869   5.748   5
  -3  -1   0 146.723   6.270   4
   3   1   0 157.917   6.490   3
  -3   1   0 151.889   5.756   5
  -3   1   0 149.183   5.169   4
   3   1   0 148.485   3.302   1
  -3   1   0 146.260   3.953   1
  -3   1   0 145.474   6.354   3
   3   1   0 149.967   6.037   4
   3   1   0 153.362   3.345   1
  -4  -1   0 35.3552  3.7579   3
   4  -1   0 40.1280  1.9590   1
   4  -1   0 37.6145  1.9065   1
   4  -1   0 40.1938  3.1836   4
   4  -1   0 35.7407  2.6059   2
   4  -1   0 37.3870  3.4290   5
  -4  -1   0 43.0084  3.9438   4
  -4   1   0 38.6643  1.9485   1
  -4   1   0 38.7153  4.0404   3
  -4   1   0 40.3711  3.3235   4
   5  -1   0 1620.83   25.18   2
  -5  -1   0 1662.88   31.12   3
  -5  -1   0 1611.40   29.55   4
   5  -1   0 1609.12   27.92   5
   5  -1   0 1617.22   21.50   1
  -5   1   0 1633.10   27.53   4
  -5   1   0 1646.78   31.62   3
  -6  -1   0 424.687  15.223   3
   6  -1   0 422.780  11.585   2
  -6  -1   0 403.375  14.223   4
   6  -1   0 404.337  13.019   5
  -6   1   0 424.228  15.736   3
  -6   1   0 397.368  12.774   4
   7  -1   0 223.692   8.943   2
  -7  -1   0 230.532  11.350   4
  -7  -1   0 224.888  11.924   3
   7  -1   0 221.854  10.223   5
  -7   1   0 238.208  10.521   4
  -7   1   0 221.746  12.145   3
   8  -1   0 142.214   8.794   5
  -8  -1   0 136.704   9.280   4
  -8  -1   0 147.076  10.602   3
   8  -1   0 134.596   7.457   2
  -8   1   0 137.789  10.415   3
  -8   1   0 148.595   9.079   4
   8   1   0 134.605   8.643   2
   9  -1   0 76.9259  6.9663   5
  -9  -1   0 78.8254  8.7189   3
  -9  -1   0 70.9059  7.7879   4
   9  -1   0 69.1707  5.8515   2
  -9   1   0 72.0271  8.4233   3
  -9   1   0 68.0277  7.0249   4
   9   1   0 80.5352  7.3924   2
 -10  -1   0 15.1805  4.6361   4
  10  -1   0 9.92133 3.53376   5
 -10   1   0 5.70822 3.60537   3
  10   1   0 3.71979 3.08766   2
  10   1   0 8.46087 3.44193   5
  11  -1   0 161.168   9.604   2
 -11  -1   0 177.116  13.747   3
  11  -1   0 146.843  10.529   5
 -11  -1   0 169.949  12.419   4
  11   1   0 156.180  10.709   2
 -11   1   0 144.778  12.853   3
  11   1   0 150.610  10.847   5
  12  -1   0 152.293   9.693   2
 -12  -1   0 165.650  13.806   3
 -12  -1   0 165.090  12.728   4
  12  -1   0 151.373  10.956   5
 -12   1   0 161.843  14.274   3
  12   1   0 173.857  11.855   2
  12   1   0 148.327  11.223   5
 -13  -1   0 1.70372 3.61972   3
  13   1   0 0.89797 2.75220   2
 -13   1   0 -6.6177  4.5928   3
  14  -1   0 122.337  10.747   5
  14   1   0 99.6511 10.0562   5
 -14   1   0 91.4604 12.2490   3
 -15   1   0 4.74421 5.79413   3
   0  -2   0 744.133  13.051   1
   0  -2   0 720.053  12.767   1
   0  -2   0 726.150  11.997   5
   0   2   0 703.825  12.754   1
   0   2   0 715.875  11.977   5
   0   2   0 696.641  12.725   1
   1  -2   0 70.0175  3.5212   1
  -1  -2   0 75.0679  3.5643   1
   1  -2   0 68.4902  3.4004   5
  -1  -2   0 71.6331  3.3667   4
   1  -2   0 77.7365  3.6895   1
  -1  -2   0 74.8773  3.6076   1
   1   2   0 70.1888  3.4480   1
  -1   2   0 63.8364  2.1732   2
  -1   2   0 68.4122  3.2631   5
  -1   2   0 73.3892  3.6938   1
  -1   2   0 69.4549  3.4678   1
   1   2   0 67.2728  3.3677   1
   2  -2   0 170.230   5.615   1
   2  -2   0 178.237   3.962   4
   2  -2   0 169.477   5.806   5
   2  -2   0 174.888   5.758   2
  -2  -2   0 177.936   5.518   1
  -2  -2   0 179.727   5.480   1
   2  -2   0 168.117   5.554   1
  -2  -2   0 180.012   6.480   4
  -2   2   0 170.887   3.505   2
  -2   2   0 172.156   5.732   1
   2   2   0 168.511   5.224   1
   2   2   0 178.723   5.450   1
  -2   2   0 170.580   5.909   5
  -2   2   0 171.693   5.650   1
  -3  -2   0 112.709   4.211   1
   3  -2   0 119.498   5.399   5
  -3  -2   0 114.739   5.861   4
   3  -2   0 114.156   4.603   1
  -3  -2   0 115.961   4.270   1
   3  -2   0 112.477   4.033   4
   3  -2   0 113.753   3.105   2
   3  -2   0 120.702   4.671   1
  -3   2   0 107.864   5.224   5
   3   2   0 115.919   4.179   1
  -3   2   0 117.107   5.958   3
  -3   2   0 110.217   4.524   1
   3   2   0 111.693   5.676   3
  -3   2   0 115.284   3.353   2
  -3   2   0 109.082   4.472   1
   3   2   0 114.654   4.161   1
   4  -2   0 238.036   8.414   5
  -4  -2   0 249.566   9.668   4
  -4  -2   0 243.778   6.235   1
   4  -2   0 243.044   6.902   1
   4  -2   0 240.769   6.763   1
  -4  -2   0 239.062   6.081   1
   4  -2   0 240.373   7.253   4
   4  -2   0 244.339   5.817   2
  -4   2   0 233.699   6.864   1
   4   2   0 236.983   5.973   1
  -4   2   0 252.920  10.117   3
  -4   2   0 230.591   6.690   1
   4   2   0 230.660   5.907   1
  -4   2   0 235.731   8.596   5
  -5  -2   0 485.669   9.025   1
   5  -2   0 503.150  10.478   1
   5  -2   0 495.435  12.372   4
  -5  -2   0 492.998  15.064   4
   5  -2   0 496.762  13.707   5
   5  -2   0 495.845  10.308   2
  -5   2   0 486.346  10.403   1
  -5   2   0 471.764  15.531   3
  -5   2   0 495.459  10.405   1
   5   2   0 485.523   8.912   1
  -6  -2   0 71.1741  6.3716   4
   6  -2   0 72.7632  4.1416   2
   6  -2   0 72.8833  5.6687   5
   6  -2   0 77.6284  3.7014   1
  -6   2   0 69.2806  6.5736   3
  -6   2   0 76.8440  3.7515   1
   7  -2   0 331.271   7.789   1
   7  -2   0 340.094  12.870   5
   7  -2   0 339.598  10.136   2
  -7  -2   0 349.468  14.707   4
  -7   2   0 352.388   8.171   1
  -7   2   0 342.108  15.421   3
  -8  -2   0 181.438  11.098   4
   8  -2   0 172.660   7.717   2
   8  -2   0 163.309   9.528   5
  -8   2   0 169.239  12.013   3
  -9  -2   0 737.597  24.260   4
   9  -2   0 731.888  21.831   5
   9  -2   0 743.496  18.030   2
  -9   2   0 714.544  25.725   3
 -10  -2   0 5.76651 4.44812   4
  10  -2   0 3.55278 3.08257   5
  10  -2   0 2.02118 1.96212   2
 -10   2   0 4.75454 3.43017   3
  10   2   0 -1.8199  3.1941   2
  11  -2   0 6.52957 2.46571   2
 -11  -2   0 5.46805 4.44334   4
  11   2   0 10.9706  4.2531   2
 -11   2   0 12.6682  5.5289   3
 -12  -2   0 2.33406 3.54087   4
  12  -2   0 7.92703 3.89036   5
  12   2   0 10.2221  4.4241   2
  12   2   0 6.89897 3.73740   5
 -12   2   0 11.2470  5.7178   3
  13  -2   0 67.7716  8.0994   5
 -13   2   0 45.4179  9.0683   3
  13   2   0 66.0626  8.1138   2
  13   2   0 63.4960  8.0571   5
  14  -2   0 18.5392  5.2778   5
 -14   2   0 13.8752  5.9021   3
  14   2   0 13.5810  4.7697   5
 -15   2   0 18.3752  7.5052   3
   0  -3   0 16.5803  2.3312   1
   0  -3   0 16.7882  2.4721   1
   0   3   0 25.6655  7.1607   5
  -1  -3   0 1137.25   18.16   4
   1  -3   0 1148.51   18.80   5
   1  -3   0 1127.13   19.76   1
   1  -3   0 1111.53   19.85   1
  -1  -3   0 1073.45   19.31   1
  -1  -3   0 1119.70   19.70   1
   1   3   0 1162.78   18.73   5
  -1   3   0 1084.54   19.55   1
  -1   3   0 1133.32   16.08   2
   1   3   0 1092.43   19.33   1
  -1   3   0 1080.61   19.66   1
   1   3   0 1125.42   19.60   1
  -2  -3   0 1552.19   24.60   1
   2  -3   0 1557.12   24.56   5
  -2  -3   0 1567.76   24.56   1
   2  -3   0 1562.22   24.88   1
  -2  -3   0 1590.06   25.29   4
   2  -3   0 1598.01   25.36   1
   2   3   0 1558.80   24.50   1
   2   3   0 1533.43   24.22   1
  -2   3   0 1589.90   25.12   5
  -2   3   0 1540.66   24.93   1
  -2   3   0 1548.45   25.18   1
  -2   3   0 1598.91   19.63   2
  -3  -3   0 75.1891  4.2640   1
   3  -3   0 79.8607  4.6555   1
   3  -3   0 82.3517  2.5734   2
  -3  -3   0 76.3377  4.3546   1
   3  -3   0 76.9864  4.8010   5
   3  -3   0 75.5853  2.9497   4
  -3  -3   0 76.2451  5.1060   4
   3   3   0 80.0360  4.3362   1
  -3   3   0 69.9235  4.3560   1
  -3   3   0 76.8663  4.5922   1
  -3   3   0 76.1071  2.5994   2
   4  -3   0 13.6555  2.7048   5
   4  -3   0 12.9385  1.6147   4
   4  -3   0 12.4415  2.0940   1
  -4  -3   0 16.8396  3.2753   4
   4  -3   0 15.6772  1.2835   2
  -4  -3   0 15.3129  2.1102   1
  -4  -3   0 16.9015  2.1147   1
  -4   3   0 14.6441  2.2718   1
   4   3   0 13.1662  1.8948   1
  -4   3   0 14.3217  1.3277   2
  -4   3   0 9.77968 1.90760   1
  -4   3   0 13.9547  2.6903   3
   5  -3   0 1526.55   24.41   4
   5  -3   0 1579.11   25.46   1
   5  -3   0 1539.47   28.29   5
  -5  -3   0 1549.76   30.82   4
  -5  -3   0 1540.17   23.79   1
  -5  -3   0 1576.96   23.94   1
  -5   3   0 1486.53   24.92   1
  -5   3   0 1571.85   32.09   3
  -5   3   0 1557.61   25.55   1
   6  -3   0 61.0344  5.5090   5
  -6  -3   0 58.0612  3.4660   1
   6  -3   0 56.3230  3.0933   2
   6  -3   0 60.7643  4.0213   1
  -6  -3   0 56.0316  5.9950   4
  -6   3   0 58.4812  6.0831   3
  -6   3   0 59.3859  4.1455   1
   6   3   0 60.9208  3.4601   1
  -6   3   0 54.5390  3.8880   1
   7  -3   0 219.610   7.008   2
  -7  -3   0 244.815  12.469   4
   7  -3   0 224.880  10.550   5
  -7  -3   0 223.790   6.416   1
   7  -3   0 238.027   8.015   1
  -7   3   0 247.735   8.329   1
   7   3   0 233.884   6.334   1
  -7   3   0 226.443  12.776   3
  -7   3   0 209.634   7.544   1
   8  -3   0 28.2823  4.8329   5
  -8  -3   0 20.2082  5.3365   4
   8  -3   0 19.6757  2.5010   2
   8  -3   0 23.8458  2.5179   1
  -8   3   0 25.9815  2.7897   1
  -8   3   0 21.9645  5.5254   3
   9  -3   0 321.312  14.252   5
   9  -3   0 303.001   9.940   2
  -9  -3   0 315.944  16.126   4
  -9   3   0 308.755   8.472   1
  -9   3   0 302.881  16.837   3
  10  -3   0 54.4037  6.5386   5
 -10  -3   0 46.4913  7.1099   4
  10  -3   0 57.1490  4.5738   2
 -10   3   0 51.4569  8.1795   3
  11  -3   0 62.5562  7.0775   5
 -11  -3   0 70.3696  8.8743   4
 -11   3   0 61.2674  9.0344   3
  11   3   0 66.6531  8.2672   2
 -12   3   0 25.5250  6.8705   3
  13  -3   0 1.29547 3.52284   5
  13   3   0 3.97030 2.98527   5
 -13   3   0 9.63133 6.18473   3
 -14   3   0 -1.7111  3.9374   3
 -15   3   0 8.72253 6.36658   3
  15   3   0 -4.6992  4.1541   2
   0  -4   0 937.964  18.054   5
   0  -4   0 934.274  19.661   1
   0   4   0 943.584  19.707   1
  -1  -4   0 953.928  19.885   1
   1  -4   0 1025.98   19.29   5
  -1  -4   0 1054.22   18.18   4
  -1  -4   0 991.555  20.406   1
   1  -4   0 992.706  20.578   1
   1   4   0 997.524  20.404   1
  -1   4   0 1004.98   20.74   1
  -1   4   0 1036.15   16.56   2
  -2  -4   0 305.493  10.061   1
   2  -4   0 304.017   9.739   5
   2  -4   0 306.376  10.581   1
  -2  -4   0 318.750  10.037   4
  -2  -4   0 300.684  10.248   1
  -2   4   0 310.667   6.860   2
  -2   4   0 306.080  10.678   1
  -2   4   0 313.159  10.566   1
   2   4   0 326.978  10.462   1
   3  -4   0 683.950  16.028   5
  -3  -4   0 665.680  15.879   1
  -3  -4   0 683.467  16.920   4
   3  -4   0 703.252  16.803   1
  -3  -4   0 684.961  16.072   1
  -3   4   0 678.470  16.584   1
  -3   4   0 659.418  16.157   1
  -3   4   0 677.312  10.777   2
   3   4   0 680.321  15.698   1
   4  -4   0 515.561  14.203   1
   4  -4   0 530.346  14.586   5
   4  -4   0 536.292   8.750   2
  -4  -4   0 526.708  15.926   4
  -4  -4   0 533.977  13.754   1
   4  -4   0 508.987   9.807   4
  -4  -4   0 513.714  13.478   1
  -4   4   0 502.848  14.121   1
   4   4   0 534.491  13.413   1
  -4   4   0 490.546  13.859   1
  -5  -4   0 96.1935  7.1539   4
  -5  -4   0 98.3222  5.5578   1
   5  -4   0 95.9632  4.4472   4
   5  -4   0 94.9593  3.1259   2
  -5  -4   0 88.7043  5.2833   1
   5  -4   0 102.187   6.169   1
   5  -4   0 93.7112  6.2377   5
  -5   4   0 93.7442  5.7517   1
   5   4   0 92.4011  5.2531   1
  -5   4   0 101.844   6.233   1
  -5   4   0 84.6888  7.3182   3
  -6  -4   0 100.524   5.490   1
   6  -4   0 98.3307  3.4993   2
  -6  -4   0 108.167   8.365   4
   6  -4   0 93.8568  5.0228   4
   6  -4   0 97.1303  7.1097   5
  -6  -4   0 104.454   5.623   1
   6  -4   0 111.512   6.386   1
   6   4   0 111.007   5.601   1
  -6   4   0 106.319   8.656   3
  -6   4   0 92.2718  5.7910   1
  -6   4   0 102.320   6.153   1
   7  -4   0 48.5269  4.2897   1
  -7  -4   0 35.5309  5.8603   4
  -7  -4   0 42.9735  3.6294   1
  -7  -4   0 46.6938  3.6250   1
   7  -4   0 45.5127  5.4511   5
   7  -4   0 45.4151  2.6690   2
  -7   4   0 47.5442  4.4935   1
  -7   4   0 48.1366  4.2111   1
   7   4   0 47.4721  3.5640   1
  -7   4   0 51.0031  6.8881   3
   8  -4   0 50.7719  3.1502   2
   8  -4   0 54.8414  4.5076   1
  -8  -4   0 49.8501  3.5501   1
   8  -4   0 48.8118  6.0362   5
  -8  -4   0 51.2482  6.6582   4
  -8   4   0 49.1407  4.4153   1
  -8   4   0 62.0975  8.0352   3
   8   4   0 56.3373  3.5463   1
  -9  -4   0 41.6184  6.8979   4
   9  -4   0 43.0428  5.9770   5
   9  -4   0 46.1159  3.2636   2
  -9   4   0 34.2449  6.9347   3
  -9   4   0 40.4859  3.9294   1
 -10  -4   0 161.205  12.646   4
  10  -4   0 169.560  11.074   5
 -10   4   0 150.416  12.773   3
 -10   4   0 148.734   6.675   1
 -11  -4   0 70.2390  9.4289   4
  11  -4   0 65.3911  7.6121   5
  11   4   0 75.7412  9.2052   2
 -11   4   0 67.7042  9.8655   3
  12  -4   0 5.13789 3.82647   5
 -12  -4   0 0.12450 3.45208   4
 -12   4   0 -5.1479  5.4190   3
  13  -4   0 16.3710  4.9511   5
  14  -4   0 -1.6991  3.3558   5
  14   4   0 6.51649 4.28691   5
 -14   4   0 7.46508 6.07300   3
  14   4   0 2.03401 3.39647   2
   0  -5   0 -4.1531  1.9366   1
   0  -5   0 -1.3916  1.4610   5
   0  -5   0 0.56845 0.99103   4
   0   5   0 1.25619 2.08255   1
  -1  -5   0 355.986  10.230   4
   1  -5   0 356.987  12.625   1
  -1  -5   0 359.928  12.687   1
   1  -5   0 339.585  11.087   5
  -1   5   0 351.802  12.650   1
  -1   5   0 356.964   9.458   2
   1   5   0 371.735  12.689   1
   2  -5   0 43.5771  4.0621   5
  -2  -5   0 45.3171  4.4672   1
  -2  -5   0 47.3497  4.2436   4
   2  -5   0 51.7698  5.0459   1
   2   5   0 48.4680  4.7688   1
  -2   5   0 38.9110  2.7156   2
  -2   5   0 45.2310  4.7712   1
  -3  -5   0 148.058   7.954   1
   3  -5   0 134.536   7.750   1
   3  -5   0 133.446   7.398   5
  -3  -5   0 146.119   7.928   4
  -3   5   0 134.104   4.473   2
   3   5   0 146.708   7.777   1
  -3   5   0 134.217   7.913   1
  -4  -5   0 -0.5594  1.5481   1
  -4  -5   0 2.90460 2.10941   4
  -4  -5   0 -4.8145  2.4584   1
   4  -5   0 -1.4553  2.0291   1
   4  -5   0 0.54365 1.75987   5
   4   5   0 -1.5524  1.4514   1
  -4   5   0 -0.5161  1.0598   2
  -4   5   0 -1.1946  2.3673   1
   5  -5   0 2.92481 2.31503   5
  -5  -5   0 0.62825 1.39126   1
   5  -5   0 5.57378 2.57261   1
   5  -5   0 1.19161 0.78567   4
  -5  -5   0 6.68895 2.51489   1
  -5   5   0 -1.1106  2.0871   1
  -5   5   0 3.95125 3.20854   3
   5   5   0 2.32805 1.89524   1
  -6  -5   0 56.7249  4.9317   1
   6  -5   0 47.5141  3.3477   4
  -6  -5   0 52.1398  6.5813   4
  -6  -5   0 45.6153  4.3983   1
   6  -5   0 54.5051  5.1983   1
   6  -5   0 54.7779  5.8485   5
  -6   5   0 50.0561  6.7004   3
   6   5   0 57.5690  4.7334   1
  -6   5   0 47.8636  4.7630   1
  -6   5   0 52.2114  5.2186   1
  -7  -5   0 -7.6351  4.2619   4
   7  -5   0 6.13068 3.04171   5
  -7  -5   0 -3.3481  2.1953   1
   7   5   0 -0.7838  1.5871   1
  -7   5   0 0.47611 2.39534   1
   8  -5   0 36.8900  4.2765   1
   8  -5   0 26.4604  4.9952   5
  -8  -5   0 26.6318  5.6099   4
  -8  -5   0 29.8248  3.4729   1
  -8   5   0 33.3886  4.3148   1
   8   5   0 28.3750  3.2373   1
  -8   5   0 36.7572  6.2923   3
  -9  -5   0 25.3677  2.9219   1
   9  -5   0 24.2686  4.9270   5
  -9  -5   0 24.4011  5.2907   4
  -9   5   0 23.4262  6.1649   3
  -9   5   0 18.4978  3.4225   1
 -10  -5   0 17.7160  5.8253   4
  10  -5   0 4.19031 3.61816   5
 -10   5   0 10.1211  2.5800   1
 -10   5   0 1.08667 4.54798   3
  11  -5   0 3.15737 3.45296   5
 -11   5   0 -0.7951  4.0081   3
 -12   5   0 0.92622 5.05217   3
  12   5   0 6.10064 3.95722   2
 -13   5   0 25.4567  7.7804   3
  14  -5   0 32.8746  6.3737   5
 -14   5   0 22.5962  8.1368   3
   0  -6   0 171.575   6.559   4
   0  -6   0 172.282   9.524   1
   0   6   0 172.471   9.574   1
  -1  -6   0 -3.9684  2.7222   1
   1  -6   0 -3.3951  2.7222   5
   1  -6   0 2.05323 0.96394   4
   1  -6   0 -1.1207  1.9325   1
  -1  -6   0 0.99933 1.33741   4
  -1   6   0 4.25369 2.82081   1
   1   6   0 0.12774 2.52100   1
  -2  -6   0 417.657  13.109   4
   2  -6   0 414.266  13.686   5
  -2  -6   0 425.624  15.035   1
   2  -6   0 414.059  15.247   1
   2   6   0 424.012  14.903   1
  -2   6   0 409.447  15.150   1
  -2   6   0 399.879  10.133   2
   3  -6   0 74.8597  6.4115   1
  -3  -6   0 77.8641  6.2587   4
  -3  -6   0 65.6630  6.0598   1
   3  -6   0 73.4453  6.2160   5
   3   6   0 70.4730  6.1694   1
  -3   6   0 70.5519  3.6410   2
  -3   6   0 67.8853  6.4971   1
   4  -6   0 183.053   9.583   5
  -4  -6   0 181.984   9.744   1
   4  -6   0 186.547  10.166   1
  -4  -6   0 202.339  10.604   4
   4   6   0 184.146   9.595   1
  -4   6   0 189.148   5.589   2
  -4   6   0 192.326  10.390   1
  -5  -6   0 130.791   9.358   4
  -5  -6   0 119.665   7.794   1
   5  -6   0 134.844   8.596   1
   5  -6   0 131.551   8.563   5
  -5   6   0 129.357   8.773   1
   5   6   0 132.490   7.970   1
   6  -6   0 378.300  14.584   1
  -6  -6   0 377.845  16.448   4
  -6  -6   0 376.475  13.830   1
   6  -6   0 363.821  14.554   5
  -6   6   0 365.515  17.255   3
   6   6   0 369.149  13.293   1
  -6   6   0 349.822  14.244   1
   7  -6   0 9.54541 4.09436   5
  -7  -6   0 10.1308  3.1769   1
  -7  -6   0 12.8186  4.4940   4
   7  -6   0 9.09117 3.27188   1
   7   6   0 9.70051 2.66928   1
  -7   6   0 13.6889  3.7857   1
  -7   6   0 10.4981  4.9832   3
  -8  -6   0 9.85209 3.95881   4
   8  -6   0 8.73818 2.96989   1
  -8  -6   0 14.2341  3.1193   1
  -8   6   0 22.3756  5.4580   3
  -8   6   0 12.2151  3.4906   1
   9  -6   0 44.2030  6.2112   5
  -9  -6   0 55.8547  4.9808   1
  -9  -6   0 52.3592  7.9442   4
  -9   6   0 55.6568  5.9837   1
  -9   6   0 52.2880  8.5333   3
 -10  -6   0 36.3731  3.7246   1
 -10  -6   0 42.2700  7.8095   4
  10  -6   0 35.2867  6.0985   5
 -10   6   0 44.0190  5.1561   1
 -10   6   0 38.9846  7.4355   3
  11  -6   0 73.1707  8.2869   5
 -11   6   0 71.9874 10.5150   3
 -11   6   0 70.3897  6.0265   1
  12  -6   0 0.24979 3.35416   5
 -12   6   0 -14.666   6.492   3
  13  -6   0 62.4825  8.0987   5
 -13  -6   0 56.3285  9.1634   4
  13   6   0 51.6549  8.5985   2
 -13   6   0 64.0836 11.1145   3
   0  -7   0 1.88316 1.42534   4
   0  -7   0 -3.4901  4.7970   1
   0   7   0 -5.4339  3.4685   1
  -1  -7   0 326.580  11.023   4
  -1  -7   0 327.691  14.461   1
   1  -7   0 311.247  14.050   1
   1  -7   0 310.259   8.422   4
   1  -7   0 306.177  12.539   5
   1   7   0 316.608  14.164   1
  -1   7   0 308.460  14.170   1
   2  -7   0 -0.5124  3.1836   1
  -2  -7   0 0.65732 1.94030   4
  -2  -7   0 3.32573 2.97320   1
   2   7   0 3.00326 2.77491   1
  -2   7   0 -6.7530  3.6706   1
  -3  -7   0 83.7356  7.6083   1
   3  -7   0 95.2751  8.0975   1
   3  -7   0 90.2445  6.9969   5
  -3  -7   0 88.8905  7.0444   4
  -3   7   0 89.2922  7.7965   1
   3   7   0 96.7309  7.6139   1
  -3   7   0 89.8773  4.5349   2
  -4  -7   0 149.541   9.691   1
  -4  -7   0 135.724   9.256   4
   4  -7   0 151.352  10.185   1
   4  -7   0 144.998   9.266   5
   4   7   0 129.668   8.914   1
  -4   7   0 139.453   5.262   2
  -4   7   0 151.812  18.409   1
  -5  -7   0 282.245  13.092   1
   5  -7   0 288.210  12.989   5
   5  -7   0 290.946  13.810   1
  -5  -7   0 282.739  13.956   4
  -5   7   0 303.633  14.269   1
   5   7   0 275.925  12.687   1
   6  -7   0 -5.0651  3.7133   5
  -6  -7   0 2.46296 2.70125   1
   6  -7   0 -2.2169  2.2049   1
  -6   7   0 5.22595 3.45943   1
  -6   7   0 0.84903 3.65574   3
  -7  -7   0 30.2882  6.0339   4
   7  -7   0 25.3060  5.1785   5
  -7  -7   0 22.6936  4.3436   1
   7  -7   0 29.8427  4.9939   1
  -7   7   0 33.4198  6.7474   3
   7   7   0 22.7631  3.9563   1
  -7   7   0 25.3221  4.8300   1
  -8  -7   0 -0.4903  2.4909   1
   8  -7   0 -1.2242  3.0375   1
  -8   7   0 -0.4915  3.4204   1
  -9  -7   0 31.7771  4.4247   1
   9  -7   0 32.9093  5.9262   5
  -9  -7   0 41.6567  7.7287   4
  -9   7   0 26.5727  4.9267   1
  -9   7   0 36.5211  7.2104   3
 -10  -7   0 1.24175 2.01356   1
  10  -7   0 0.32900 3.43162   5
 -10   7   0 -3.2702  5.0929   3
 -10   7   0 -1.6501  2.7954   1
  11  -7   0 41.9054  6.7674   5
 -11   7   0 35.1646  8.7365   3
 -11   7   0 27.8222  4.6731   1
  12  -7   0 12.9565  4.9134   5
 -12   7   0 9.11181 6.01573   3
  13  -7   0 5.95225 4.25455   5
 -13   7   0 3.29820 5.60950   3
   0  -8   0 31.5798  3.3292   4
   0  -8   0 27.1577  5.0052   1
   0   8   0 22.3542  5.0774   1
   1  -8   0 299.963   8.714   4
  -1  -8   0 311.319  11.330   4
  -1  -8   0 304.538  15.103   1
   1  -8   0 312.620  15.203   1
   1   8   0 312.217  15.143   1
  -1   8   0 287.183  14.784   1
  -2  -8   0 67.0472  5.7823   4
   2  -8   0 76.3429  7.2690   5
   2  -8   0 66.4476  7.7232   1
  -2  -8   0 59.7339  7.2068   1
  -2   8   0 68.4059  7.8123   1
   2   8   0 61.0718  6.9863   1
   3  -8   0 110.351   8.443   5
  -3  -8   0 112.672   8.161   4
   3  -8   0 98.8422  9.2614   1
  -3  -8   0 118.805   9.817   1
   3   8   0 104.705   8.858   1
  -3   8   0 110.092   9.289   1
  -4  -8   0 137.390   9.618   4
   4  -8   0 134.335   9.212   5
   4  -8   0 139.489  10.602   1
  -4  -8   0 130.011  10.026   1
   4   8   0 151.479  10.227   1
  -4   8   0 152.207  11.154   1
   5  -8   0 21.4562  4.9167   1
  -5  -8   0 27.2564  5.2660   4
   5  -8   0 20.4299  5.0057   5
   5   8   0 20.6303  4.4911   1
  -5   8   0 31.4111  5.7749   1
  -6  -8   0 629.840  21.376   1
  -6  -8   0 649.891  23.194   4
   6  -8   0 620.724  21.123   5
   6  -8   0 632.746  22.109   1
  -6   8   0 641.231  22.848   1
   6   8   0 653.608  21.240   1
   7  -8   0 81.9222  7.9794   1
  -7  -8   0 74.3679  8.4045   4
  -7  -8   0 82.4980  7.8888   1
   7  -8   0 82.2269  8.3479   5
   7   8   0 86.7656  7.7003   1
  -7   8   0 86.4445 10.2920   3
  -7   8   0 86.6455  8.6648   1
   8  -8   0 31.7574  5.3996   5
  -8  -8   0 34.3749  6.2828   4
  -8  -8   0 39.9586  5.5495   1
  -8   8   0 33.9443  5.7435   1
  -9  -8   0 22.4494  5.6600   4
  -9   8   0 14.7447  4.5821   1
  -9   8   0 17.9832  6.6083   3
 -10  -8   0 14.5479  4.9837   4
  10  -8   0 23.2201  5.4716   5
 -10   8   0 17.0617  4.4415   1
 -10   8   0 29.6988  7.7415   3
 -11  -8   0 3.93314 3.87972   4
  11  -8   0 3.55205 3.88734   5
 -11   8   0 -0.8912  2.6646   1
 -11   8   0 -0.2986  4.8751   3
  12  -8   0 4.59257 4.08476   5
 -12   8   0 -6.0252  6.2649   3
   0  -9   0 4.49443 4.05514   1
   0   9   0 3.77097 3.64725   1
   1  -9   0 100.775   5.061   4
  -1  -9   0 113.101   7.037   4
   1  -9   0 108.047   9.869   1
  -1  -9   0 125.488  10.493   1
  -1   9   0 104.378   9.786   1
   1   9   0 112.892   9.975   1
   2  -9   0 4.58876 3.71962   1
  -2  -9   0 2.74243 2.26643   4
   2  -9   0 2.40497 3.71585   5
  -2  -9   0 2.68929 3.37240   1
  -2   9   0 -0.9653  3.6963   1
   2   9   0 -1.7090  3.1494   1
   3  -9   0 414.537  19.141   1
   3  -9   0 446.513  17.657   5
  -3  -9   0 445.137  16.533   4
  -3  -9   0 431.516  19.191   1
   3   9   0 439.274  18.813   1
  -3   9   0 450.207  19.868   1
   4  -9   0 185.537  11.575   5
  -4  -9   0 215.663  13.338   1
   4  -9   0 206.619  13.554   1
  -4  -9   0 191.467  11.636   4
  -4   9   0 200.610  13.476   1
   4   9   0 203.696  12.856   1
  -5  -9   0 27.1076  5.4524   4
  -5  -9   0 41.0540  6.5060   1
   5  -9   0 45.4810  6.8293   1
   5  -9   0 32.5345  5.9117   5
   5   9   0 42.5637  6.1806   1
  -5   9   0 36.9879  6.5310   1
  -6  -9   0 111.775   9.866   4
   6  -9   0 111.458   9.695   5
   6  -9   0 120.651  10.493   1
  -6  -9   0 115.565   9.761   1
  -6   9   0 121.149  10.712   1
   6   9   0 109.570   9.348   1
   7  -9   0 71.5506  8.2774   1
  -7  -9   0 62.6127  7.6363   1
  -7  -9   0 59.1469  8.1452   4
   7  -9   0 67.3247  8.0202   5
  -7   9   0 58.3381  8.9596   3
  -7   9   0 66.3239  8.4082   1
  -8  -9   0 23.3773  6.2942   4
   8  -9   0 20.3700  5.3364   5
  -8  -9   0 18.3025  4.3454   1
  -8   9   0 15.3567  6.5507   3
  -8   9   0 27.0478  5.9015   1
  -9  -9   0 9.17670 5.34682   4
  -9  -9   0 -0.8709  2.8553   1
   9  -9   0 -1.8342  4.0169   5
  -9   9   0 -1.8762  5.0188   3
  -9   9   0 11.0726  4.4783   1
  10  -9   0 32.9191  6.5655   5
 -10  -9   0 25.0839  4.8356   1
 -10   9   0 20.0302  4.9966   1
 -10   9   0 22.2317  7.5183   3
  11  -9   0 -0.3648  2.9245   5
 -11   9   0 -2.9923  5.7498   3
 -11   9   0 8.34062 3.82465   1
  12  -9   0 60.4084  8.1619   5
   0 -10   0 59.4848  8.0721   1
   0 -10   0 51.3572  4.3542   4
   0  10   0 55.3928  7.8217   1
  -1 -10   0 91.5666  9.8402   1
   1 -10   0 117.038  10.957   1
  -1 -10   0 96.7231  6.7195   4
   1  10   0 95.4909  9.8610   1
  -1  10   0 101.294  10.234   1
   2 -10   0 66.0624  8.4689   1
  -2 -10   0 64.3538  7.9807   1
  -2 -10   0 60.4229  6.0006   4
  -2  10   0 60.0316  8.1533   1
   2  10   0 59.5436  7.9565   1
   3 -10   0 -8.4827  4.4174   1
  -3 -10   0 -1.1759  3.9555   1
   3 -10   0 -0.2028  3.5837   5
   3  10   0 4.25803 3.88087   1
  -3  10   0 -1.2697  2.9122   1
  -4 -10   0 3.81513 2.48918   4
   4 -10   0 0.81537 2.49887   5
  -4 -10   0 4.91691 4.23859   1
   4 -10   0 -2.3757  3.9055   1
   4  10   0 1.21955 3.52435   1
   5 -10   0 30.8390  6.1711   5
   5 -10   0 39.5800  6.8161   1
  -5 -10   0 26.6261  5.4944   4
  -5 -10   0 35.1896  6.7467   1
  -5  10   0 35.9341  7.0198   1
   5  10   0 37.1699  6.4337   1
  -6 -10   0 8.44439 3.95491   4
   6 -10   0 7.00516 4.45443   5
   6 -10   0 2.61383 3.33154   1
  -6 -10   0 6.45809 4.16233   1
   6  10   0 16.0244  4.2285   1
   7 -10   0 10.7428  4.7295   5
  -7 -10   0 2.93299 3.57350   1
   7 -10   0 -1.3291  3.5106   1
  -7  10   0 11.4471  5.1108   1
  -7  10   0 6.61733 5.23147   3
   8 -10   0 10.8653  4.9749   5
  -8 -10   0 14.4928  5.4588   4
  -8 -10   0 13.3901  4.5475   1
  -8  10   0 19.7567  7.3200   3
  -8  10   0 6.79383 4.46228   1
  -9 -10   0 3.83837 3.69624   1
  -9  10   0 8.04558 5.84419   3
  10 -10   0 304.198  17.846   5
 -10 -10   0 259.054  14.532   1
 -10  10   0 268.776  16.776   1
 -10  10   0 253.847  20.880   3
  11 -10   0 3.50723 5.00997   5
 -11  10   0 -4.6952  4.3477   1
 -11  10   0 6.56013 6.19704   3
   0 -11   0 4.55987 4.53301   1
   0  11   0 3.53603 4.64364   1
  -1 -11   0 91.0385 10.3483   1
   1 -11   0 82.5172  9.9549   1
   1  11   0 85.7878  9.9668   1
  -1  11   0 81.7072 10.0025   1
   2 -11   0 20.8230  6.1901   1
  -2 -11   0 14.5987  3.4648   4
  -2 -11   0 14.4690  4.7532   1
   2  11   0 21.7902  6.1143   1
   3 -11   0 8.65764 4.49566   1
  -3 -11   0 0.93726 2.37853   4
   3  11   0 5.16087 4.28460   1
  -4 -11   0 13.0947  4.2533   4
   4 -11   0 16.3517  5.5603   5
   4 -11   0 7.26480 5.04585   1
  -4 -11   0 19.7671  6.0748   1
  -4  11   0 22.6435  6.5561   1
   4  11   0 15.8634  5.3991   1
  -5 -11   0 76.3348  9.5525   1
  -5 -11   0 59.7668  7.5714   4
   5 -11   0 73.8113  8.8635   5
   5 -11   0 54.4929  8.1863   1
   5  11   0 63.1853  8.5207   1
  -5  11   0 68.7452  9.7535   1
  -6 -11   0 23.8654  5.7809   4
   6 -11   0 24.7312  6.2004   5
   6 -11   0 21.0081  5.3696   1
  -6  11   0 35.6760  7.2863   1
  -7 -11   0 0.56291 3.04287   4
   7 -11   0 14.2371  5.3362   5
  -7 -11   0 1.79184 2.93798   1
  -7  11   0 14.3145  5.6375   3
  -7  11   0 -1.2927  4.5655   1
  -8 -11   0 25.3951  6.0093   1
   8 -11   0 20.7046  6.1678   5
  -8  11   0 21.6046  6.5156   1
   9 -11   0 83.0865  9.5730   5
  -9 -11   0 86.9856  9.5804   1
  -9  11   0 86.8028 12.7904   3
  -9  11   0 80.8554  9.9406   1
  10 -11   0 8.25696 5.09167   5
 -10 -11   0 8.79252 4.18259   1
 -10  11   0 8.38040 4.79753   1
   0 -12   0 30.5446  7.1793   1
   0  12   0 15.0098  5.8493   1
   1 -12   0 99.4508 11.4816   1
  -1 -12   0 105.034  11.902   1
   1  12   0 108.102  11.432   1
  -1  12   0 117.896  12.285   1
   2 -12   0 0.55690 4.24463   1
  -2 -12   0 -2.8804  4.3482   1
  -2  12   0 4.68623 4.16903   1
   2  12   0 -0.8436  4.0173   1
   3 -12   0 65.9541  9.3321   1
  -3 -12   0 73.3549 10.1686   1
   3  12   0 66.7663  9.3833   1
  -3  12   0 83.9806 10.7736   1
  -4 -12   0 1.85566 3.09182   4
   4 -12   0 10.2190  5.2316   1
   4  12   0 13.6105  5.4969   1
  -4  12   0 6.87641 5.40786   1
  -5 -12   0 34.7769  6.2385   4
  -5 -12   0 33.5181  7.2961   1
   5 -12   0 31.9211  6.9902   1
   5  12   0 41.9682  7.8452   1
  -5  12   0 43.2145  8.3917   1
   6 -12   0 30.5257  6.9776   5
   6 -12   0 20.9766  6.1720   1
  -6 -12   0 23.4678  5.8716   4
  -7 -12   0 45.9948  8.1998   1
   7 -12   0 30.2983  7.0600   5
  -7 -12   0 45.3055  7.7000   4
  -7  12   0 28.1625  7.7181   3
  -7  12   0 44.9914  8.4477   1
  -8 -12   0 6.34740 4.72912   1
   8 -12   0 -8.8222  5.3254   5
  -8  12   0 -3.0886  4.7300   1
  -8  12   0 -12.002   6.410   3
   0  13   0 -4.0460  3.7203   1
  -2  13   0 21.0804  6.2458   1
   3  13   0 -9.8595  4.7552   1
  -1 -14   0 1.87042 3.78610   1
  -1  14   0 6.89853 4.83189   1
   2 -14   0 -4.4950  4.3414   1
 -15   0   1 -8.0811  6.0762   3
 -14   0   1 -6.1676  5.5661   3
  14   0  -1 -1.4824  3.6435   5
 -13   0   1 -4.4190  5.4439   3
  13   0  -1 0.36841 3.18383   5
  12   0  -1 -4.9729  3.3117   2
 -12   0   1 -9.0295  5.3543   3
 -11   0   1 246.727  16.211   3
  11   0  -1 226.423  13.350   5
  11   0  -1 237.168  12.449   2
 -10   0   1 -5.2493  4.0437   3
  10   0  -1 -0.0428  2.0238   5
  10   0  -1 5.01277 2.88268   2
  -9   0   1 195.582  11.430   4
  -9   0   1 196.235  12.676   3
   9   0  -1 199.516  11.439   5
   9   0  -1 182.434  10.094   2
  -8   0   1 -1.8849  2.2603   4
  -8   0   1 1.38122 2.57370   3
   8   0  -1 -1.9542  2.5681   2
  -7   0   1 815.898  23.521   3
   7   0  -1 839.187  20.068   2
   7   0  -1 816.716  21.225   5
  -7   0   1 798.986  21.080   4
   6   0  -1 4.15723 2.12989   2
  -6   0   1 1.96322 1.98488   3
  -5   0   1 1491.43   29.48   3
  -5   0   1 1562.46   27.72   4
   5   0  -1 1612.65   26.87   2
   4   0  -1 -2.0014  1.2879   4
   4   0  -1 0.69362 1.38605   3
  -4   0   1 -3.1785  1.7145   4
   4   0  -1 -1.1074  1.2741   2
  -3   0   1 142.285   5.670   4
   3   0  -1 148.671   5.730   4
   3   0  -1 143.238   6.044   3
  -3   0   1 141.269   3.020   1
   3   0  -1 149.005   3.112   1
   3   0  -1 152.178   3.119   1
   3   0  -1 152.885   5.623   2
  -3   0   1 145.776   6.194   3
  -2   0   1 -0.8779  1.0476   2
   2   0  -1 0.39590 0.42443   1
  -2   0   1 -0.2137  0.4324   1
  -2   0   1 -0.5544  1.1437   3
   2   0  -1 -0.2915  0.6858   3
   2   0  -1 -1.0666  1.0668   2
   2   0  -1 -0.0386  1.0106   4
  -2   0   1 -3.7488  1.4894   4
   1   0  -1 106.354   2.514   1
   1   0  -1 107.398   3.004   3
  -1   0   1 101.328   2.973   2
   1   0  -1 114.212   2.628   1
   0   0  -1 0.20352 0.18891   1
   0   0  -1 -0.0205  0.1408   1
   0   0   1 -0.0610  0.1829   1
   0   0   1 -0.2165  0.1593   1
   0   0  -1 -0.2568  0.1570   2
   0   0   1 0.02803 0.12530   2
   1   0   1 874.701  19.884   3
  -1   0  -1 1003.14   13.72   1
   2   0   1 -1.8314  0.3916   1
   2   0   1 -2.4511  0.7537   3
  -2   0  -1 -2.7235  1.0080   3
  -3   0  -1 265.248   8.710   3
   3   0   1 259.368   8.518   3
  -3   0  -1 262.474   7.787   4
  -4   0  -1 -2.4209  1.8610   3
  -4   0  -1 0.29495 1.19717   4
  -5   0  -1 787.430  20.044   3
  -5   0  -1 773.305  18.022   4
   5   0   1 776.070  16.690   5
   6   0   1 1.72898 1.84221   5
  -6   0  -1 -0.6578  1.6040   4
  -6   0  -1 2.80664 2.86189   3
   7   0   1 152.199   8.079   5
  -7   0  -1 144.280   8.817   4
  -7   0  -1 150.303  10.044   3
  -8   0  -1 2.79921 2.83023   4
  -8   0  -1 0.55610 3.46392   3
   8   0   1 -3.3506  2.5973   2
   8   0   1 -4.4868  2.3297   5
  -9   0  -1 419.797  17.062   4
   9   0   1 431.864  15.216   2
   9   0   1 408.294  15.424   5
  -9   0  -1 426.440  19.282   3
 -10   0  -1 2.21679 2.44646   4
 -10   0  -1 2.51223 4.06194   3
  10   0   1 -0.7837  2.6410   5
  11   0   1 68.4766  7.0561   5
 -11   0  -1 88.3841  9.0107   4
  11   0   1 81.2993  7.4309   2
 -11   0  -1 76.5383  9.7074   3
  12   0   1 1.49957 2.88319   5
 -12   0  -1 -7.1915  5.1718   3
 -12   0  -1 -5.4795  4.4661   4
  12   0   1 3.65616 3.00968   2
  13   0   1 13.5485  3.9528   5
 -14   0  -1 7.14112 5.85578   3
 -15   0  -1 -7.7932  6.1351   3
 -15   1   1 27.2428  8.2362   3
  14  -1  -1 0.30300 3.73695   5
  14   1  -1 -0.1315  3.4510   5
 -14   1   1 8.30600 5.84440   3
  14   1  -1 2.73494 3.27371   2
  13  -1  -1 158.438  10.360   2
 -13  -1   1 153.975  13.982   3
  13  -1  -1 152.228  12.008   5
 -13   1   1 152.927  14.583   3
  13   1  -1 161.190  12.481   5
  12  -1  -1 -2.4050  3.3193   5
 -12  -1   1 1.63181 3.32776   3
 -12   1   1 2.07720 4.79588   3
  12   1  -1 1.48872 2.92455   2
  11  -1  -1 10.6847  3.2664   2
  11  -1  -1 9.14108 3.35730   5
 -11  -1   1 17.6535  5.6104   3
  11   1  -1 11.5064  4.1069   5
  11   1  -1 5.65725 3.69062   2
 -10  -1   1 3.01542 3.74289   4
  10  -1  -1 4.07400 2.88155   5
  10  -1  -1 3.20325 2.51060   2
 -10  -1   1 4.55313 4.17396   3
 -10   1   1 -0.2665  3.3565   3
  10   1  -1 -3.4137  3.0586   2
  10   1  -1 2.37570 2.86847   5
  -9  -1   1 243.412  14.317   3
   9  -1  -1 226.680  10.479   2
  -9  -1   1 235.896  13.081   4
   9  -1  -1 232.631  12.135   5
   9   1  -1 230.781  12.065   2
  -9   1   1 244.706  14.543   3
  -8  -1   1 28.5608  5.4124   3
   8  -1  -1 30.8211  4.7986   5
  -8  -1   1 39.1472  5.6910   4
   8  -1  -1 29.3319  3.8446   2
   8   1  -1 29.7954  4.7573   2
  -8   1   1 32.5687  5.2961   3
   7  -1  -1 40.9032  4.0418   2
  -7  -1   1 37.4222  5.2368   4
  -7  -1   1 40.4722  5.5044   3
   7  -1  -1 44.6069  5.1299   5
   7   1  -1 48.4120  5.2641   2
  -7   1   1 44.5452  5.9584   3
  -6  -1   1 241.332  11.275   3
   6  -1  -1 225.977   9.918   5
  -6  -1   1 246.386  10.914   4
   6  -1  -1 240.652   8.668   2
  -6   1   1 248.622  11.915   3
   6   1  -1 249.601  10.423   2
   5  -1  -1 496.529  11.983   2
  -5  -1   1 520.318  15.324   3
   5  -1  -1 513.982  14.281   5
   5  -1  -1 517.566   8.809   1
   5  -1  -1 517.660   8.839   1
  -5  -1   1 495.854  14.472   4
  -5   1   1 500.138   8.776   1
  -5   1   1 506.939  15.601   3
   4  -1  -1 477.467   8.496   1
  -4  -1   1 463.292  13.022   3
  -4  -1   1 482.180  13.015   4
   4  -1  -1 492.473   8.615   1
   4  -1  -1 471.653  11.546   4
   4  -1  -1 494.076  10.770   2
   4  -1  -1 493.349  12.785   5
  -4  -1   1 478.225   7.558   1
   4   1  -1 488.208   7.556   1
   4   1  -1 477.266  13.125   3
  -4   1   1 478.380   8.592   1
  -4   1   1 497.634  13.865   3
  -3  -1   1 1801.44   27.79   3
  -3  -1   1 1826.25   22.00   1
   3  -1  -1 1827.41   24.30   2
   3  -1  -1 1856.39   27.61   5
   3  -1  -1 1846.52   23.04   1
   3  -1  -1 1799.27   22.95   1
  -3  -1   1 1756.46   27.37   4
   3  -1  -1 1813.19   25.50   4
   3  -1  -1 1839.89   28.18   3
   3   1  -1 1848.09   21.92   1
  -3   1   1 1817.36   23.04   1
  -3   1   1 1779.05   27.43   5
  -3   1   1 1776.99   24.02   1
  -3   1   1 1818.40   28.60   3
  -3   1   1 1826.89   24.69   2
   3   1  -1 1790.08   27.56   1
   3   1  -1 1769.33   27.92   3
   2  -1  -1 3082.20   39.36   1
   2  -1  -1 3100.76   39.17   1
   2  -1  -1 3012.52   38.34   5
  -2  -1   1 2898.48   37.94   4
   2  -1  -1 3030.66   37.09   2
  -2  -1   1 3010.12   34.91   1
   2   1  -1 2997.96   38.74   3
  -2   1   1 2996.43   35.31   2
   2   1  -1 2996.39   34.43   1
  -2   1   1 3060.62   38.61   5
  -2   1   1 3058.86   39.34   3
  -2   1   1 3031.21   40.13   1
   2   1  -1 2956.82   40.58   1
  -2   1   1 2978.51   36.17   1
  -1  -1   1 320.008   6.462   1
  -1  -1   1 327.649   6.459   1
   1  -1  -1 344.370   7.366   5
   1  -1  -1 356.505   7.058   1
  -1  -1   1 358.068   7.210   4
   1  -1  -1 362.634   6.879   1
   1  -1  -1 346.685   6.051   2
  -1   1   1 291.530   6.525   1
   1   1  -1 351.216   7.104   4
  -1   1   1 319.597   6.611   1
   1   1  -1 350.812   6.637   1
  -1   1   1 339.631   7.275   5
  -1   1   1 320.415   5.908   2
   1   1  -1 358.031   6.688   1
   0  -1   1 -3.4572  1.1648   1
   0  -1  -1 -2.4595  0.8420   5
   0  -1  -1 -2.5653  1.2087   1
   0  -1   1 -0.2081  0.7839   1
   0   1   1 -0.0283  0.6506   1
   0   1   1 -2.0619  0.7575   2
   0   1  -1 -1.2738  1.0814   1
   0   1   1 -1.5921  0.7427   5
  -1  -1  -1 379.519   7.027   1
   1  -1   1 389.896   7.214   1
   1  -1   1 384.421   6.666   5
   1  -1   1 380.934   7.220   1
  -1  -1  -1 397.071   7.211   1
  -1   1  -1 368.659   7.241   1
  -1   1  -1 382.123   7.210   1
   1   1   1 383.362   7.076   1
   1   1   1 377.324   6.963   1
  -1   1  -1 352.937   6.444   5
  -2  -1  -1 4.53306 0.89435   1
  -2  -1  -1 6.96955 0.99495   1
   2  -1   1 5.11037 0.96738   1
   2  -1   1 4.87151 1.47642   3
   2  -1   1 3.39682 0.92870   1
  -2   1  -1 5.67726 1.08494   1
   2   1   1 6.63859 1.64290   3
  -2   1  -1 3.17593 1.53014   3
   2   1   1 4.91119 0.87456   1
  -2   1  -1 2.21134 1.03883   5
  -2   1  -1 3.16960 0.97952   1
  -2   1  -1 4.84763 0.99320   4
   2   1   1 4.23879 0.86573   1
   3  -1   1 12.9429  1.2335   1
   3  -1   1 11.3878  2.1637   3
  -3  -1  -1 12.2280  2.3766   4
  -3  -1  -1 11.6263  1.0591   1
   3  -1   1 13.1794  1.2874   1
   3  -1   1 13.1359  1.9616   5
  -3  -1  -1 13.8679  2.1705   3
   3   1   1 14.8106  2.3863   3
   3   1   1 13.1969  1.0866   1
  -3   1  -1 10.5320  1.2330   1
  -3   1  -1 13.9260  1.8131   5
   3   1   1 12.2021  1.0397   1
  -3   1  -1 14.1548  2.2564   3
  -3   1  -1 11.9970  1.7947   4
   4  -1   1 428.920   7.689   1
  -4  -1  -1 439.987  12.949   3
   4  -1   1 421.561  10.488   5
   4  -1   1 434.483   7.787   1
  -4  -1  -1 423.823  12.228   4
  -4   1  -1 433.696  13.228   3
  -4   1  -1 430.324   7.815   1
  -4   1  -1 425.163  10.784   4
   5  -1   1 51.7512  3.9964   5
   5  -1   1 50.8163  2.2121   1
   5  -1   1 51.2486  2.2482   1
  -5  -1  -1 52.5529  5.0865   3
  -5  -1  -1 50.0078  4.9152   4
  -5   1  -1 55.3496  5.3593   3
  -5   1  -1 53.5565  2.3247   1
  -5   1  -1 50.1548  4.2378   4
  -6  -1  -1 659.723  18.577   4
  -6  -1  -1 663.780  19.671   3
   6  -1   1 657.020  16.507   5
   6  -1   1 676.173  15.041   2
  -6   1  -1 694.749  20.670   3
  -6   1  -1 663.752  17.111   4
   7  -1   1 0.74985 2.04157   5
   7  -1   1 0.62591 1.73850   2
  -7  -1  -1 3.61553 2.97588   4
  -7  -1  -1 5.80094 2.76470   3
  -7   1  -1 6.74970 2.98035   3
  -7   1  -1 3.56835 2.80166   4
  -8  -1  -1 38.3583  5.7651   4
  -8  -1  -1 44.0911  6.4335   3
   8  -1   1 34.5970  4.4887   5
   8  -1   1 32.2024  3.8664   2
  -8   1  -1 27.7118  5.5759   3
  -8   1  -1 25.7121  4.1033   4
  -9  -1  -1 60.5101  7.3337   3
   9  -1   1 69.6638  6.3217   5
  -9  -1  -1 78.6609  8.0452   4
   9  -1   1 64.3316  5.5743   2
  -9   1  -1 62.1478  6.7161   4
   9   1   1 57.0125  6.0844   5
  -9   1  -1 69.5133  8.0546   3
  10  -1   1 -5.1549  2.6845   5
 -10  -1  -1 -2.4719  3.5743   4
 -10  -1  -1 0.20116 3.98715   3
  10  -1   1 0.97316 2.13408   2
 -10   1  -1 7.03490 4.67056   3
 -10   1  -1 -5.9346  3.5682   4
  10   1   1 -5.0804  3.1987   2
  11  -1   1 10.5469  3.4151   5
  11  -1   1 10.5579  2.9531   2
 -11  -1  -1 6.77310 4.83564   3
 -11   1  -1 14.1746  4.4184   4
  11   1   1 14.0851  4.0982   5
 -11   1  -1 23.5910  6.3596   3
 -12  -1  -1 146.179  12.240   4
  12  -1   1 124.082   9.690   5
  12  -1   1 121.409   8.709   2
 -12  -1  -1 126.804  12.572   3
 -12   1  -1 119.963  12.614   3
  12   1   1 119.025   9.651   5
  12   1   1 109.829   9.520   2
  13  -1   1 41.9757  6.2735   5
 -13  -1  -1 40.5215  7.8009   3
 -13   1  -1 41.6348  8.0234   3
  13   1   1 43.1924  6.5217   5
 -14   1  -1 144.271  14.954   3
 -15   2   1 87.8387 12.7958   3
  14  -2  -1 228.469  15.063   5
  14   2  -1 223.405  14.839   2
  14   2  -1 233.948  15.812   5
 -14   2   1 241.748  18.840   3
  13  -2  -1 25.5005  5.6503   5
  13   2  -1 30.9580  6.3698   5
  12  -2  -1 8.38438 2.80522   2
  12  -2  -1 6.14783 3.84533   5
  12   2  -1 6.75842 3.73132   2
 -12   2   1 17.7438  5.6145   3
  11  -2  -1 58.6153  5.6202   2
 -11  -2   1 68.1181  8.5921   4
  11  -2  -1 59.4357  7.2810   5
  11   2  -1 69.5626  7.9838   2
 -11   2   1 64.3920  9.0208   3
  10  -2  -1 106.642   6.966   2
  10  -2  -1 103.052   8.855   5
 -10  -2   1 120.840  10.476   4
 -10   2   1 106.882  10.471   3
  10   2  -1 109.386   9.082   2
   9  -2  -1 19.9344  4.7790   5
   9  -2  -1 18.9676  3.3339   2
  -9  -2   1 28.3883  5.8985   4
   9   2  -1 24.3158  5.2761   2
  -9   2   1 17.3254  5.2015   3
   8  -2  -1 554.925  14.697   2
   8  -2  -1 548.522  18.238   5
  -8  -2   1 577.874  20.099   4
   8   2  -1 557.768  19.182   2
  -8   2   1 561.792  21.312   3
   7  -2  -1 200.105   7.836   2
   7  -2  -1 188.310  10.008   5
   7  -2  -1 194.913   5.916   1
  -7  -2   1 198.892  11.145   4
  -7   2   1 194.607  11.556   3
  -7   2   1 191.719   5.982   1
   6  -2  -1 6.81133 2.28019   5
  -6  -2   1 6.76385 3.05817   4
   6  -2  -1 7.07177 1.35555   1
  -6  -2   1 5.76177 0.94505   1
   6  -2  -1 5.08695 1.68777   2
  -6  -2   1 8.19251 1.10248   1
   6   2  -1 6.89516 0.95803   1
  -6   2   1 3.30344 2.84783   3
   6   2  -1 7.47751 1.03068   1
  -6   2   1 8.05087 1.54183   1
   5  -2  -1 3.43142 2.41710   5
   5  -2  -1 2.12170 1.24729   2
  -5  -2   1 -1.1727  2.3939   4
  -5  -2   1 0.77424 0.77522   1
   5  -2  -1 4.38579 1.67759   4
   5  -2  -1 1.96666 1.01185   1
   5   2  -1 2.78389 0.84851   1
  -5   2   1 7.15180 2.50705   3
  -5   2   1 3.52577 1.15818   1
   4  -2  -1 529.702  11.070   1
  -4  -2   1 543.520  10.361   1
  -4  -2   1 525.046  14.481   4
  -4  -2   1 538.591  10.320   1
   4  -2  -1 539.065  13.806   5
   4  -2  -1 542.592  11.898   4
   4  -2  -1 516.599  10.897   1
   4  -2  -1 525.737  10.183   2
  -4   2   1 539.238  15.024   3
  -4   2   1 516.450  10.904   1
  -4   2   1 539.476  11.267   1
   4   2  -1 542.329  10.220   1
   4   2  -1 550.013  10.197   1
  -4   2   1 548.469  10.930   2
  -3  -2   1 900.872  14.598   1
  -3  -2   1 854.646  14.281   1
   3  -2  -1 882.716  17.168   5
   3  -2  -1 855.388  14.160   4
   3  -2  -1 865.079  15.066   1
   3  -2  -1 857.655  15.077   1
  -3  -2   1 844.496  17.405   4
   3  -2  -1 858.777  13.055   2
   3   2  -1 863.211  14.257   1
   3   2  -1 877.543  17.496   3
  -3   2   1 843.050  17.079   5
   3   2  -1 882.832  14.306   1
  -3   2   1 846.693  15.096   1
   3   2  -1 860.351  17.486   4
  -3   2   1 867.133  13.450   2
  -3   2   1 853.087  14.994   1
  -3   2   1 875.222  17.873   3
  -2  -2   1 1263.45   20.61   4
  -2  -2   1 1259.25   18.95   1
   2  -2  -1 1251.39   16.73   2
  -2  -2   1 1292.70   19.20   1
   2  -2  -1 1314.76   19.92   1
   2  -2  -1 1323.90   20.79   5
   2  -2  -1 1257.48   19.59   1
  -2   2   1 1240.80   19.46   1
  -2   2   1 1281.14   16.96   2
   2   2  -1 1288.33   19.03   1
  -2   2   1 1291.47   20.71   5
  -2   2   1 1257.76   19.60   1
   2   2  -1 1308.94   19.23   1
  -1  -2   1 3980.55   47.13   4
   1  -2  -1 3931.54   51.48   1
  -1  -2   1 3999.50   48.22   1
  -1   2   1 3999.35   53.19   1
   1   2  -1 4048.62   47.79   1
  -1   2   1 3984.55   48.37   1
  -1   2   1 4025.83   49.27   2
   1   2  -1 3994.51   48.27   4
   0  -2  -1 3198.53   39.99   1
   0  -2   1 3131.68   44.81   1
   0  -2  -1 3209.97   39.95   1
   0  -2  -1 3309.32   39.23   5
   0  -2   1 3263.19   40.14   1
   0   2   1 3146.17   45.84   1
   0   2  -1 3203.53   46.62   1
   0   2  -1 3281.02   39.10   5
   0   2  -1 3156.74   39.73   1
   0   2   1 3302.62   41.51   2
   0   2   1 3297.01   40.29   1
   1  -2   1 715.587  11.883   5
  -1  -2  -1 703.960  12.740   1
   1  -2   1 680.675  12.580   1
  -1  -2  -1 695.311  12.704   1
   1  -2   1 699.182  12.914   1
   1   2   1 698.465  12.721   1
   1   2   1 716.200  11.733   5
   1   2   1 699.117  12.556   1
  -1   2  -1 670.835  12.612   1
  -1   2  -1 695.999  12.903   1
  -2  -2  -1 180.460   5.638   1
   2  -2   1 181.923   5.686   5
  -2  -2  -1 180.217   5.692   1
   2  -2   1 182.261   5.856   1
   2  -2   1 173.990   5.825   1
   2   2   1 177.828   5.529   1
  -2   2  -1 169.035   5.846   1
   2   2   1 177.280   5.542   1
  -2   2  -1 178.437   5.763   5
  -2   2  -1 177.219   5.852   1
  -2   2  -1 167.155   3.613   4
   3  -2   1 159.543   5.546   1
  -3  -2  -1 143.946   6.592   4
   3  -2   1 153.179   5.745   5
  -3  -2  -1 155.204   5.088   1
  -3  -2  -1 159.442   5.191   1
   3  -2   1 151.637   5.343   1
  -3   2  -1 155.717   7.092   3
  -3   2  -1 154.729   5.437   1
  -3   2  -1 158.047   5.548   1
  -3   2  -1 146.774   5.741   5
   3   2   1 153.098   4.935   1
   3   2   1 154.204   4.972   1
   3   2   1 149.657   6.624   3
  -3   2  -1 145.251   4.525   4
  -4  -2  -1 8.83787 1.35420   1
   4  -2   1 5.11905 1.25277   1
   4  -2   1 6.03903 2.04481   5
   4  -2   1 7.89558 1.50103   1
   4  -2   1 6.06904 0.97749   2
  -4  -2  -1 10.4944  1.4417   1
   4   2   1 8.18913 1.24964   1
  -4   2  -1 6.82003 1.45948   1
  -4   2  -1 9.68589 1.55875   1
  -4   2  -1 7.74532 1.90901   5
  -4   2  -1 9.15883 1.57165   4
  -4   2  -1 8.53940 2.68008   3
   4   2   1 8.64542 1.30726   1
  -5  -2  -1 804.029  20.075   4
  -5  -2  -1 834.950  13.125   1
   5  -2   1 814.596  13.606   2
   5  -2   1 810.683  17.566   5
  -5   2  -1 789.271  16.462   4
   5   2   1 787.107  12.634   1
  -5   2  -1 815.298  14.649   1
  -5   2  -1 819.914  21.228   3
  -5   2  -1 829.509  14.589   1
  -6  -2  -1 101.589   7.606   4
   6  -2   1 101.851   4.260   1
   6  -2   1 105.369   4.728   2
   6  -2   1 106.661   6.415   5
  -6   2  -1 102.500   8.087   3
  -6   2  -1 102.379   4.366   1
  -6   2  -1 102.369   6.056   4
   7  -2   1 175.880   6.848   2
  -7  -2  -1 184.824  10.722   4
   7  -2   1 169.675   5.325   1
   7  -2   1 170.069   8.725   5
  -7   2  -1 182.989  11.151   3
  -7   2  -1 172.104   5.490   1
  -7   2  -1 165.478   8.440   4
  -8  -2  -1 352.527  15.723   4
   8  -2   1 318.087  12.797   5
   8  -2   1 330.152  10.429   2
  -8   2  -1 337.202  13.030   4
  -8   2  -1 324.628  16.385   3
  -9  -2  -1 15.8692  5.0872   4
  -9   2  -1 20.2865  4.1835   4
  10  -2   1 13.1990  2.7137   2
 -10  -2  -1 16.0621  5.3294   4
  11  -2   1 74.0014  5.9223   2
 -11  -2  -1 83.0334  9.3871   4
  11  -2   1 76.0954  7.4795   5
 -11   2  -1 92.1195 10.5383   3
  11   2   1 87.8296  8.2904   5
  11   2   1 66.7241  7.5727   2
  12  -2   1 50.8413  6.5648   5
  12   2   1 37.6958  6.3307   2
  12   2   1 40.8275  6.3503   5
 -12   2  -1 48.5493  8.9575   3
  13  -2   1 3.31309 3.36888   5
 -13  -2  -1 2.04699 3.57827   4
  13   2   1 -4.6842  3.7973   5
 -13   2  -1 6.90600 5.68896   3
 -14   2  -1 -14.553   6.815   3
 -15   2  -1 18.9683  7.6344   3
  15   3  -1 31.0447  6.5196   2
 -15   3   1 15.3040  7.6075   3
  14  -3  -1 70.2803  8.8465   5
  14   3  -1 67.9932  9.0443   5
 -14   3   1 77.6378 11.2516   3
  13  -3  -1 117.077  10.652   5
 -13   3   1 102.571  12.516   3
  13   3  -1 112.202  11.060   5
  12  -3  -1 1.32109 3.39983   5
 -12   3   1 16.2388  6.2937   3
  11  -3  -1 20.8731  3.1959   2
 -11  -3   1 27.0469  6.4208   4
  11  -3  -1 25.5186  4.8655   5
  11   3  -1 17.2595  4.9497   2
 -11   3   1 19.8327  5.5164   3
  10  -3  -1 8.07137 3.73683   5
 -10  -3   1 -3.7834  4.3983   4
  10  -3  -1 -1.0375  1.5202   2
 -10   3   1 -4.0229  3.8794   3
  10   3  -1 11.2817  4.4132   2
   9  -3  -1 40.2171  5.9400   5
   9  -3  -1 41.8085  3.8816   2
  -9  -3   1 41.1238  6.6375   4
  -9   3   1 27.3808  5.9712   3
  -9   3   1 39.4257  3.0885   1
   9   3  -1 46.0365  6.2506   2
   8  -3  -1 161.121  10.026   5
   8  -3  -1 175.512   6.705   1
  -8  -3   1 159.423  11.060   4
   8  -3  -1 165.584   6.936   2
  -8   3   1 165.600  11.653   3
  -8   3   1 162.968   6.621   1
  -7  -3   1 1.86678 3.23915   4
   7  -3  -1 7.23134 1.77375   1
   7  -3  -1 14.0279  3.8224   5
   7  -3  -1 6.54273 1.72390   2
  -7  -3   1 5.11944 1.38980   1
  -7   3   1 9.42470 4.07684   3
  -7   3   1 2.68051 1.62537   1
  -7   3   1 7.09559 1.64312   1
   7   3  -1 6.13219 1.25726   1
  -6  -3   1 1.29474 2.66715   4
  -6  -3   1 1.49135 1.12992   1
   6  -3  -1 1.83827 1.35352   1
  -6   3   1 2.18730 2.77896   3
  -6   3   1 2.42276 1.50497   1
  -6   3   1 2.52221 1.31169   1
  -5  -3   1 163.693   6.206   1
  -5  -3   1 157.506   6.075   1
   5  -3  -1 160.996   5.292   2
   5  -3  -1 175.878   7.033   1
   5  -3  -1 193.872   9.113   5
  -5  -3   1 170.742   9.188   4
   5  -3  -1 169.199   6.688   4
  -5   3   1 171.758   9.535   3
  -5   3   1 175.233   7.133   1
  -5   3   1 158.092   6.703   1
   5   3  -1 160.023   5.952   1
  -5   3   1 168.396   5.888   2
   4  -3  -1 6.63365 1.14066   2
   4  -3  -1 9.73007 1.56571   4
   4  -3  -1 5.54325 1.59162   1
  -4  -3   1 10.2919  2.7901   4
  -4  -3   1 5.83153 1.52756   1
   4  -3  -1 9.64458 2.66286   5
  -4  -3   1 6.93486 1.70143   1
  -4   3   1 5.35973 1.13048   2
  -4   3   1 8.72617 1.99233   1
  -4   3   1 9.81215 2.74247   3
   4   3  -1 8.15210 1.69354   1
  -3  -3   1 480.748  11.642   1
   3  -3  -1 491.694  12.824   5
   3  -3  -1 484.667   8.796   2
   3  -3  -1 490.748  12.120   1
  -3  -3   1 492.316  13.211   4
  -3  -3   1 482.732  11.550   1
  -3   3   1 479.732   9.001   2
   3   3  -1 467.596  11.196   1
  -3   3   1 470.855  11.911   1
  -3   3   1 473.987  12.110   1
   2  -3  -1 1600.30   25.31   5
   2  -3  -1 1575.68   25.21   1
  -2  -3   1 1511.78   24.48   1
  -2  -3   1 1552.19   24.70   1
   2  -3  -1 1612.91   25.72   1
   2  -3  -1 1605.69   21.14   2
  -2  -3   1 1545.75   24.87   4
  -2   3   1 1517.68   24.90   1
   2   3  -1 1559.60   24.63   1
   2   3  -1 1524.48   24.25   1
  -2   3   1 1601.00   20.91   2
  -2   3   1 1537.10   25.24   1
  -1  -3   1 536.167  10.923   4
  -1  -3   1 510.450  12.097   1
  -1  -3   1 534.469  12.461   1
   1  -3  -1 512.598  12.306   1
   1  -3  -1 520.515  12.534   1
  -1   3   1 505.775  12.180   1
  -1   3   1 512.812  11.735   5
   1   3  -1 517.187  10.622   4
   1   3  -1 520.304  12.273   1
   1   3  -1 525.474  12.276   1
  -1   3   1 507.935  12.436   1
  -1   3   1 534.698  11.553   2
   0  -3  -1 2815.74   38.83   1
   0  -3   1 2904.09   34.85   4
   0  -3  -1 2852.34   39.20   1
   0  -3  -1 2907.52   37.64   5
   0   3   1 2841.54   39.04   1
   0   3  -1 2886.68   39.14   1
   0   3  -1 2899.78   41.98   1
   0   3   1 2734.77   41.87   1
   1  -3   1 810.108  14.754   5
  -1  -3  -1 828.290  16.292   1
   1  -3   1 801.339  16.211   1
  -1  -3  -1 783.095  15.793   1
   1  -3   1 801.607  16.004   1
  -1   3  -1 763.977  15.921   1
   1   3   1 818.556  16.054   1
   1   3   1 804.164  14.585   5
  -1   3  -1 858.911  15.177   5
  -1   3  -1 799.346  16.085   1
   1   3   1 756.114  15.365   1
   2  -3   1 8.81247 1.95158   1
  -2  -3  -1 12.0302  2.1860   1
   2  -3   1 12.4086  2.1668   5
  -2  -3  -1 9.22881 1.87755   1
   2  -3   1 4.79088 1.84770   1
  -2   3  -1 5.24996 1.46523   1
   2   3   1 8.62722 1.68281   1
   2   3   1 7.27799 1.83969   1
  -2   3  -1 9.36523 2.12872   1
  -2   3  -1 8.96672 0.76857   2
  -3  -3  -1 362.799   9.798   1
   3  -3   1 377.789  10.410   1
  -3  -3  -1 338.806   9.523   1
  -3  -3  -1 357.723  11.241   4
   3  -3   1 349.154   9.854   5
  -3   3  -1 351.675  10.082   1
  -3   3  -1 350.216  10.011   1
   3   3   1 362.081   9.609   1
  -3   3  -1 350.773  10.159   5
  -4  -3  -1 6.27385 1.52582   1
   4  -3   1 8.22663 1.93200   1
  -4  -3  -1 9.72029 1.84767   1
  -4  -3  -1 9.14705 2.69507   4
   4  -3   1 12.4204  2.2399   5
  -4   3  -1 6.19155 2.61609   3
  -4   3  -1 7.35219 1.96450   1
  -4   3  -1 9.60897 1.89290   1
   4   3   1 8.54340 1.54132   1
   5  -3   1 110.973   5.575   1
   5  -3   1 113.722   6.550   5
  -5  -3  -1 113.632   5.078   1
  -5  -3  -1 114.124   5.135   1
   5  -3   1 108.431   3.154   2
  -5  -3  -1 104.845   7.435   4
   5   3   1 108.105   4.812   1
  -5   3  -1 112.156   5.708   1
  -5   3  -1 105.495   7.842   3
  -5   3  -1 115.467   5.663   1
   6  -3   1 10.9346  2.0136   1
  -6  -3  -1 16.9837  3.5515   4
   6  -3   1 9.14968 1.26483   2
   6  -3   1 15.7603  3.1658   5
  -6   3  -1 11.4983  1.9444   1
  -6   3  -1 14.0915  4.0639   3
  -6   3  -1 10.5761  2.1612   1
   6   3   1 10.2426  1.5636   1
   7  -3   1 132.605   5.924   1
  -7  -3  -1 135.421   9.733   4
   7  -3   1 135.307   8.084   5
   7  -3   1 125.952   4.927   2
  -7  -3  -1 119.548   4.652   1
   7   3   1 122.669   4.559   1
  -7   3  -1 118.721   5.765   1
  -7   3  -1 118.963   5.635   1
  -7   3  -1 133.879  10.093   3
   8  -3   1 198.397   6.903   2
   8  -3   1 193.253   6.892   1
   8  -3   1 197.064  10.186   5
  -8  -3  -1 204.905  12.521   4
  -8   3  -1 187.660   6.985   1
  -8   3  -1 193.464  12.924   3
  -9  -3  -1 18.6145  5.5668   4
   9  -3   1 17.0567  2.4711   2
   9  -3   1 19.8650  4.1577   5
  -9   3  -1 20.7689  5.9440   3
  -9   3  -1 21.2442  2.2999   1
  10  -3   1 71.4884  4.8606   2
 -10  -3  -1 62.3515  8.1096   4
  10  -3   1 67.7067  6.6704   5
 -10   3  -1 76.2544  9.4819   3
  11  -3   1 20.1226  4.6474   5
 -11  -3  -1 14.0588  5.4760   4
 -11   3  -1 21.8131  6.5469   3
  12  -3   1 19.5764  4.6130   5
 -12  -3  -1 32.7680  6.6925   4
 -12   3  -1 26.3980  6.4329   3
  13  -3   1 13.7572  4.3897   5
  13   3   1 7.74854 4.00919   5
 -13   3  -1 10.4279  6.1520   3
  14   3   1 109.425  11.057   2
 -14   3  -1 112.083  13.815   3
  14  -4  -1 10.0543  4.1465   5
 -14   4   1 3.70201 4.41514   3
  13  -4  -1 2.24576 3.65817   5
 -13   4   1 7.35686 5.82318   3
  12  -4  -1 71.8331  8.4352   5
 -12   4   1 67.2142 10.2511   3
 -11  -4   1 112.475  11.243   4
  11  -4  -1 107.478   9.782   5
  11   4  -1 102.006  10.480   2
 -11   4   1 106.484  12.144   3
 -10  -4   1 6.80078 4.64329   4
  10  -4  -1 -0.1301  2.5032   5
 -10   4   1 -0.1814  4.2137   3
  10   4  -1 -1.0564  4.0221   2
   9  -4  -1 119.012   5.726   2
   9  -4  -1 120.869   9.115   5
  -9  -4   1 112.879   4.638   1
  -9  -4   1 121.185  10.182   4
  -9   4   1 117.323   6.468   1
  -9   4   1 125.232  11.401   3
   8  -4  -1 167.879  10.499   5
  -8  -4   1 168.008   6.568   1
   8  -4  -1 162.701   6.263   2
  -8  -4   1 152.179  10.811   4
   8  -4  -1 161.786   7.589   1
  -8   4   1 156.982  11.637   3
  -8   4   1 157.532   7.666   1
   8   4  -1 164.702   6.290   1
   7  -4  -1 151.271   7.429   1
   7  -4  -1 146.575   9.188   5
  -7  -4   1 138.314   6.278   1
  -7  -4   1 148.229   6.531   1
  -7  -4   1 151.594  10.128   4
   7  -4  -1 136.523   5.312   2
  -7   4   1 142.685   7.225   1
   7   4  -1 133.661   5.995   1
  -7   4   1 152.062   7.674   1
  -7   4   1 141.252  10.626   3
   6  -4  -1 58.9363  4.2341   4
  -6  -4   1 56.4715  4.1988   1
   6  -4  -1 55.7291  4.6774   1
   6  -4  -1 59.5103  5.7863   5
  -6  -4   1 52.7520  4.1167   1
  -6  -4   1 64.7644  6.3712   4
   6  -4  -1 60.6527  3.2633   2
  -6   4   1 57.2669  4.8746   1
   6   4  -1 60.5062  4.2189   1
  -6   4   1 55.7492  4.5599   1
  -6   4   1 62.3225  6.8866   3
  -5  -4   1 520.298  13.343   1
   5  -4  -1 506.439  15.625   5
  -5  -4   1 514.719  16.656   4
   5  -4  -1 505.699   9.878   2
  -5  -4   1 508.919  13.331   1
   5  -4  -1 519.918  14.335   1
   5  -4  -1 505.569  11.678   4
  -5   4   1 502.252  17.104   3
   5   4  -1 516.567  13.155   1
  -5   4   1 526.364  14.663   1
  -5   4   1 517.653  14.256   1
  -5   4   1 510.098  10.600   2
   4  -4  -1 127.621   7.275   5
   4  -4  -1 123.579   4.652   4
  -4  -4   1 128.526   7.555   4
  -4  -4   1 117.344   6.096   1
  -4  -4   1 127.210   6.512   1
   4  -4  -1 128.122   6.866   1
   4  -4  -1 115.291   4.128   2
  -4   4   1 123.209   6.843   1
  -4   4   1 113.800   6.417   1
  -4   4   1 122.525   4.450   2
   4   4  -1 118.432   6.114   1
  -3  -4   1 317.410  10.415   1
   3  -4  -1 331.110  10.938   5
  -3  -4   1 319.409  11.027   4
   3  -4  -1 302.247  10.594   1
   3  -4  -1 323.362   7.523   2
  -3  -4   1 320.989  10.443   1
  -3   4   1 309.681  10.599   1
   3   4  -1 326.605  10.429   1
  -3   4   1 320.784   7.424   2
  -3   4   1 334.524  11.285   1
   2  -4  -1 9.93589 2.52751   5
  -2  -4   1 6.60274 1.90059   1
  -2  -4   1 6.40542 1.94976   1
  -2  -4   1 5.69218 1.95428   4
  -1  -4   1 1740.09   29.60   1
  -1  -4   1 1820.91   26.88   4
   1  -4  -1 1826.20   30.60   1
  -1  -4   1 1829.21   30.38   1
  -1   4   1 1804.66   30.47   1
   1   4  -1 1890.38   30.52   1
  -1   4   1 1829.15   25.96   2
   0  -4  -1 145.109   6.410   5
   0  -4  -1 135.356   6.936   1
   0  -4   1 140.634   4.653   4
   0  -4   1 141.215   7.096   1
   0   4  -1 140.241   6.999   1
   0   4   1 140.063   6.992   1
  -1  -4  -1 693.190  16.576   1
   1  -4   1 737.562  17.156   1
   1  -4   1 712.289   9.972   4
  -1  -4  -1 671.717  16.114   1
   1  -4   1 722.224  15.349   5
   1   4   1 690.421  16.310   1
  -1   4  -1 728.902  17.002   1
   2  -4   1 4.49630 1.76242   1
  -2  -4  -1 5.06343 1.76698   1
   2   4   1 5.10291 1.88198   1
  -2   4  -1 2.21031 0.69115   2
  -2   4  -1 1.90407 1.34598   1
  -3  -4  -1 547.894  14.179   1
  -3  -4  -1 524.910  13.821   1
   3  -4   1 556.840  14.724   1
  -3  -4  -1 552.023  15.125   4
   3  -4   1 544.894  13.647   5
  -3   4  -1 541.484  14.647   1
  -3   4  -1 557.649  14.768   1
   3   4   1 573.294  14.290   1
  -4  -4  -1 146.071   8.356   4
   4  -4   1 133.536   7.173   5
   4  -4   1 136.728   7.023   1
  -4  -4  -1 144.171   6.891   1
  -4  -4  -1 142.944   6.819   1
  -4   4  -1 139.593   8.356   3
   4   4   1 135.261   6.573   1
  -4   4  -1 132.472   6.827   1
  -4   4  -1 133.984   7.183   1
   5  -4   1 28.8761  3.5186   1
  -5  -4  -1 29.0795  3.2666   1
  -5  -4  -1 31.6693  4.6898   4
  -5  -4  -1 26.3638  3.0278   1
   5  -4   1 19.2480  3.1722   5
   5   4   1 29.5604  3.1590   1
  -5   4  -1 24.9985  4.1948   3
  -5   4  -1 25.6203  3.1737   1
  -5   4  -1 23.9245  3.2503   1
   6  -4   1 16.0244  2.6514   1
  -6  -4  -1 15.4281  2.3775   1
  -6  -4  -1 9.29987 5.19472   4
  -6  -4  -1 11.6155  2.2795   1
   6   4   1 16.2966  2.3340   1
  -6   4  -1 7.02562 3.84839   3
  -6   4  -1 16.7152  2.7431   1
  -6   4  -1 12.8173  2.7930   1
  -7  -4  -1 14.3954  4.5207   4
   7  -4   1 17.4847  2.8676   1
  -7  -4  -1 20.5300  2.5405   1
  -7  -4  -1 18.6052  2.5577   1
   7  -4   1 18.7530  3.4407   5
  -7   4  -1 27.6343  3.5645   1
   7   4   1 18.5420  2.3598   1
  -7   4  -1 17.2942  5.0479   3
  -7   4  -1 20.0627  2.9083   1
   8  -4   1 146.012   4.684   2
  -8  -4  -1 150.155  10.863   4
  -8  -4  -1 151.463   6.071   1
   8  -4   1 150.492   7.265   1
   8  -4   1 154.393   9.501   5
   8   4   1 148.120   5.777   1
  -8   4  -1 150.743   7.460   1
  -8   4  -1 148.181  11.672   3
   9  -4   1 209.392   6.320   2
  -9  -4  -1 213.005  13.917   4
   9  -4   1 189.614  11.055   5
  -9   4  -1 201.843  14.327   3
  -9   4  -1 222.424   8.698   1
 -10  -4  -1 21.0858  6.0009   4
  10  -4   1 0.52475 2.97333   5
 -10   4  -1 14.8586  5.5219   3
 -10   4  -1 7.21386 1.91180   1
  11  -4   1 111.809   9.374   5
 -11   4  -1 110.045  12.160   3
  12  -4   1 131.422  10.323   5
 -12   4  -1 134.922  13.478   3
  13  -4   1 62.2510  7.7162   5
 -13  -4  -1 58.4547  8.9993   4
 -13   4  -1 87.4256 12.0365   3
 -14   4  -1 30.0501  8.7076   3
  14  -5  -1 21.3668  5.6771   5
 -14   5   1 24.2072  7.9615   3
  13  -5  -1 58.8155  7.9736   5
 -13   5   1 59.2227 10.4517   3
  12  -5  -1 20.3481  5.3417   5
 -12   5   1 12.3898  6.3506   3
 -11  -5   1 22.3769  5.5454   4
  11   5  -1 12.8792  6.9246   2
 -11   5   1 23.7532  6.8855   3
 -11   5   1 16.5951  2.7969   1
 -10  -5   1 1.56772 1.18197   1
 -10   5   1 2.58261 2.08366   1
 -10   5   1 0.05737 4.36784   3
  -9  -5   1 166.657   7.290   1
  -9  -5   1 167.371  12.367   4
   9  -5  -1 168.825  11.245   5
  -9   5   1 167.337  13.477   3
  -9   5   1 156.493   8.610   1
  -8  -5   1 4.32460 2.00168   1
   8  -5  -1 0.17594 2.36538   5
   8  -5  -1 0.28523 0.94152   2
  -8  -5   1 -4.0271  3.7400   4
   8  -5  -1 -2.2528  1.9909   1
   8   5  -1 0.92607 1.39708   1
  -8   5   1 -8.3740  4.5781   3
  -7  -5   1 341.869  15.840   4
   7  -5  -1 360.883  14.866   5
   7  -5  -1 350.624  12.871   1
  -7  -5   1 337.783  11.558   1
   7  -5  -1 330.163   7.981   2
   7   5  -1 354.100  11.547   1
  -7   5   1 347.434  13.108   1
  -7   5   1 341.642  16.763   3
  -6  -5   1 226.440   9.558   1
   6  -5  -1 219.994  10.101   1
  -6  -5   1 216.723   9.356   1
  -6  -5   1 227.749  12.169   4
   6  -5  -1 226.694  11.340   5
   6  -5  -1 215.378   6.130   2
   6  -5  -1 209.104   7.510   4
   6   5  -1 217.369   9.188   1
  -6   5   1 221.422  10.013   1
  -6   5   1 222.357  12.847   3
  -6   5   1 228.683  10.538   1
  -6   5   1 214.310   6.639   2
   5  -5  -1 68.6716  3.4137   2
  -5  -5   1 69.5331  5.3735   1
   5  -5  -1 67.0361  3.6918   4
  -5  -5   1 68.4407  5.4713   1
   5  -5  -1 75.5602  5.9808   1
  -5  -5   1 77.0428  6.6603   4
   5  -5  -1 75.2585  6.4821   5
  -5   5   1 70.9606  3.5698   2
  -5   5   1 73.7127  6.1239   1
  -5   5   1 74.0886  7.2228   3
   5   5  -1 69.7771  5.3580   1
   4  -5  -1 18.7992  3.4831   1
  -4  -5   1 23.8250  3.7365   1
   4  -5  -1 19.2214  1.7728   4
  -4  -5   1 22.0893  3.3295   1
   4  -5  -1 25.8240  4.3456   5
   4   5  -1 22.2377  3.4135   1
  -4   5   1 16.0648  3.1241   1
  -4   5   1 18.9448  1.9219   2
   3  -5  -1 80.4637  5.8642   5
  -3  -5   1 82.0942  5.9302   1
  -3  -5   1 83.7522  5.9800   4
   3  -5  -1 91.4315  6.5197   1
  -3   5   1 87.8944  6.4547   1
  -3   5   1 83.6034  3.9360   2
   3   5  -1 84.0817  5.9285   1
  -2  -5   1 830.633  19.879   1
   2  -5  -1 807.041  20.147   1
   2  -5  -1 792.854  18.442   5
  -2  -5   1 809.957  17.889   4
   2   5  -1 809.696  19.495   1
  -2   5   1 790.876  20.053   1
  -2   5   1 790.006  14.626   2
  -1  -5   1 1237.87   21.42   4
  -1  -5   1 1207.23   25.33   1
   1  -5  -1 1251.19   25.95   1
   1  -5  -1 1211.34   23.64   5
   1   5  -1 1246.12   25.53   1
  -1   5   1 1237.93   20.93   2
  -1   5   1 1223.19   25.89   1
   0  -5   1 229.175   6.734   4
   0  -5  -1 237.982  10.285   1
   0  -5  -1 227.535   8.827   5
   0  -5   1 239.476  10.357   1
   0   5  -1 222.328   9.882   1
   0   5   1 243.452  10.423   1
  -1  -5  -1 473.693  14.800   1
   1  -5   1 497.037  13.462   5
   1  -5   1 472.692   8.426   4
   1  -5   1 494.766  15.200   1
  -1   5  -1 480.736  14.933   1
   1   5   1 489.917  14.902   1
   2  -5   1 47.1405  4.4438   5
  -2  -5  -1 57.4728  5.2319   1
   2  -5   1 45.8235  4.6244   1
  -2  -5  -1 60.0333  4.8174   4
  -2   5  -1 51.7771  2.9028   2
  -2   5  -1 51.1205  5.1146   1
   2   5   1 53.6024  4.9809   1
  -3  -5  -1 643.519  17.350   1
  -3  -5  -1 657.515  17.527   4
   3  -5   1 666.294  16.547   5
   3  -5   1 659.335  17.913   1
   3   5   1 665.329  17.272   1
  -3   5  -1 656.451  18.022   1
  -4  -5  -1 80.0604  5.8095   1
  -4  -5  -1 90.2831  6.1236   1
   4  -5   1 88.7508  5.9687   5
  -4  -5  -1 90.6492  6.9620   4
   4  -5   1 82.8129  6.2794   1
   4   5   1 80.5938  5.7882   1
  -4   5  -1 88.5382  6.3794   1
  -5  -5  -1 1.86992 1.81869   1
  -5  -5  -1 1.34857 1.43565   1
   5  -5   1 7.58689 2.60942   1
   5  -5   1 4.01896 2.74895   5
  -5   5  -1 -1.2740  2.4088   1
   5   5   1 0.38128 1.73823   1
  -5   5  -1 2.49640 3.18109   3
   6  -5   1 4.42467 2.18250   1
  -6  -5  -1 2.28702 2.68921   4
  -6  -5  -1 0.83405 1.92294   1
   6  -5   1 8.85251 2.82300   5
  -6   5  -1 4.09857 2.70413   1
  -6   5  -1 13.9622  4.6566   3
   6   5   1 2.02699 1.74334   1
   7  -5   1 168.675   8.851   1
   7  -5   1 174.274   9.832   5
  -7  -5  -1 174.494  11.657   4
  -7  -5  -1 161.075   7.935   1
  -7   5  -1 173.551   9.214   1
  -7   5  -1 190.451  13.049   3
   7   5   1 170.964   7.789   1
  -8  -5  -1 294.988  10.379   1
   8  -5   1 290.250  13.372   5
  -8  -5  -1 297.867  15.729   4
   8  -5   1 297.611  11.788   1
  -8   5  -1 293.108  11.888   1
   8   5   1 306.760  10.234   1
  -8   5  -1 297.790  16.813   3
  -9  -5  -1 37.3106  3.4814   1
  -9  -5  -1 48.8866  7.5845   4
   9  -5   1 35.9146  5.5299   5
  -9   5  -1 39.7706  4.4890   1
  -9   5  -1 28.7332  6.3575   3
 -10  -5  -1 155.438  12.935   4
  10  -5   1 151.816  10.470   5
 -10   5  -1 164.763   8.327   1
 -10   5  -1 133.654  12.683   3
  11  -5   1 22.7067  4.9198   5
 -11  -5  -1 28.7627  6.2418   4
 -11   5  -1 24.8556  3.1926   1
 -11   5  -1 32.6574  7.6071   3
  12  -5   1 -0.4865  2.5542   5
 -12   5  -1 -1.4063  4.1554   3
  13  -5   1 25.7311  5.5467   5
 -13   5  -1 26.3709  7.0472   3
 -14  -5  -1 6.67098 4.52768   4
  14   5   1 -2.8149  3.9121   2
 -14   5  -1 -0.5789  5.2554   3
  14  -6  -1 21.7143  5.9399   5
 -14   6   1 32.6530  8.6167   3
  13  -6  -1 3.98335 4.18939   5
  12  -6  -1 3.45820 4.09814   5
 -12   6   1 -0.4265  3.6624   3
 -11  -6   1 2.01820 3.51594   4
  11  -6  -1 9.90641 4.53304   5
 -11   6   1 3.11182 4.02847   3
 -11   6   1 -0.9487  2.0462   1
 -10  -6   1 76.9682  5.3537   1
  10  -6  -1 70.0898  8.2568   5
 -10  -6   1 89.5366  9.8320   4
 -10   6   1 80.4227  6.8775   1
 -10   6   1 75.4112 10.3464   3
  -9  -6   1 49.8294  4.7964   1
  -9  -6   1 56.8470  7.7746   4
   9  -6  -1 52.5954  7.1322   5
  -9   6   1 48.5155  5.7066   1
  -9   6   1 56.9128  8.8574   3
  -8  -6   1 92.3394  9.0158   4
  -8  -6   1 84.6362  6.2794   1
   8  -6  -1 86.9559  7.0245   1
   8  -6  -1 77.4955  7.8608   5
  -8   6   1 81.0017  7.0144   1
  -8   6   1 80.3019  9.6528   3
   7  -6  -1 546.861  17.871   1
  -7  -6   1 536.007  16.692   1
  -7  -6   1 567.969  21.080   4
   7  -6  -1 562.327  19.310   5
  -7   6   1 524.573  22.032   3
  -7   6   1 565.424  18.571   1
   7   6  -1 530.989  16.014   1
  -6  -6   1 85.6494  7.9588   4
   6  -6  -1 109.554   8.569   5
   6  -6  -1 102.266   7.822   1
   6  -6  -1 89.2729  4.4242   4
  -6  -6   1 97.2277  7.2670   1
  -6   6   1 108.467   9.552   3
  -6   6   1 103.465   8.009   1
   6   6  -1 100.319   7.060   1
  -5  -6   1 212.517  10.345   1
   5  -6  -1 198.939  10.626   1
   5  -6  -1 206.500   6.085   4
   5  -6  -1 218.144  11.025   5
  -5  -6   1 209.702  11.563   4
  -5   6   1 212.169   6.535   2
   5   6  -1 220.488  10.369   1
  -5   6   1 214.085  11.130   1
   4  -6  -1 93.5258  3.5534   4
   4  -6  -1 101.379   7.440   5
  -4  -6   1 104.538   7.550   1
   4  -6  -1 104.543   7.636   1
  -4  -6   1 105.609   7.681   4
  -4   6   1 100.060   4.512   2
   4   6  -1 100.252   7.136   1
  -4   6   1 94.7052  7.6030   1
   3  -6  -1 282.912  11.527   5
   3  -6  -1 281.810  12.391   1
  -3  -6   1 287.457  12.110   1
  -3  -6   1 285.070  11.492   4
  -3   6   1 283.415  12.729   1
   3   6  -1 281.763  11.928   1
  -3   6   1 279.075   8.066   2
  -2  -6   1 875.540  19.769   4
   2  -6  -1 887.417  23.125   1
  -2  -6   1 904.866  22.781   1
   2  -6  -1 913.244  21.567   5
   2   6  -1 920.030  22.783   1
  -2   6   1 876.166  23.083   1
  -1  -6   1 60.9948  4.3526   4
  -1  -6   1 58.5344  5.9290   1
   1  -6  -1 61.2223  5.1763   5
   1  -6  -1 58.3448  5.6931   1
  -1   6   1 48.1623  5.5660   1
   1   6  -1 60.0982  5.9785   1
   0  -6  -1 74.7334  5.9021   5
   0  -6   1 71.4627  6.2498   1
   0  -6  -1 78.8830  6.5344   1
   0  -6   1 69.1006  3.9299   4
   0   6   1 66.1553  6.2641   1
   0   6  -1 67.4379  6.4066   1
  -1  -6  -1 296.376  12.602   1
   1  -6   1 291.114   6.809   4
  -1  -6  -1 304.033  10.344   4
   1  -6   1 279.917  12.256   1
   1  -6   1 286.979  11.074   5
  -1   6  -1 286.062  12.505   1
   1   6   1 279.671  12.190   1
  -2  -6  -1 564.354  17.591   1
   2  -6   1 553.913  15.939   5
   2  -6   1 532.549  17.412   1
  -2  -6  -1 573.832  15.797   4
  -2   6  -1 526.220  17.489   1
   2   6   1 541.582  17.105   1
  -2   6  -1 558.840  11.939   2
  -3  -6  -1 765.770  20.116   4
  -3  -6  -1 754.275  20.721   1
   3  -6   1 794.955  21.477   1
   3  -6   1 788.445  19.774   5
  -3   6  -1 781.449  21.599   1
  -3   6  -1 753.143  13.017   2
   3   6   1 759.166  20.447   1
   4  -6   1 7.13048 2.64888   5
   4  -6   1 4.46415 2.78899   1
  -4  -6  -1 1.37451 2.33890   1
   4   6   1 -3.9549  2.7645   1
   5  -6   1 33.9213  4.5077   1
  -5  -6  -1 35.2613  5.2403   4
  -5  -6  -1 27.1360  4.2528   1
   5  -6   1 36.0364  4.7664   5
  -5   6  -1 25.5160  4.4915   1
   5   6   1 31.8417  4.1786   1
  -6  -6  -1 13.5822  3.2456   1
   6  -6   1 14.9406  4.1498   5
   6  -6   1 13.7595  3.5702   1
  -6   6  -1 20.2026  5.4137   3
  -7  -6  -1 18.7425  3.5458   1
   7  -6   1 17.8769  4.0672   5
   7   6   1 17.9859  3.2955   1
  -7   6  -1 13.6500  3.7671   1
  -8  -6  -1 132.315  11.197   4
   8  -6   1 107.419   8.484   5
  -8  -6  -1 108.811   7.092   1
   8  -6   1 110.616   7.860   1
  -8   6  -1 111.155  11.161   3
  -8   6  -1 116.235   8.372   1
  -9  -6  -1 51.2517  7.9265   4
   9  -6   1 51.4927  6.7303   5
  -9  -6  -1 36.3561  4.0074   1
  -9   6  -1 42.0038  5.3146   1
  -9   6  -1 41.4327  7.2626   3
  10  -6   1 2.76224 3.20459   5
 -10  -6  -1 -0.4042  1.5215   1
 -10   6  -1 -1.9003  4.6283   3
 -10   6  -1 1.36570 2.19022   1
  11  -6   1 18.0664  4.8878   5
 -11  -6  -1 17.8447  5.7468   4
 -11   6  -1 19.7177  6.8206   3
 -11   6  -1 20.8395  3.6431   1
  12  -6   1 61.5758  7.6676   5
 -12   6  -1 67.8336 10.8078   3
  13  -6   1 39.3340  6.4378   5
 -13   6  -1 33.5072  8.7620   3
  13  -7  -1 3.40019 4.33334   5
 -13   7   1 5.20912 5.88864   3
  12  -7  -1 50.5623  7.5926   5
 -12   7   1 50.5053  9.9761   3
  11  -7  -1 36.2678  6.1900   5
  11   7  -1 22.5270  6.5776   2
 -11   7   1 22.7325  4.4055   1
 -11   7   1 27.4489  8.2080   3
 -10  -7   1 39.9452  7.5818   4
  10  -7  -1 43.7870  7.0069   5
 -10   7   1 50.8740  6.1480   1
 -10   7   1 33.8624  7.9934   3
   9  -7  -1 209.394  13.399   5
  -9  -7   1 207.328  14.664   4
  -9  -7   1 197.648  10.210   1
  -9   7   1 186.582  15.345   3
  -9   7   1 205.699  11.893   1
  -8  -7   1 180.121  13.105   4
   8  -7  -1 152.224  10.921   5
   8  -7  -1 154.868  10.005   1
  -8  -7   1 155.748   9.468   1
  -8   7   1 162.177  13.602   3
  -8   7   1 171.289  10.973   1
   7  -7  -1 114.565   8.619   1
   7  -7  -1 106.888   8.609   5
  -7  -7   1 110.945   9.824   4
  -7  -7   1 107.684   7.927   1
  -7   7   1 108.760   8.807   1
   7   7  -1 109.194   7.859   1
  -7   7   1 97.7608 10.3312   3
   6  -7  -1 16.8364  3.9886   5
   6  -7  -1 17.1998  4.1084   1
  -6  -7   1 17.3782  4.7190   4
   6   7  -1 25.4078  4.1477   1
  -6   7   1 19.0224  4.5008   1
  -5  -7   1 62.9424  6.2693   1
   5  -7  -1 51.2571  6.3990   5
   5  -7  -1 59.6361  6.5902   1
  -5  -7   1 56.9877  6.6858   4
  -5   7   1 56.4357  6.7838   1
   5   7  -1 54.6756  6.0611   1
   4  -7  -1 32.3098  5.2939   5
  -4  -7   1 26.1063  4.4350   4
  -4  -7   1 20.6630  4.5131   1
   4  -7  -1 28.9759  4.7694   1
  -4   7   1 26.1903  2.5767   2
   4   7  -1 24.7841  4.5635   1
  -4   7   1 40.8983  5.8386   1
   3  -7  -1 60.5904  6.7026   1
  -3  -7   1 63.2493  5.9430   4
  -3  -7   1 67.1464  6.7737   1
   3  -7  -1 49.6038  5.9278   5
  -3   7   1 52.6272  6.4603   1
   3   7  -1 67.0280  6.7164   1
  -2  -7   1 118.998   7.100   4
  -2  -7   1 119.979   8.951   1
   2  -7  -1 99.4040  8.3083   1
   2  -7  -1 121.580   7.898   5
  -2   7   1 115.334   8.709   1
   2   7  -1 111.705   8.363   1
  -1  -7   1 89.6923  5.5733   4
  -1  -7   1 91.6453  7.6683   1
   1  -7  -1 90.6741  7.2589   5
   1  -7  -1 90.9699  8.0371   1
  -1   7   1 85.4707  7.9476   1
   1   7  -1 88.9542  7.8232   1
   0  -7  -1 488.125  17.883   1
   0  -7   1 491.549  11.932   4
   0  -7  -1 501.518  13.306   4
   0  -7   1 488.002  17.788   1
   0   7  -1 481.423  17.587   1
   0   7   1 501.627  18.147   1
  -1  -7  -1 26.5760  5.0968   1
   1  -7   1 23.5944  2.0535   4
   1  -7   1 28.1400  5.0459   1
  -1  -7  -1 23.2011  3.2949   4
  -1   7  -1 24.6563  4.4111   1
   1   7   1 23.1865  4.2783   1
   2  -7   1 268.160  11.527   5
  -2  -7  -1 282.638  13.437   1
   2  -7   1 266.600  12.979   1
  -2  -7  -1 265.625  11.060   4
   2   7   1 273.165  12.980   1
  -2   7  -1 279.642  13.560   1
   3  -7   1 37.6770  5.6386   1
  -3  -7  -1 43.7173  5.2683   4
  -3  -7  -1 52.8282  5.9619   1
   3  -7   1 45.8558  5.6189   5
   3   7   1 54.8032  6.1651   1
  -3   7  -1 46.5136  3.0976   2
  -3   7  -1 52.4823  6.3907   1
  -4  -7  -1 569.010  19.019   4
   4  -7   1 558.977  19.300   1
  -4  -7  -1 543.516  18.709   1
   4  -7   1 567.401  18.031   5
   4   7   1 573.266  18.798   1
  -4   7  -1 548.257  19.448   1
  -4   7  -1 549.154  10.415   2
  -5  -7  -1 321.793  14.153   1
   5  -7   1 322.248  13.783   5
   5  -7   1 326.787  14.682   1
  -5  -7  -1 308.434  14.705   4
  -5   7  -1 321.904  14.910   1
   5   7   1 307.380  13.348   1
  -6  -7  -1 11.4928  3.6027   1
   6  -7   1 7.46615 3.24579   5
  -6  -7  -1 11.3286  4.5616   4
  -6   7  -1 10.3078  4.0250   1
  -7  -7  -1 71.8882  6.8128   1
  -7  -7  -1 76.9079  8.5940   4
   7  -7   1 68.5071  6.9628   1
   7  -7   1 56.1432  6.7008   5
  -7   7  -1 80.8092  7.7790   1
   7   7   1 76.8480  6.4506   1
  -7   7  -1 90.5307  9.9441   3
  -8  -7  -1 580.497  23.747   4
   8  -7   1 575.623  19.761   1
   8  -7   1 552.456  19.910   5
  -8  -7  -1 586.252  18.562   1
  -8   7  -1 601.993  20.814   1
  -8   7  -1 580.613  25.457   3
  -9  -7  -1 3.48751 4.27324   4
  -9  -7  -1 5.07938 2.61817   1
   9  -7   1 4.88412 2.95899   5
  -9   7  -1 7.44483 5.50256   3
  -9   7  -1 0.92783 2.90717   1
  10  -7   1 75.7335  8.2818   5
 -10  -7  -1 73.4377  5.9643   1
 -10  -7  -1 69.2963  9.2204   4
 -10   7  -1 85.5216  7.5927   1
 -10   7  -1 71.7609 10.5976   3
  11  -7   1 64.6475  7.9393   5
 -11   7  -1 62.5546  6.4486   1
 -11   7  -1 74.8966 10.8231   3
  12  -7   1 15.0266  4.8935   5
  13  -7   1 6.39437 4.23331   5
  12  -8  -1 4.25160 4.41605   5
 -12   8   1 3.34125 5.82326   3
 -11   8   1 -0.1830  2.7454   1
  11   8  -1 -5.7568  4.4500   2
 -11   8   1 -2.1529  5.2135   3
 -10  -8   1 15.8006  6.0066   4
  10  -8  -1 10.3962  4.6653   5
 -10  -8   1 10.0003  3.1145   1
   9  -8  -1 76.8153  8.6976   5
  -9  -8   1 65.8609  6.6849   1
  -9  -8   1 65.8737  9.2806   4
  -9   8   1 70.3734 10.6302   3
  -9   8   1 82.1693  8.4456   1
   8  -8  -1 54.4885  7.3403   5
  -8  -8   1 42.6267  7.4819   4
  -8  -8   1 48.1912  5.9390   1
  -8   8   1 44.7133  7.8060   3
  -8   8   1 57.3418  7.1624   1
  -7  -8   1 -0.2915  2.8611   4
   7  -8  -1 10.5638  4.5244   5
  -7  -8   1 3.67143 3.24058   1
   7  -8  -1 -3.8285  3.2037   1
  -7   8   1 -1.3445  2.5136   1
  -7   8   1 7.22719 5.27892   3
   7   8  -1 0.65961 2.09683   1
   6  -8  -1 1.41579 3.22315   1
  -6  -8   1 3.39850 3.27434   1
   6  -8  -1 2.51863 4.17335   5
  -6  -8   1 5.25359 3.75345   4
  -6   8   1 -3.3358  4.1379   1
   6   8  -1 -5.0144  3.1942   1
  -5  -8   1 -4.7935  3.5377   1
   5  -8  -1 -4.7620  3.2847   5
   5  -8  -1 3.91443 3.39060   1
  -5  -8   1 -1.6314  3.0500   4
  -5   8   1 -5.5936  3.9011   1
   5   8  -1 4.85259 3.32422   1
   4  -8  -1 287.783  13.916   5
  -4  -8   1 304.025  14.797   1
   4  -8  -1 309.450  15.474   1
  -4  -8   1 333.481  14.383   4
  -4   8   1 309.685  15.620   1
   4   8  -1 307.138  14.700   1
   3  -8  -1 18.5581  5.1836   5
  -3  -8   1 14.0705  3.9311   1
  -3  -8   1 20.4898  4.0177   4
  -3   8   1 21.7661  5.2104   1
   3   8  -1 14.7717  4.4835   1
   2  -8  -1 415.652  15.916   5
  -2  -8   1 413.204  17.441   1
  -2  -8   1 401.172  13.893   4
   2  -8  -1 400.185  17.444   1
   2  -8  -1 422.415   9.991   4
   2   8  -1 424.178  17.444   1
  -2   8   1 424.556  18.024   1
  -1  -8   1 1.65616 3.58804   1
   1  -8  -1 0.58747 1.21053   4
   1  -8  -1 -6.2933  3.9057   5
  -1  -8   1 -3.2572  1.9130   4
   1  -8  -1 -6.5330  3.7748   1
  -1   8   1 -2.0737  3.2325   1
   1   8  -1 -1.6211  2.5597   1
   0  -8   1 25.4701  5.2536   1
   0  -8  -1 35.7043  5.7391   1
   0  -8  -1 27.2870  3.3520   4
   0  -8   1 30.6107  3.0739   4
   0   8   1 27.4091  5.0322   1
   0   8  -1 31.8090  5.6567   1
   1  -8   1 52.2164  6.8920   1
  -1  -8  -1 67.5975  7.2982   1
   1  -8   1 65.5641  3.5232   4
  -1  -8  -1 74.2022  5.7986   4
   1   8   1 66.9145  7.5000   1
  -1   8  -1 59.4592  7.2359   1
  -2  -8  -1 122.901   7.967   4
  -2  -8  -1 107.761   9.407   1
   2  -8   1 108.864   9.314   1
   2  -8   1 107.076   8.359   5
   2   8   1 122.783   9.604   1
  -2   8  -1 113.802   9.226   1
  -3  -8  -1 556.757  20.682   1
   3  -8   1 557.722  18.968   5
  -3  -8  -1 555.306  18.612   4
   3  -8   1 534.097  20.239   1
  -3   8  -1 589.102  21.570   1
   3   8   1 575.142  20.654   1
  -4  -8  -1 24.8439  5.3604   1
   4  -8   1 27.6651  5.3437   5
   4  -8   1 18.9756  5.0534   1
  -4  -8  -1 22.4790  4.8576   4
   4   8   1 34.4526  5.6535   1
  -4   8  -1 25.4046  4.9907   1
  -5  -8  -1 155.270  10.833   4
  -5  -8  -1 156.650  10.681   1
   5  -8   1 158.201  10.403   5
   5  -8   1 168.744  11.483   1
  -5   8  -1 144.406  10.573   1
   5   8   1 150.900  10.153   1
   6  -8   1 62.1921  7.2434   1
  -6  -8  -1 63.3173  7.5353   4
   6  -8   1 77.7154  7.7550   5
  -6  -8  -1 76.0065  7.6730   1
   6   8   1 62.1478  6.7962   1
  -6   8  -1 68.9780  7.7795   1
  -6   8  -1 50.4589  8.1344   3
  -7  -8  -1 67.6582  8.2833   4
   7  -8   1 60.5533  7.2308   1
   7  -8   1 48.7688  6.7919   5
  -7  -8  -1 71.3007  7.3658   1
   7   8   1 72.6622  7.0980   1
  -7   8  -1 63.9433  7.7206   1
  -7   8  -1 69.6918  8.9778   3
  -8  -8  -1 65.8671  8.9235   4
   8  -8   1 63.5460  7.4785   5
  -8  -8  -1 56.3319  6.5258   1
  -8   8  -1 53.2010  8.9359   3
  -8   8  -1 55.0396  7.0990   1
  -9  -8  -1 1.43526 2.42305   1
   9  -8   1 -7.4457  3.9300   5
  -9   8  -1 5.93501 5.06673   3
  -9   8  -1 0.19043 2.98130   1
  10  -8   1 -7.4208  4.1820   5
 -10  -8  -1 0.39579 2.13765   1
 -10   8  -1 -2.1570  3.0606   1
 -10   8  -1 6.60329 5.64103   3
 -11   8  -1 17.0518  7.0506   3
  12  -8   1 35.8883  6.5445   5
 -12  -8  -1 28.0973  7.0537   4
 -12   8  -1 38.6641  9.2975   3
  12  -9  -1 22.1589  5.8164   5
 -12   9   1 19.0677  7.8396   3
 -11  -9   1 6.74302 4.45453   4
  11  -9  -1 13.1281  4.6989   5
  11   9  -1 14.8521  5.8355   2
 -11   9   1 15.6990  7.0272   3
 -11   9   1 7.90886 3.81155   1
  10  -9  -1 17.6265  5.7021   5
 -10  -9   1 19.4373  4.3014   1
 -10  -9   1 18.8136  5.5043   4
 -10   9   1 16.7593  4.8629   1
 -10   9   1 18.7618  6.4329   3
  -9  -9   1 85.2619 10.2472   4
  -9  -9   1 62.9200  7.1457   1
   9  -9  -1 83.7933  9.4109   5
  -9   9   1 62.9627  8.0762   1
  -9   9   1 63.8085 10.3868   3
   8  -9  -1 12.1913  5.1162   5
  -8   9   1 15.4622  5.3860   3
  -8   9   1 15.7472  5.0174   1
   7  -9  -1 100.169   9.564   1
  -7  -9   1 119.839  10.876   4
   7  -9  -1 101.189   9.310   5
  -7  -9   1 96.0266  8.9358   1
  -7   9   1 102.425  10.058   1
  -7   9   1 103.716  11.655   3
   6  -9  -1 -2.6842  3.8454   1
  -6  -9   1 2.30656 3.37597   1
  -6  -9   1 1.97052 2.76979   4
  -6   9   1 1.49298 3.73447   1
   6   9  -1 0.98742 3.15237   1
   5  -9  -1 50.7590  7.0887   5
   5  -9  -1 30.0407  6.0141   1
  -5  -9   1 36.9824  6.2759   1
  -5  -9   1 37.3487  5.9710   4
   5   9  -1 38.1837  5.7084   1
  -5   9   1 45.6392  7.1693   1
  -4  -9   1 201.098  13.148   1
  -4  -9   1 187.525  11.258   4
   4  -9  -1 181.284  11.435   5
   4  -9  -1 214.701  13.988   1
   4   9  -1 198.878  12.809   1
  -4   9   1 204.135  13.732   1
   3  -9  -1 468.966  20.364   1
   3  -9  -1 423.573  17.550   5
  -3  -9   1 417.449  18.952   1
  -3  -9   1 425.360  15.839   4
  -3   9   1 402.901  18.949   1
   3   9  -1 433.854  18.796   1
   2  -9  -1 -0.5362  3.6364   5
  -2  -9   1 0.11570 1.80410   4
   2  -9  -1 -5.2604  4.2559   1
  -2  -9   1 -0.9619  2.6563   1
   2   9  -1 2.82301 3.66722   1
   1  -9  -1 -0.0312  1.1223   4
  -1  -9   1 -7.5733  4.3951   1
   1  -9  -1 3.55288 3.78483   1
  -1   9   1 -2.1317  3.6331   1
   1   9  -1 2.29095 3.66155   1
   0  -9  -1 96.0769  9.4291   1
   0  -9   1 106.062   9.723   1
   0  -9   1 100.056   5.539   4
   0  -9  -1 101.788   6.291   4
   0   9  -1 104.125   9.684   1
   0   9   1 105.276   9.747   1
  -1  -9  -1 19.2344  5.1375   1
  -1  -9  -1 19.1521  3.3587   4
   1  -9   1 31.2680  5.9668   1
  -1   9  -1 26.8432  5.7366   1
   1   9   1 25.1975  5.4746   1
  -2  -9  -1 65.9455  6.2296   4
   2  -9   1 60.1784  7.5768   1
  -2  -9  -1 52.3216  7.1860   1
   2   9   1 54.1922  7.0812   1
  -2   9  -1 52.1724  7.4258   1
   3  -9   1 -1.1492  3.4335   5
   3  -9   1 6.84920 4.30648   1
  -3  -9  -1 4.21364 3.24329   4
   3   9   1 6.45747 4.13904   1
  -3   9  -1 6.23077 3.78090   1
   4  -9   1 28.3412  5.5648   5
  -4  -9  -1 39.1646  5.9095   4
  -4  -9  -1 36.9215  6.3958   1
   4  -9   1 47.7635  7.2328   1
  -4   9  -1 41.2394  6.9165   1
   4   9   1 43.1317  6.5425   1
   5  -9   1 80.4642  8.7004   1
   5  -9   1 59.6186  7.1367   5
  -5  -9  -1 68.5171  7.9362   1
  -5  -9  -1 62.7524  7.4431   4
   5   9   1 83.2643  8.1638   1
  -5   9  -1 77.2152  8.7475   1
   6  -9   1 123.523   9.896   5
  -6  -9  -1 109.684   9.859   4
  -6  -9  -1 109.910   9.471   1
   6  -9   1 108.473   9.983   1
  -6   9  -1 109.692  10.378   1
   6   9   1 122.670   9.790   1
  -7  -9  -1 56.1353  7.2584   1
   7  -9   1 49.3037  7.0066   1
  -7  -9  -1 66.4391  8.1962   4
   7  -9   1 56.5684  7.4975   5
  -7   9  -1 58.3158  7.8459   1
  -7   9  -1 64.9450  9.5025   3
  -8  -9  -1 8.60077 3.57790   1
  -8  -9  -1 -1.4825  3.1117   4
   8  -9   1 -8.7941  4.4194   5
  -8   9  -1 0.97960 4.70713   3
  -8   9  -1 0.21088 3.55606   1
   9  -9   1 45.7932  6.8002   5
  -9  -9  -1 54.8136  8.3293   4
  -9  -9  -1 48.1076  6.4173   1
  -9   9  -1 67.6274  8.2142   1
  -9   9  -1 46.6430  9.3661   3
  10  -9   1 15.0560  5.0352   5
 -10   9  -1 7.02292 3.79449   1
  11  -9   1 6.97296 4.50405   5
 -11   9  -1 3.71764 5.58127   3
 -11   9  -1 2.71335 3.31087   1
  12  -9   1 14.8105  5.0047   5
  11 -10  -1 54.0660  8.5573   5
 -11  10   1 40.0811 10.0143   3
 -11  10   1 53.1832  7.9122   1
 -10 -10   1 -8.4827  4.0241   1
 -10  10   1 4.20418 5.91975   3
 -10  10   1 -8.2742  5.0818   1
   9 -10  -1 130.126  11.620   5
  -9 -10   1 140.131  12.780   4
  -9 -10   1 156.043  11.619   1
  -9  10   1 148.163  12.697   1
  -9  10   1 152.272  15.456   3
  -8 -10   1 16.5251  4.6095   1
  -8 -10   1 19.2744  5.9096   4
  -8  10   1 11.7741  4.5435   1
  -8  10   1 7.98452 5.77405   3
   7 -10  -1 19.8571  5.7694   5
  -7 -10   1 38.1735  6.5618   1
  -7 -10   1 29.1328  6.1886   4
   7 -10  -1 23.9913  5.8314   1
  -7  10   1 13.3845  5.2036   3
  -7  10   1 33.4902  6.7193   1
  -6 -10   1 7.45219 3.61297   4
   6 -10  -1 -2.9202  4.0524   1
  -6  10   1 2.61765 4.38600   1
   6  10  -1 4.51409 3.52299   1
   5 -10  -1 22.2269  5.7331   5
  -5 -10   1 32.5476  6.4784   1
   5 -10  -1 33.6259  6.5937   1
  -5 -10   1 22.2570  5.0430   4
   5  10  -1 26.6278  5.7127   1
   4 -10  -1 3.06375 3.97968   1
  -4 -10   1 5.67349 3.15670   4
  -4 -10   1 7.62959 4.48472   1
   4  10  -1 4.53645 3.86507   1
  -4  10   1 -3.4064  4.0744   1
   3 -10  -1 11.2197  4.1251   1
   3 -10  -1 2.16830 3.91651   5
  -3 -10   1 18.1894  3.9008   4
  -3 -10   1 7.30322 4.57125   1
  -3  10   1 2.17367 4.16400   1
  -2 -10   1 10.6593  2.8733   4
   2 -10  -1 19.6075  5.5390   1
  -2 -10   1 12.0845  4.8626   1
  -2  10   1 14.9513  4.4861   1
   2  10  -1 10.4696  3.9091   1
   1 -10  -1 21.0391  5.7594   1
  -1 -10   1 15.0399  2.8671   4
  -1 -10   1 13.9365  5.2339   1
  -1  10   1 20.1001  5.7250   1
   1  10  -1 9.96209 4.79593   1
   0 -10  -1 4.96356 1.99248   4
   0 -10   1 9.65895 1.98792   4
   0 -10   1 12.1089  4.4919   1
   0 -10  -1 8.07548 4.52379   1
   0  10  -1 7.69838 4.63931   1
   0  10   1 -2.4170  3.9256   1
  -1 -10  -1 2.81179 1.98826   4
   1 -10   1 6.38177 3.96682   1
  -1 -10  -1 -8.6555  4.6516   1
  -1  10  -1 -6.6510  4.3546   1
   1  10   1 8.41912 3.71410   1
  -2 -10  -1 11.8989  3.3144   4
   2 -10   1 18.0789  5.5876   1
  -2 -10  -1 14.4695  4.8893   1
  -2  10  -1 9.44049 4.82047   1
   2  10   1 13.7811  5.1657   1
   3 -10   1 80.6016  9.4325   1
  -3 -10  -1 97.2379 10.0393   1
  -3 -10  -1 108.447   8.587   4
  -3  10  -1 95.9581  9.8253   1
   3  10   1 105.849   9.887   1
  -4 -10  -1 38.1868  5.8952   4
  -4 -10  -1 46.0136  7.3391   1
   4 -10   1 43.9432  7.2178   1
   4 -10   1 41.3660  6.4550   5
   4  10   1 42.0501  6.6998   1
  -4  10  -1 35.6771  6.9168   1
   5 -10   1 156.878  12.338   1
  -5 -10  -1 172.641  12.164   4
   5 -10   1 146.978  11.160   5
  -5 -10  -1 168.663  12.641   1
  -5  10  -1 158.347  12.977   1
   5  10   1 162.825  12.064   1
  -6 -10  -1 29.1637  5.6465   1
   6 -10   1 24.6631  5.8136   5
  -6 -10  -1 38.5900  6.8022   4
   6 -10   1 39.7884  6.5962   1
   6  10   1 29.1200  5.7416   1
  -6  10  -1 36.0967  6.9799   1
   7 -10   1 11.9884  4.4437   1
   7 -10   1 12.5627  4.8144   5
  -7 -10  -1 17.6808  4.9985   4
  -7  10  -1 9.63951 5.50440   3
  -7  10  -1 23.7107  6.2343   1
  -8 -10  -1 4.82394 3.73106   4
   8 -10   1 16.1674  5.3907   5
  -8  10  -1 -0.1934  4.0327   1
  -8  10  -1 5.59050 5.21834   3
  -9 -10  -1 33.6705  6.9367   4
   9 -10   1 29.2266  6.1008   5
  -9 -10  -1 32.3384  6.1811   1
  -9  10  -1 31.7230  6.6917   1
  -9  10  -1 28.9236  8.3802   3
  10 -10   1 20.5108  5.8400   5
 -10 -10  -1 16.1095  4.8581   1
 -10 -10  -1 15.9095  5.9668   4
 -10  10  -1 13.2625  6.8942   3
 -11 -10  -1 123.832  13.333   4
  11 -10   1 141.148  12.453   5
 -11  10  -1 115.141  10.955   1
 -10 -11   1 5.12139 3.62631   1
  10 -11  -1 6.47788 4.96528   5
  -9 -11   1 1.90376 3.76035   1
   9 -11  -1 13.5419  5.1421   5
  -9  11   1 5.00492 4.76458   1
   8 -11  -1 2.23521 4.50749   5
  -8 -11   1 4.17218 4.38883   4
  -8 -11   1 7.19176 4.49157   1
  -8  11   1 6.67923 4.63263   3
  -8  11   1 11.8847  5.0550   1
   7 -11  -1 2.18278 3.84367   1
   7 -11  -1 -0.9942  4.2289   5
  -7 -11   1 0.99767 3.88148   1
  -7 -11   1 -3.8149  3.8984   4
  -7  11   1 9.97105 5.99989   3
  -7  11   1 -3.5857  4.8254   1
   6 -11  -1 51.3273  8.0315   5
  -6 -11   1 43.6346  7.6024   1
  -6 -11   1 49.3684  7.3462   4
   6 -11  -1 43.8978  7.6819   1
  -6  11   1 49.9323  8.2522   1
   5 -11  -1 10.0863  5.0021   1
  -5 -11   1 1.85782 3.13700   1
  -5 -11   1 -1.9180  2.4257   4
   5 -11  -1 -7.8564  5.0291   5
   5  11  -1 -1.9754  3.8722   1
  -5  11   1 8.51063 5.46688   1
  -4 -11   1 132.183  11.891   1
  -4 -11   1 130.354   9.862   4
   4 -11  -1 128.789  11.333   5
   4 -11  -1 129.496  12.385   1
  -4  11   1 128.736  12.032   1
   4  11  -1 139.741  12.235   1
  -3 -11   1 3.41445 2.56750   4
   3 -11  -1 20.5595  5.9243   1
  -3 -11   1 22.1516  5.9619   1
  -3  11   1 7.33103 5.14090   1
   3  11  -1 10.9888  5.0146   1
   2 -11  -1 10.0597  4.4357   1
  -2 -11   1 8.58973 2.77041   4
  -2 -11   1 6.61935 4.63578   1
  -2  11   1 22.2663  6.3299   1
   2  11  -1 7.26830 3.86701   1
   1 -11  -1 5.79129 4.75538   1
  -1 -11   1 4.75065 4.50633   1
   1  11  -1 -2.9357  4.2611   1
  -1  11   1 7.49184 3.93022   1
   0 -11   1 33.0649  6.6228   1
   0 -11  -1 38.1657  7.3417   1
   0  11   1 36.2063  6.6840   1
   0  11  -1 43.2254  7.7939   1
  -1 -11  -1 128.645  11.827   1
  -1 -11  -1 113.360   7.731   4
   1 -11   1 111.372  11.140   1
  -1  11  -1 128.275  12.195   1
   1  11   1 118.909  11.728   1
   2 -11   1 20.3720  6.2150   1
  -2 -11  -1 19.5927  4.0523   4
   2  11   1 24.7659  6.3619   1
   3 -11   1 39.7043  7.5194   1
  -3 -11  -1 49.4454  6.1567   4
  -3 -11  -1 48.0360  7.5970   1
  -3  11  -1 49.3877  8.3999   1
   3  11   1 39.5583  7.2684   1
  -4 -11  -1 29.7078  5.5567   4
   4 -11   1 19.9236  5.3952   1
  -4 -11  -1 33.7329  6.9248   1
   4  11   1 28.6614  5.8977   1
  -4  11  -1 31.3584  7.2274   1
  -5 -11  -1 33.3509  7.2365   1
  -5 -11  -1 22.9204  5.5446   4
   5 -11   1 20.9018  5.9670   5
   5 -11   1 16.9058  5.6143   1
  -5  11  -1 32.4257  6.7734   1
   5  11   1 19.3501  5.2499   1
  -6 -11  -1 17.0093  5.1938   1
   6 -11   1 10.3411  4.9941   5
   6 -11   1 12.0942  5.2452   1
  -7 -11  -1 31.7524  6.5825   1
   7 -11   1 30.7917  6.6081   5
  -7 -11  -1 42.8257  7.6403   4
  -7  11  -1 30.3567  7.8105   3
  -7  11  -1 27.6375  6.2988   1
   8 -11   1 63.7676  8.7049   5
  -8 -11  -1 67.4183  8.6356   1
  -8 -11  -1 67.3196  9.2056   4
  -8  11  -1 72.4408  9.9010   1
  -8  11  -1 87.8749 12.4062   3
  -9 -11  -1 18.1437  5.2810   1
   9 -11   1 18.0081  5.6071   5
  -9  11  -1 21.5557  6.4276   1
  -9  11  -1 16.3521  6.2886   3
 -10 -11  -1 16.3801  5.0508   1
  10 -11   1 14.0893  5.6643   5
   8 -12  -1 25.2368  6.9724   5
  -8 -12   1 18.8717  5.6473   1
  -8 -12   1 19.4217  5.8320   4
  -8  12   1 28.9746  8.0429   3
  -7 -12   1 28.7126  7.0164   1
  -7  12   1 12.4498  6.6413   3
  -6 -12   1 -0.1327  3.1330   1
  -6 -12   1 0.60730 3.43985   4
   6 -12  -1 3.36834 4.77010   5
  -5 -12   1 64.2034  9.4131   1
  -5 -12   1 59.8834  7.5156   4
   5 -12  -1 58.5871  8.6923   5
   5  12  -1 55.4769  8.4851   1
  -4 -12   1 48.0751  8.1145   1
   4 -12  -1 55.5388  8.4420   1
   4  12  -1 64.1658  9.0215   1
  -3 -12   1 6.76883 5.34423   1
   3  12  -1 -3.1163  4.6299   1
   2  12  -1 24.3284  6.2979   1
   1 -12  -1 14.8142  4.9709   1
  -1 -12   1 7.25137 5.34719   1
   1  12  -1 6.26346 5.02928   1
   0 -12  -1 5.50317 3.85607   1
   0  12  -1 7.58168 5.11937   1
   1 -12   1 -1.1959  4.0731   1
  -1  12  -1 3.57338 4.81596   1
   2 -12   1 25.5452  6.8334   1
  -2  12  -1 29.1335  7.1022   1
   3 -12   1 19.7167  6.4688   1
  -3  12  -1 31.4517  7.5663   1
  -4 -12  -1 10.1820  3.8748   4
  -4  12  -1 16.5452  6.0491   1
   5 -12   1 14.9526  5.8945   1
   5  12   1 -3.1709  3.3677   1
  -5  12  -1 1.93432 4.38878   1
   6 -12   1 77.0818 10.5248   1
  -6 -12  -1 80.6632  9.2298   4
  -6  12  -1 87.4237 11.4588   1
   7 -12   1 34.0588  7.1617   5
  -7  12  -1 27.3813  7.3785   1
   8 -12   1 57.7364  8.9434   5
  -8  12  -1 48.5304  8.8138   1
  -8  12  -1 54.6664 10.6648   3
  -3  13   1 41.6349  8.1384   1
  -4 -13  -1 18.3344  5.7105   1
   4 -13   1 10.1041  4.7640   1
  -6 -13  -1 5.44821 4.09459   1
   3 -14  -1 15.1395  5.9092   1
   2  14  -1 3.92706 4.11453   1
   1  14   1 35.2705  7.7748   1
   4 -14   1 0.38362 3.53856   1
  15   0  -2 -0.3733  3.6953   5
 -15   0   2 7.70471 5.75188   3
  14   0  -2 25.0409  5.6824   5
 -14   0   2 45.7498  8.9317   3
  13   0  -2 -0.0190  3.5407   5
 -13   0   2 1.89137 4.96273   3
  12   0  -2 151.784  10.433   2
  12   0  -2 155.113  11.979   5
 -12   0   2 159.025  13.842   3
 -11   0   2 3.42760 4.19229   3
  11   0  -2 0.99418 2.73930   2
  11   0  -2 -5.0779  3.8522   5
 -10   0   2 60.5698  7.9016   3
  10   0  -2 65.0689  7.4349   5
  10   0  -2 59.1350  6.2700   2
   9   0  -2 1.48770 3.18100   5
   9   0  -2 4.01716 3.04000   2
  -9   0   2 -0.6901  2.6483   3
  -8   0   2 166.110  10.873   3
   8   0  -2 176.311  10.412   5
   8   0  -2 170.173   9.211   2
   7   0  -2 2.26440 2.75863   2
  -7   0   2 -3.3270  2.5104   3
   7   0  -2 0.34507 2.76114   5
  -6   0   2 773.002  20.890   3
   6   0  -2 747.386  18.116   2
   5   0  -2 0.40787 0.51454   1
   5   0  -2 1.32891 0.49398   1
   5   0  -2 4.27676 1.69155   2
  -5   0   2 1.23844 2.02162   3
  -4   0   2 145.536   6.946   3
  -4   0   2 131.697   3.836   1
   4   0  -2 140.147   6.650   3
   4   0  -2 147.655   3.961   1
   4   0  -2 132.357   6.254   4
   4   0  -2 133.461   6.129   2
   4   0  -2 135.021   3.851   1
   3   0  -2 0.48846 1.11343   3
   3   0  -2 -1.0170  1.0407   2
  -3   0   2 -1.1716  0.7165   1
   3   0  -2 0.73091 1.44085   4
  -3   0   2 -0.0575  0.6653   1
  -3   0   2 -1.9642  1.4499   3
   1   0  -2 2.37746 1.26827   3
   0   0   2 -6.0707  0.9022   2
  -2   0  -2 3226.72   41.91   3
   2   0   2 3203.43   37.75   1
   2   0   2 3204.34   38.21   1
   3   0   2 -1.8147  0.8407   5
   3   0   2 -0.6475  0.9792   3
  -3   0  -2 0.28689 1.65444   3
   3   0   2 0.78940 0.62088   1
  -3   0  -2 -0.1222  0.6274   1
   4   0   2 2118.47   25.46   1
  -4   0  -2 2001.53   31.62   4
   4   0   2 2101.64   29.14   5
   4   0   2 2057.78   24.86   1
  -4   0  -2 2117.04   29.65   1
  -4   0  -2 2136.68   35.12   3
   5   0   2 0.68225 1.23739   5
  -5   0  -2 1.48685 1.61710   3
  -6   0  -2 52.7469  5.1819   4
   6   0   2 43.3961  3.9096   5
  -6   0  -2 46.2186  5.3498   3
  -7   0  -2 3.39861 2.77542   4
  -7   0  -2 -2.2251  3.2313   3
   7   0   2 -3.1296  1.9279   5
   8   0   2 426.501  14.192   5
  -8   0  -2 387.033  17.423   3
  -8   0  -2 422.597  16.123   4
  -9   0  -2 3.69729 3.49670   4
  -9   0  -2 3.40686 4.05612   3
   9   0   2 -4.4933  2.6531   5
  10   0   2 5.79823 2.88635   5
 -10   0  -2 13.8759  5.2694   3
 -10   0  -2 2.77922 2.70918   4
 -11   0  -2 3.78065 4.75574   3
 -11   0  -2 5.58983 4.26478   4
  11   0   2 -0.0786  2.3003   5
  11   0   2 -4.1573  2.9853   2
 -12   0  -2 169.092  12.582   4
  12   0   2 175.090  11.147   5
  12   0   2 148.970  10.239   2
 -12   0  -2 173.147  14.732   3
 -13   0  -2 -10.243   5.693   3
 -14   0  -2 11.3077  6.4484   3
 -15   0  -2 -5.6089  5.6326   3
  15  -1  -2 1.00078 3.69748   5
  15   1  -2 4.88368 3.51663   5
 -15   1   2 -11.131   6.522   3
  14  -1  -2 43.2005  7.4521   5
 -14   1   2 41.3481  8.6565   3
  14   1  -2 32.1678  6.6667   5
 -13  -1   2 12.5491  5.0732   3
  13  -1  -2 24.1044  4.7863   2
  13  -1  -2 22.4115  5.6273   5
 -13   1   2 28.7757  7.3935   3
  13   1  -2 24.3773  5.9272   5
  12  -1  -2 1.87635 3.78331   5
 -12  -1   2 3.44708 4.01654   3
  12   1  -2 2.95853 2.93138   5
 -12   1   2 8.38257 5.29526   3
  12   1  -2 5.00667 3.69378   2
 -11  -1   2 32.0999  6.5722   3
  11  -1  -2 26.1190  4.5155   2
  11  -1  -2 25.7675  5.4697   5
  11   1  -2 18.6512  4.7307   2
 -11   1   2 30.4889  6.7893   3
  10  -1  -2 79.2073  6.7471   2
 -10  -1   2 70.4756  8.4427   3
  10  -1  -2 72.7167  7.7706   5
  10   1  -2 74.9074  7.2319   2
  10   1  -2 66.1984  7.5259   5
 -10   1   2 55.2984  7.9021   3
  -9  -1   2 12.1009  4.6157   3
   9  -1  -2 15.1260  4.4645   5
  -9   1   2 18.5689  5.3678   3
  -8  -1   2 -2.7862  3.0948   4
   8  -1  -2 7.69548 3.57559   5
  -8  -1   2 -0.7175  3.4538   3
   8   1  -2 2.72960 2.64724   2
  -8   1   2 7.35951 3.16441   3
   7  -1  -2 291.519  10.672   2
   7  -1  -2 308.081  12.986   5
  -7  -1   2 297.959  13.409   3
  -7  -1   2 287.663  12.705   4
   7   1  -2 310.186  12.501   2
  -7   1   2 286.508  13.553   3
  -6  -1   2 332.823  12.607   4
   6  -1  -2 336.462  12.772   5
   6  -1  -2 336.498   7.214   1
  -6  -1   2 326.102  12.953   3
   6  -1  -2 330.305  10.702   2
   6  -1  -2 334.464   7.191   1
  -6   1   2 356.422  14.047   3
   6   1  -2 323.079  12.190   2
  -6   1   2 327.508   7.220   1
   5  -1  -2 126.138   5.909   2
  -5  -1   2 124.937   7.251   3
   5  -1  -2 124.311   4.237   1
  -5  -1   2 130.420   7.264   4
   5  -1  -2 125.022   7.089   5
  -5  -1   2 130.977   3.870   1
   5  -1  -2 129.258   4.297   1
   5   1  -2 132.885   3.821   1
   5   1  -2 127.422   3.753   1
   5   1  -2 130.659   7.248   2
  -5   1   2 124.979   7.502   3
  -5   1   2 122.210   4.273   1
  -4  -1   2 -0.6077  1.2373   4
  -4  -1   2 -0.3913  0.5729   1
   4  -1  -2 -0.3353  0.6818   1
   4  -1  -2 0.84669 0.75796   1
   4  -1  -2 0.53465 1.22885   2
   4  -1  -2 0.61440 1.39026   3
  -4  -1   2 -2.1675  1.7089   3
   4  -1  -2 -2.1510  1.8398   5
  -4   1   2 3.06116 1.35351   2
  -4   1   2 1.51027 1.92292   3
   4   1  -2 0.78156 0.63340   1
   4   1  -2 -0.1848  0.8573   3
   4   1  -2 -3.4967  2.1122   2
  -4   1   2 -0.9912  0.7477   1
  -4   1   2 0.08550 0.71659   1
   3  -1  -2 947.930  14.768   1
  -3  -1   2 923.442  14.060   1
  -3  -1   2 950.217  17.841   4
   3  -1  -2 963.190  18.341   5
   3  -1  -2 954.698  14.796   1
  -3  -1   2 930.179  17.278   3
   3  -1  -2 986.116  17.668   3
   3  -1  -2 957.171  14.793   1
   3  -1  -2 953.657  15.695   2
  -3  -1   2 929.907  14.025   1
   3   1  -2 940.896  17.552   3
  -3   1   2 982.619  18.321   3
  -3   1   2 911.757  14.679   1
   3   1  -2 958.238  18.171   2
  -3   1   2 915.715  15.689   2
   3   1  -2 937.718  14.056   1
  -3   1   2 945.144  14.684   1
   3   1  -2 948.603  14.122   1
  -2  -1   2 1958.96   25.00   1
   2  -1  -2 1957.36   28.01   5
  -2  -1   2 1935.43   24.95   1
   2  -1  -2 1974.79   25.56   1
   2  -1  -2 1970.80   28.73   2
  -2   1   2 1905.02   25.15   1
  -2   1   2 1962.81   27.18   3
  -2   1   2 1902.70   25.39   1
  -2   1   2 1909.10   25.31   2
   2   1  -2 1974.27   24.89   1
  -2   1   2 1966.99   28.02   5
   2   1  -2 1907.14   26.57   3
   2   1  -2 2014.64   28.01   2
   1  -1  -2 1377.14   19.39   5
  -1  -1   2 1371.11   19.29   2
   1  -1  -2 1362.21   17.86   2
   1  -1  -2 1290.10   18.57   1
  -1  -1   2 1281.34   18.18   1
   1  -1  -2 1285.11   18.46   1
  -1  -1   2 1330.47   18.50   1
  -1   1   2 1289.95   18.47   1
   1   1  -2 1339.48   19.11   2
  -1   1   2 1321.23   19.18   5
  -1   1   2 1279.25   18.41   1
  -1   1   2 1372.01   18.01   2
   1   1  -2 1283.63   18.25   1
   1   1  -2 1356.77   18.44   1
   0  -1   2 576.878  10.217   1
   0  -1  -2 569.472   9.663   2
   0  -1  -2 561.081  10.256   1
   0  -1   2 558.364   8.958   2
   0  -1   2 554.410   9.956   1
   0  -1  -2 574.378   9.254   5
   0  -1  -2 540.003  10.160   1
   0   1   2 546.525  10.000   1
   0   1   2 553.365   9.406   2
   0   1  -2 552.946  10.034   1
   0   1   2 579.664   9.227   5
   0   1   2 547.838  10.100   1
   0   1  -2 572.051  10.217   1
   0   1  -2 570.686   9.056   2
   1  -1   2 332.576   5.645   5
   1  -1   2 344.850   7.355   1
   1  -1   2 332.474   5.251   2
  -1  -1  -2 310.085   6.994   1
  -1  -1  -2 320.486   7.096   1
  -1  -1  -2 338.266   5.671   5
   1  -1   2 328.634   7.065   1
  -1   1  -2 326.000   7.136   1
   1   1   2 330.410   7.095   1
   1   1   2 323.847   7.101   2
  -1   1  -2 336.056   5.233   2
  -1   1  -2 331.667   7.137   3
   1   1   2 328.523   5.556   5
  -1   1  -2 326.571   7.186   1
  -1   1  -2 332.533   5.703   5
   1   1   2 326.667   6.997   1
  -2  -1  -2 140.964   4.278   1
  -2  -1  -2 143.175   4.394   1
   2  -1   2 136.839   4.401   1
   2  -1   2 145.606   5.455   3
   2  -1   2 138.986   4.377   1
   2  -1   2 131.363   2.981   2
   2  -1   2 142.541   3.780   5
  -2   1  -2 137.305   3.857   5
   2   1   2 131.864   5.230   3
  -2   1  -2 140.563   5.503   3
   2   1   2 144.250   4.276   1
  -2   1  -2 135.706   4.453   1
   2   1   2 136.468   4.188   1
  -2   1  -2 136.955   4.407   1
  -3  -1  -2 251.895   5.845   1
   3  -1   2 244.213   6.113   1
  -3  -1  -2 262.230   6.031   1
   3  -1   2 255.284   6.340   5
   3  -1   2 252.606   6.096   1
  -3  -1  -2 253.651   8.577   3
   3  -1   2 246.830   8.461   3
  -3   1  -2 236.049   6.831   4
  -3   1  -2 251.705   8.876   3
  -3   1  -2 244.691   6.162   1
   3   1   2 250.217   5.750   1
  -3   1  -2 249.420   6.559   5
  -3   1  -2 253.113   6.250   1
   3   1   2 253.665   5.722   1
   3   1   2 251.028   8.649   3
   4  -1   2 25.6578  2.4194   5
  -4  -1  -2 24.1019  1.6720   1
   4  -1   2 26.4504  1.8671   1
  -4  -1  -2 26.9501  3.2494   4
   4  -1   2 25.6546  1.8930   1
  -4  -1  -2 29.0377  3.6030   3
   4   1   2 25.2219  1.6528   1
  -4   1  -2 24.0363  3.2223   3
  -4   1  -2 29.3990  2.9273   4
  -4   1  -2 25.9104  1.9537   1
   4   1   2 28.0906  1.6844   1
  -5  -1  -2 192.168   8.832   4
  -5  -1  -2 180.215   9.102   3
   5  -1   2 193.336   5.022   1
   5  -1   2 190.637   7.147   5
  -5  -1  -2 189.371   4.389   1
   5  -1   2 193.311   5.115   1
  -5  -1  -2 166.063   4.176   1
   5   1   2 187.279   4.269   1
   5   1   2 188.494   4.283   1
  -5   1  -2 183.144   9.347   3
  -5   1  -2 192.086   5.199   1
  -5   1  -2 187.949   7.939   4
  -6  -1  -2 1990.21   37.89   3
   6  -1   2 1971.58   31.55   5
  -6  -1  -2 1925.99   35.55   4
   6  -1   2 1899.53   24.04   1
  -6   1  -2 1932.86   38.08   3
  -6   1  -2 1914.08   24.28   1
  -6   1  -2 1844.07   25.59   1
  -6   1  -2 1941.58   33.36   4
  -7  -1  -2 103.032   8.529   3
   7  -1   2 111.550   6.726   5
  -7  -1  -2 122.564   8.652   4
  -7   1  -2 109.475   8.904   3
  -7   1  -2 110.261   7.507   4
   8  -1   2 101.255   6.855   5
  -8  -1  -2 102.446   9.129   3
   8  -1   2 106.349   6.516   2
  -8  -1  -2 107.685   8.692   4
  -8   1  -2 99.4692  7.6968   4
  -8   1  -2 91.1992  8.7140   3
   9  -1   2 -5.8339  2.8612   5
  -9  -1  -2 -2.0888  3.6106   3
  -9  -1  -2 -1.4918  3.6674   4
   9  -1   2 5.76499 2.48625   2
   9   1   2 1.90102 2.54295   5
  -9   1  -2 5.95086 4.32601   3
  10  -1   2 147.561   8.586   2
  10  -1   2 173.946  10.036   5
 -10  -1  -2 150.016  11.288   4
 -10  -1  -2 148.730  12.070   3
  10   1   2 160.053   9.823   5
 -10   1  -2 156.924  12.891   3
 -10   1  -2 162.810  10.942   4
 -11  -1  -2 95.3237 10.5736   3
 -11  -1  -2 92.5432  9.7287   4
  11  -1   2 84.9266  7.5832   5
  11  -1   2 91.2823  7.1605   2
  11   1   2 91.4215  8.4230   2
  11   1   2 80.8357  7.5713   5
 -11   1  -2 102.520  11.154   3
 -11   1  -2 86.7620  8.6143   4
  12  -1   2 92.5052  8.1914   5
 -12  -1  -2 94.6352  9.8851   4
 -12  -1  -2 90.8904 11.0048   3
  12  -1   2 86.6368  7.2879   2
  12   1   2 92.3494  8.2389   5
  12   1   2 100.692   9.087   2
 -12   1  -2 95.5951 11.1047   3
 -12   1  -2 101.811   9.810   4
  13  -1   2 27.2439  5.1082   5
 -13   1  -2 30.1476  8.0046   3
  13   1   2 22.3184  4.8949   5
 -14  -1  -2 19.4777  5.5901   4
 -14   1  -2 0.70395 4.77389   3
 -15   1  -2 54.2616 10.2888   3
  15  -2  -2 121.946  11.894   5
  15   2  -2 122.601  12.273   5
 -15   2   2 149.649  15.919   3
  14  -2  -2 22.6683  6.0978   5
  13  -2  -2 58.7915  7.9766   5
 -13   2   2 52.9484  9.4137   3
  13   2  -2 60.0722  8.2691   5
  12  -2  -2 4.02939 3.97111   5
  12   2  -2 0.66692 3.51882   2
  12   2  -2 8.86898 3.96515   5
 -12   2   2 0.82217 3.35566   3
  11  -2  -2 93.8914  7.1472   2
  11  -2  -2 119.118  10.224   5
 -11   2   2 86.4503 10.1117   3
  11   2  -2 87.1055  8.8156   2
  10  -2  -2 216.625  12.686   5
  10  -2  -2 208.926   9.995   2
  10   2  -2 214.368  12.702   2
 -10   2   2 205.655  14.256   3
  -9  -2   2 89.4061  8.7753   4
   9  -2  -2 95.3378  8.4735   5
   9  -2  -2 98.0618  6.6114   2
  -9   2   2 100.685   9.444   3
   9   2  -2 99.3287  8.7662   2
   8  -2  -2 19.3653  1.9284   1
   8  -2  -2 19.6747  4.0212   5
  -8   2   2 20.8014  2.0183   1
  -8   2   2 20.8536  2.0832   1
  -8   2   2 18.3716  4.7601   3
   8   2  -2 13.8699  4.3433   2
   7  -2  -2 442.724  12.500   2
   7  -2  -2 452.227  16.087   5
   7  -2  -2 444.082  10.107   1
  -7  -2   2 436.509  16.130   4
   7   2  -2 443.861  16.150   2
  -7   2   2 435.804  17.044   3
  -7   2   2 444.385  10.276   1
  -6  -2   2 2.97750 2.58318   4
   6  -2  -2 6.72066 1.37521   1
   6  -2  -2 3.08819 1.98152   5
  -6  -2   2 6.31088 1.20029   1
   6  -2  -2 4.90626 1.69614   2
  -6   2   2 3.70642 1.28384   1
   6   2  -2 8.24045 3.19823   2
  -6   2   2 4.68317 1.31455   1
   6   2  -2 4.40054 0.96759   1
  -5  -2   2 317.412   7.763   1
   5  -2  -2 318.735   8.919   2
   5  -2  -2 323.527   8.667   1
   5  -2  -2 332.091  11.944   5
  -5  -2   2 327.759   7.871   1
  -5  -2   2 304.156  11.594   4
  -5   2   2 334.255   9.620   2
  -5   2   2 323.886   8.746   1
  -5   2   2 330.658  12.495   3
   5   2  -2 327.366   7.844   1
  -5   2   2 315.444   8.553   1
   5   2  -2 334.688   7.790   1
   4  -2  -2 557.691  12.022   1
   4  -2  -2 580.837  15.124   5
  -4  -2   2 544.134  14.711   4
   4  -2  -2 565.858  12.553   4
  -4  -2   2 563.188  11.161   1
   4  -2  -2 569.312  11.533   2
  -4  -2   2 565.199  11.259   1
  -4   2   2 566.635  12.183   1
   4   2  -2 564.947  11.024   1
  -4   2   2 554.807  11.798   1
  -4   2   2 562.771  15.221   3
  -4   2   2 548.739  11.735   2
   4   2  -2 559.745  11.125   1
   3  -2  -2 419.663  11.516   5
  -3  -2   2 410.107   9.320   1
   3  -2  -2 406.028   8.689   2
  -3  -2   2 422.978  11.434   4
   3  -2  -2 408.517   9.889   1
   3  -2  -2 416.132   9.874   1
  -3  -2   2 413.643   9.373   1
  -3   2   2 401.723   9.738   1
  -3   2   2 403.041   8.886   2
   3   2  -2 420.222   9.326   1
  -3   2   2 410.653  11.334   3
   3   2  -2 396.898  11.199   4
  -3   2   2 395.473   9.844   1
   3   2  -2 403.981   9.143   1
   3   2  -2 405.314  10.838   3
  -3   2   2 418.321  11.469   5
   2  -2  -2 492.118  11.011   1
  -2  -2   2 500.298  10.658   1
  -2  -2   2 496.110  11.172   4
   2  -2  -2 514.038   9.514   2
   2  -2  -2 501.036  11.039   1
  -2  -2   2 476.356  10.393   1
   2  -2  -2 495.719  11.567   5
  -2   2   2 485.398  10.847   1
   2   2  -2 492.299  10.426   1
   2   2  -2 479.914  11.172   4
  -2   2   2 506.747   9.537   2
   2   2  -2 506.253  10.682   1
  -2   2   2 488.490  11.044   1
  -2   2   2 484.303  11.545   5
   1  -2  -2 1301.76   20.59   1
  -1  -2   2 1282.43   20.05   1
  -1  -2   2 1349.03   20.42   1
   1  -2  -2 1358.72   20.49   5
   1  -2  -2 1337.89   18.64   2
   1  -2  -2 1315.14   20.60   1
   1   2  -2 1313.10   20.13   1
  -1   2   2 1271.93   20.30   1
   1   2  -2 1317.56   20.25   1
   1   2  -2 1311.95   19.13   4
  -1   2   2 1295.42   18.36   2
  -1   2   2 1307.19   20.65   1
   0  -2  -2 557.082  10.541   2
   0  -2  -2 520.099  11.168   1
   0  -2   2 523.424  11.009   1
   0  -2   2 548.346  11.491   1
   0  -2  -2 538.273  11.423   1
   0  -2  -2 538.092  10.159   5
   0   2   2 515.400   9.943   2
   0   2   2 534.750  10.229   5
   0   2  -2 544.925   9.861   2
   0   2  -2 537.585  11.305   1
   0   2  -2 525.816  11.145   1
   0   2   2 508.321  10.976   1
   0   2   2 524.496  11.211   1
  -1  -2  -2 5755.40   69.10   5
   1  -2   2 5735.66   72.19   1
  -1  -2  -2 5655.15   66.40   1
  -1  -2  -2 5743.71   80.89   1
  -1   2  -2 5744.23   71.26   1
  -1   2  -2 5695.12   82.58   1
   1   2   2 5595.55   69.72   1
  -2  -2  -2 837.073  14.873   1
   2  -2   2 864.642  13.975   5
   2  -2   2 858.045  15.437   1
  -2  -2  -2 870.930  15.068   1
  -2   2  -2 838.389  15.181   1
   2   2   2 854.974  14.895   1
   2   2   2 858.985  14.761   1
  -2   2  -2 822.737  15.204   1
  -2   2  -2 860.611  14.161   5
   3  -2   2 191.996   6.093   5
  -3  -2  -2 197.822   6.169   1
  -3  -2  -2 190.190   5.963   1
   3  -2   2 202.219   6.379   1
   3  -2   2 195.536   6.452   1
   3   2   2 190.049   7.710   3
  -3   2  -2 197.950   6.528   1
   3   2   2 195.948   6.040   1
  -3   2  -2 186.943   6.205   5
  -3   2  -2 202.407   8.198   3
  -3   2  -2 191.954   6.517   1
   3   2   2 192.579   5.852   1
  -3   2  -2 198.857   5.507   4
  -4  -2  -2 943.375  15.497   1
   4  -2   2 928.827  16.225   1
   4  -2   2 914.282  16.849   5
  -4  -2  -2 916.742  15.316   1
   4  -2   2 929.559  13.037   2
  -4  -2  -2 968.660  21.025   4
  -4   2  -2 897.357  17.350   5
   4   2   2 912.855  15.080   1
  -4   2  -2 900.477  16.343   4
  -4   2  -2 932.404  21.302   3
  -4   2  -2 936.404  16.423   1
   4   2   2 921.755  15.206   1
  -4   2  -2 914.028  16.256   1
   5  -2   2 5.22711 1.30592   1
  -5  -2  -2 3.65757 1.13260   1
   5  -2   2 7.13595 2.01460   5
   5  -2   2 7.74365 1.28017   2
  -5  -2  -2 1.20683 2.43348   4
  -5   2  -2 6.04280 1.50239   1
   5   2   2 3.96377 0.97570   1
   5   2   2 5.65415 1.11269   1
  -5   2  -2 5.79307 1.39184   1
  -6  -2  -2 1.72293 0.64726   1
   6  -2   2 0.77232 1.94716   5
  -6  -2  -2 2.09335 3.06582   4
   6  -2   2 -0.7653  1.0053   2
   6  -2   2 -0.2275  0.8467   1
  -6   2  -2 2.72005 2.01001   4
   6   2   2 0.21971 0.57108   1
  -6   2  -2 2.11017 1.18061   1
  -6   2  -2 -0.5967  2.8437   3
  -7  -2  -2 114.553   8.722   4
   7  -2   2 113.834   6.855   5
   7  -2   2 107.236   5.287   2
   7  -2   2 113.087   4.523   1
  -7   2  -2 110.776   9.082   3
  -7   2  -2 122.109   7.285   4
  -7   2  -2 117.965   4.734   1
   8  -2   2 -1.3573  0.7210   1
  -8  -2  -2 -2.9080  3.7703   4
   8  -2   2 -1.4644  1.6677   2
   8  -2   2 -5.3774  2.6724   5
  -8   2  -2 -2.5717  3.9412   3
  -8   2  -2 -0.4873  2.3120   4
  -8   2  -2 -1.0510  0.7545   1
   9  -2   2 138.155   8.587   5
  -9  -2  -2 143.469  10.879   4
   9  -2   2 132.579   6.893   2
  -9   2  -2 148.912   9.307   4
  -9   2  -2 125.504  10.707   3
  10  -2   2 36.9226  4.9912   5
  10  -2   2 40.4494  4.1366   2
 -10  -2  -2 43.3310  6.5330   4
 -10   2  -2 44.5579  7.5838   3
 -10   2  -2 31.1470  5.1129   4
  11  -2   2 3.67538 2.93747   5
 -11  -2  -2 -3.6449  4.6793   4
  11  -2   2 1.42520 1.94304   2
 -11   2  -2 -0.4676  4.2702   3
  11   2   2 0.47918 2.67418   5
  12  -2   2 5.23215 2.77587   5
 -12   2  -2 1.78568 5.02653   3
  13  -2   2 97.0892  8.7605   5
 -13   2  -2 105.516  12.244   3
  13   2   2 117.772   9.950   5
 -14   2  -2 17.7661  7.4086   3
 -15   2  -2 2.26057 5.32487   3
  15  -3  -2 22.4936  6.1358   5
 -15   3   2 29.2883  8.7803   3
  14  -3  -2 73.8784  9.2623   5
 -14   3   2 69.5710 11.0597   3
  14   3  -2 74.1582  9.6163   5
  13   3  -2 8.75632 4.80097   5
 -13   3   2 6.39590 5.55865   3
 -12   3   2 -1.6740  4.7361   3
  11  -3  -2 45.5209  4.6849   2
  11  -3  -2 38.2939  6.1112   5
  11   3  -2 41.4869  7.0308   2
 -11   3   2 36.5816  7.3131   3
  10  -3  -2 224.690   9.627   2
 -10  -3   2 249.680  15.063   4
  10  -3  -2 232.059  13.463   5
 -10   3   2 234.971  15.564   3
  10   3  -2 239.286  14.272   2
   9  -3  -2 -2.8871  3.5567   5
  -9  -3   2 5.59304 4.05887   4
   9  -3  -2 2.10710 1.87182   2
  -9   3   2 3.34662 3.11617   3
   9   3  -2 3.02322 2.77100   2
  -8  -3   2 1.94380 4.08395   4
   8  -3  -2 0.01986 1.51981   2
  -8  -3   2 1.43356 0.99463   1
   8  -3  -2 1.78263 1.32956   1
   8  -3  -2 4.58235 3.50454   5
   8   3  -2 -4.5140  3.9329   2
  -8   3   2 -8.6136  4.5481   3
  -8   3   2 3.98931 1.64492   1
   8   3  -2 -0.9472  0.7951   1
  -8   3   2 0.46686 1.07792   1
   7  -3  -2 9.66042 3.64189   5
   7  -3  -2 13.9856  2.3590   2
   7  -3  -2 13.5379  2.2493   1
  -7  -3   2 14.7355  1.9560   1
  -7   3   2 13.2620  4.2518   3
  -7   3   2 8.34648 1.82788   1
  -7   3   2 9.08227 2.13549   1
   7   3  -2 12.4950  1.7354   1
  -6  -3   2 5.60626 1.44086   1
  -6   3   2 7.70000 3.26982   3
   6   3  -2 6.05506 1.52283   1
  -6   3   2 4.70382 1.81149   1
  -6   3   2 4.60653 1.57146   2
  -6   3   2 7.76031 1.80881   1
  -5  -3   2 199.086   7.138   1
  -5  -3   2 200.223   9.867   4
  -5  -3   2 210.139   7.276   1
   5  -3  -2 204.790   7.860   1
   5  -3  -2 212.461   9.656   5
   5  -3  -2 198.219   6.573   2
   5  -3  -2 210.948   7.764   4
  -5   3   2 197.231   7.612   1
  -5   3   2 210.181  10.294   3
  -5   3   2 209.911   8.028   1
   5   3  -2 208.875   7.067   1
  -5   3   2 203.194   7.072   2
  -4  -3   2 438.056  11.138   1
   4  -3  -2 433.674  11.723   1
   4  -3  -2 435.969   9.549   2
   4  -3  -2 450.352  13.550   5
  -4  -3   2 445.572  13.680   4
  -4  -3   2 448.281  11.268   1
  -4   3   2 431.100  11.839   1
  -4   3   2 433.676   9.894   2
  -4   3   2 436.658  13.767   3
  -4   3   2 438.879  11.711   1
   4   3  -2 450.295  11.037   1
   3  -3  -2 196.964   7.656   1
  -3  -3   2 178.120   7.704   4
   3  -3  -2 192.993   5.725   2
   3  -3  -2 192.277   8.025   5
  -3  -3   2 187.341   7.128   1
  -3  -3   2 182.311   6.923   1
   3   3  -2 191.469   7.063   1
  -3   3   2 191.473   7.332   1
  -3   3   2 189.763   5.844   2
  -3   3   2 186.442   7.457   1
   2  -3  -2 120.217   5.888   1
  -2  -3   2 109.296   5.398   1
  -2  -3   2 111.311   5.589   1
   2  -3  -2 132.742   6.064   5
  -2  -3   2 115.942   5.470   4
   2  -3  -2 133.924   4.722   2
  -2   3   2 121.575   5.893   5
   2   3  -2 109.315   5.312   4
  -2   3   2 108.996   4.203   2
  -2   3   2 110.894   5.792   1
   2   3  -2 111.543   5.477   1
  -2   3   2 111.252   5.548   1
  -1  -3   2 1406.25   20.85   4
   1  -3  -2 1349.04   23.31   1
   1  -3  -2 1406.54   22.82   5
   1  -3  -2 1395.26   23.90   1
   1  -3  -2 1454.26   21.21   2
  -1  -3   2 1397.57   23.33   1
  -1  -3   2 1420.87   23.67   1
  -1   3   2 1436.32   23.18   5
   1   3  -2 1416.05   21.31   4
  -1   3   2 1374.41   23.38   1
  -1   3   2 1372.71   20.36   2
  -1   3   2 1396.28   23.89   1
   1   3  -2 1382.77   23.35   1
   1   3  -2 1417.97   23.51   1
   0  -3   2 25.9806  2.9493   1
   0  -3  -2 33.7433  3.4618   1
   0  -3  -2 25.2551  2.7315   1
   0  -3   2 28.4296  3.2293   1
   0  -3  -2 34.9638  3.0616   5
   0   3  -2 27.1883  2.8942   1
   0   3   2 25.7696  3.1553   1
   0   3  -2 26.7795  2.8244   1
   0   3  -2 26.3505  1.8469   4
   0   3  -2 35.2747  3.8017   5
   0   3   2 33.0702  3.2391   2
   0   3   2 32.0549  4.5574   5
   0   3   2 23.7297  2.8696   1
  -1  -3  -2 151.701   6.561   1
   1  -3   2 149.848   6.394   1
  -1  -3  -2 148.048   5.516   5
   1  -3   2 155.991   6.700   1
  -1  -3  -2 149.290   6.359   1
   1  -3   2 143.733   5.526   5
  -1   3  -2 151.139   6.511   1
   1   3   2 145.398   6.204   1
  -1   3  -2 148.985   5.604   5
  -1   3  -2 152.655   6.577   1
   1   3   2 154.189   5.516   5
   1   3   2 151.538   6.413   1
  -2  -3  -2 184.503   7.058   1
   2  -3   2 188.611   7.332   1
  -2  -3  -2 181.249   7.012   1
   2  -3   2 186.691   6.394   5
   2   3   2 189.323   7.089   1
  -2   3  -2 186.063   7.398   1
   2   3   2 187.720   6.193   5
  -2   3  -2 185.220   7.284   1
  -2   3  -2 187.597   6.532   5
  -3  -3  -2 20.3048  2.6352   1
   3  -3   2 12.6708  2.2336   1
  -3  -3  -2 16.2028  2.2711   1
   3  -3   2 20.3430  2.3159   5
  -3   3  -2 15.1555  2.7137   3
  -3   3  -2 13.7241  2.1847   5
  -3   3  -2 17.2072  1.3108   4
  -3   3  -2 20.2499  2.6726   1
   3   3   2 18.6834  2.4126   1
  -3   3  -2 15.5161  2.5333   1
  -4  -3  -2 95.1561  6.6159   4
   4  -3   2 103.032   5.481   1
  -4  -3  -2 107.125   5.213   1
   4  -3   2 103.209   5.277   5
  -4  -3  -2 107.119   5.227   1
  -4   3  -2 123.353   7.621   3
  -4   3  -2 106.427   4.152   4
   4   3   2 107.426   5.113   1
  -4   3  -2 100.309   5.408   1
  -4   3  -2 103.594   5.637   1
  -5  -3  -2 353.306  13.443   4
  -5  -3  -2 344.169   9.388   1
   5  -3   2 342.439  10.622   5
   5  -3   2 358.721  10.319   1
  -5  -3  -2 353.917   9.623   1
   5   3   2 335.257   9.147   1
  -5   3  -2 343.782  10.253   1
  -5   3  -2 356.280  14.165   3
  -5   3  -2 357.194  10.501   1
  -5   3  -2 359.930   9.485   4
   6  -3   2 3.48314 1.73498   5
  -6  -3  -2 4.44533 1.47164   1
  -6  -3  -2 2.84473 3.15061   4
   6  -3   2 1.65512 1.32060   1
  -6   3  -2 -0.3157  1.3616   4
  -6   3  -2 -5.1145  3.3543   3
   6   3   2 2.85321 1.14895   1
  -6   3  -2 0.83575 1.21567   1
   7  -3   2 346.681  12.325   5
  -7  -3  -2 337.899  15.213   4
  -7  -3  -2 324.900   8.363   1
   7  -3   2 333.890   7.868   2
   7  -3   2 336.535   9.834   1
  -7   3  -2 337.428  11.344   4
   7   3   2 333.605   8.238   1
  -7   3  -2 342.710  10.164   1
  -7   3  -2 318.178  15.389   3
  -7   3  -2 323.093   9.720   1
  -8  -3  -2 12.9951  4.7538   4
   8  -3   2 11.5056  3.0924   5
  -8   3  -2 5.97552 2.72156   4
  -8   3  -2 12.3860  4.0583   3
  -8   3  -2 11.0990  2.0748   1
   9  -3   2 546.946  12.766   2
  -9  -3  -2 579.645  22.151   4
   9  -3   2 564.181  17.914   5
  -9   3  -2 555.201  12.227   1
  -9   3  -2 539.229  22.821   3
  10  -3   2 31.9353  3.2041   2
  10  -3   2 29.4529  4.8136   5
 -10  -3  -2 24.7791  6.4003   4
 -10   3  -2 32.6224  6.3418   3
 -11  -3  -2 8.91212 4.07913   4
  11  -3   2 12.5450  3.7633   5
 -11   3  -2 0.59048 4.49748   3
  12  -3   2 282.979  14.239   5
 -12   3  -2 275.410  19.136   3
  12   3   2 277.292  16.458   2
  13  -3   2 133.582  10.121   5
 -13  -3  -2 127.438  12.478   4
  13   3   2 137.133  10.960   5
 -13   3  -2 120.963  13.283   3
 -14   3  -2 85.1911 12.4976   3
 -15  -3  -2 102.781  12.354   4
  14  -4  -2 8.72707 4.30526   5
 -14   4   2 -1.7809  4.0708   3
  14   4  -2 -6.2249  3.8581   5
  13  -4  -2 50.4499  7.7236   5
 -13   4   2 31.7892  8.1276   3
  13   4  -2 40.1742  7.1167   2
  12  -4  -2 95.1755  9.7804   5
 -12   4   2 93.9025 11.7029   3
 -11  -4   2 23.7936  6.0343   4
  11  -4  -2 33.2126  6.3429   5
  11   4  -2 31.8289  6.8247   2
 -10  -4   2 161.552  12.157   4
  10  -4  -2 142.495  10.682   5
  10  -4  -2 134.125   6.885   2
 -10   4   2 148.689   7.061   1
  10   4  -2 147.948  11.541   2
 -10   4   2 140.525  12.700   3
  -9  -4   2 1.35518 1.06370   1
   9  -4  -2 1.83034 2.48314   5
   9  -4  -2 3.28157 1.63513   2
  -9  -4   2 0.11713 2.90899   4
   9   4  -2 -3.0174  4.1851   2
  -9   4   2 2.01018 4.03793   3
   8  -4  -2 4.19952 3.69842   5
  -8  -4   2 11.5653  2.0726   1
   8  -4  -2 7.43255 2.11853   1
   8   4  -2 6.34814 1.59771   1
  -8   4   2 0.91321 3.51627   3
  -7  -4   2 4.41829 1.77793   1
  -7  -4   2 2.02767 1.38306   1
  -7  -4   2 2.21868 3.67411   4
   7  -4  -2 4.87117 1.99364   1
   7  -4  -2 1.14353 1.30680   2
   7  -4  -2 -1.8222  3.5612   5
  -7   4   2 -0.2165  1.3806   1
  -7   4   2 -2.7184  3.0114   3
  -7   4   2 2.83380 2.05167   1
   6  -4  -2 19.2788  4.1149   5
  -6  -4   2 16.9416  4.1732   4
  -6  -4   2 13.2769  2.2503   1
  -6  -4   2 17.4720  2.7459   1
   6  -4  -2 14.0945  2.0664   2
   6  -4  -2 14.8566  2.6981   1
   6   4  -2 17.3278  2.5444   1
  -6   4   2 21.3676  4.1160   3
  -6   4   2 14.0708  2.6541   1
  -6   4   2 17.0539  3.1433   1
   5  -4  -2 88.1192  6.6433   5
  -5  -4   2 85.2915  5.3050   1
  -5  -4   2 85.5412  5.4035   1
   5  -4  -2 85.3500  5.6658   1
   5  -4  -2 92.1233  4.2910   2
   5  -4  -2 85.3978  4.7174   4
  -5  -4   2 90.5789  6.8458   4
   5   4  -2 86.2874  5.2846   1
  -5   4   2 84.3078  7.1070   3
  -5   4   2 88.7953  4.5078   2
  -5   4   2 83.8965  5.8657   1
  -5   4   2 85.0655  5.6446   1
   4  -4  -2 9.47807 3.06123   5
   4  -4  -2 6.63245 2.22497   1
  -4   4   2 11.3882  2.4130   1
   4   4  -2 7.29241 1.82946   1
  -4   4   2 6.71832 1.44688   2
  -4   4   2 6.38605 2.29535   1
   3  -4  -2 43.3258  4.4458   5
  -3  -4   2 33.5117  3.7428   1
  -3  -4   2 35.7535  3.8545   4
   3  -4  -2 31.7590  3.7302   1
  -3  -4   2 30.0778  3.2808   1
   3  -4  -2 34.2634  2.6593   2
  -3   4   2 32.4484  3.5832   1
  -3   4   2 32.8404  2.5764   2
  -3   4   2 31.2313  3.5898   1
   3   4  -2 28.4448  3.1959   1
  -2  -4   2 246.484   9.222   1
   2  -4  -2 252.654   9.685   1
  -2  -4   2 258.673   8.706   4
   2  -4  -2 260.087   7.546   2
  -2  -4   2 235.812   9.242   1
   2  -4  -2 275.325   9.744   5
  -2   4   2 250.070   7.163   2
  -2   4   2 248.668   9.688   1
   2   4  -2 259.335   9.530   1
   2   4  -2 253.053   8.674   4
  -1  -4   2 1.82114 2.07170   1
   1  -4  -2 12.3851  4.0029   5
   1   4  -2 5.24999 1.38374   4
  -1   4   2 1.45449 2.25704   1
   0  -4   2 681.771  16.680   1
   0  -4  -2 693.762  16.822   1
   0  -4  -2 711.151  15.222   5
   0   4  -2 690.755  16.652   1
   0   4   2 706.825  16.885   1
   0   4   2 710.148  14.609   2
   1  -4   2 219.135   7.776   5
  -1  -4  -2 218.157   7.751   5
  -1  -4  -2 211.011   8.634   1
   1  -4   2 221.232   8.988   1
  -1  -4  -2 211.055   8.763   1
  -1   4  -2 203.074   8.620   1
   1   4   2 215.998   8.799   1
   2  -4   2 113.310   5.685   5
  -2  -4  -2 121.893   6.525   1
  -2  -4  -2 116.093   6.510   1
   2  -4   2 108.749   6.468   1
  -2   4  -2 112.615   6.586   1
   2   4   2 119.712   6.527   1
  -2   4  -2 109.158   6.270   1
  -3  -4  -2 372.684  11.684   1
   3  -4   2 361.624  10.685   5
  -3  -4  -2 349.424  11.161   1
   3  -4   2 350.353  11.576   1
   3   4   2 359.943  11.222   1
  -3   4  -2 345.848  11.503   1
  -3   4  -2 351.303  11.752   1
   4  -4   2 1910.30   31.86   1
  -4  -4  -2 1800.00   30.14   1
  -4  -4  -2 1862.59   30.56   1
  -4  -4  -2 1849.30   34.33   4
   4  -4   2 1851.95   30.39   5
  -4   4  -2 1865.59   31.91   1
   4   4   2 1829.44   29.97   1
  -4   4  -2 1754.03   30.89   1
  -4   4  -2 1883.75   35.43   3
  -5  -4  -2 37.3972  3.5242   1
   5  -4   2 37.7654  3.8222   1
   5  -4   2 31.2173  3.8741   5
  -5  -4  -2 30.1713  3.3916   1
  -5  -4  -2 34.3178  4.9403   4
  -5   4  -2 34.5600  5.1475   3
   5   4   2 31.9881  3.2383   1
  -5   4  -2 33.4886  3.6054   1
  -5   4  -2 31.5054  3.8880   1
   6  -4   2 3.38693 2.45886   5
  -6  -4  -2 6.84880 3.50661   4
   6  -4   2 2.35227 1.78941   1
  -6   4  -2 0.02862 2.31318   3
  -6   4  -2 0.81527 1.55287   1
  -6   4  -2 0.35638 1.86723   1
   6   4   2 3.40873 1.53778   1
   7  -4   2 90.6130  6.5285   5
  -7  -4  -2 79.1058  8.0972   4
  -7  -4  -2 81.2546  4.9545   1
   7  -4   2 93.6799  5.8532   1
  -7  -4  -2 88.5344  5.0546   1
  -7   4  -2 75.7077  5.3037   1
  -7   4  -2 86.4996  8.4914   3
   7   4   2 81.8686  4.7601   1
  -7   4  -2 82.7425  5.6702   1
   8  -4   2 315.375  12.725   5
  -8  -4  -2 323.147  16.075   4
   8  -4   2 319.209  10.787   1
  -8  -4  -2 309.999   9.220   1
   8   4   2 320.022   9.037   1
  -8   4  -2 333.075  17.351   3
  -8   4  -2 336.925  11.318   1
  -9  -4  -2 11.7881  5.0879   4
   9  -4   2 20.6403  4.1948   5
  -9   4  -2 29.8160  6.6787   3
  -9   4  -2 21.6551  3.0969   1
  10  -4   2 189.444  10.969   5
 -10  -4  -2 181.771  13.668   4
 -10   4  -2 178.494   7.369   1
 -10   4  -2 173.400  14.187   3
  11  -4   2 22.3120  4.6376   5
 -11   4  -2 18.3047  6.4768   3
  12  -4   2 52.0146  6.6136   5
 -12   4  -2 62.2009 10.0434   3
  13  -4   2 5.44660 3.12552   5
 -13   4  -2 -6.8597  4.7095   3
 -14  -4  -2 79.4408 10.8840   4
 -14   4  -2 86.1025 12.7004   3
  14  -5  -2 2.94200 4.00558   5
 -14   5   2 6.92770 5.97952   3
 -13   5   2 47.0695  9.5022   3
  12  -5  -2 6.09145 4.26458   5
  11  -5  -2 90.4228  9.5626   5
 -11  -5   2 81.2590 10.0663   4
 -11   5   2 90.2891 11.3222   3
 -11   5   2 99.8756  6.3223   1
  11   5  -2 108.374  11.358   2
  10  -5  -2 387.672  18.073   5
 -10  -5   2 375.349  19.338   4
  10   5  -2 383.818  19.674   2
 -10   5   2 346.477  20.230   3
 -10   5   2 390.803  13.507   1
  -9  -5   2 317.946  16.895   4
   9  -5  -2 336.735  16.173   5
   9  -5  -2 313.397   9.372   2
  -9  -5   2 330.106  10.674   1
  -9   5   2 337.968  12.752   1
  -9   5   2 313.067  17.903   3
   9   5  -2 318.796  17.141   2
  -8  -5   2 82.2454  5.5696   1
   8  -5  -2 81.1794  4.4664   2
  -8  -5   2 87.2211  8.5335   4
   8  -5  -2 72.1179  5.9568   1
   8  -5  -2 86.9814  8.2730   5
  -8   5   2 87.0776  9.4496   3
  -8   5   2 93.2727  6.8467   1
   8   5  -2 86.6486  5.4758   1
  -7  -5   2 18.3016  3.2068   1
   7  -5  -2 13.9916  3.2487   1
   7  -5  -2 14.3720  4.5675   5
   7  -5  -2 16.7553  2.1796   2
  -7  -5   2 23.3124  4.9761   4
  -7   5   2 12.8224  5.0129   3
  -7   5   2 10.7064  2.9752   1
   7   5  -2 13.7342  2.6555   1
   6  -5  -2 5.90322 3.59306   5
   6  -5  -2 4.41554 2.43666   1
  -6  -5   2 -0.3507  3.3354   4
   6  -5  -2 4.43181 1.44911   2
  -6   5   2 2.56882 2.51669   1
  -6   5   2 0.16143 3.56065   3
   5  -5  -2 178.246   9.214   1
   5  -5  -2 172.503   6.457   4
   5  -5  -2 168.528   6.108   2
  -5  -5   2 181.176   8.788   1
  -5  -5   2 157.038   9.499   4
   5  -5  -2 166.220   9.408   5
  -5  -5   2 172.555   8.464   1
   5   5  -2 173.383   8.445   1
  -5   5   2 169.546   6.301   2
  -5   5   2 162.768   8.904   1
  -4  -5   2 924.647  21.190   1
   4  -5  -2 902.445  22.035   5
   4  -5  -2 924.460  22.201   1
  -4  -5   2 932.635  21.485   1
   4  -5  -2 950.881  16.858   2
  -4  -5   2 917.842  22.338   4
  -4   5   2 919.407  22.339   1
   4   5  -2 934.619  21.170   1
  -4   5   2 921.680  16.681   2
   3  -5  -2 114.372   5.279   2
  -3  -5   2 104.512   6.928   1
   3  -5  -2 111.960   7.095   5
   3  -5  -2 113.995   7.313   1
  -3  -5   2 127.503   7.198   4
  -3   5   2 112.695   4.980   2
   3   5  -2 119.222   7.159   1
  -3   5   2 111.645   7.385   1
   2  -5  -2 484.847  15.333   1
  -2  -5   2 509.340  15.323   1
  -2  -5   2 487.261  13.149   4
   2  -5  -2 517.066  14.655   5
   2   5  -2 499.734  15.026   1
  -2   5   2 479.491  11.313   2
  -2   5   2 489.658  15.456   1
  -1  -5   2 457.748  11.276   4
   1  -5  -2 455.703  13.165   5
  -1  -5   2 460.753  14.706   1
   1  -5  -2 456.780  14.741   1
   1   5  -2 437.508  14.063   1
  -1   5   2 463.563  14.843   1
   0  -5  -2 839.018  18.458   5
   0  -5   2 829.368  20.355   1
   0  -5  -2 829.431  20.549   1
   0  -5   2 802.788  13.958   4
   0   5  -2 822.375  20.264   1
   0   5   2 849.117  20.565   1
  -1  -5  -2 301.840  11.718   1
   1  -5   2 282.907  11.386   1
   1   5   2 281.998  11.255   1
  -1   5  -2 299.573  11.691   1
   2  -5   2 86.5985  6.4455   1
  -2  -5  -2 97.7265  6.5936   1
   2  -5   2 90.5585  5.7857   5
  -2   5  -2 95.4624  6.7692   1
   2   5   2 94.3644  6.3848   1
   3  -5   2 417.148  14.110   1
   3  -5   2 423.474  12.748   5
  -3  -5  -2 395.845  13.395   1
  -3   5  -2 437.306  14.532   1
   3   5   2 403.147  13.319   1
  -4  -5  -2 193.923   9.010   1
   4  -5   2 195.951   9.572   1
   4  -5   2 193.602   8.732   5
  -4  -5  -2 195.786   9.266   1
  -4  -5  -2 205.064  10.224   4
  -4   5  -2 187.215   9.570   1
   4   5   2 203.303   9.262   1
  -5  -5  -2 -0.2855  1.2316   1
   5  -5   2 2.10629 2.28105   1
   5  -5   2 -0.3136  1.9547   5
  -5  -5  -2 -0.2701  2.0503   4
  -5  -5  -2 5.13419 2.50089   1
   5   5   2 5.12100 2.15392   1
  -5   5  -2 1.90027 3.02309   3
  -5   5  -2 6.23260 2.91674   1
   6  -5   2 527.775  15.867   5
  -6  -5  -2 538.713  19.433   4
   6  -5   2 527.683  16.112   1
  -6  -5  -2 519.656  15.159   1
  -6  -5  -2 531.381  15.215   1
  -6   5  -2 548.470  16.861   1
  -6   5  -2 536.083  16.224   1
  -6   5  -2 518.661  20.133   3
   6   5   2 518.768  14.609   1
   7  -5   2 16.7061  3.4331   1
   7  -5   2 13.4168  3.7275   5
  -7  -5  -2 21.5644  3.2952   1
  -7  -5  -2 21.2807  5.2401   4
  -7   5  -2 32.9898  6.3280   3
   7   5   2 18.1497  2.9874   1
  -7   5  -2 19.9722  3.7020   1
  -8  -5  -2 332.189  16.984   4
   8  -5   2 328.803  12.245   1
  -8  -5  -2 314.202  10.944   1
   8  -5   2 331.807  13.839   5
  -8   5  -2 347.488  17.960   3
  -8   5  -2 331.725  12.620   1
  -9  -5  -2 21.0416  2.8636   1
   9  -5   2 27.9353  4.7992   5
  -9  -5  -2 23.6733  5.9047   4
  -9   5  -2 21.7650  3.6067   1
  -9   5  -2 36.1342  7.2227   3
  10  -5   2 38.9400  5.7417   5
 -10   5  -2 43.7147  4.5650   1
 -10   5  -2 32.1602  7.3863   3
  11  -5   2 16.9390  4.4007   5
 -11   5  -2 20.4960  6.7839   3
  12  -5   2 71.2507  7.7439   5
 -12  -5  -2 47.4193  8.0730   4
 -12   5  -2 53.7698  9.7644   3
 -13   5  -2 18.7832  7.1278   3
 -14   5  -2 36.9733  8.5326   3
  14  -6  -2 -4.5689  4.2513   5
 -14   6   2 -0.5850  5.1610   3
  13  -6  -2 -7.5459  4.8087   5
 -13   6   2 6.21002 5.75501   3
  12  -6  -2 2.69985 4.02057   5
 -12   6   2 0.29329 4.66966   3
 -11  -6   2 23.0994  6.4850   4
 -10  -6   2 8.00261 2.22745   1
 -10  -6   2 -2.7651  4.6132   4
  10   6  -2 -3.7655  5.1573   2
 -10   6   2 10.6864  5.7038   3
   9  -6  -2 222.244  13.595   5
  -9  -6   2 226.098  14.852   4
  -9  -6   2 219.383   9.824   1
  -9   6   2 215.642  15.335   3
  -9   6   2 220.659  11.397   1
   8  -6  -2 3.66578 2.60302   1
  -8  -6   2 2.70932 2.12922   1
  -8  -6   2 -1.7285  3.3713   4
   8  -6  -2 5.98059 1.42243   2
   8  -6  -2 3.54243 2.99290   5
  -8   6   2 9.36502 5.08699   3
   7  -6  -2 2.47571 3.79350   5
  -7  -6   2 -3.5196  3.7769   4
   7  -6  -2 2.05152 2.63249   1
  -7  -6   2 2.97938 2.49373   1
  -7   6   2 -10.078   5.256   3
   7   6  -2 0.06691 1.54761   1
  -7   6   2 -2.1450  2.8092   1
  -6  -6   2 769.144  20.604   1
   6  -6  -2 761.588  21.601   1
  -6  -6   2 756.296  23.439   4
   6  -6  -2 738.932  15.621   4
   6  -6  -2 757.542  22.409   5
  -6   6   2 774.489  25.275   3
   6   6  -2 754.626  19.917   1
  -6   6   2 764.743  21.949   1
  -5  -6   2 435.887  15.240   1
  -5  -6   2 424.332  16.104   4
   5  -6  -2 451.163  16.521   5
   5  -6  -2 427.378  10.320   4
   5  -6  -2 445.521  16.080   1
   5   6  -2 440.860  15.122   1
  -5   6   2 431.039  10.861   2
  -5   6   2 447.445  16.357   1
  -4  -6   2 20.1634  4.1194   1
  -4  -6   2 18.1603  3.9757   4
   4  -6  -2 13.3328  3.2115   1
   4  -6  -2 15.7498  3.8193   5
  -4   6   2 17.6565  4.2511   1
  -4   6   2 13.4936  2.0123   2
   4   6  -2 15.4653  3.6136   1
  -3  -6   2 33.3663  4.4411   1
   3  -6  -2 25.9926  4.2985   1
  -3  -6   2 27.0733  3.9496   4
   3  -6  -2 32.3835  4.8530   5
  -3   6   2 28.0000  4.8860   1
   3   6  -2 33.4677  4.7476   1
   2  -6  -2 806.433  20.318   5
   2  -6  -2 850.662  22.717   1
  -2  -6   2 855.034  22.304   1
  -2  -6   2 797.967  18.527   4
  -2   6   2 896.761  23.335   1
   2   6  -2 851.710  22.057   1
  -1  -6   2 13.4758  2.3265   4
  -1  -6   2 12.5437  3.7141   1
   1  -6  -2 7.05446 3.01032   1
   1  -6  -2 8.68248 3.07304   5
   1   6  -2 13.7869  3.5682   1
  -1   6   2 9.39552 3.44889   1
   0  -6  -2 629.110  18.936   1
   0  -6  -2 612.366  16.659   5
   0  -6   2 603.473  12.210   4
   0  -6   2 595.308  18.334   1
   0   6   2 601.260  18.534   1
   0   6  -2 630.140  18.844   1
  -1  -6  -2 75.3437  6.7314   1
   1  -6   2 80.0102  6.6262   1
   1   6   2 82.0641  6.8322   1
  -1   6  -2 78.5764  6.7981   1
   2  -6   2 357.890  12.512   5
   2  -6   2 360.404  14.248   1
  -2  -6  -2 379.497  14.289   1
  -2   6  -2 348.246   8.921   2
   2   6   2 365.809  14.050   1
  -2   6  -2 336.254  13.833   1
  -3  -6  -2 202.264  10.097   4
   3  -6   2 197.404  10.497   1
   3  -6   2 198.469   9.425   5
  -3  -6  -2 200.105  10.492   1
  -3   6  -2 203.788  10.822   1
  -3   6  -2 189.864   5.207   2
   3   6   2 199.347  10.261   1
   4  -6   2 168.808   8.847   5
   4  -6   2 186.206  10.193   1
  -4  -6  -2 174.404   9.625   1
  -4  -6  -2 170.699   9.821   4
  -4   6  -2 171.986   9.930   1
   4   6   2 178.667   9.556   1
   5  -6   2 96.7542  7.3639   1
  -5  -6  -2 89.7193  8.0542   4
   5  -6   2 89.4569  6.8508   5
  -5  -6  -2 96.5987  7.2459   1
  -5   6  -2 95.3545  8.8374   3
  -5   6  -2 89.2069  7.5114   1
   5   6   2 90.9006  6.6894   1
   6  -6   2 91.2253  6.9888   5
   6  -6   2 106.853   7.922   1
  -6  -6  -2 103.094   9.203   4
  -6  -6  -2 108.028   7.520   1
   6   6   2 105.449   7.142   1
  -6   6  -2 95.0554  7.8123   1
  -6   6  -2 110.280  10.031   3
  -7  -6  -2 154.309   8.696   1
  -7  -6  -2 131.900  10.506   4
   7  -6   2 159.770   9.535   1
   7  -6   2 163.346   9.662   5
  -7   6  -2 163.949   9.977   1
  -7   6  -2 146.826  12.015   3
   7   6   2 146.722   8.281   1
   8  -6   2 265.056  12.171   1
  -8  -6  -2 263.980  11.178   1
   8  -6   2 279.882  13.176   5
  -8  -6  -2 258.598  15.579   4
  -8   6  -2 276.864  12.827   1
  -8   6  -2 252.068  16.073   3
   9  -6   2 6.33906 3.27122   5
  -9  -6  -2 2.13699 1.85098   1
  -9  -6  -2 -4.0666  3.8599   4
  -9   6  -2 -3.9657  2.7191   1
  -9   6  -2 -7.5938  5.1606   3
  10  -6   2 29.6852  5.1863   5
 -10  -6  -2 16.2268  2.6973   1
 -10   6  -2 19.1176  6.7185   3
 -10   6  -2 22.2173  3.8474   1
  11  -6   2 22.8034  4.8814   5
 -11   6  -2 23.7132  3.8147   1
  12  -6   2 15.1827  4.4530   5
 -12  -6  -2 5.40018 4.38166   4
 -12   6  -2 4.25316 5.50396   3
 -13   6  -2 -0.5316  5.2346   3
  13  -7  -2 54.6258  8.4650   5
 -13   7   2 52.9785 10.5198   3
  13   7  -2 58.9355  9.4751   2
  12  -7  -2 2.61615 3.63819   5
  11  -7  -2 117.203  10.731   5
 -11   7   2 137.083  14.461   3
 -11   7   2 127.713   9.316   1
 -10  -7   2 0.13680 4.37128   4
 -10  -7   2 2.90233 2.24236   1
  -9  -7   2 10.4222  3.1279   1
   9  -7  -2 18.3565  5.6742   5
  -9   7   2 13.6297  5.9982   3
  -9   7   2 7.94927 3.41426   1
   8  -7  -2 43.1129  6.2228   5
  -8  -7   2 44.8742  5.4179   1
   8  -7  -2 29.1522  4.9738   1
  -8  -7   2 42.8141  6.8863   4
  -8   7   2 34.3850  6.6097   3
  -8   7   2 36.8632  5.7896   1
   7  -7  -2 18.4305  4.2259   1
   7  -7  -2 11.7762  4.3553   5
  -7  -7   2 13.7575  4.5811   4
  -7  -7   2 10.4485  3.4844   1
  -7   7   2 15.3786  4.3011   1
  -7   7   2 18.9641  5.3066   3
   7   7  -2 11.7260  3.2694   1
   6  -7  -2 9.52831 3.10033   1
   6  -7  -2 5.70296 3.08440   5
  -6  -7   2 4.62715 3.61024   4
  -6   7   2 5.86095 3.46532   3
  -6   7   2 8.39323 3.78868   1
   6   7  -2 9.90693 3.30793   1
   5  -7  -2 72.4996  7.3323   5
  -5  -7   2 79.6106  7.4767   4
  -5  -7   2 66.7967  6.8546   1
   5  -7  -2 68.6940  3.6343   4
   5  -7  -2 72.4128  7.2033   1
  -5   7   2 73.5513  7.2501   1
   5   7  -2 76.6272  6.9261   1
  -4  -7   2 15.4675  4.1813   1
   4  -7  -2 33.5158  5.3711   1
   4  -7  -2 17.7580  3.9771   5
  -4  -7   2 24.6486  3.9814   4
  -4   7   2 26.3858  4.8085   1
   4   7  -2 22.8650  4.5148   1
   3  -7  -2 134.483   8.657   5
  -3  -7   2 138.543   9.260   1
   3  -7  -2 144.429   9.880   1
  -3  -7   2 140.148   8.142   4
   3   7  -2 138.341   9.338   1
  -3   7   2 129.183   9.299   1
  -2  -7   2 176.188  10.735   1
   2  -7  -2 156.183  10.343   1
  -2  -7   2 168.420   8.268   4
   2  -7  -2 171.274   9.811   5
   2   7  -2 167.681  10.315   1
  -2   7   2 176.426  11.031   1
   1  -7  -2 697.002  19.597   5
   1  -7  -2 698.770  21.818   1
  -1  -7   2 715.329  21.943   1
  -1  -7   2 696.715  16.013   4
  -1   7   2 717.842  22.245   1
   1   7  -2 683.764  21.209   1
   0  -7  -2 18.0257  4.0013   5
   0  -7   2 14.4191  2.0299   4
   0  -7  -2 8.60722 3.19452   1
   0  -7   2 9.88055 4.01965   1
   0   7   2 10.4450  4.0193   1
   0   7  -2 7.04868 3.68748   1
   1  -7   2 52.5557  6.3632   1
  -1  -7  -2 47.1155  6.1514   1
   1   7   2 62.4442  6.7312   1
  -1   7  -2 60.5455  6.6920   1
  -2  -7  -2 42.4117  4.9831   4
   2  -7   2 54.4288  5.7075   5
  -2  -7  -2 40.2093  5.7549   1
   2  -7   2 48.2136  6.1551   1
  -2   7  -2 44.3550  5.9556   1
  -2   7  -2 42.5361  3.3521   2
   2   7   2 39.0632  5.1797   1
   3  -7   2 1.91109 2.96731   5
  -3  -7  -2 5.94589 3.61371   1
  -3  -7  -2 -2.2321  2.8694   4
   3  -7   2 3.42102 2.57637   1
  -3   7  -2 3.61376 1.07619   2
   4  -7   2 24.2648  4.9176   1
  -4  -7  -2 35.9034  5.5175   4
   4  -7   2 34.6006  4.6092   5
  -4  -7  -2 31.8710  5.4559   1
  -4   7  -2 37.2557  9.7816   1
   4   7   2 28.7151 20.3552   1
   5  -7   2 239.308  12.677   1
  -5  -7  -2 208.446  11.478   1
   5  -7   2 216.728  11.160   5
  -5  -7  -2 231.739  12.962   4
  -5   7  -2 222.672  12.355   1
   5   7   2 211.451  11.185   1
  -6  -7  -2 72.7133  8.0970   4
   6  -7   2 87.5479  7.5540   5
   6  -7   2 80.6127  7.6282   1
  -6  -7  -2 82.2862  7.3514   1
  -6   7  -2 77.1616  7.7673   1
   6   7   2 72.7468  6.7010   1
  -6   7  -2 92.1686  9.2625   3
  -7  -7  -2 0.90695 3.66520   4
   7  -7   2 6.86328 3.61062   5
  -7  -7  -2 4.80756 2.89221   1
  -7   7  -2 8.51970 5.01229   3
  -7   7  -2 6.67171 3.31415   1
  -8  -7  -2 0.36116 2.80062   1
   8  -7   2 0.56749 2.85982   1
  -8   7  -2 7.76703 5.52555   3
  -8   7  -2 2.25823 3.32354   1
  -9  -7  -2 160.159   9.314   1
   9  -7   2 161.008  10.909   5
  -9   7  -2 156.733  14.135   3
  -9   7  -2 153.448  10.227   1
  10  -7   2 3.41210 2.93730   5
 -10  -7  -2 5.81010 2.49640   1
 -10   7  -2 12.6752  3.7646   1
 -10   7  -2 12.6778  6.1446   3
 -11  -7  -2 24.8184  6.4534   4
  11  -7   2 24.4676  5.0606   5
 -11   7  -2 43.8534  9.2842   3
 -11   7  -2 26.3267  4.5940   1
  12  -7   2 2.81996 3.35944   5
 -12   7  -2 -4.6211  5.8762   3
 -13   7  -2 53.6547 11.0490   3
  12  -8  -2 19.7511  5.9260   5
 -12   8   2 0.80022 5.07106   3
  11  -8  -2 56.9564  8.2947   5
 -11   8   2 62.0716  7.3886   1
 -11   8   2 57.1327  9.8138   3
 -10  -8   2 -4.5374  3.7840   4
 -10  -8   2 5.39187 2.77320   1
  10  -8  -2 -3.8860  4.1642   5
 -10   8   2 1.73054 2.87139   1
 -10   8   2 1.43850 5.31856   3
  -9  -8   2 85.9233  7.5757   1
  -9  -8   2 99.2668 10.7095   4
   9  -8  -2 102.341   9.945   5
  -9   8   2 82.5520 11.1829   3
  -9   8   2 98.3599  9.0562   1
  -8  -8   2 18.6675  4.3052   1
   8  -8  -2 25.5884  6.1161   5
  -8  -8   2 18.6305  5.8488   4
  -8   8   2 18.9534  6.4216   3
  -8   8   2 17.0959  4.9321   1
  -7  -8   2 6.19136 3.32485   1
   7  -8  -2 7.97392 4.61286   5
  -7  -8   2 -3.6966  3.5130   4
   7  -8  -2 -0.6971  2.8591   1
  -7   8   2 3.85005 3.54791   3
   7   8  -2 -2.2024  2.8583   1
  -7   8   2 -1.2100  3.4207   1
  -6  -8   2 17.8826  4.3994   1
  -6  -8   2 20.3958  4.7887   4
   6  -8  -2 18.0943  4.6111   1
  -6   8   2 24.5184  5.4675   1
   6   8  -2 11.7371  3.8837   1
  -5  -8   2 66.5526  6.8426   4
   5  -8  -2 55.9548  6.7556   1
  -5  -8   2 75.8338  7.7282   1
   5  -8  -2 61.2598  6.7722   5
  -5   8   2 72.6193  8.0745   1
   5   8  -2 64.7376  7.0541   1
  -4  -8   2 57.7573  6.3315   4
   4  -8  -2 55.6074  6.7761   5
   4  -8  -2 53.8028  6.8462   1
  -4  -8   2 49.9641  6.8370   1
   4   8  -2 56.6571  6.8994   1
  -4   8   2 58.1618  7.4386   1
   3  -8  -2 44.2478  6.2407   5
   3  -8  -2 42.9945  6.3611   1
  -3  -8   2 35.6324  4.6917   4
  -3  -8   2 47.0741  6.5630   1
   3   8  -2 36.2559  5.8569   1
  -3   8   2 36.2856  6.3023   1
  -2  -8   2 116.005   7.200   4
   2  -8  -2 106.538   9.146   1
   2  -8  -2 124.834   9.118   5
  -2  -8   2 130.180  10.007   1
   2   8  -2 120.171   9.622   1
  -2   8   2 131.483  10.352   1
   1  -8  -2 30.3384  5.7365   1
  -1  -8   2 28.6058  3.3582   4
   1  -8  -2 30.0150  4.6430   5
  -1  -8   2 23.4523  4.7155   1
   1   8  -2 40.3207  6.1510   1
  -1   8   2 33.2498  5.4225   1
   0  -8   2 52.5591  6.9406   1
   0  -8  -2 50.1773  6.7832   1
   0   8  -2 54.1837  6.5237   1
   0   8   2 51.5753  6.4507   1
  -1  -8  -2 196.070  12.057   1
   1  -8   2 185.255  12.062   1
  -1  -8  -2 187.830   9.378   4
  -1   8  -2 179.658  11.551   1
   1   8   2 182.523  11.701   1
   2  -8   2 60.4744  7.0239   1
  -2  -8  -2 61.1252  6.0567   4
  -2  -8  -2 74.7897  8.1333   1
   2   8   2 67.1712  7.6381   1
  -2   8  -2 55.9936  7.3204   1
  -3  -8  -2 1761.56   39.26   1
  -3  -8  -2 1761.92   36.41   4
   3  -8   2 1759.27   39.69   1
   3  -8   2 1699.54   35.56   5
   3   8   2 1815.46   39.17   1
  -3   8  -2 1801.38   40.43   1
  -4  -8  -2 58.9760  6.9310   4
  -4  -8  -2 62.9196  7.2748   1
   4  -8   2 53.3508  6.0662   5
   4  -8   2 57.1549  6.7977   1
  -4   8  -2 57.6959  7.5059   1
   4   8   2 53.7382  6.6406   1
   5  -8   2 1.70860 2.41748   1
  -5  -8  -2 1.69018 3.42548   1
   5  -8   2 -4.8792  3.6423   5
  -5  -8  -2 3.51091 3.66666   4
   5   8   2 -0.3386  2.8699   1
   6  -8   2 100.025   8.927   1
   6  -8   2 100.452   8.442   5
  -6  -8  -2 102.459   9.513   4
  -6  -8  -2 98.7478  8.4250   1
  -6   8  -2 108.113   9.694   1
   6   8   2 93.6595  8.1574   1
  -6   8  -2 123.508  11.443   3
  -7  -8  -2 91.9221  8.1416   1
  -7  -8  -2 87.5598  9.6173   4
   7  -8   2 102.740   8.748   5
   7  -8   2 89.7884  8.5181   1
  -7   8  -2 96.7667 11.0833   3
  -7   8  -2 99.6502  9.3772   1
  -8  -8  -2 41.4210  7.5481   4
  -8  -8  -2 30.8463  5.2368   1
   8  -8   2 33.9420  5.8904   5
  -8   8  -2 49.6597  6.9319   1
  -8   8  -2 33.5198  7.4003   3
   9  -8   2 20.4361  4.4539   5
  -9  -8  -2 19.5681  4.0581   1
  -9   8  -2 19.8889  4.8651   1
  -9   8  -2 19.0717  6.9065   3
  10  -8   2 46.3251  6.9136   5
 -10  -8  -2 48.4958  5.5948   1
 -10   8  -2 54.6315  9.2996   3
 -10   8  -2 48.5142  6.5599   1
  11  -8   2 59.3163  7.7259   5
 -11   8  -2 74.8062  7.7053   1
 -11   8  -2 68.3660 11.0350   3
  12  -8   2 22.0839  5.4007   5
 -12   9   2 3.05811 5.43393   3
  11  -9  -2 7.85839 4.04054   5
  10  -9  -2 -6.4054  4.8575   5
 -10  -9   2 0.57183 2.64347   1
 -10  -9   2 8.93817 5.30668   4
 -10   9   2 8.45046 6.18409   3
 -10   9   2 7.95785 3.94742   1
   9  -9  -2 28.1946  6.4273   5
  -9  -9   2 9.23552 5.10862   4
  -9  -9   2 17.8307  4.6034   1
  -9   9   2 28.4419  7.6959   3
  -9   9   2 17.0886  4.9657   1
   8  -9  -2 2.93959 4.51236   5
  -8  -9   2 1.65024 3.97924   4
  -8   9   2 5.06760 4.05835   1
  -8   9   2 3.90728 4.84862   3
   7  -9  -2 94.6923  9.1435   5
  -7  -9   2 91.5087  9.4951   4
  -7  -9   2 109.635   9.333   1
   7  -9  -2 80.1889  8.8175   1
  -7   9   2 84.4538  9.2367   1
  -7   9   2 93.1316 10.9294   3
   6  -9  -2 90.4140  8.6840   5
  -6  -9   2 125.052  10.269   1
   6  -9  -2 106.586  10.042   1
  -6  -9   2 111.201   9.741   4
  -6   9   2 102.731  10.073   1
   6   9  -2 106.630   9.345   1
  -5  -9   2 10.0489  3.8285   4
  -5  -9   2 2.77233 3.77914   1
   5  -9  -2 3.57649 3.88035   1
   5   9  -2 -3.2131  2.6870   1
  -5   9   2 3.21521 3.95594   1
  -4  -9   2 339.881  14.929   4
   4  -9  -2 353.859  17.870   1
   4  -9  -2 331.026  15.921   5
  -4  -9   2 383.066  17.957   1
   4   9  -2 309.202  15.997   1
  -4   9   2 348.541  17.777   1
  -3  -9   2 62.4369  8.1419   1
   3  -9  -2 74.0681  8.8266   1
   3  -9  -2 69.9613  7.8439   5
  -3  -9   2 73.2356  6.4811   4
   3   9  -2 53.6684  6.9995   1
  -3   9   2 73.4607  8.6227   1
   2  -9  -2 244.974  14.784   1
  -2  -9   2 228.983  13.734   1
   2  -9  -2 239.911   8.458   4
   2  -9  -2 243.510  13.046   5
  -2  -9   2 242.801  10.588   4
  -2   9   2 241.100  14.550   1
   2   9  -2 229.058  13.901   1
   1  -9  -2 32.7138  3.5980   4
  -1  -9   2 36.9825  6.4441   1
  -1  -9   2 31.0115  3.5671   4
   1  -9  -2 32.9838  6.4004   1
   1  -9  -2 32.5298  5.4705   5
  -1   9   2 37.8486  6.5288   1
   1   9  -2 42.9287  6.6763   1
   0  -9  -2 111.434   6.880   4
   0  -9   2 113.799  10.150   1
   0  -9  -2 116.714  10.338   1
   0   9   2 110.501   9.993   1
   0   9  -2 100.965   9.662   1
  -1  -9  -2 -1.9342  3.5742   1
   1  -9   2 -4.4393  3.8120   1
  -1   9  -2 -1.7579  3.5598   1
   1   9   2 -0.5354  3.3619   1
   2  -9   2 49.4366  7.1590   1
  -2  -9  -2 44.0980  6.5515   1
  -2  -9  -2 48.7003  5.6255   4
  -2   9  -2 31.0860  6.2183   1
   2   9   2 46.8725  6.7219   1
  -3  -9  -2 83.6719  9.1377   1
   3  -9   2 89.4026  8.9286   1
  -3  -9  -2 106.629   8.520   4
  -3   9  -2 97.7333  9.6509   1
   3   9   2 97.6852  9.1804   1
   4  -9   2 23.0490  5.3871   1
  -4  -9  -2 14.1145  4.2035   4
  -4  -9  -2 21.7006  5.4056   1
   4  -9   2 13.8106  4.4945   5
   4   9   2 9.92938 4.28542   1
  -4   9  -2 8.14364 4.50784   1
  -5  -9  -2 27.7505  5.8204   1
   5  -9   2 27.7063  5.3380   5
  -5  -9  -2 31.6148  5.4878   4
   5  -9   2 33.4245  6.1875   1
   5   9   2 29.0685  5.3281   1
  -5   9  -2 28.4635  6.2441   1
  -6  -9  -2 42.0481  6.2914   1
   6  -9   2 33.0160  6.1590   1
   6  -9   2 39.5935  5.9288   5
   6   9   2 49.3438  6.5803   1
  -6   9  -2 39.3694  7.0565   3
  -6   9  -2 45.0447  7.3271   1
   7  -9   2 5.40818 3.77869   5
  -7  -9  -2 -0.8174  3.9069   4
  -7  -9  -2 -1.8644  3.4872   1
   7  -9   2 1.15284 3.18903   1
  -7   9  -2 6.31677 4.09151   1
  -7   9  -2 8.33629 5.53450   3
  -8   9  -2 7.65377 4.31766   1
   9  -9   2 29.3617  6.0794   5
  -9   9  -2 26.7539  5.7261   1
  -9   9  -2 30.3570  8.2577   3
  10  -9   2 -0.3905  3.5188   5
 -10  -9  -2 7.35760 3.12218   1
 -10   9  -2 -2.4003  3.4262   1
 -10   9  -2 1.77479 4.73771   3
 -11  -9  -2 20.4584  6.2403   4
 -11   9  -2 20.9688  5.2792   1
 -11   9  -2 24.6851  7.6868   3
  12  -9   2 8.32619 4.65198   5
  11 -10  -2 27.5054  6.9533   5
 -11  10   2 21.7197  8.0049   3
 -11  10   2 16.4846  5.4114   1
 -10 -10   2 35.9624  6.0745   1
  10 -10  -2 27.9046  7.1491   5
 -10  10   2 28.8975  7.7656   3
 -10  10   2 23.1464  5.9479   1
  -9 -10   2 13.2998  5.6464   4
   9 -10  -2 -2.5087  3.6378   5
  -9  10   2 6.64697 4.44867   1
  -9  10   2 3.06471 5.04026   3
  -8 -10   2 58.4968  8.1153   4
  -8 -10   2 57.9911  7.4779   1
   8 -10  -2 55.4795  8.1961   5
  -8  10   2 65.7079  8.8895   1
  -8  10   2 61.4280  9.9878   3
   7 -10  -2 -1.6510  3.6673   1
   7 -10  -2 1.62398 4.33704   5
  -7 -10   2 9.41238 4.39651   4
  -7 -10   2 1.58964 2.95903   1
  -7  10   2 4.21720 3.45855   1
  -7  10   2 9.85710 5.71137   3
   6 -10  -2 102.429  10.144   5
   6 -10  -2 89.9347  9.9123   1
  -6 -10   2 96.6076 10.0120   1
  -6 -10   2 96.4911  9.3116   4
   6  10  -2 98.0827  9.6319   1
  -6  10   2 105.903  10.975   1
  -5 -10   2 10.4688  3.7090   4
   5 -10  -2 23.8624  5.8110   5
  -5 -10   2 19.4215  5.2924   1
   5 -10  -2 17.5464  5.5043   1
  -5  10   2 11.9613  4.9684   1
   5  10  -2 26.9627  5.7925   1
  -4 -10   2 76.2396  8.7967   1
  -4 -10   2 57.3735  6.3752   4
   4 -10  -2 63.9266  8.5232   1
   4 -10  -2 72.4823  7.9191   5
   4  10  -2 70.6163  8.5965   1
  -4  10   2 55.7288  7.8926   1
  -3 -10   2 37.8767  7.0194   1
   3 -10  -2 22.5951  5.9563   1
   3 -10  -2 24.4924  5.6597   5
  -3 -10   2 29.7490  4.5552   4
   3  10  -2 32.6323  6.3881   1
  -3  10   2 36.6234  7.0693   1
   2 -10  -2 42.1499  6.6785   5
   2 -10  -2 65.3960  8.3038   1
  -2 -10   2 41.5914  7.2204   1
  -2 -10   2 45.5802  4.8683   4
   2  10  -2 50.3860  7.4034   1
  -2  10   2 54.4397  8.0267   1
   1 -10  -2 26.4836  6.3415   1
  -1 -10   2 32.2253  6.5197   1
   1 -10  -2 25.6165  3.3296   4
  -1  10   2 39.5151  6.5083   1
   1  10  -2 21.4284  5.7455   1
   0 -10   2 4.03025 3.02978   1
   0 -10  -2 18.2046  5.6338   1
   0  10  -2 5.93838 4.47411   1
   0  10   2 10.9253  4.0257   1
  -1 -10  -2 0.87905 2.90848   1
  -1 -10  -2 2.86786 2.13450   4
   1 -10   2 3.14017 3.08443   1
   1  10   2 -7.5274  4.3002   1
  -1  10  -2 7.84522 4.69845   1
   2 -10   2 102.691  10.359   1
  -2 -10  -2 109.302  10.744   1
  -2 -10  -2 116.243   8.581   4
  -2  10  -2 114.223  11.005   1
   2  10   2 112.205  10.773   1
   3 -10   2 -2.7443  4.2207   1
  -3 -10  -2 0.92363 2.83188   1
  -3 -10  -2 -2.1440  3.1176   4
   3  10   2 -2.3464  3.8245   1
  -3  10  -2 4.03755 4.36124   1
   4 -10   2 14.0222  4.4951   1
  -4 -10  -2 11.5978  5.0182   1
  -4 -10  -2 12.8436  4.3913   4
  -4  10  -2 15.4002  5.3619   1
   4  10   2 5.14497 3.40283   1
  -5 -10  -2 18.2894  4.9924   4
   5 -10   2 11.1706  4.7663   1
   5 -10   2 16.5196  4.3567   5
  -5 -10  -2 20.9941  5.5837   1
  -5  10  -2 9.46245 4.40793   1
   5  10   2 17.1395  4.8376   1
   6 -10   2 12.8211  4.8791   1
  -6 -10  -2 14.2912  4.7795   1
   6  10   2 8.82605 4.00279   1
  -7 -10  -2 -5.5029  4.3455   4
   7 -10   2 -2.0207  3.3299   1
  -7 -10  -2 -8.1084  4.1580   1
   7 -10   2 -8.0911  4.3682   5
  -7  10  -2 -1.2089  4.1499   3
  -7  10  -2 -3.0893  4.2007   1
   8 -10   2 64.5561  7.7843   5
  -8 -10  -2 60.0646  7.8262   1
  -8  10  -2 45.6407  7.7386   1
  -8  10  -2 65.9817 10.7450   3
  -9 -10  -2 -5.1062  3.6058   1
  -9  10  -2 -4.0580  4.0763   1
  -9  10  -2 -3.4041  4.7900   3
  10 -10   2 29.3212  6.1696   5
 -10 -10  -2 26.6737  5.4581   1
 -10  10  -2 30.6908  8.5238   3
 -10  10  -2 23.9224  5.6263   1
  11 -10   2 40.7668  7.1924   5
 -10 -11   2 3.42193 3.62739   1
 -10  11   2 20.5413  6.3653   1
  -9 -11   2 4.63775 3.61432   1
   9 -11  -2 -3.6339  4.7269   5
  -9  11   2 3.07832 5.50760   3
   8 -11  -2 17.0739  5.9151   5
  -8 -11   2 10.4855  4.5646   1
  -8 -11   2 7.25923 4.37046   4
  -8  11   2 3.12479 4.60268   1
  -7 -11   2 5.83030 4.20502   4
  -7 -11   2 4.81647 4.07232   1
   7 -11  -2 18.6635  5.5481   1
   7 -11  -2 13.7402  5.3468   5
  -7  11   2 4.52044 3.72147   1
  -7  11   2 10.7788  5.5825   3
  -6 -11   2 -1.0418  2.9547   4
  -6 -11   2 -0.3904  3.3521   1
   6 -11  -2 1.00936 3.86312   1
   6 -11  -2 -3.9338  4.7637   5
  -6  11   2 -7.3666  4.1391   1
   5 -11  -2 5.75260 4.96443   5
  -5 -11   2 8.14788 4.97627   1
   5 -11  -2 8.82229 4.67551   1
  -5 -11   2 7.81273 3.65872   4
  -5  11   2 15.0084  5.6190   1
   5  11  -2 7.84953 3.72650   1
  -4 -11   2 73.2267  7.4607   4
   4 -11  -2 67.9133  8.5050   5
  -4 -11   2 82.5950 10.0659   1
   4 -11  -2 75.5389  9.7121   1
  -4  11   2 72.6732  9.8081   1
   4  11  -2 57.7338  7.9960   1
   3 -11  -2 4.35473 4.25536   5
  -3 -11   2 -0.2768  2.0309   4
   3 -11  -2 4.11135 4.57111   1
  -3 -11   2 5.36118 3.70770   1
  -3  11   2 2.10524 3.40642   1
   3  11  -2 -1.3869  4.0087   1
  -2 -11   2 13.1776  5.2840   1
   2 -11  -2 26.3086  6.5301   1
  -2  11   2 19.3724  6.3386   1
   2  11  -2 5.16083 4.47529   1
  -1 -11   2 11.0780  4.3125   1
   1 -11  -2 22.7616  6.1744   1
  -1  11   2 12.0637  5.4503   1
   1  11  -2 10.3591  5.1420   1
   0 -11  -2 2.90248 3.95127   1
   0 -11   2 4.82739 4.50598   1
   0  11   2 -3.5513  4.3743   1
   0  11  -2 -5.9696  3.7101   1
  -1 -11  -2 -0.2816  2.1413   4
  -1 -11  -2 -7.6989  5.1347   1
   1 -11   2 2.29089 4.35505   1
  -1  11  -2 1.39929 3.19688   1
   1  11   2 4.62497 4.74888   1
  -2 -11  -2 67.2148  6.8365   4
  -2 -11  -2 94.8997 10.7876   1
   2 -11   2 84.0479  9.7866   1
   2  11   2 84.1097  9.5954   1
  -2  11  -2 84.1668 10.1733   1
  -3 -11  -2 148.409  10.698   4
  -3 -11  -2 145.055  13.020   1
   3 -11   2 148.268  13.073   1
  -3  11  -2 153.240  13.496   1
   3  11   2 145.082  12.708   1
  -4 -11  -2 16.7077  5.4419   1
  -4 -11  -2 23.8308  5.1493   4
   4 -11   2 24.5422  6.3018   1
  -4  11  -2 22.4026  5.8231   1
   4  11   2 17.5909  5.5479   1
  -5 -11  -2 192.744  14.387   1
   5 -11   2 179.322  14.351   1
  -5 -11  -2 171.956  12.657   4
   5  11   2 202.423  14.392   1
  -5  11  -2 207.010  15.761   1
  -6 -11  -2 4.49452 4.15424   1
  -6  11  -2 7.98850 5.36728   1
  -7 -11  -2 2.82569 4.39634   4
   7 -11   2 6.41489 4.59221   5
  -7  11  -2 -2.5503  4.4415   1
  -7  11  -2 2.88607 5.28882   3
   8 -11   2 4.16999 4.04778   5
  -8 -11  -2 -2.1906  4.2141   1
  -8  11  -2 -1.0999  3.8528   1
  -8  11  -2 -4.9619  5.1740   3
  -9 -11  -2 -0.7443  3.5293   1
   9 -11   2 -4.7596  4.7891   5
  -9  11  -2 12.0761  5.5265   1
  -8 -12   2 6.03958 4.70828   1
   8 -12  -2 2.48187 4.61857   5
  -8  12   2 -1.5010  5.2513   3
   7 -12  -2 14.3533  6.3132   5
  -7 -12   2 7.88835 4.96008   1
   6 -12  -2 72.2238  9.6239   5
  -6 -12   2 68.0431  9.5783   1
  -5 -12   2 19.5587  6.5092   1
   5  12  -2 12.7690  5.4583   1
  -4 -12   2 3.53528 4.76337   1
   4 -12  -2 -1.5973  4.4878   5
   4  12  -2 8.24580 4.95743   1
  -3 -12   2 25.9857  7.0694   1
   3  12  -2 25.8335  6.0825   1
  -2 -12   2 2.94583 4.70235   1
  -2  12   2 -7.2739  4.3106   1
   2  12  -2 3.87148 4.45028   1
   1  12  -2 5.43514 4.04372   1
   0 -12   2 -13.183   5.647   1
   0  12  -2 -3.6810  4.0917   1
   1 -12   2 57.3753  9.2073   1
  -1  12  -2 53.2227  8.7439   1
   1  12   2 55.9380  8.5863   1
   2 -12   2 26.9902  6.9419   1
  -2  12  -2 19.2378  5.7141   1
   3 -12   2 34.0609  6.9016   1
  -3  12  -2 31.3758  7.6027   1
   3  12   2 40.0849  7.1283   1
   4 -12   2 5.27000 4.94009   1
  -4 -12  -2 -1.1295  2.8638   4
  -4  12  -2 0.05902 4.36542   1
  -5 -12  -2 16.6076  5.3144   4
  -5  12  -2 13.4975  6.0169   1
  -6 -12  -2 59.2446  8.5245   4
   6 -12   2 54.1363  8.5387   1
  -6  12  -2 37.1652  8.3633   1
  -7 -12  -2 22.0772  5.9713   4
  -7  12  -2 14.7610  6.0619   1
  -8  12  -2 8.34176 5.57009   1
   6 -13  -2 8.63097 5.85441   5
  -4  13   2 46.8754  8.5709   1
   2 -13  -2 6.58965 4.38950   1
   1 -13  -2 21.5446  6.1957   1
   1  13  -2 23.7186  6.3239   1
   0 -13  -2 15.5305  5.4396   1
  -3 -13  -2 34.0152  7.4288   1
   3 -13   2 34.6034  7.3860   1
   4  13   2 7.40985 4.31302   1
   5 -13   2 38.1973  7.6513   1
  -6  13  -2 58.8426  9.4668   1
  -2 -14   2 80.9175 11.2040   1
   1  14  -2 5.03391 4.39391   1
 -15   0   3 18.3837  7.2044   3
  15   0  -3 7.18002 3.95215   5
  14   0  -3 1.37335 2.95749   2
 -14   0   3 8.74779 6.11143   3
 -13   0   3 48.8986  8.7409   3
  13   0  -3 46.8327  7.3422   5
  12   0  -3 7.06880 4.38148   5
  12   0  -3 -1.4096  3.0282   2
  11   0  -3 40.3726  5.8705   2
 -11   0   3 50.7435  8.0851   3
  11   0  -3 36.4673  6.4334   5
  10   0  -3 1.26689 2.58119   5
 -10   0   3 -1.6637  3.8720   3
  -9   0   3 4.29010 4.07718   3
   9   0  -3 3.74527 2.73286   2
  -8   0   3 -3.6655  3.1178   3
   8   0  -3 -5.9416  3.2265   2
   8   0  -3 -2.2223  3.3554   5
   7   0  -3 452.274  16.487   5
   7   0  -3 465.412  14.843   2
  -7   0   3 497.115  17.515   3
   6   0  -3 1.86251 0.73797   1
   6   0  -3 1.01007 0.76504   1
  -6   0   3 0.99732 0.75376   1
  -6   0   3 -4.0454  2.2890   3
   5   0  -3 385.759   8.246   1
   5   0  -3 382.027  11.888   2
  -5   0   3 389.723  12.837   3
  -5   0   3 383.708   8.364   1
   5   0  -3 398.028   8.347   1
   4   0  -3 0.36288 0.66412   1
  -4   0   3 0.30483 1.53268   3
   4   0  -3 -0.2804  1.1054   3
  -4   0   3 -0.4924  0.7016   1
   4   0  -3 -0.9822  0.7992   1
  -4   0   3 -3.4995  1.5222   2
   4   0  -3 0.18074 1.54869   2
  -4   0   3 -0.1970  0.7752   1
  -3   0   3 2774.44   34.67   1
   3   0  -3 2752.49   37.85   3
   3   0  -3 2763.36   34.41   1
   3   0  -3 2800.55   37.74   2
  -3   0   3 2784.59   38.21   3
  -3   0   3 2726.40   34.39   1
   2   0  -3 4.84199 1.36322   1
   2   0  -3 14.0607  3.8826   2
   0   0  -3 -4.7591  1.6904   2
   0   0   3 -3.7282  1.3551   1
   0   0   3 -2.2750  0.7984   2
   0   0  -3 -2.1938  0.8472   1
   0   0  -3 -3.9766  1.0231   1
   0   0   3 -2.6606  0.3114   3
  -1   0  -3 4437.51   57.17   1
   1   0   3 4656.59   53.70   3
  -1   0  -3 4602.85   56.71   1
   1   0   3 4502.36   56.89   2
   1   0   3 4411.13   53.46   1
   1   0   3 4531.26   53.77   1
  -2   0  -3 4.49253 1.47578   3
   2   0   3 1.95022 0.79403   1
  -2   0  -3 1.09754 0.99370   1
   2   0   3 3.38825 1.25429   3
  -2   0  -3 6.02242 1.34110   1
   3   0   3 2859.93   41.67   3
  -3   0  -3 2940.27   35.95   1
  -3   0  -3 2912.19   35.80   1
   3   0   3 2976.59   35.69   1
   3   0   3 2897.09   35.72   1
   3   0   3 2994.81   35.64   5
  -3   0  -3 2898.97   41.95   3
   3   0   3 2884.06   39.55   2
   4   0   3 -0.0839  0.7379   1
  -4   0  -3 0.35746 1.42237   3
  -4   0  -3 1.01697 0.84738   1
  -4   0  -3 -1.8810  0.7977   1
   4   0   3 -2.7400  0.9027   5
   5   0   3 192.417   5.086   1
   5   0   3 189.650   5.197   1
  -5   0  -3 187.340   8.497   4
  -5   0  -3 189.757   9.621   3
   5   0   3 189.295   6.598   5
  -5   0  -3 188.196   5.251   1
   6   0   3 0.03399 0.48930   1
   6   0   3 -1.4009  0.6247   1
  -6   0  -3 0.63519 0.70718   1
  -6   0  -3 -5.5098  2.9029   3
   6   0   3 -0.2137  1.3088   5
  -6   0  -3 1.14677 2.41942   4
  -7   0  -3 17.3971  3.9800   4
   7   0   3 12.9374  2.6096   5
  -7   0  -3 7.71367 3.68623   3
   8   0   3 -0.8998  1.9448   5
  -8   0  -3 3.75439 2.97336   3
  -8   0  -3 0.45561 2.93909   4
   9   0   3 36.0383  4.3575   5
  -9   0  -3 43.9813  6.5235   3
  -9   0  -3 44.0303  6.1893   4
  10   0   3 5.82403 2.58841   5
 -10   0  -3 -7.3606  3.9347   4
 -10   0  -3 -6.9346  3.7673   3
 -11   0  -3 18.8979  4.8500   4
 -11   0  -3 28.8429  6.4127   3
  11   0   3 18.8005  3.9125   5
  11   0   3 18.2672  3.9494   2
  12   0   3 5.21551 2.81768   5
  12   0   3 -3.4353  2.6644   2
 -12   0  -3 -1.2764  3.9048   3
 -13   0  -3 179.525  15.325   3
 -14   0  -3 -2.8604  4.2415   3
 -15   0  -3 8.15003 4.91134   3
  15  -1  -3 -0.8837  4.2626   5
 -15   1   3 1.96677 5.32005   3
  15   1  -3 20.5267  6.3228   5
  14  -1  -3 14.5890  5.4470   5
  14   1  -3 2.01651 4.10655   5
 -14   1   3 2.10200 5.24669   3
  14   1  -3 -3.2980  3.5745   2
  13  -1  -3 36.8086  6.4804   5
  13  -1  -3 39.7006  5.7673   2
  13   1  -3 42.6138  7.4363   5
 -13   1   3 27.4632  6.6381   3
 -12  -1   3 13.8015  5.6175   3
  12   1  -3 13.9732  4.1122   2
 -12   1   3 13.2923  5.8337   3
  11  -1  -3 4.18998 3.96497   5
  11  -1  -3 -2.1438  2.6305   2
 -11  -1   3 -0.8128  3.8291   3
 -11   1   3 5.40787 4.75359   3
  11   1  -3 -2.6428  2.9134   2
  11   1  -3 -0.9539  3.1718   5
  10  -1  -3 54.5624  7.1053   5
  10  -1  -3 60.6271  6.0133   2
 -10  -1   3 62.0773  8.1178   3
 -10   1   3 70.7784  8.4719   3
  10   1  -3 61.5046  7.6755   5
  10   1  -3 54.7370  6.5327   2
  -9  -1   3 10.7044  3.8425   3
   9  -1  -3 12.3003  3.3745   2
   9   1  -3 15.1435  3.7480   2
  -9   1   3 8.28144 4.51411   3
   8  -1  -3 239.230  10.665   2
   8  -1  -3 236.078  12.315   5
  -8  -1   3 224.564  12.654   3
  -8   1   3 220.663  12.548   3
   8   1  -3 245.414  12.011   2
   7  -1  -3 66.2608  5.4546   2
   7  -1  -3 53.6194  5.9868   5
  -7  -1   3 57.9227  5.9036   3
   7  -1  -3 51.5863  2.8744   1
  -7   1   3 45.4380  2.8197   1
  -7   1   3 52.4051  6.1402   3
   7   1  -3 56.5684  5.9158   2
   6  -1  -3 5.95124 1.95689   2
   6  -1  -3 6.18448 2.94970   5
  -6  -1   3 7.71517 2.75501   3
   6  -1  -3 6.42754 1.35264   1
  -6   1   3 6.93696 1.39493   1
   6   1  -3 3.20268 2.54426   2
   6   1  -3 5.73259 1.08083   1
   6   1  -3 4.63155 0.98712   1
  -6   1   3 6.82048 3.06219   3
  -5  -1   3 151.755   5.069   1
   5  -1  -3 143.240   8.089   5
   5  -1  -3 154.458   6.856   2
  -5  -1   3 153.642   7.744   3
   5  -1  -3 153.992   5.364   1
  -5   1   3 148.886   5.343   1
  -5   1   3 148.914   5.370   1
   5   1  -3 159.131   5.014   1
   5   1  -3 155.010   5.001   1
  -5   1   3 165.134   8.398   3
   5   1  -3 163.595   8.056   2
   4  -1  -3 409.887  11.554   3
  -4  -1   3 403.871   8.983   1
  -4  -1   3 421.994  11.813   3
   4  -1  -3 422.565   9.452   1
   4  -1  -3 417.769   9.465   1
  -4  -1   3 392.904   8.740   1
   4  -1  -3 425.448  12.924   5
   4  -1  -3 406.063  10.598   2
  -4   1   3 396.164   9.231   1
   4   1  -3 421.926   8.941   1
  -4   1   3 408.190  10.882   2
  -4   1   3 394.707   9.348   1
   4   1  -3 398.802  11.496   3
   4   1  -3 424.769  12.426   2
   4   1  -3 410.934   8.920   1
  -4   1   3 411.962  12.221   3
  -3  -1   3 918.547  15.184   1
   3  -1  -3 920.948  18.717   5
  -3  -1   3 939.055  18.459   2
   3  -1  -3 958.595  16.348   2
   3  -1  -3 975.390  17.177   3
  -3  -1   3 874.758  16.440   3
   3  -1  -3 895.754  15.434   1
   3  -1  -3 913.842  15.626   1
  -3  -1   3 912.723  15.119   1
   3   1  -3 934.964  18.293   2
   3   1  -3 909.098  14.951   1
  -3   1   3 908.089  16.415   2
  -3   1   3 928.548  17.574   3
   3   1  -3 898.259  16.777   3
  -3   1   3 905.011  15.481   1
  -3   1   3 902.552  15.606   1
   3   1  -3 890.792  14.976   1
  -2  -1   3 2823.52   36.54   1
   2  -1  -3 2945.14   39.73   5
   2  -1  -3 2902.99   36.98   2
  -2  -1   3 2944.28   36.97   1
   2  -1  -3 3064.36   37.66   1
   2   1  -3 3041.17   37.02   1
  -2   1   3 2849.17   36.98   1
   2   1  -3 2881.23   37.09   3
  -2   1   3 2988.39   37.43   2
  -2   1   3 2982.57   37.84   3
  -2   1   3 2939.60   37.37   1
   2   1  -3 2933.62   38.87   2
  -1   1   3 9999.99  158.31   1
   0  -1  -3 1971.82   25.80   2
   0  -1  -3 1941.46   26.73   1
   0  -1  -3 1990.86   24.95   5
   0  -1   3 1899.17   26.26   1
   0  -1   3 1983.19   26.75   1
   0  -1   3 1982.76   25.05   2
   0  -1  -3 1941.72   26.74   1
   0   1   3 1919.96   26.42   1
   0   1  -3 1977.98   26.63   1
   0   1  -3 1963.65   26.73   1
   0   1  -3 1942.45   24.83   2
   0   1   3 1923.81   26.63   1
   0   1   3 2012.02   25.16   5
  -1  -1  -3 1541.27   22.19   1
  -1  -1  -3 1560.92   22.02   2
  -1  -1  -3 1554.38   18.86   5
  -1  -1  -3 1545.60   22.21   1
   1  -1   3 1574.27   22.34   1
   1  -1   3 1528.12   19.46   2
   1  -1   3 1479.14   21.78   1
  -1   1  -3 1519.13   19.41   2
  -1   1  -3 1586.35   21.70   3
  -1   1  -3 1565.53   18.90   5
   1   1   3 1537.99   18.95   5
  -1   1  -3 1501.38   22.03   1
   1   1   3 1513.99   21.82   1
   1   1   3 1527.87   22.04   1
  -1   1  -3 1512.31   22.05   1
   2  -1   3 1213.95   16.07   5
  -2  -1  -3 1240.46   18.84   1
  -2  -1  -3 1229.15   18.79   1
   2  -1   3 1273.87   19.18   1
   2  -1   3 1255.12   16.21   2
   2  -1   3 1244.92   20.38   3
  -2   1  -3 1278.98   20.88   3
  -2   1  -3 1250.94   18.99   1
  -2   1  -3 1256.95   16.53   2
   2   1   3 1235.36   19.32   2
   2   1   3 1219.36   20.47   3
  -2   1  -3 1254.97   16.20   5
  -2   1  -3 1241.30   19.04   1
   2   1   3 1235.76   16.67   5
   2   1   3 1249.09   18.78   1
   2   1   3 1259.49   18.69   1
  -3  -1  -3 173.930   5.529   1
   3  -1   3 177.880   5.548   1
  -3  -1  -3 170.044   7.065   3
   3  -1   3 176.102   7.215   3
  -3  -1  -3 177.196   5.582   1
   3  -1   3 178.684   5.684   1
   3  -1   3 168.805   4.529   5
   3  -1   3 174.517   4.593   2
  -3   1  -3 168.399   5.617   1
   3   1   3 179.420   5.489   1
   3   1   3 165.569   7.049   3
   3   1   3 176.437   5.397   1
  -3   1  -3 177.636   4.918   5
  -3   1  -3 172.986   5.579   1
  -3   1  -3 178.684   7.604   3
  -4  -1  -3 -1.2350  0.8678   1
  -4  -1  -3 2.75980 2.05788   3
   4  -1   3 -0.0615  0.8042   5
   4  -1   3 1.96470 0.90240   1
  -4  -1  -3 -1.2926  0.8443   1
  -4   1  -3 0.58282 1.28539   3
   4   1   3 2.33993 0.81430   1
   4   1   3 -1.1478  0.7916   1
  -5  -1  -3 282.723  11.651   3
   5  -1   3 264.612   6.833   1
   5  -1   3 273.392   8.020   5
  -5  -1  -3 281.625   6.787   1
   5  -1   3 265.361   6.956   1
  -5  -1  -3 262.200  10.783   4
  -5   1  -3 269.765   9.651   4
  -5   1  -3 267.438   7.061   1
   5   1   3 269.246   6.499   1
   5   1   3 268.229   6.454   1
  -5   1  -3 287.861  12.109   3
  -5   1  -3 262.444   6.988   1
  -6  -1  -3 11.1537  1.2394   1
   6  -1   3 10.2473  2.2293   5
  -6  -1  -3 9.59494 1.24603   1
  -6  -1  -3 10.9031  3.5573   3
   6  -1   3 9.99325 1.35090   1
  -6  -1  -3 10.3649  3.3458   4
  -6   1  -3 15.4274  4.1251   3
   6   1   3 10.6487  1.1601   1
   6   1   3 8.33265 1.04294   1
  -6   1  -3 9.78242 1.50130   1
  -6   1  -3 10.2403  2.8910   4
  -7  -1  -3 687.159  20.542   4
   7  -1   3 678.284  16.418   5
   7  -1   3 669.683  11.274   1
  -7  -1  -3 696.509  22.108   3
  -7   1  -3 661.825  21.793   3
  -7   1  -3 663.974  11.380   1
  -7   1  -3 651.968  11.251   1
  -7   1  -3 688.483  19.092   4
   8  -1   3 179.916   8.684   5
  -8  -1  -3 179.808  11.665   3
  -8  -1  -3 195.756  11.618   4
   8   1   3 183.040   8.968   5
  -8   1  -3 198.570  12.708   3
  -8   1  -3 178.607  10.045   4
   9  -1   3 32.6218  4.0962   2
  -9  -1  -3 24.6323  5.4677   4
   9  -1   3 21.7120  3.7012   5
  -9  -1  -3 31.4174  6.1464   3
   9   1   3 29.9464  4.2079   5
  -9   1  -3 32.4978  6.4869   3
  -9   1  -3 27.7908  4.8338   4
 -10  -1  -3 63.1934  7.6122   4
 -10  -1  -3 57.7135  7.6379   3
  10  -1   3 53.7122  5.4335   5
  10  -1   3 51.5276  5.2296   2
 -10   1  -3 52.5293  7.6476   3
 -10   1  -3 64.6238  7.2689   4
  10   1   3 51.1113  5.5804   5
 -11  -1  -3 263.359  15.681   4
  11  -1   3 261.353  11.909   2
  11  -1   3 256.733  12.239   5
 -11  -1  -3 254.326  16.753   3
 -11   1  -3 264.433  14.692   4
 -11   1  -3 264.583  17.303   3
  11   1   3 270.468  12.812   5
  12  -1   3 31.5528  4.8471   5
 -12  -1  -3 21.3035  6.7821   3
  12   1   3 42.1407  6.1527   2
  12   1   3 28.7132  4.7803   5
 -12   1  -3 38.6645  6.1108   4
 -12   1  -3 30.8690  7.5407   3
 -13   1  -3 17.9643  7.4309   3
 -14   1  -3 4.67871 5.64954   3
 -15   1  -3 12.5122  5.5377   3
 -15   2   3 18.4499  7.2225   3
  15   2  -3 22.7870  6.4128   5
  14  -2  -3 100.527  10.539   5
  14   2  -3 85.5541 10.6712   5
 -14   2   3 92.7818 11.7860   3
  13  -2  -3 16.6514  5.2471   5
 -13   2   3 4.80951 5.05707   3
  13   2  -3 15.1863  5.4005   5
  12  -2  -3 13.3295  4.5915   5
  12   2  -3 15.6228  5.0304   5
  12   2  -3 12.9416  4.1647   2
  11  -2  -3 1.82774 2.84863   5
  11   2  -3 2.44738 3.66180   2
 -11   2   3 0.20441 4.10287   3
  10  -2  -3 231.234  13.647   5
  10  -2  -3 214.453  10.578   2
 -10   2   3 224.077  14.784   3
  10   2  -3 216.562  13.100   2
   9  -2  -3 100.790   8.849   5
   9  -2  -3 96.7493  6.7856   2
  -9   2   3 95.9064  4.1650   1
  -9   2   3 99.7142  9.2562   3
   9   2  -3 99.3647  8.9507   2
   8  -2  -3 18.2186  2.1074   1
   8  -2  -3 12.3339  4.2256   5
   8  -2  -3 17.7908  3.3297   2
   8   2  -3 17.1255  4.5774   2
  -8   2   3 14.5172  1.9947   1
   7  -2  -3 183.134   6.595   1
   7  -2  -3 176.277  10.041   5
  -7  -2   3 175.013   5.648   1
   7  -2  -3 181.574   8.212   2
  -7   2   3 174.449   6.601   1
   7   2  -3 176.872  10.124   2
  -7   2   3 182.226  10.859   3
  -7   2   3 176.958   6.510   1
   7   2  -3 181.182   5.551   1
   6  -2  -3 164.397   6.303   1
   6  -2  -3 167.371   7.257   2
   6  -2  -3 164.077   9.109   5
  -6  -2   3 163.759   5.723   1
  -6   2   3 164.743   6.486   1
   6   2  -3 158.698   9.250   2
  -6   2   3 155.760   9.395   3
   6   2  -3 167.119   5.639   1
  -6   2   3 163.402   6.322   1
   5  -2  -3 199.558   9.666   5
  -5  -2   3 209.397   6.685   1
  -5  -2   3 217.182   6.811   1
   5  -2  -3 205.580   7.219   1
   5  -2  -3 207.267   7.489   2
   5   2  -3 214.029   6.668   1
  -5   2   3 203.478   7.116   1
  -5   2   3 204.812   7.307   1
  -5   2   3 205.224   9.717   3
   5   2  -3 205.211   9.729   2
  -5   2   3 218.633   8.093   2
   4  -2  -3 20.1429  3.4935   5
   4  -2  -3 19.3650  2.4107   2
   4  -2  -3 19.4629  2.4174   1
  -4  -2   3 14.1643  1.9205   1
  -4  -2   3 14.7037  2.0040   1
  -4   2   3 13.8423  2.2140   1
  -4   2   3 15.1568  2.0249   1
   4   2  -3 15.0917  1.8402   1
  -4   2   3 14.3716  2.1616   2
  -4   2   3 13.3816  2.7781   3
   4   2  -3 8.99823 2.79434   2
  -3  -2   3 392.284   9.773   1
  -3  -2   3 389.259   9.793   1
   3  -2  -3 383.266   9.985   1
   3  -2  -3 392.264  11.630   5
   3  -2  -3 395.156   9.341   2
   3  -2  -3 397.611  10.298   1
  -3   2   3 396.654   9.639   2
  -3   2   3 396.669  10.350   1
   3   2  -3 386.455  11.672   2
   3   2  -3 385.895  10.340   3
  -3   2   3 387.307  10.060   1
  -3   2   3 377.317  10.732   3
   3   2  -3 387.935   9.631   1
   3   2  -3 397.939   9.672   1
   2  -2  -3 754.986  14.930   1
  -2  -2   3 745.260  14.466   1
   2  -2  -3 746.846  15.458   5
   2  -2  -3 755.896  14.971   1
  -2  -2   3 731.757  14.324   1
   2  -2  -3 767.376  13.581   2
  -2   2   3 755.446  14.997   1
  -2   2   3 765.376  13.654   2
   2   2  -3 752.425  14.381   1
   2   2  -3 763.340  15.892   2
   2   2  -3 745.732  14.538   1
  -2   2   3 739.739  15.525   5
  -2   2   3 739.025  14.671   1
   2   2  -3 736.273  14.646   4
  -1  -2   3 34.0911  3.1485   1
   1  -2  -3 35.5596  2.9481   1
   1  -2  -3 38.0083  2.8565   2
   1  -2  -3 34.7200  3.0306   5
   1  -2  -3 34.1582  3.1800   1
  -1  -2   3 32.0142  2.8565   1
   1   2  -3 33.6620  2.9435   1
  -1   2   3 38.4746  3.0378   5
   1   2  -3 33.8163  2.9618   1
  -1   2   3 31.8613  2.5230   2
   1   2  -3 31.5430  2.7384   2
  -1   2   3 31.5348  2.9120   1
  -1   2   3 33.7608  3.0071   1
   0  -2  -3 29.0719  3.0287   1
   0  -2  -3 31.8126  2.6066   2
   0  -2   3 30.7064  3.0189   1
   0  -2  -3 28.6075  2.8948   1
   0  -2   3 29.9036  2.3404   2
   0  -2   3 27.2222  2.7211   1
   0  -2  -3 32.4201  2.5841   5
   0   2  -3 25.1925  2.2682   2
   0   2   3 31.8487  2.5785   2
   0   2   3 37.4595  3.0757   1
   0   2   3 33.1958  2.5308   5
   0   2   3 29.7677  3.0980   1
   0   2  -3 26.7206  2.6247   1
   0   2  -3 22.1049  2.4439   1
  -1  -2  -3 223.265   5.787   5
   1  -2   3 219.879   7.343   1
  -1  -2  -3 215.838   7.318   1
   1  -2   3 222.034   5.186   2
  -1  -2  -3 221.737   7.176   1
   1  -2   3 214.539   7.140   1
   1   2   3 222.439   7.332   1
  -1   2  -3 222.244   7.343   1
  -1   2  -3 215.002   7.239   1
  -1   2  -3 212.726   4.905   2
  -1   2  -3 221.766   5.791   5
   1   2   3 220.137   6.821   2
   1   2   3 216.998   5.715   5
   1   2   3 223.960   7.145   1
   2  -2   3 47.8382  3.3656   1
  -2  -2  -3 41.1780  3.1655   1
   2  -2   3 46.5226  2.5637   5
   2  -2   3 48.5347  1.7779   2
  -2  -2  -3 52.8793  3.5850   1
   2  -2   3 46.8490  3.3051   1
   2   2   3 50.5831  3.3084   1
  -2   2  -3 42.8140  3.4868   3
  -2   2  -3 48.8014  1.7289   2
  -2   2  -3 47.8176  2.6947   5
   2   2   3 51.1817  3.5040   2
   2   2   3 49.1513  2.5004   5
  -2   2  -3 47.8412  3.4649   1
  -2   2  -3 49.2963  3.5594   1
   2   2   3 46.0904  3.3280   1
   3  -2   3 324.018   7.652   5
   3  -2   3 309.723   8.804   1
  -3  -2  -3 323.811   8.683   1
  -3  -2  -3 307.743   8.482   1
  -3   2  -3 318.155   8.954   1
  -3   2  -3 330.375  10.677   3
   3   2   3 317.436   8.435   1
  -3   2  -3 314.704   8.944   1
   3   2   3 324.720   8.604   1
  -3   2  -3 321.287   8.032   5
   4  -2   3 433.008  10.632   1
  -4  -2  -3 433.634  10.172   1
  -4  -2  -3 446.053  10.374   1
   4  -2   3 440.075  10.933   2
   4  -2   3 464.702  10.339   5
  -4   2  -3 451.829  10.767   5
  -4   2  -3 446.749  14.025   3
  -4   2  -3 453.314  11.004   1
  -4   2  -3 434.505  10.482   4
   4   2   3 440.133  10.135   1
  -4   2  -3 431.847  10.649   1
  -5  -2  -3 57.1154  3.3813   1
  -5  -2  -3 60.1547  5.7700   4
   5  -2   3 47.9144  3.6729   5
   5  -2   3 51.8075  2.6068   2
  -5  -2  -3 54.5620  3.3937   1
   5  -2   3 64.2349  3.9095   1
  -5   2  -3 60.2490  3.9381   1
  -5   2  -3 56.1907  3.6625   1
  -5   2  -3 57.5362  5.8589   3
  -5   2  -3 54.3545  4.1235   4
  -5   2  -3 53.9861  3.9399   5
   5   2   3 59.5504  3.3776   1
   6  -2   3 867.669  17.995   5
   6  -2   3 877.059  16.081   1
  -6  -2  -3 858.523  22.697   4
  -6  -2  -3 863.184  14.819   1
   6   2   3 854.661  14.424   1
  -6   2  -3 846.707  23.780   3
  -6   2  -3 858.302  16.107   1
  -6   2  -3 866.628  19.325   4
  -6   2  -3 873.751  16.236   1
   7  -2   3 17.0679  1.9924   1
  -7  -2  -3 16.2046  1.5945   1
   7  -2   3 12.3985  2.0088   2
   7  -2   3 12.6846  2.5251   5
  -7  -2  -3 12.0662  4.3141   4
  -7  -2  -3 16.3906  1.6146   1
   7   2   3 15.3880  1.4711   1
  -7   2  -3 11.4747  2.9775   4
  -7   2  -3 9.51346 3.38378   3
  -7   2  -3 15.9721  2.1273   1
  -8  -2  -3 14.0130  4.4275   4
   8  -2   3 12.3869  1.5933   1
   8  -2   3 13.9807  2.3788   2
   8  -2   3 14.7301  3.1396   5
  -8   2  -3 13.4195  3.4145   4
  -8   2  -3 14.3040  1.7931   1
  -8   2  -3 16.4105  4.8482   3
  -8   2  -3 14.2918  1.7415   1
  -9  -2  -3 13.3487  5.0753   4
   9  -2   3 8.60754 2.13980   2
   9  -2   3 8.22217 2.73688   5
  -9   2  -3 9.37266 4.77681   3
  -9   2  -3 6.05275 2.63418   4
 -10  -2  -3 29.7421  6.1970   4
  10  -2   3 38.3330  4.8734   5
  10  -2   3 30.6477  3.7149   2
 -10   2  -3 38.8468  6.7087   3
 -10   2  -3 33.1503  5.2823   4
 -11  -2  -3 250.879  15.627   4
  11  -2   3 240.610  11.997   5
  11   2   3 241.827  12.449   5
 -11   2  -3 250.635  13.649   4
 -11   2  -3 255.766  17.460   3
  12  -2   3 123.361   9.009   5
  12   2   3 129.034   9.665   5
 -12   2  -3 141.955  11.053   4
 -12   2  -3 143.170  13.546   3
 -13   2  -3 65.7560 10.5671   3
 -14  -2  -3 -3.7607  4.2859   4
  14   2   3 4.40545 3.42079   2
  15  -3  -3 1.64900 4.29600   5
 -15   3   3 -7.8585  6.3353   3
  15   3  -3 -1.6759  3.8800   5
  14  -3  -3 16.5653  5.6445   5
  14   3  -3 0.99824 3.20758   5
 -14   3   3 6.58963 5.50681   3
  13  -3  -3 4.70543 4.27656   5
  13   3  -3 -0.3373  3.3169   5
 -13   3   3 -1.9321  5.0211   3
  12  -3  -3 84.9230  9.0335   5
 -12   3   3 71.3843 10.1056   3
  11  -3  -3 17.1816  3.4131   2
  11  -3  -3 20.2616  5.4448   5
  11   3  -3 16.9063  5.2071   2
  10  -3  -3 18.7415  4.9780   5
  10  -3  -3 18.1243  3.3801   2
 -10   3   3 12.2239  4.5811   3
 -10   3   3 13.7270  2.0247   1
  10   3  -3 19.7025  4.7120   2
   9  -3  -3 162.925   8.189   2
   9  -3  -3 150.242  10.859   5
   9   3  -3 154.387  10.970   2
  -9   3   3 157.723  11.835   3
  -9   3   3 160.734   6.892   1
   8  -3  -3 455.915  17.703   5
  -8  -3   3 448.753  10.460   1
   8  -3  -3 433.544  11.932   1
   8  -3  -3 443.809  13.127   2
  -8  -3   3 440.353  17.847   4
  -8   3   3 420.519  11.979   1
  -8   3   3 472.132  19.677   3
  -8   3   3 431.908  11.858   1
   8   3  -3 437.226  17.697   2
   8   3  -3 436.328  10.085   1
  -7  -3   3 23.7690  5.0159   4
   7  -3  -3 14.0412  4.1984   5
   7  -3  -3 11.0346  2.5226   2
  -7  -3   3 10.8556  2.0037   1
  -7  -3   3 14.6556  2.0679   1
   7  -3  -3 15.4801  2.4359   1
  -7   3   3 18.2720  4.2752   3
  -7   3   3 12.9703  2.2880   1
  -7   3   3 10.6816  2.3374   1
   7   3  -3 17.3978  2.1805   1
   7   3  -3 11.6999  3.5393   2
   6  -3  -3 284.254   9.573   1
  -6  -3   3 277.500   8.778   1
  -6  -3   3 272.431  12.195   4
   6  -3  -3 279.924   9.049   2
   6  -3  -3 277.522  12.151   5
  -6  -3   3 262.958   8.536   1
  -6   3   3 278.776  12.884   3
   6   3  -3 269.841   8.411   1
  -6   3   3 286.989   9.823   1
   6   3  -3 273.442  12.696   2
  -6   3   3 271.237   9.421   1
  -5  -3   3 35.5312  3.2855   1
   5  -3  -3 40.3150  3.6675   1
   5  -3  -3 40.5959  3.3169   2
  -5  -3   3 30.7164  3.9854   4
  -5  -3   3 32.1128  3.0862   1
   5  -3  -3 43.0429  4.6406   5
  -5   3   3 37.1573  3.2741   2
  -5   3   3 33.6374  3.4077   1
   5   3  -3 32.5044  4.6612   2
   5   3  -3 37.7580  3.2244   1
  -5   3   3 36.6448  3.7497   1
   4  -3  -3 173.595   6.252   2
   4  -3  -3 209.672   9.386   5
  -4  -3   3 183.992   8.641   4
   4  -3  -3 190.972   7.768   1
  -4  -3   3 181.877   7.208   1
  -4  -3   3 175.410   7.020   1
   4   3  -3 173.849   6.868   1
  -4   3   3 176.070   8.574   3
  -4   3   3 180.792   7.772   1
   4   3  -3 187.738   9.230   2
  -4   3   3 178.428   7.456   1
  -4   3   3 188.205   6.713   2
  -3  -3   3 121.280   6.310   4
  -3  -3   3 130.612   6.072   1
   3  -3  -3 129.218   5.130   2
  -3  -3   3 130.253   6.164   1
   3  -3  -3 125.321   6.345   1
   3  -3  -3 123.412   6.787   5
   3   3  -3 130.042   6.024   1
  -3   3   3 120.639   6.318   1
  -3   3   3 126.341   5.223   2
   3   3  -3 115.223   6.776   2
  -3   3   3 121.142   6.096   1
   2  -3  -3 53.0894  3.3484   2
   2  -3  -3 47.3463  3.9644   5
   2  -3  -3 57.7156  4.2733   1
  -2  -3   3 56.2806  4.2094   1
  -2  -3   3 59.0005  4.1688   1
   2   3  -3 59.8167  4.1724   1
  -2   3   3 50.6570  4.2464   1
   2   3  -3 52.2232  3.7343   4
  -2   3   3 54.4878  3.3308   2
   2   3  -3 57.3652  4.6095   2
  -2   3   3 52.1099  3.9351   1
   1  -3  -3 51.1868  3.5254   2
  -1  -3   3 45.9025  3.6757   1
   1  -3  -3 55.3654  4.0227   5
   1  -3  -3 53.8756  4.1963   1
  -1  -3   3 50.6831  4.0540   1
  -1   3   3 56.2710  4.3384   1
   1   3  -3 50.7076  4.0917   1
  -1   3   3 55.0653  3.3920   2
  -1   3   3 56.1573  3.9497   5
  -1   3   3 53.2736  4.1154   1
   1   3  -3 54.4261  3.9935   2
   1   3  -3 51.6592  3.2406   4
   0  -3  -3 129.061   5.462   5
   0  -3   3 126.410   6.036   1
   0  -3   3 133.092   6.304   1
   0  -3  -3 122.202   6.088   1
   0  -3  -3 130.733   5.755   2
   0  -3  -3 128.352   6.259   1
   0   3   3 135.184   5.474   2
   0   3  -3 128.625   5.187   2
   0   3   3 130.677   6.310   1
   0   3  -3 126.929   6.096   1
   0   3   3 135.609   6.321   1
   0   3  -3 123.995   6.115   1
   0   3  -3 129.249   4.202   4
   0   3   3 136.102   5.583   5
   1  -3   3 1369.89   23.93   1
  -1  -3  -3 1326.23   23.72   1
  -1  -3  -3 1382.54   23.95   1
  -1  -3  -3 1433.64   21.78   5
   1   3   3 1376.65   23.96   1
   1   3   3 1385.00   22.86   2
   1   3   3 1415.11   21.75   5
  -1   3  -3 1390.98   23.99   1
  -1   3  -3 1351.58   23.87   1
  -1   3  -3 1439.76   21.84   5
  -1   3  -3 1378.43   19.24   2
   2  -3   3 1090.68   20.76   1
  -2  -3  -3 1126.58   20.89   1
   2  -3   3 1130.37   18.55   5
  -2  -3  -3 1091.67   20.58   1
  -2   3  -3 1104.26   21.08   1
   2   3   3 1144.33   20.81   1
  -2   3  -3 1111.63   20.98   1
   2   3   3 1147.83   18.48   5
  -2   3  -3 1103.61   18.68   5
   3  -3   3 18.6725  2.1202   5
  -3  -3  -3 18.5971  2.6655   1
  -3  -3  -3 20.6964  2.6206   1
   3  -3   3 18.1111  2.5454   1
   3   3   3 15.3455  1.8866   5
  -3   3  -3 17.0525  2.4024   1
  -3   3  -3 14.7867  2.6520   1
  -3   3  -3 15.8118  3.2363   3
  -3   3  -3 14.0523  1.3666   4
  -3   3  -3 16.3549  2.2970   5
   3   3   3 16.9169  2.5076   1
   4  -3   3 1053.22   20.29   1
  -4  -3  -3 1069.86   19.83   1
   4  -3   3 1048.73   18.94   5
  -4  -3  -3 1062.16   19.62   1
   4   3   3 1063.62   19.52   1
  -4   3  -3 1027.01   16.84   4
  -4   3  -3 1029.05   20.30   1
  -4   3  -3 1042.51   19.77   5
  -4   3  -3 1037.31   20.31   1
  -4   3  -3 1080.24   24.22   3
  -5  -3  -3 19.9009  2.4591   1
  -5  -3  -3 16.1884  3.8467   4
   5  -3   3 22.2289  2.8637   1
   5  -3   3 15.9215  2.5368   5
  -5  -3  -3 15.5336  2.3933   1
  -5   3  -3 12.5431  3.6237   3
  -5   3  -3 16.0527  2.2294   4
  -5   3  -3 17.6123  2.5765   1
   5   3   3 13.5485  2.1082   1
  -5   3  -3 17.8578  2.7867   1
  -6  -3  -3 14.3442  2.1000   1
  -6  -3  -3 11.5124  2.0101   1
  -6  -3  -3 9.89928 3.10138   4
   6  -3   3 9.59967 2.06877   1
   6  -3   3 16.2462  2.8330   5
  -6   3  -3 9.67493 2.21974   4
  -6   3  -3 11.8576  3.3740   3
  -6   3  -3 15.5743  2.5198   1
   6   3   3 12.7095  1.9050   1
  -6   3  -3 7.59731 1.91611   1
  -7  -3  -3 27.4916  2.6105   1
   7  -3   3 25.4751  2.9301   1
  -7  -3  -3 28.3449  5.5389   4
   7  -3   3 25.8648  2.0293   2
   7  -3   3 30.7825  3.8361   5
   7  -3   3 26.5983  1.9179   2
  -7   3  -3 27.6128  3.0254   1
  -7   3  -3 28.9319  3.2109   1
  -7   3  -3 32.9572  6.0264   3
   7   3   3 28.3170  2.5382   1
  -7   3  -3 24.2756  3.4738   4
  -8  -3  -3 317.679   7.935   1
   8  -3   3 317.123   9.609   1
  -8  -3  -3 318.870  15.896   4
   8  -3   3 310.323   8.279   2
   8  -3   3 329.501   8.426   2
  -8  -3  -3 312.653   7.954   1
   8  -3   3 331.451  12.345   5
  -8   3  -3 331.438  12.427   4
   8   3   3 331.083   7.823   1
  -8   3  -3 329.688   9.978   1
  -8   3  -3 333.193  16.951   3
   9  -3   3 6.39305 2.85135   5
  -9  -3  -3 -1.1483  3.8923   4
   9  -3   3 7.70566 1.74315   2
  -9   3  -3 5.85349 1.69332   1
  -9   3  -3 17.2586  5.6489   3
  -9   3  -3 8.67412 3.01042   4
  10  -3   3 191.568  10.413   5
 -10  -3  -3 199.728  13.849   4
 -10   3  -3 199.645  14.809   3
 -10   3  -3 193.310  10.828   4
  11  -3   3 58.9092  6.2530   5
 -11   3  -3 65.2165  9.0938   3
  12  -3   3 30.5867  4.9178   5
 -12   3  -3 34.0170  7.8823   3
  12   3   3 31.5756  5.4106   5
 -13   3  -3 8.11209 5.86538   3
 -14   3  -3 21.6092  7.6989   3
  14  -4  -3 23.0962  6.2105   5
 -14   4   3 19.9852  6.4783   3
  13  -4  -3 96.8588 10.5638   5
 -13   4   3 93.9078 12.1913   3
  12  -4  -3 7.09235 3.77429   5
  12   4  -3 1.92918 3.68674   2
  11  -4  -3 69.4876  8.6253   5
 -11   4   3 45.9005  8.4657   3
  11   4  -3 64.9428  8.5020   2
  10  -4  -3 15.2444  2.8225   2
  10  -4  -3 11.4658  4.6754   5
 -10   4   3 13.8115  2.5669   1
  10   4  -3 17.9681  5.7264   2
   9  -4  -3 183.369   8.238   2
   9  -4  -3 181.787  11.891   5
  -9  -4   3 187.979   7.008   1
  -9  -4   3 196.078  12.825   4
   9   4  -3 175.990  12.479   2
  -9   4   3 188.724   8.659   1
  -9   4   3 177.989  13.348   3
  -8  -4   3 85.1542  5.0788   1
   8  -4  -3 77.8367  5.1376   2
   8  -4  -3 90.4377  8.4187   5
  -8  -4   3 89.4264  8.7426   4
   8  -4  -3 87.3231  5.8699   1
   8   4  -3 87.7814  8.8586   2
  -8   4   3 88.8343  9.1561   3
   8   4  -3 77.9159  4.7438   1
  -8   4   3 86.9330  6.0421   1
   7  -4  -3 2.32977 1.68311   1
  -7  -4   3 2.95321 1.83660   1
  -7  -4   3 -3.0916  3.4716   4
   7  -4  -3 1.29739 3.60350   5
   7  -4  -3 1.47077 1.56642   2
  -7   4   3 1.77345 2.64693   3
  -7   4   3 -0.4158  1.5313   1
   7   4  -3 0.46617 1.43630   1
  -7   4   3 -2.7470  2.0496   1
   7   4  -3 11.5214  4.4559   2
   6  -4  -3 4.86965 3.37843   5
  -6  -4   3 2.91515 3.26613   4
   6  -4  -3 -2.2197  1.7839   1
  -6  -4   3 1.76401 1.54402   1
  -6   4   3 9.62120 3.84194   3
   6   4  -3 0.79276 1.54336   1
  -6   4   3 1.03771 2.12026   1
   5  -4  -3 50.4413  5.5431   5
  -5  -4   3 38.5213  4.8326   4
  -5  -4   3 36.4254  3.8461   1
   5  -4  -3 40.8904  4.2497   1
  -5  -4   3 43.2606  3.8820   1
   5  -4  -3 44.0069  3.3838   2
   5   4  -3 38.2518  3.7334   1
  -5   4   3 40.5288  4.4158   1
  -5   4   3 36.3684  4.7702   3
  -5   4   3 34.4200  3.7301   1
  -5   4   3 41.3283  3.3937   2
  -4  -4   3 17.6839  2.7932   1
   4  -4  -3 20.9650  3.9361   5
  -4  -4   3 20.6741  3.1606   1
   4  -4  -3 26.0429  2.6271   2
   4  -4  -3 22.1508  3.4090   1
  -4  -4   3 20.9953  3.6148   4
  -4   4   3 30.8239  3.6371   1
   4   4  -3 24.7838  3.1098   1
  -4   4   3 19.5976  2.2430   2
  -4   4   3 22.1545  3.4794   1
   3  -4  -3 -0.4919  0.9572   2
   3  -4  -3 -2.9011  2.5108   5
  -3  -4   3 1.76182 1.53559   1
  -3  -4   3 -3.0795  1.5956   1
   3  -4  -3 2.68614 1.64851   1
   3   4  -3 -3.8261  1.9630   1
  -3   4   3 1.41355 1.06798   2
  -3   4   3 2.05709 2.04081   1
  -2  -4   3 441.886  12.970   1
  -2  -4   3 454.490  13.448   1
   2  -4  -3 435.800  13.365   1
   2  -4  -3 458.277  11.174   2
   2  -4  -3 432.997  12.698   5
   2   4  -3 446.446  12.094   4
  -2   4   3 431.120  10.449   2
   2   4  -3 456.989  13.267   1
  -2   4   3 438.992  13.573   1
   1  -4  -3 852.785  16.863   2
   1  -4  -3 818.917  19.171   1
   1  -4  -3 811.145  17.503   5
  -1  -4   3 822.276  18.786   1
   1   4  -3 804.404  15.641   4
  -1   4   3 836.800  19.370   1
   1   4  -3 837.112  18.965   1
  -1   4   3 800.743  15.652   2
   0  -4  -3 48.6196  4.5984   1
   0  -4  -3 46.0264  3.7077   5
   0  -4   3 42.1606  4.2298   1
   0   4  -3 45.5089  2.7249   4
   0   4   3 52.7000  4.8015   1
   0   4  -3 43.5729  4.3775   1
  -1  -4  -3 29.1040  3.1055   5
  -1  -4  -3 31.9351  3.8586   1
   1  -4   3 24.8004  3.3044   1
  -1   4  -3 29.4277  2.4466   2
  -1   4  -3 34.8205  4.0702   1
  -1   4  -3 29.6280  1.6461   4
   1   4   3 27.7058  3.3836   1
  -2  -4  -3 179.667   8.132   1
   2  -4   3 181.944   8.408   1
   2  -4   3 183.797   7.027   5
  -2  -4  -3 184.677   8.323   1
   2   4   3 184.317   8.298   1
  -2   4  -3 180.257   8.550   1
  -2   4  -3 173.588   4.547   2
   3  -4   3 896.052  20.060   1
   3  -4   3 877.652  17.633   5
  -3  -4  -3 839.544  18.991   1
  -3  -4  -3 863.032  19.339   1
  -3   4  -3 870.254  19.781   1
  -3   4  -3 859.355  19.963   1
   3   4   3 880.448  19.349   1
  -4  -4  -3 596.259  15.328   1
  -4  -4  -3 575.391  15.190   1
   4  -4   3 600.661  14.381   5
   4  -4   3 598.146  15.942   1
   4   4   3 576.238  14.862   1
  -4   4  -3 595.607  15.914   1
  -4   4  -3 598.342   9.694   4
  -4   4  -3 593.679  16.050   1
  -4   4  -3 604.185  17.931   3
  -5  -4  -3 153.972   7.214   1
   5  -4   3 149.991   7.648   1
   5  -4   3 156.405   7.342   5
  -5  -4  -3 153.901   9.356   4
  -5  -4  -3 144.932   7.253   1
   5   4   3 146.148   7.006   1
  -5   4  -3 153.617   9.790   3
  -5   4  -3 146.351   5.147   4
  -5   4  -3 149.611   7.667   1
  -5   4  -3 149.356   7.875   1
  -6  -4  -3 140.888   6.920   1
   6  -4   3 148.523   7.647   5
  -6  -4  -3 131.417   9.513   4
   6  -4   3 139.263   7.308   1
  -6  -4  -3 140.562   6.834   1
  -6   4  -3 144.340  10.183   3
  -6   4  -3 134.810   5.785   4
   6   4   3 131.398   6.494   1
  -6   4  -3 138.774   7.550   1
  -6   4  -3 127.458   7.033   1
  -7  -4  -3 126.450   6.361   1
   7  -4   3 126.193   6.976   1
  -7  -4  -3 129.021   9.965   4
  -7  -4  -3 122.185   6.188   1
   7  -4   3 121.794   7.380   5
  -7   4  -3 128.155  10.444   3
  -7   4  -3 126.661   6.987   1
   7   4   3 125.225   6.089   1
  -7   4  -3 124.746   6.337   4
  -7   4  -3 129.424   7.300   1
   8  -4   3 6.09385 2.07178   1
  -8  -4  -3 1.42345 4.04152   4
  -8  -4  -3 5.12777 1.77864   1
  -8   4  -3 3.54827 2.13491   1
  -8   4  -3 10.1805  4.0822   3
   8   4   3 5.06883 1.54899   1
  -9  -4  -3 43.1734  3.0948   1
  -9  -4  -3 45.1039  6.7797   4
   9  -4   3 53.9021  5.6489   5
  -9   4  -3 45.5642  7.0649   3
  -9   4  -3 41.6554  4.0723   1
  10  -4   3 3.05408 2.48089   5
 -10   4  -3 1.07209 1.54957   1
 -10   4  -3 2.76424 3.60360   3
  11  -4   3 13.6755  3.4729   5
 -11   4  -3 19.3615  5.8533   3
  12  -4   3 -2.8379  3.0542   5
 -12  -4  -3 -6.4012  5.0679   4
 -12   4  -3 2.00135 4.99401   3
 -13   4  -3 39.3514  8.9060   3
 -14  -4  -3 6.89171 4.89751   4
  14  -5  -3 21.9871  5.9637   5
 -14   5   3 19.1425  7.4508   3
  13  -5  -3 58.4364  8.7405   5
 -13   5   3 83.2234 11.8603   3
  12  -5  -3 16.3692  5.3101   5
 -12   5   3 -6.3132  5.8293   3
  11  -5  -3 6.62552 4.81790   5
 -11   5   3 6.97260 2.39877   1
  11   5  -3 -1.5530  4.0524   2
 -11   5   3 5.33185 5.04892   3
 -10  -5   3 22.1569  2.8304   1
  10  -5  -3 25.4783  5.9589   5
 -10   5   3 22.7029  6.6649   3
 -10   5   3 20.0475  3.6251   1
  10   5  -3 30.1006  7.0638   2
  -9  -5   3 3.00261 1.80986   1
  -9  -5   3 6.74302 4.48614   4
   9  -5  -3 9.96734 4.59961   5
   9   5  -3 4.43620 4.71178   2
  -9   5   3 -4.7233  4.1781   3
   8  -5  -3 106.299   7.185   1
   8  -5  -3 105.915   5.598   2
   8  -5  -3 103.710   9.085   5
  -8  -5   3 102.998   9.144   4
  -8  -5   3 94.5257  6.1817   1
   8   5  -3 91.4098  9.4604   2
  -8   5   3 100.627   9.925   3
   8   5  -3 109.401   6.397   1
  -8   5   3 104.962   7.391   1
   7  -5  -3 87.2760  6.7452   1
   7  -5  -3 75.4517  4.6680   2
  -7  -5   3 82.9332  5.9514   1
  -7  -5   3 92.7557  8.6298   4
   7  -5  -3 93.2576  8.4584   5
  -7   5   3 90.5667  7.0353   1
   7   5  -3 76.1997  5.5802   1
  -7   5   3 70.3322  8.2960   3
  -6  -5   3 32.4953  3.9182   1
   6  -5  -3 43.5154  6.0371   5
   6  -5  -3 38.8457  3.3920   2
   6  -5  -3 43.8496  5.0316   1
  -6  -5   3 39.1791  5.2240   4
  -6  -5   3 39.5778  4.2960   1
   6   5  -3 37.1313  4.1768   1
  -6   5   3 32.3516  5.5895   3
  -6   5   3 32.0148  4.6257   1
  -5  -5   3 409.269  13.565   1
  -5  -5   3 408.683  15.147   4
   5  -5  -3 382.085  14.695   5
   5  -5  -3 402.212  14.145   1
   5  -5  -3 385.100  10.425   2
  -5  -5   3 382.204  13.169   1
   5   5  -3 401.911  13.107   1
  -5   5   3 387.713  14.170   1
  -4  -5   3 21.6407  3.9078   4
   4  -5  -3 32.2419  4.8992   5
   4  -5  -3 26.2465  2.8839   2
  -4  -5   3 31.8500  4.1827   1
   4  -5  -3 30.6982  4.3500   1
   4   5  -3 32.9991  4.1862   1
  -4   5   3 25.5823  2.6877   2
  -4   5   3 32.5677  4.6119   1
   3  -5  -3 475.051  15.066   5
   3  -5  -3 481.772  12.142   2
   3  -5  -3 479.316  15.419   1
  -3  -5   3 486.295  14.229   4
  -3  -5   3 478.736  14.962   1
   3   5  -3 490.469  15.117   1
  -3   5   3 503.907  16.035   1
  -2  -5   3 200.994   8.042   4
  -2  -5   3 186.853   9.214   1
   2  -5  -3 182.812   8.882   5
   2  -5  -3 183.808   9.482   1
   2   5  -3 196.434   9.443   1
  -2   5   3 178.201   9.399   1
  -1  -5   3 43.3176  4.8224   1
   1  -5  -3 49.2323  4.7409   5
   1  -5  -3 49.6441  5.2378   1
   1   5  -3 50.4181  3.6363   4
  -1   5   3 45.6858  4.7451   1
   1   5  -3 52.1449  5.2392   1
   0  -5   3 8.07371 2.96715   1
   0   5  -3 12.4840  2.8366   1
   0   5   3 13.0405  2.8423   1
   0   5  -3 9.83127 1.51022   4
   1  -5   3 985.525  22.983   1
  -1  -5  -3 965.669  22.720   1
  -1  -5  -3 990.661  20.440   5
  -1   5  -3 967.320  22.818   1
   1   5   3 997.300  22.785   1
  -2  -5  -3 8.46299 2.75872   1
   2  -5   3 3.86442 2.08633   5
   2  -5   3 3.82465 2.00849   1
   2   5   3 4.72382 2.33815   1
  -2   5  -3 -2.4845  2.5594   1
  -2   5  -3 3.31110 1.06192   2
   3  -5   3 11.4296  3.3044   1
  -3  -5  -3 14.0909  3.2365   1
   3  -5   3 15.4914  2.9336   5
   3   5   3 20.2196  3.4923   1
  -3   5  -3 12.6944  2.9442   1
  -4  -5  -3 92.9721  6.4741   1
   4  -5   3 97.3995  6.9065   1
  -4  -5  -3 99.2530  6.6459   1
   4  -5   3 97.4677  6.2369   5
  -4   5  -3 91.0556  6.8230   1
   4   5   3 89.7965  6.3548   1
  -5  -5  -3 141.050   7.916   1
  -5  -5  -3 157.186   9.949   4
   5  -5   3 142.776   8.269   1
  -5  -5  -3 136.179   7.722   1
   5  -5   3 149.545   7.822   5
   5   5   3 136.297   7.536   1
  -5   5  -3 141.635   9.613   3
  -5   5  -3 138.938   8.457   1
  -6  -5  -3 19.4754  4.9877   4
   6  -5   3 14.3742  3.3455   5
  -6  -5  -3 11.8952  2.5164   1
  -6  -5  -3 15.4291  3.1897   1
   6  -5   3 12.7783  3.2805   1
  -6   5  -3 12.1560  4.5029   3
  -6   5  -3 15.2821  3.5622   1
   6   5   3 13.0484  2.8769   1
  -7  -5  -3 16.6482  3.0787   1
  -7  -5  -3 17.7271  5.1473   4
   7   5   3 9.55503 2.39334   1
  -7   5  -3 12.2806  4.2151   3
  -7   5  -3 9.39153 2.76690   1
  -8  -5  -3 32.3721  3.7810   1
   8  -5   3 33.9854  4.1900   1
  -8  -5  -3 29.1635  6.3185   4
   8  -5   3 31.8934  4.6608   5
  -8   5  -3 30.8899  4.2773   1
  -8   5  -3 33.2513  6.5995   3
  -9  -5  -3 43.5730  6.9696   4
  -9  -5  -3 31.1823  3.3768   1
   9  -5   3 29.9868  4.7228   5
  -9   5  -3 37.8111  7.3323   3
  -9   5  -3 32.3764  4.2616   1
  10  -5   3 18.0300  4.2132   5
 -10   5  -3 17.1739  3.3001   1
 -10   5  -3 12.4289  4.8147   3
  11  -5   3 57.7637  6.5020   5
 -11   5  -3 75.2121 10.1044   3
  12  -5   3 4.61957 3.27487   5
 -13   5  -3 -10.770   6.601   3
 -14   5  -3 17.8197  7.7249   3
  14  -6  -3 3.27550 4.44622   5
  14   6  -3 7.51001 4.64782   2
 -14   6   3 2.72599 5.69713   3
  13  -6  -3 4.11541 3.61170   5
 -13   6   3 20.7243  7.7911   3
  12  -6  -3 -4.5017  4.4649   5
 -12   6   3 -5.1549  5.4682   3
  11  -6  -3 193.301  13.989   5
 -11   6   3 195.165  10.447   1
 -11   6   3 204.521  17.119   3
 -10  -6   3 13.8871  2.7927   1
  10  -6  -3 16.2221  5.3339   5
  10   6  -3 8.53882 5.30931   2
 -10   6   3 23.9139  6.9195   3
 -10   6   3 14.6135  3.6625   1
   9  -6  -3 -5.7739  4.4671   5
  -9  -6   3 -2.6826  4.5697   4
  -9  -6   3 -4.1608  2.3552   1
   9   6  -3 -0.5925  3.5715   2
  -9   6   3 10.1515  4.4290   3
  -9   6   3 0.32093 2.65129   1
   8  -6  -3 110.343   8.025   1
  -8  -6   3 98.6766  9.2867   4
  -8  -6   3 93.2151  6.8113   1
   8  -6  -3 98.5359  5.2539   2
   8  -6  -3 96.3102  8.7045   5
   8   6  -3 103.984   9.988   2
  -8   6   3 98.7126  7.8227   1
  -8   6   3 96.8445 10.3126   3
  -7  -6   3 15.7672  4.8174   4
   7  -6  -3 23.8348  2.8053   2
   7  -6  -3 22.1832  4.0498   1
  -7  -6   3 24.7626  4.1101   1
   7  -6  -3 25.6134  5.3740   5
   7   6  -3 21.9495  3.6567   1
  -7   6   3 22.9631  4.2926   1
  -7   6   3 26.7696  6.0879   3
   6  -6  -3 213.002   7.911   2
   6  -6  -3 218.498  11.289   1
  -6  -6   3 205.647  11.697   4
   6  -6  -3 225.604  12.463   5
  -6  -6   3 191.246  10.035   1
   6   6  -3 205.515  10.164   1
  -6   6   3 220.833  13.435   3
  -6   6   3 199.649  11.221   1
  -5  -6   3 90.1145  7.6587   4
   5  -6  -3 105.685   5.644   2
   5  -6  -3 94.6874  7.6927   1
   5  -6  -3 108.166   8.487   5
  -5  -6   3 98.2762  7.2147   1
   5   6  -3 93.9712  7.1593   1
  -5   6   3 106.139   8.313   1
   4  -6  -3 217.921  11.022   5
   4  -6  -3 226.116   8.483   2
   4  -6  -3 229.053  11.562   1
  -4  -6   3 224.662  11.164   1
  -4  -6   3 212.263  10.499   4
   4   6  -3 233.733  11.152   1
  -4   6   3 247.714  12.179   1
  -3  -6   3 339.849  12.191   4
   3  -6  -3 331.802  13.881   1
   3  -6  -3 304.187  12.484   5
  -3  -6   3 330.606  13.393   1
   3   6  -3 329.235  13.347   1
  -3   6   3 325.613  13.928   1
  -2  -6   3 213.483  10.835   1
   2  -6  -3 186.535  10.690   1
  -2  -6   3 206.147   8.579   4
   2  -6  -3 219.532  10.453   5
   2   6  -3 215.338  10.926   1
  -2   6   3 209.269  10.961   1
   1  -6  -3 -0.3816  2.3608   5
  -1  -6   3 -0.7032  2.8083   1
   1   6  -3 -1.7928  2.7707   1
  -1   6   3 0.68782 2.71194   1
   0  -6   3 9.59916 3.22840   1
   0  -6  -3 6.53848 3.41593   1
   0  -6  -3 10.8856  3.1665   5
   0   6  -3 9.17283 3.57576   1
   1  -6   3 406.324  15.209   1
  -1  -6  -3 412.679  15.507   1
   1   6   3 416.598  15.230   1
  -1   6  -3 423.351  15.601   1
   2  -6   3 120.172   8.518   1
  -2  -6  -3 125.112   8.493   1
   2   6   3 138.299   8.781   1
  -2   6  -3 146.947   9.297   1
  -2   6  -3 133.296   5.647   2
  -3  -6  -3 223.699  10.970   1
   3  -6   3 219.855  11.132   1
   3  -6   3 219.968   9.745   5
   3   6   3 233.269  11.144   1
  -3   6  -3 220.200   5.771   2
  -3   6  -3 217.837   5.320   2
  -3   6  -3 222.278  11.493   1
   4  -6   3 15.0525  2.9638   5
  -4  -6  -3 11.4256  3.5313   1
   4  -6   3 19.3706  4.1937   1
  -4  -6  -3 14.9668  4.1649   4
  -4   6  -3 10.3037  3.2362   1
   4   6   3 19.6571  3.8902   1
  -5  -6  -3 148.903  10.173   4
   5  -6   3 164.377   8.954   5
  -5  -6  -3 165.802   9.457   1
   5  -6   3 168.646   9.765   1
  -5   6  -3 162.391  10.921   3
   5   6   3 174.172   9.449   1
  -5   6  -3 172.506  10.316   1
  -6  -6  -3 283.149  12.261   1
  -6  -6  -3 301.989  15.306   4
   6  -6   3 295.079  13.084   1
   6  -6   3 276.378  11.743   5
   6   6   3 307.547  12.360   1
  -6   6  -3 292.731  15.733   3
  -6   6  -3 303.402  13.516   1
   7  -6   3 9.50966 3.10928   1
  -7  -6  -3 8.85902 3.01247   1
   7  -6   3 5.35549 3.20301   5
  -7   6  -3 9.22137 3.52596   1
  -7   6  -3 11.9675  4.2104   3
   7   6   3 11.0538  2.8521   1
  -8  -6  -3 19.7059  3.5725   1
  -8  -6  -3 28.6390  6.4031   4
   8  -6   3 23.9946  4.0442   1
   8  -6   3 24.6561  4.4254   5
  -8   6  -3 34.7288  7.1654   3
  -8   6  -3 17.3987  4.0072   1
  -9  -6  -3 -1.4349  1.8212   1
   9  -6   3 1.26926 2.77834   5
  -9   6  -3 0.64713 2.15356   1
  -9   6  -3 2.38327 3.49792   3
 -10  -6  -3 19.1558  2.9659   1
  10  -6   3 22.9123  4.4094   5
 -10   6  -3 12.7164  3.2880   1
 -10   6  -3 19.6534  6.3298   3
  11  -6   3 14.5283  4.1081   5
 -11   6  -3 17.3234  3.3819   1
  12  -6   3 65.4919  7.3706   5
 -12   6  -3 55.5247 10.2051   3
 -13   6  -3 22.4594  6.8698   3
  13  -7  -3 23.5916  6.4966   5
 -13   7   3 23.2299  7.8329   3
  12  -7  -3 15.7234  5.7955   5
  12   7  -3 7.81591 4.71505   2
 -12   7   3 24.4247  7.8953   3
  11  -7  -3 -7.5502  4.9205   5
 -11   7   3 -1.3671  2.7377   1
 -11   7   3 5.66530 5.07425   3
 -10  -7   3 67.5895  6.0416   1
  10  -7  -3 63.6817  8.4678   5
 -10   7   3 61.4837  6.7982   1
  10   7  -3 67.9248  9.7474   2
 -10   7   3 59.6890  9.4852   3
   9  -7  -3 8.24341 4.76938   5
  -9  -7   3 7.43167 2.88746   1
  -9  -7   3 16.9612  5.5787   4
  -9   7   3 6.72205 5.19233   3
   9   7  -3 4.37813 5.15029   2
  -9   7   3 3.33657 3.32619   1
  -8  -7   3 223.772  14.067   4
   8  -7  -3 254.556  13.117   1
  -8  -7   3 246.237  12.014   1
   8  -7  -3 250.171  14.269   5
  -8   7   3 240.393  16.247   3
  -8   7   3 242.016  13.208   1
  -7  -7   3 32.4074  5.9748   4
   7  -7  -3 36.2977  6.2196   5
  -7  -7   3 37.7639  5.2360   1
   7  -7  -3 29.8283  3.1291   2
   7  -7  -3 34.1200  5.3153   1
  -7   7   3 33.4459  6.2257   3
   7   7  -3 42.1386  5.1638   1
  -7   7   3 42.5430  6.0379   1
  -6  -7   3 319.012  15.080   4
   6  -7  -3 305.585  14.485   1
   6  -7  -3 283.986  14.370   5
  -6  -7   3 274.621  12.996   1
   6   7  -3 279.598  12.879   1
  -6   7   3 290.859  14.366   1
  -5  -7   3 3.48572 2.46830   4
  -5  -7   3 5.14939 3.41829   1
   5  -7  -3 8.23830 4.01240   5
   5  -7  -3 -2.9847  3.2139   1
   5   7  -3 9.95030 3.47243   1
  -5   7   3 3.22662 3.64540   1
   4  -7  -3 142.086  10.049   1
  -4  -7   3 130.748   9.269   1
   4  -7  -3 128.255   8.948   5
  -4  -7   3 133.178   8.459   4
   4   7  -3 127.960   8.876   1
  -4   7   3 123.997   9.657   1
  -3  -7   3 31.4350  5.4440   1
  -3  -7   3 33.2961  4.3478   4
   3  -7  -3 20.7114  4.0528   5
   3  -7  -3 30.9389  5.3710   1
   3   7  -3 22.8550  4.4537   1
  -3   7   3 32.4905  5.5781   1
   2  -7  -3 117.279   8.906   1
   2  -7  -3 111.719   8.063   5
  -2  -7   3 116.990   6.810   4
  -2  -7   3 113.669   8.881   1
  -2   7   3 106.586   8.850   1
   2   7  -3 111.959   8.416   1
   1  -7  -3 36.8332  5.9294   1
  -1  -7   3 25.4799  5.2838   1
   1  -7  -3 35.7277  4.6145   5
  -1   7   3 26.8697  4.7194   1
   1   7  -3 27.9815  5.4779   1
   0  -7   3 35.8213  5.0954   1
   0  -7  -3 30.2252  4.2381   5
   0  -7  -3 26.7474  5.1195   1
   0   7   3 29.5613  4.9889   1
   0   7  -3 32.2560  5.2993   1
  -1  -7  -3 86.3370  7.8662   1
   1  -7   3 82.8494 12.8755   1
   1   7   3 90.8458  7.8134   1
  -1   7  -3 90.3617  8.1139   1
  -2  -7  -3 68.4164  7.2458   1
   2  -7   3 63.7113  6.9592   1
  -2   7  -3 59.2267  6.8940   1
   2   7   3 74.7097  7.3402   1
   3  -7   3 84.1542  6.8126   5
   3  -7   3 71.1432  7.3619   1
  -3  -7  -3 78.6708  7.5859   1
   3   7   3 80.2703  7.4909   1
  -3   7  -3 84.3729 16.0346   1
  -3   7  -3 78.5293  3.5907   2
  -3   7  -3 79.6095  4.0376   2
  -4  -7  -3 361.814  15.445   1
   4  -7   3 368.709  15.906   1
   4  -7   3 377.702  14.028   5
  -4  -7  -3 368.123  15.554   4
  -4   7  -3 364.944  16.113   1
   4   7   3 365.542  15.112   1
  -5  -7  -3 42.2042  6.3863   4
   5  -7   3 45.3846  6.2568   1
  -5  -7  -3 47.3096  6.0472   1
   5  -7   3 45.2098  5.1319   5
  -5   7  -3 35.4573  5.8803   1
   5   7   3 34.1855  5.0260   1
   6  -7   3 346.744  15.542   1
  -6  -7  -3 345.743  16.919   4
  -6  -7  -3 348.984  14.905   1
   6  -7   3 329.609  13.891   5
  -6   7  -3 326.963  17.391   3
  -6   7  -3 360.287  15.955   1
   6   7   3 363.512  14.565   1
   7  -7   3 1.52837 2.16470   5
  -7  -7  -3 0.26886 2.56031   1
  -7  -7  -3 -1.7525  3.7205   4
   7  -7   3 -2.8824  2.9541   1
  -7   7  -3 -4.1049  3.3071   1
   7   7   3 3.32986 2.44234   1
   8  -7   3 169.131  10.378   5
  -8  -7  -3 175.488  10.117   1
  -8  -7  -3 170.536  13.289   4
  -8   7  -3 178.766  14.355   3
  -8   7  -3 176.021  11.170   1
  -9  -7  -3 19.7969  3.9142   1
   9  -7   3 17.0578  4.3800   5
  -9   7  -3 14.6369  4.1959   1
  -9   7  -3 21.0442  6.9007   3
 -10  -7  -3 3.20801 2.17090   1
  10  -7   3 -0.6498  3.0322   5
 -10   7  -3 1.75900 2.37944   1
 -10   7  -3 3.68125 5.14339   3
 -11   7  -3 1.48943 5.31732   3
  12  -7   3 44.3089  6.4845   5
 -12   7  -3 59.3823 10.6671   3
 -13   7  -3 21.7192  8.6268   3
 -12   8   3 14.9493  6.6727   3
  11  -8  -3 14.8904  5.7568   5
 -11   8   3 24.5635  6.9395   3
 -10  -8   3 79.4859  7.2262   1
  10  -8  -3 62.3090  8.4898   5
 -10   8   3 71.3434  7.9201   1
 -10   8   3 56.7660  9.8229   3
  -9  -8   3 19.5785  5.2883   4
  -9  -8   3 12.7732  3.7195   1
   9   8  -3 15.5244  6.2650   2
  -9   8   3 21.3182  4.8969   1
  -8  -8   3 234.369  12.769   1
   8  -8  -3 238.998  14.514   5
  -8  -8   3 230.448  15.039   4
  -8   8   3 231.513  13.948   1
  -8   8   3 241.890  17.170   3
   7  -8  -3 96.9942  9.4684   5
  -7  -8   3 93.8595  8.3604   1
   7  -8  -3 109.284   9.441   1
  -7  -8   3 87.5360  8.7119   4
  -7   8   3 108.545   9.733   1
   7   8  -3 96.5778  8.2128   1
  -7   8   3 93.8507 10.3575   3
   6  -8  -3 56.4089  7.3139   5
  -6  -8   3 44.0705  6.1495   1
  -6  -8   3 50.1682  6.6515   4
   6  -8  -3 53.2059  6.7779   1
   6   8  -3 48.9057  6.3208   1
  -6   8   3 54.7063  7.2905   1
  -5  -8   3 -2.7701  3.0306   4
  -5  -8   3 -1.5805  3.2932   1
   5  -8  -3 2.17627 2.67500   1
   5  -8  -3 -4.4974  3.0922   5
  -5   8   3 -6.3122  4.2350   1
   5   8  -3 3.88394 3.17111   1
  -4  -8   3 161.826   9.786   4
   4  -8  -3 149.626  10.415   5
   4  -8  -3 149.911  10.780   1
  -4  -8   3 165.759  11.142   1
  -4   8   3 175.625  12.045   1
   4   8  -3 159.759  10.853   1
  -3  -8   3 189.867  12.132   1
   3  -8  -3 201.863  12.712   1
   3  -8  -3 196.096  11.441   5
  -3  -8   3 198.644  10.007   4
  -3   8   3 194.193  12.585   1
   3   8  -3 203.105  12.247   1
   2  -8  -3 20.7371  4.7639   5
  -2  -8   3 17.8586  4.7624   1
   2  -8  -3 10.1536  4.3854   1
   2   8  -3 19.3541  4.3462   1
  -2   8   3 15.5311  4.3523   1
  -1  -8   3 65.5491  7.5123   1
   1  -8  -3 53.5333  5.9314   5
   1  -8  -3 72.5852  8.0855   1
   1   8  -3 62.3880  7.4920   1
  -1   8   3 61.6202  7.3511   1
   0  -8  -3 31.7642  5.9211   1
   0  -8  -3 33.2151  5.2732   5
   0  -8   3 23.8898  4.7389   1
   0   8   3 29.6087  5.6469   1
   0   8  -3 24.0981  5.4441   1
  -1  -8  -3 109.166   9.523   1
   1  -8   3 105.553   9.039   1
  -1   8  -3 100.438   9.301   1
   1   8   3 107.917   9.094   1
   2  -8   3 82.1511  8.4845   1
  -2  -8  -3 91.7253  8.8927   1
  -2   8  -3 89.3069  8.8922   1
   2   8   3 76.2873  8.1613   1
  -3  -8  -3 501.194  18.168   4
  -3  -8  -3 477.332  19.086   1
   3  -8   3 495.430  19.900   1
  -3   8  -3 472.619  19.473   1
  -3   8  -3 482.003  11.954   2
   3   8   3 499.849  19.364   1
  -4  -8  -3 6.28388 4.34239   4
   4  -8   3 1.07379 4.18637   1
   4  -8   3 10.1491  4.6591   5
  -4  -8  -3 -4.0979  3.4461   1
   4   8   3 -5.7682  4.5177   1
  -4   8  -3 -5.6591  4.9233   1
   5  -8   3 62.9424  7.4006   1
  -5  -8  -3 53.1493  7.0503   4
  -5  -8  -3 61.4453  7.2946   1
   5  -8   3 59.3344  6.3599   5
  -5   8  -3 53.6770  7.3422   1
   5   8   3 70.4962  7.2665   1
   6  -8   3 -1.5584  3.1859   5
  -6  -8  -3 -6.9232  3.6908   1
  -6  -8  -3 12.1009  4.5499   4
  -6   8  -3 -3.0974  4.5175   3
  -6   8  -3 1.27547 3.55027   1
   7  -8   3 27.7974  5.1036   5
  -7  -8  -3 27.2915  6.4051   4
  -7  -8  -3 22.2303  4.7741   1
   7  -8   3 24.0326  4.9686   1
  -7   8  -3 28.3162  5.1458   1
  -7   8  -3 24.5104  6.4554   3
  -8  -8  -3 -4.3772  4.0534   4
  -8  -8  -3 0.54700 2.37608   1
   8  -8   3 0.13129 3.19528   5
  -8   8  -3 1.55217 5.05356   3
  -8   8  -3 -0.8379  3.4127   1
  -9  -8  -3 12.0041  3.5063   1
  -9   8  -3 11.6241  5.1032   3
  -9   8  -3 6.62545 3.80703   1
  10  -8   3 37.1719  5.6623   5
 -10  -8  -3 39.9244  5.1837   1
 -10   8  -3 40.2095  6.1227   1
 -10   8  -3 31.1412  8.3827   3
  11  -8   3 1.07904 3.39886   5
 -11   8  -3 2.37167 3.18451   1
 -11   8  -3 -4.2843  6.0127   3
 -12   8  -3 36.1190  9.4556   3
  12  -9  -3 11.8297  5.2291   5
  11  -9  -3 63.0128  9.1454   5
 -11   9   3 66.1526 10.6206   3
 -11   9   3 59.2065  7.7587   1
  10  -9  -3 -2.9889  4.7878   5
 -10  -9   3 5.80179 3.33657   1
 -10   9   3 5.79997 5.63188   3
 -10   9   3 -6.0142  4.0145   1
  -9  -9   3 23.8178  5.0833   1
   9  -9  -3 18.5004  5.8009   5
  -9   9   3 22.1522  5.4051   1
  -9   9   3 24.2229  7.0979   3
   8  -9  -3 16.0392  5.4832   5
  -8  -9   3 11.9756  4.1791   4
  -8   9   3 22.2374  6.8462   3
   7  -9  -3 27.7437  5.9581   5
   7  -9  -3 29.3144  5.9847   1
  -7  -9   3 29.6005  6.0595   4
  -7  -9   3 34.4820  5.7746   1
  -7   9   3 34.8984  6.8989   3
  -7   9   3 29.2218  5.6924   1
  -6  -9   3 14.2135  4.5267   4
  -6  -9   3 6.37235 3.87737   1
   6  -9  -3 12.9508  4.8003   5
   6  -9  -3 11.7567  4.8889   1
   6   9  -3 17.8492  4.7704   1
  -5  -9   3 4.52141 3.98261   1
   5  -9  -3 -3.0200  3.6933   1
  -5  -9   3 3.79087 3.19392   4
   5  -9  -3 14.2099  4.9135   5
   5   9  -3 -1.5361  2.6601   1
  -5   9   3 6.96689 4.42270   1
  -4  -9   3 -9.1916  4.7886   1
   4  -9  -3 0.35505 4.06327   5
  -4  -9   3 -1.5204  2.9501   4
   4   9  -3 -1.8069  2.9640   1
  -4   9   3 -10.080   4.700   1
   3  -9  -3 281.049  15.686   1
   3  -9  -3 271.897  14.186   5
  -3  -9   3 291.695  15.930   1
   3   9  -3 264.184  14.803   1
  -3   9   3 264.577  15.648   1
   2  -9  -3 29.8350  6.2368   1
   2  -9  -3 24.0667  5.1565   5
  -2   9   3 31.7092  6.1526   1
   2   9  -3 21.0403  5.4509   1
   1  -9  -3 42.8367  6.1506   5
  -1  -9   3 53.6070  7.3046   1
   1  -9  -3 40.9269  6.8411   1
   1   9  -3 46.7592  6.7812   1
  -1   9   3 41.1275  6.7355   1
   0  -9   3 -0.2010  3.6129   1
   0  -9  -3 0.31964 3.65224   1
   0   9  -3 0.63165 3.60863   1
   0   9   3 9.83357 4.59538   1
  -1  -9  -3 81.5636  6.8643   4
  -1  -9  -3 85.7206  9.0660   1
   1  -9   3 87.2165  9.0937   1
  -1   9  -3 69.3429  8.3055   1
   1   9   3 82.6337  8.7051   1
  -2  -9  -3 38.6539  6.1703   1
  -2  -9  -3 33.9303  4.7829   4
   2  -9   3 50.1066  7.2422   1
  -2   9  -3 30.7108  6.2582   1
   2   9   3 38.0408  6.4834   1
  -3  -9  -3 65.6151  8.1814   1
   3  -9   3 77.9326  8.3748   1
  -3  -9  -3 80.4256  7.7018   4
   3   9   3 63.8568  7.4536   1
  -3   9  -3 74.3323  8.7768   1
  -4  -9  -3 1.44647 4.09990   1
  -4  -9  -3 1.27649 3.12240   4
   4  -9   3 2.10614 3.89124   1
   4   9   3 -6.4489  3.8961   1
  -4   9  -3 -0.0710  3.8694   1
   5  -9   3 167.262  12.220   1
  -5  -9  -3 161.831  11.907   1
  -5  -9  -3 168.867  12.033   4
   5  -9   3 157.742  10.786   5
  -5   9  -3 162.282  12.621   1
   5   9   3 159.349  11.181   1
   6  -9   3 56.9172  7.6231   1
   6  -9   3 61.7119  7.1673   5
  -6  -9  -3 70.7357  8.9207   4
  -6  -9  -3 54.2659  7.3195   1
   6   9   3 63.7355  7.4572   1
  -6   9  -3 81.9389  9.2895   1
  -6   9  -3 72.5268  9.7131   3
  -7  -9  -3 30.6869  5.7216   1
  -7  -9  -3 36.8672  7.2521   4
   7  -9   3 31.8024  5.7124   5
   7  -9   3 31.6687  5.9027   1
  -7   9  -3 31.9157  7.5060   3
  -7   9  -3 25.5424  5.7578   1
  -8  -9  -3 2.28032 3.25920   4
   8  -9   3 6.67958 3.90616   5
  -8  -9  -3 2.52448 3.03456   1
  -8   9  -3 -2.6858  3.9032   1
  -8   9  -3 3.01085 4.72378   3
   9  -9   3 99.9008  9.3209   5
  -9  -9  -3 96.1372  8.7499   1
  -9   9  -3 101.222  12.470   3
  -9   9  -3 102.687   9.965   1
  10  -9   3 40.6633  6.5982   5
 -10   9  -3 39.0777  9.3242   3
 -10   9  -3 32.3409  6.2804   1
 -11   9  -3 24.0138  5.4424   1
 -11  10   3 11.7645  4.9529   1
 -11  10   3 12.9753  6.5684   3
 -10  10   3 1.37847 3.01542   1
 -10  10   3 3.26592 5.30806   3
  -9 -10   3 7.12251 3.84499   1
   9 -10  -3 7.67987 4.87404   5
  -9  10   3 12.5566  5.2208   1
  -9  10   3 19.8816  6.8922   3
   8 -10  -3 18.1665  6.0579   5
  -8 -10   3 6.72938 3.91530   1
  -8  10   3 11.0732  4.7846   3
   8  10  -3 1.24712 3.47008   2
   7 -10  -3 117.693  10.943   1
   7 -10  -3 124.781  11.323   5
  -7 -10   3 123.243  10.804   1
  -7  10   3 129.498  12.028   1
  -7  10   3 114.525  12.590   3
   6 -10  -3 21.6428  5.8593   1
  -6 -10   3 19.0190  5.6512   1
   6  10  -3 16.2769  4.9749   1
  -6  10   3 21.3456  5.9809   1
   5 -10  -3 3.08349 3.82199   1
  -5 -10   3 -3.0714  3.0660   1
   5 -10  -3 -5.8674  4.5951   5
   5  10  -3 -0.6766  3.3529   1
  -5  10   3 -2.1801  4.4125   1
  -4 -10   3 2.36060 3.00299   1
   4 -10  -3 0.51684 2.85566   5
   4  10  -3 1.00409 3.66309   1
  -4  10   3 12.1151  5.1057   1
   3 -10  -3 3.90236 4.25833   1
   3 -10  -3 -3.9911  4.1722   5
  -3 -10   3 -3.3532  4.0533   1
   3  10  -3 15.6125  5.1254   1
  -3  10   3 0.47474 3.69333   1
   2 -10  -3 164.494  11.616   5
  -2 -10   3 165.106  12.906   1
   2 -10  -3 161.340  12.945   1
   2  10  -3 175.748  13.194   1
  -2  10   3 159.504  12.882   1
  -1 -10   3 67.5136  8.5501   1
   1 -10  -3 60.6689  8.0798   1
   1 -10  -3 73.6766  5.7197   4
  -1  10   3 63.4414  8.6318   1
   1  10  -3 68.0977  8.8067   1
   0 -10   3 72.9945  8.5420   1
   0 -10  -3 68.9943  8.4951   1
   0 -10  -3 84.6744  6.5761   4
   0  10   3 66.5924  8.7012   1
   0  10  -3 83.6823  9.5925   1
  -1 -10  -3 -0.2586  4.1465   1
   1 -10   3 9.55247 4.26180   1
  -1  10  -3 -0.6951  3.6904   1
   1  10   3 10.9409  4.7879   1
  -2 -10  -3 57.2508  8.4161   1
   2 -10   3 66.9193  8.3476   1
  -2 -10  -3 52.4362  6.2354   4
  -2  10  -3 54.0307  8.3037   1
   2  10   3 62.8834  7.9697   1
   3 -10   3 55.5673  8.1384   1
  -3 -10  -3 44.1425  7.4788   1
  -3 -10  -3 45.9811  6.2560   4
  -3  10  -3 56.9813  8.4006   1
   3  10   3 43.9839  7.0912   1
  -4 -10  -3 85.7403  8.8075   4
   4 -10   3 73.4620  8.7674   1
  -4 -10  -3 72.2173  8.8102   1
   4  10   3 70.7046  8.7326   1
  -4  10  -3 95.3336 10.4450   1
  -5 -10  -3 26.1220  5.7053   4
  -5 -10  -3 23.2441  5.7013   1
   5 -10   3 14.8634  5.1470   1
   5  10   3 19.8468  5.2138   1
  -5  10  -3 32.0951  6.3539   1
  -6 -10  -3 -4.2473  3.9951   1
  -6 -10  -3 13.2971  5.0927   4
   6 -10   3 5.17143 3.69392   5
   6 -10   3 1.71990 3.90691   1
  -6  10  -3 -3.9604  4.5790   3
   7 -10   3 50.7248  7.1136   5
  -7 -10  -3 46.2483  6.6948   1
   7 -10   3 53.6650  7.7297   1
  -7  10  -3 53.4583  9.2535   3
  -7  10  -3 52.9215  7.7103   1
  -8 -10  -3 7.76984 4.31057   4
   8 -10   3 6.89881 4.32735   5
  -8 -10  -3 9.67958 4.28837   1
  -8  10  -3 8.40970 5.02890   1
   9 -10   3 41.7474  6.9910   5
  -9 -10  -3 35.4322  6.1002   1
  -9  10  -3 28.9622  8.5202   3
  -9  10  -3 38.2787  6.6829   1
  10 -10   3 4.01483 3.94466   5
 -10 -10  -3 1.60231 2.92454   1
 -10  10  -3 -7.5173  6.7912   3
 -10  10  -3 -0.5684  3.4837   1
 -10 -11   3 17.0896  4.8912   1
 -10  11   3 23.9687  6.5704   1
  -9 -11   3 46.1393  7.2513   1
   9 -11  -3 50.3287  8.7572   5
  -9  11   3 35.4146  7.3589   1
  -8 -11   3 9.12889 4.74793   1
   8 -11  -3 5.89943 4.07811   5
  -8  11   3 10.9329  5.9243   3
  -8  11   3 18.0617  6.2043   1
  -7 -11   3 -0.0274  2.8654   1
   7 -11  -3 4.96630 4.62627   5
  -7  11   3 -7.2335  5.1705   3
  -6 -11   3 -0.7525  3.9443   1
   6 -11  -3 -3.4561  4.8557   5
  -5 -11   3 -6.1143  4.8657   1
   5 -11  -3 3.50926 4.95652   5
   5  11  -3 3.46467 3.85773   1
   4 -11  -3 10.8269  4.2849   5
  -4 -11   3 10.7583  5.2565   1
   4  11  -3 4.54885 4.33494   1
  -4  11   3 9.13384 4.66399   1
  -3 -11   3 21.2640  6.1343   1
   3 -11  -3 25.8568  6.2845   5
   3  11  -3 22.5320  5.6538   1
  -2 -11   3 67.0576  8.8838   1
  -2  11   3 87.4053 10.0768   1
   2  11  -3 91.6135 10.3627   1
  -1 -11   3 15.6697  5.6984   1
  -1  11   3 5.91027 4.42643   1
   1  11  -3 10.9804  4.3996   1
   0 -11   3 6.76281 4.79735   1
   0  11  -3 -0.6348  3.9776   1
   0  11   3 6.14578 4.09601   1
   1 -11   3 22.6292  6.3403   1
  -1 -11  -3 21.1356  4.0149   4
   1  11   3 37.5554  6.9904   1
  -1  11  -3 20.0368  6.2687   1
  -2 -11  -3 13.2843  3.9495   4
   2 -11   3 20.7801  6.3916   1
  -2  11  -3 25.3350  6.1359   1
   3 -11   3 40.7512  7.1286   1
  -3 -11  -3 42.8855  6.3899   4
  -3  11  -3 41.4970  7.9339   1
   3  11   3 46.2251  7.3477   1
  -4 -11  -3 3.98635 3.61916   4
   4 -11   3 -2.3676  4.2458   1
  -4  11  -3 13.5654  5.9416   1
   5 -11   3 39.7905  7.5366   1
  -5 -11  -3 26.3402  5.9725   4
  -5 -11  -3 35.5177  7.4147   1
   5  11   3 34.1244  6.8391   1
  -5  11  -3 17.8447  6.4158   1
  -6 -11  -3 -1.1127  3.5299   4
  -6 -11  -3 4.03454 4.27115   1
   6 -11   3 -8.2778  3.9707   1
  -6  11  -3 -4.8301  4.8421   1
   7 -11   3 -4.7829  3.8009   5
  -7 -11  -3 -5.2074  4.3872   1
  -7  11  -3 -11.838   6.153   3
   8 -11   3 34.3128  6.6216   5
  -8 -11  -3 40.6723  7.0498   1
  -8  11  -3 54.9689 10.3752   3
  -8  11  -3 39.7581  7.9822   1
  -9 -11  -3 8.51967 4.08620   1
   9 -11   3 1.86883 3.99222   5
  -9  11  -3 15.3066  6.8806   3
  -9  11  -3 19.5949  5.7792   1
   8 -12  -3 15.0384  5.2301   5
   8  12  -3 32.8723  7.6993   2
  -8  12   3 14.0851  6.7878   3
  -7 -12   3 19.8322  6.3190   1
   7 -12  -3 13.6078  6.1653   5
  -7  12   3 8.59730 5.51895   3
  -6 -12   3 21.0874  6.0041   1
   6 -12  -3 10.5994  5.9858   5
   5 -12  -3 34.3494  7.3735   5
  -5 -12   3 25.1468  6.0792   1
  -5  12   3 30.5580  6.8499   1
   5  12  -3 34.1530  7.2165   1
   4 -12  -3 58.8901  8.6014   5
  -4 -12   3 57.9710  8.7312   1
   4 -12  -3 67.0980  9.4772   1
   4  12  -3 76.2074  9.9143   1
  -3 -12   3 0.46932 4.59772   1
   3  12  -3 -11.796   5.666   1
  -2 -12   3 34.0715  7.4148   1
   2  12  -3 28.3759  6.3585   1
  -1 -12   3 -1.3895  4.1431   1
   1  12  -3 0.75080 4.27177   1
   0 -12   3 58.4841  9.2030   1
   0  12  -3 64.5141  9.6670   1
   1 -12   3 6.18646 4.99884   1
  -1  12  -3 -13.900   6.053   1
   2 -12   3 72.1335  9.9463   1
  -2  12  -3 47.6508  8.7885   1
   2  12   3 56.6819  8.5263   1
   3 -12   3 16.2921  5.8380   1
  -4 -12  -3 15.8632  5.1896   1
  -4 -12  -3 17.0849  4.8258   4
  -4  12  -3 15.8697  6.4017   1
  -5 -12  -3 15.3488  5.0000   4
   5 -12   3 4.82215 5.07189   1
  -5  12  -3 32.4779  7.0825   1
   6 -12   3 37.4239  7.7411   1
  -6 -12  -3 29.8599  6.6554   4
  -6 -12  -3 25.7106  6.2698   1
  -6  12  -3 26.3189  7.3865   1
  -7  12  -3 72.1554 10.5001   1
  -7  12  -3 67.6240 10.9284   3
  -8 -12  -3 -3.5223  3.4778   1
  -8  12  -3 15.6708  7.4108   3
  -8  12  -3 -0.8631  3.3600   1
   6 -13  -3 -2.6781  5.5230   5
   5 -13  -3 8.26228 6.05384   5
   5 -13  -3 -1.1490  3.4191   1
   5  13  -3 5.94997 5.25681   2
   4  13  -3 -7.7184  4.4625   2
   4  13  -3 2.99899 3.53536   1
  -3 -13   3 13.5126  5.4008   1
   3 -13  -3 19.7964  6.2131   1
  -2  13   3 45.3134  8.4163   1
   0  13   3 -5.0146  4.2368   1
   1 -13   3 13.1718  5.0545   1
   3  13   3 2.28309 3.49199   1
  -6 -13  -3 -10.218   4.857   4
  -6  13  -3 -1.1654  4.0748   3
   1 -14  -3 9.07521 5.02502   1
   2 -14   3 -1.6595  3.9411   1
  15   0  -4 1.50188 4.04925   5
 -15   0   4 -4.4360  5.1914   3
  14   0  -4 31.0343  5.8661   2
  14   0  -4 34.8280  7.2554   5
 -14   0   4 31.2657  8.0739   3
  13   0  -4 -1.4003  2.3661   2
 -13   0   4 -2.5158  5.0123   3
  13   0  -4 5.27872 4.50539   5
  12   0  -4 0.62515 4.13803   5
  12   0  -4 5.52989 2.86239   2
  11   0  -4 -2.1920  2.9455   5
 -11   0   4 10.2349  5.1206   3
  11   0  -4 0.54671 2.85588   2
  10   0  -4 11.4659  3.9145   2
  10   0  -4 13.6575  4.7500   5
   9   0  -4 0.57459 2.95837   2
   9   0  -4 0.80164 3.46837   5
  -8   0   4 271.209  13.810   3
   8   0  -4 274.105  12.338   2
   8   0  -4 260.864  13.465   5
  -8   0   4 266.244   6.530   1
  -8   0   4 258.035   6.601   1
   8   0  -4 269.235   6.584   1
   7   0  -4 11.5909  4.0504   5
  -7   0   4 1.03770 1.16661   1
  -7   0   4 0.00654 2.82375   3
   7   0  -4 3.60644 2.90984   2
   6   0  -4 909.798  15.850   1
  -6   0   4 887.003  15.732   1
  -6   0   4 922.426  22.780   3
  -6   0   4 916.388  16.052   1
   6   0  -4 932.731  21.537   2
   5   0  -4 0.72890 1.09977   1
   5   0  -4 2.62912 2.46548   2
  -5   0   4 1.49563 1.03217   1
  -5   0   4 -3.8684  2.2141   3
   4   0  -4 1270.85   19.96   1
  -4   0   4 1210.56   22.74   3
   4   0  -4 1256.01   19.98   1
  -4   0   4 1257.51   20.38   1
  -4   0   4 1257.87   19.96   1
   4   0  -4 1255.36   23.04   2
   4   0  -4 1235.16   22.59   3
   3   0  -4 2.93673 4.03732   2
   3   0  -4 4.59397 1.47123   1
  -2   0   4 6992.69   97.02   1
   2   0  -4 7110.63   81.89   2
   1   0  -4 0.57463 1.50972   1
  -1   0   4 1.13313 1.54437   1
  -1   0   4 0.65668 1.04609   1
   1   0  -4 0.49520 3.44939   2
   0   0   4 3109.15   39.60   1
   0   0  -4 3091.92   39.38   1
   0   0  -4 3088.02   38.01   2
   0   0   4 2962.75   39.41   1
  -1   0  -4 2.02039 0.93169   3
   1   0   4 1.87560 0.88288   3
   1   0   4 4.68001 1.59435   1
   2   0   4 29.6846  2.6379   1
  -2   0  -4 28.8518  2.7019   3
  -2   0  -4 31.1991  2.5811   1
   2   0   4 30.6402  2.7149   3
   2   0   4 29.3538  2.4822   1
   2   0   4 30.8847  2.3124   2
  -2   0  -4 27.1602  2.4086   1
  -2   0  -4 34.7629  2.6921   2
  -3   0  -4 2.22246 1.46801   3
   3   0   4 1.19193 1.17777   2
   3   0   4 1.60853 1.06223   1
  -3   0  -4 -0.7408  1.0842   1
   4   0   4 406.563  10.033   2
   4   0   4 408.759   7.821   5
   4   0   4 401.417   9.494   1
  -4   0  -4 403.702   9.640   1
  -4   0  -4 398.090   9.466   1
   4   0   4 397.309   9.200   1
  -4   0  -4 402.536  12.961   3
  -5   0  -4 1.79157 1.09100   1
  -5   0  -4 1.29884 2.29365   3
   5   0   4 -1.1122  0.8745   5
   5   0   4 2.68759 1.03302   1
  -5   0  -4 0.71908 0.85837   1
   6   0   4 449.970  11.062   5
  -6   0  -4 448.423  14.780   4
  -6   0  -4 456.945   9.812   1
  -6   0  -4 452.381  16.490   3
   6   0   4 436.290   9.333   1
   7   0   4 -0.4828  0.6521   1
  -7   0  -4 -0.8863  0.7911   1
  -7   0  -4 0.68238 0.94665   1
  -7   0  -4 0.19887 3.01066   4
   7   0   4 -0.5221  1.5289   5
  -7   0  -4 -1.4801  3.3517   3
  -8   0  -4 92.6845  7.9842   4
  -8   0  -4 89.5193  8.9647   3
   8   0   4 88.8741  5.7422   5
  -9   0  -4 1.33272 3.39082   4
   9   0   4 -1.6616  1.9995   5
  -9   0  -4 3.23096 4.16536   3
 -10   0  -4 146.302  12.404   3
  10   0   4 138.807   8.166   5
 -10   0  -4 147.206  11.084   4
  11   0   4 -2.7176  2.5343   2
 -11   0  -4 -1.4406  3.8527   4
  11   0   4 -0.3867  2.1159   5
 -11   0  -4 -7.8231  5.1327   3
  12   0   4 97.4955  8.3641   2
 -12   0  -4 89.7156 11.1269   3
 -13   0  -4 1.71215 5.35804   3
 -14   0  -4 114.675  13.542   3
  15  -1  -4 39.8936  7.3449   5
  15   1  -4 50.3191  7.3698   2
 -15   1   4 57.3291 10.1658   3
  15   1  -4 38.9590  7.8561   5
  14  -1  -4 5.10897 5.13284   5
 -14   1   4 0.51265 5.04330   3
  14   1  -4 15.6892  6.1342   5
  14   1  -4 -0.3764  3.6485   2
  13  -1  -4 69.6068  7.4449   2
  13  -1  -4 54.0890  8.3145   5
  13   1  -4 59.3829  8.3910   5
 -13   1   4 76.3686 10.0230   3
  12  -1  -4 22.0585  5.8155   5
 -12  -1   4 30.6261  6.9658   3
  12  -1  -4 29.9109  4.7820   2
  12   1  -4 27.5763  6.4289   5
 -12   1   4 23.3934  6.4800   3
  11  -1  -4 40.9680  5.6313   2
 -11  -1   4 54.2678  7.9610   3
  11  -1  -4 54.0030  7.6313   5
  11   1  -4 61.4253  7.3511   2
  11   1  -4 35.9995  6.3239   5
 -11   1   4 52.8922  8.4116   3
 -10  -1   4 517.539  21.179   3
  10  -1  -4 506.615  20.738   5
  10  -1  -4 522.741  18.082   2
 -10   1   4 538.129  22.372   3
  10   1  -4 532.810  19.935   2
  10   1  -4 532.301  21.597   5
  -9  -1   4 -4.5649  3.7878   3
   9  -1  -4 -9.5092  4.1613   5
   9  -1  -4 -1.3820  2.7398   2
  -9   1   4 4.83900 4.17926   3
   9   1  -4 -1.3719  2.5469   2
  -8  -1   4 238.413  12.842   3
   8  -1  -4 237.196  10.900   2
   8  -1  -4 230.056   6.849   1
   8  -1  -4 238.491  12.950   5
   8   1  -4 236.655  11.987   2
  -8   1   4 241.325   7.141   1
  -8   1   4 248.672  13.184   3
   7  -1  -4 34.3136  5.2522   5
  -7  -1   4 36.4008  2.7094   1
   7  -1  -4 33.9592  4.3977   2
  -7  -1   4 42.1490  5.4914   3
   7  -1  -4 37.0124  2.8831   1
  -7   1   4 36.4038  2.9662   1
   7   1  -4 38.7099  4.7604   2
   7   1  -4 33.4357  2.5144   1
  -7   1   4 36.0100  5.2629   3
   6  -1  -4 879.544  16.196   1
  -6  -1   4 863.454  15.360   1
  -6  -1   4 845.659  15.393   1
   6  -1  -4 894.464  19.917   2
  -6  -1   4 884.463  21.854   3
   6  -1  -4 895.629  23.193   5
  -6   1   4 891.093  22.891   3
  -6   1   4 858.957  16.045   1
   6   1  -4 853.741  21.355   2
   6   1  -4 878.696  15.383   1
  -6   1   4 860.282  16.270   1
  -5  -1   4 331.643   8.840   1
  -5  -1   4 314.966   8.438   1
   5  -1  -4 316.452  10.513   2
  -5  -1   4 323.981  11.377   3
   5  -1  -4 328.571   8.987   1
   5  -1  -4 324.272  12.446   5
  -5   1   4 320.576   9.071   1
   5   1  -4 319.588   8.520   1
  -5   1   4 319.819   8.895   1
   5   1  -4 325.544  11.805   2
  -5   1   4 326.529  11.881   3
   4  -1  -4 815.872  15.565   1
   4  -1  -4 800.634  19.267   5
  -4  -1   4 776.553  16.793   3
  -4  -1   4 816.682  15.146   1
  -4  -1   4 787.020  15.120   1
   4  -1  -4 854.897  17.431   3
   4  -1  -4 801.185  16.669   2
   4   1  -4 830.439  17.609   3
  -4   1   4 823.362  15.670   1
  -4   1   4 807.041  15.604   1
   4   1  -4 817.774  15.098   1
   4   1  -4 798.109  18.202   2
  -4   1   4 837.990  18.188   3
   3  -1  -4 2303.60   35.89   5
  -3  -1   4 2297.36   31.63   1
  -3  -1   4 2278.09   31.69   1
   3  -1  -4 2256.47   31.76   1
   3  -1  -4 2293.28   32.62   2
   3  -1  -4 2303.25   31.99   1
   3   1  -4 2311.73   31.67   1
   3   1  -4 2251.96   32.22   3
  -3   1   4 2232.13   31.63   1
   3   1  -4 2268.34   34.45   2
  -3   1   4 2318.61   32.34   1
  -3   1   4 2284.94   32.83   2
  -3   1   4 2345.27   33.41   3
  -2  -1   4 9.40032 1.63284   1
   2  -1  -4 7.24014 1.54780   1
  -2  -1   4 6.28534 1.92361   2
   2  -1  -4 12.5596  7.5128   5
   2  -1  -4 11.7043  2.1070   1
   2   1  -4 5.03449 1.61838   1
  -2   1   4 9.40993 3.06075   1
   2   1  -4 9.30412 1.70576   1
  -2   1   4 8.48796 1.59538   3
  -1  -1   4 3122.97   40.94   1
   1  -1  -4 3093.80   49.90   1
   1  -1  -4 3235.55   41.76   1
  -1  -1   4 3200.14   40.99   2
   1  -1  -4 3198.12   40.51   2
  -1  -1   4 3137.60   41.17   1
   1  -1  -4 3245.60   41.52   5
  -1   1   4 3274.23   41.92   1
   1   1  -4 3176.39   40.72   2
  -1   1   4 3290.46   41.62   5
  -1   1   4 3152.70   43.55   1
   1   1  -4 3245.45   41.34   1
   0  -1  -4 4088.95   47.66   5
   0  -1   4 4058.10   48.09   2
   0  -1   4 4049.43   50.00   1
   0  -1  -4 3869.67   55.10   1
   0  -1  -4 4022.51   48.75   2
   0   1  -4 3918.32   49.63   1
   0   1   4 3899.07   49.73   1
   0   1  -4 4056.31   47.88   2
   0   1   4 4124.98   47.99   5
   0   1   4 4003.28   57.69   1
  -1  -1  -4 1646.83   24.93   1
  -1  -1  -4 1703.67   24.58   2
  -1  -1  -4 1710.43   21.02   5
  -1  -1  -4 1663.34   25.21   1
   1  -1   4 1667.34   25.23   1
   1  -1   4 1692.05   25.07   1
   1  -1   4 1689.39   22.49   2
   1   1   4 1715.33   24.20   2
   1   1   4 1668.44   25.11   1
  -1   1  -4 1629.14   25.01   1
  -1   1  -4 1709.45   25.36   1
   1   1   4 1652.33   24.68   1
  -1   1  -4 1725.90   22.57   2
  -1   1  -4 1721.14   23.68   3
   1   1   4 1711.99   21.34   5
   2  -1   4 226.452   7.196   3
  -2  -1  -4 230.626   7.335   1
   2  -1   4 222.216   7.164   1
  -2  -1  -4 226.331   7.199   1
   2  -1   4 227.663   5.606   2
   2  -1   4 222.546   7.014   1
  -2   1  -4 231.033   7.337   1
  -2   1  -4 222.547   4.465   5
   2   1   4 228.423   4.332   5
  -2   1  -4 227.732   7.300   1
  -2   1  -4 224.527   7.446   3
   2   1   4 226.112   7.141   1
   2   1   4 237.994   7.214   1
  -2   1  -4 231.638   5.727   2
   2   1   4 229.441   7.469   3
   2   1   4 221.291   6.882   2
  -3  -1  -4 160.045   6.980   3
   3  -1   4 157.900   6.930   3
  -3  -1  -4 166.846   6.058   1
   3  -1   4 156.907   5.760   1
   3  -1   4 161.776   5.991   1
   3  -1   4 158.639   4.683   2
   3  -1   4 162.853   3.874   5
  -3  -1  -4 164.452   5.981   1
   3   1   4 154.610   6.978   3
   3   1   4 162.067   5.870   1
   3   1   4 160.717   5.769   1
  -3   1  -4 154.638   5.811   1
  -3   1  -4 160.931   4.246   5
   3   1   4 158.666   6.190   2
   3   1   4 150.665   5.699   1
  -3   1  -4 158.632   6.032   1
  -3   1  -4 159.736   7.138   3
   4  -1   4 17.7820  1.6246   5
  -4  -1  -4 16.7345  2.7334   3
  -4  -1  -4 16.4378  2.0593   1
   4  -1   4 15.6039  1.7347   2
   4  -1   4 17.6823  2.1085   1
  -4  -1  -4 15.2808  1.9166   1
  -4   1  -4 17.8223  3.0819   3
  -4   1  -4 19.1066  2.2066   1
  -4   1  -4 17.2409  2.1292   1
   4   1   4 15.6886  2.0149   1
  -5  -1  -4 195.368   9.733   3
  -5  -1  -4 189.924   6.274   1
   5  -1   4 193.801   6.338   2
   5  -1   4 182.937   6.330   1
   5  -1   4 200.323   6.192   5
  -5  -1  -4 179.295   6.059   1
  -5   1  -4 183.346   6.439   1
   5   1   4 193.250   6.196   1
  -5   1  -4 184.353   6.355   1
  -5   1  -4 196.970   9.971   3
  -6  -1  -4 3.59936 2.83828   4
  -6  -1  -4 3.28123 2.40515   3
   6  -1   4 6.03190 1.67398   5
   6  -1   4 1.62197 0.95978   1
   6  -1   4 3.66830 1.31656   2
  -6  -1  -4 3.55050 1.16456   1
  -6   1  -4 4.79515 1.35930   1
   6   1   4 3.42685 1.09973   1
  -6   1  -4 4.14096 3.19892   3
  -6   1  -4 7.49989 2.61296   4
  -7  -1  -4 239.774  12.657   3
  -7  -1  -4 253.230   6.486   1
   7  -1   4 269.870   9.120   5
  -7  -1  -4 268.145  12.737   4
   7  -1   4 264.188   7.252   1
  -7  -1  -4 260.767   6.526   1
   7   1   4 260.086   6.358   1
  -7   1  -4 274.128  13.950   3
  -7   1  -4 256.810  11.466   4
  -7   1  -4 258.391   7.283   1
  -8  -1  -4 267.974  13.677   4
  -8  -1  -4 286.607  14.916   3
   8  -1   4 284.967  10.210   5
  -8   1  -4 254.639  12.517   4
   8   1   4 274.569  10.335   5
  -8   1  -4 277.393  14.898   3
  -9  -1  -4 356.646  17.583   3
  -9  -1  -4 365.664  16.934   4
   9  -1   4 354.744  12.312   5
   9   1   4 350.319  12.678   5
  -9   1  -4 335.209  17.622   3
  -9   1  -4 353.569  15.395   4
 -10  -1  -4 52.0702  7.9148   3
  10  -1   4 63.4311  5.8015   2
  10  -1   4 56.1181  5.2696   5
  10   1   4 57.4337  5.4418   5
 -10   1  -4 66.4146  7.5702   4
 -10   1  -4 75.9659  9.3630   3
  11  -1   4 71.1246  6.4320   2
  11  -1   4 75.9392  6.4737   5
 -11  -1  -4 72.0789  9.2320   3
 -11   1  -4 82.3184  8.6534   4
  11   1   4 76.1450  6.5951   5
 -11   1  -4 63.9933  9.2808   3
 -12  -1  -4 16.0796  5.1219   4
 -12   1  -4 13.6405  6.1121   3
 -13   1  -4 -1.7765  4.4376   3
 -14   1  -4 5.72144 3.88966   4
 -14   1  -4 -2.2033  4.0163   3
  15  -2  -4 216.833  16.274   5
 -15   2   4 217.466  18.524   3
  15   2  -4 220.522  16.999   5
  14  -2  -4 7.70362 5.08963   5
  14   2  -4 5.59200 4.86681   5
  13  -2  -4 27.5231  6.5589   5
 -13   2   4 42.6755  8.4709   3
  13   2  -4 33.2631  7.1555   5
  12  -2  -4 17.6375  3.8663   2
  12  -2  -4 16.0704  5.4190   5
  12   2  -4 21.2437  5.9493   5
 -12   2   4 21.0475  6.1181   3
  11  -2  -4 67.7011  6.4240   2
  11  -2  -4 72.7502  8.5978   5
  11   2  -4 56.3583  7.5155   2
 -11   2   4 56.7485  8.6232   3
  10  -2  -4 66.6947  8.0581   5
  10  -2  -4 57.2099  5.8539   2
 -10   2   4 57.8928  8.0355   3
  10   2  -4 60.5824  7.5312   2
   9  -2  -4 95.6350  7.0267   2
   9  -2  -4 91.7612  8.6498   5
   9   2  -4 83.1817  8.3058   2
  -9   2   4 92.3132  4.7214   1
  -9   2   4 95.8749  9.0828   3
   8  -2  -4 97.8954  4.9921   1
  -8  -2   4 99.4057  4.4498   1
   8  -2  -4 91.1182  8.2945   5
   8  -2  -4 104.079   6.742   2
  -8   2   4 105.741   9.121   3
  -8   2   4 99.9973  5.0763   1
  -8   2   4 98.3184  5.1838   1
   8   2  -4 88.8418  7.7786   2
   8   2  -4 100.551   4.302   1
  -7  -2   4 41.5493  3.2189   1
   7  -2  -4 50.1576  4.7306   2
   7  -2  -4 56.5635  6.4486   5
   7  -2  -4 46.6115  3.6282   1
  -7   2   4 43.2845  3.6848   1
   7   2  -4 61.0667  6.5017   2
  -7   2   4 53.0179  5.9473   3
  -7   2   4 46.9223  3.6242   1
   7   2  -4 42.9211  3.0807   1
   6  -2  -4 5.23525 1.97268   2
  -6   2   4 5.28432 1.87474   1
  -6   2   4 7.07343 1.78811   1
   6   2  -4 6.38728 1.50166   1
  -6   2   4 9.15010 3.25672   3
   6   2  -4 7.16503 2.80774   2
  -5  -2   4 288.680   8.737   1
  -5  -2   4 293.490   8.823   1
   5  -2  -4 301.814  12.125   5
   5  -2  -4 301.078   9.709   2
   5  -2  -4 299.986   9.432   1
   5   2  -4 302.791   8.760   1
  -5   2   4 294.220   9.461   1
   5   2  -4 292.070  11.829   2
  -5   2   4 304.311  11.772   3
  -5   2   4 296.670   9.283   1
  -4  -2   4 142.182   6.090   1
  -4  -2   4 143.802   6.084   1
   4  -2  -4 142.565   7.894   5
   4  -2  -4 151.768   6.277   2
   4  -2  -4 143.789   6.422   1
   4   2  -4 151.702   6.925   3
  -4   2   4 142.300   7.204   3
  -4   2   4 143.799   6.301   1
   4   2  -4 144.413   7.863   2
  -4   2   4 140.783   6.435   1
  -4   2   4 146.110   6.433   2
   4   2  -4 144.554   6.047   1
   3  -2  -4 229.723   9.064   5
  -3  -2   4 222.072   7.597   1
  -3  -2   4 228.698   7.874   1
   3  -2  -4 233.376   7.528   2
   3  -2  -4 235.007   8.275   1
  -3   2   4 220.640   8.078   1
  -3   2   4 238.407   8.246   3
   3   2  -4 241.660   7.865   1
   3   2  -4 227.957   7.496   3
  -3   2   4 233.764   7.701   2
  -3   2   4 221.766   7.909   1
   3   2  -4 234.316   9.136   2
   2  -2  -4 18.2815  2.1914   2
  -2  -2   4 21.6317  2.6448   2
   2  -2  -4 23.8755  2.8637   1
   2  -2  -4 19.7001  2.9237   5
  -2  -2   4 20.2693  2.4742   1
  -2  -2   4 18.2819  2.6005   1
   2   2  -4 22.0388  2.4089   1
   2   2  -4 16.4919  2.7764   2
  -2   2   4 21.7252  2.6712   5
  -2   2   4 23.4735  2.7432   1
  -2   2   4 21.7630  2.7047   1
   2   2  -4 18.3820  2.3975   1
  -2   2   4 21.9602  2.4224   2
  -1  -2   4 0.11489 1.03138   2
   1  -2  -4 4.34973 1.64760   1
   1  -2  -4 -0.7022  1.0823   2
   1  -2  -4 4.18589 1.94619   1
   1   2  -4 3.95231 1.81133   2
  -1   2   4 2.05986 1.25477   1
   1   2  -4 1.65001 1.70154   1
  -1   2   4 5.06290 1.51814   2
   1   2  -4 1.19832 1.33645   1
   0  -2  -4 649.561  14.306   1
   0  -2   4 649.403  14.004   1
   0  -2  -4 646.070  14.315   1
   0  -2  -4 691.206  13.680   2
   0  -2  -4 661.223  12.501   5
   0  -2   4 669.170  14.562   1
   0  -2   4 666.928  12.646   2
   0   2   4 632.271  14.041   1
   0   2  -4 642.057  14.085   1
   0   2   4 654.433  12.644   5
   0   2   4 654.515  14.351   1
   0   2  -4 647.935  12.276   2
   0   2   4 654.852  13.010   2
   0   2  -4 674.752  14.457   1
  -1  -2  -4 559.415  12.999   1
  -1  -2  -4 587.297  12.926   2
   1  -2   4 570.719  10.659   2
  -1  -2  -4 532.650  12.778   1
   1  -2   4 540.464  12.574   1
   1  -2   4 576.881  13.312   1
  -1  -2  -4 571.225  10.419   5
  -1  -2  -4 560.566  13.034   1
   1   2   4 558.855  10.503   5
  -1   2  -4 532.238  12.829   1
   1   2   4 553.601  12.058   2
   1   2   4 536.724  12.507   1
   1   2   4 556.714  12.924   1
  -1   2  -4 584.124  10.448   5
  -1   2  -4 561.237  13.509   2
  -1   2  -4 534.547  12.699   1
   2  -2   4 284.691   9.069   1
   2  -2   4 299.899   6.179   2
  -2  -2  -4 286.658   8.938   1
  -2  -2  -4 295.108   9.074   1
  -2   2  -4 303.165   6.945   5
  -2   2  -4 305.706   9.255   1
   2   2   4 290.037   6.564   5
  -2   2  -4 286.494   9.025   1
  -2   2  -4 296.975   6.030   2
   2   2   4 297.653   9.012   1
  -2   2  -4 294.215   9.031   3
   2   2   4 298.390   8.986   2
   3  -2   4 428.155   7.504   2
  -3  -2  -4 417.561  10.870   1
   3  -2   4 431.721   8.743   5
  -3  -2  -4 429.977  11.091   1
   3  -2   4 434.892  11.324   1
  -3   2  -4 427.533  12.688   3
   3   2   4 435.499   8.551   5
  -3   2  -4 440.181  11.508   1
   3   2   4 431.437  10.914   1
  -3   2  -4 424.846   9.206   5
  -3   2  -4 441.949  11.546   1
   4  -2   4 0.16509 0.96330   5
   4  -2   4 1.54341 1.37530   1
   4  -2   4 2.02765 0.65576   2
  -4  -2  -4 1.53044 1.20112   1
  -4  -2  -4 1.10641 1.35975   1
  -4   2  -4 5.29518 2.02516   3
  -4   2  -4 3.54794 1.60488   1
   4   2   4 0.78293 1.18497   1
  -4   2  -4 -0.3348  1.0164   1
   5  -2   4 1615.30   25.86   1
  -5  -2  -4 1603.03   25.07   1
  -5  -2  -4 1626.63   25.17   1
   5  -2   4 1624.83   24.59   5
  -5   2  -4 1684.99   33.77   3
  -5   2  -4 1616.47   26.08   1
  -5   2  -4 1574.35   25.85   1
  -5   2  -4 1549.64   26.73   4
  -5   2  -4 1615.83   25.74   5
  -6  -2  -4 206.220  11.051   4
   6  -2   4 222.097   7.832   5
   6  -2   4 227.035   6.491   2
  -6  -2  -4 226.684   7.272   1
  -6  -2  -4 226.409   7.267   1
   6  -2   4 226.295   7.740   1
  -6   2  -4 213.714   7.730   1
   6   2   4 223.820   7.036   1
  -6   2  -4 221.059   7.794   1
  -6   2  -4 220.990   9.268   4
  -6   2  -4 228.278  12.059   3
  -7  -2  -4 24.0455  2.2501   1
   7  -2   4 23.0087  2.3168   2
   7  -2   4 30.1995  2.8177   1
   7  -2   4 26.9923  3.1975   5
  -7  -2  -4 23.8282  4.9208   4
  -7   2  -4 31.6075  3.0196   1
  -7   2  -4 25.6432  5.3633   3
  -7   2  -4 28.9421  2.7992   1
  -7   2  -4 25.6587  3.9528   4
   7   2   4 25.9549  2.2505   1
   8  -2   4 89.4817  4.4299   1
   8  -2   4 91.3880  5.3348   2
  -8  -2  -4 97.3760  8.9195   4
   8  -2   4 92.2218  5.9262   5
  -8   2  -4 94.0689  7.2309   4
  -8   2  -4 89.1324  9.0753   3
  -8   2  -4 85.6623  4.5003   1
   9  -2   4 124.541   7.389   5
  -9  -2  -4 127.680  10.627   4
   9  -2   4 119.862   6.491   2
  -9   2  -4 122.326  10.729   3
  -9   2  -4 117.204   4.662   1
  -9   2  -4 126.790   8.920   4
 -10  -2  -4 13.6732  4.9511   4
  10  -2   4 12.6803  3.0518   5
  10  -2   4 13.3028  2.6938   2
  10   2   4 13.6478  3.2295   5
 -10   2  -4 12.0013  4.0073   4
  11  -2   4 12.1024  3.1388   5
 -11   2  -4 25.7606  6.2851   3
 -11   2  -4 12.9471  4.2524   4
 -12   2  -4 5.83408 5.27519   3
 -12   2  -4 1.48580 3.40902   4
 -13  -2  -4 14.2344  5.2576   4
 -13   2  -4 15.1717  4.3283   4
 -13   2  -4 26.8497  7.7256   3
 -14   2  -4 31.6335  7.6942   3
  15  -3  -4 18.7402 13.0832   5
 -15   3   4 13.5044  7.0638   3
  15   3  -4 12.8896  6.1586   5
  14  -3  -4 4.91604 3.70178   5
 -14   3   4 -3.0303  4.2623   3
  14   3  -4 6.42041 4.64563   2
  13  -3  -4 15.8780  5.4690   5
  13   3  -4 23.1149  5.4191   2
  13   3  -4 9.67473 4.35361   5
 -13   3   4 11.9871  6.1783   3
  12  -3  -4 9.00081 2.88144   2
  12  -3  -4 10.7497  4.9167   5
 -12   3   4 3.46654 5.03493   3
  12   3  -4 -5.3826  4.2764   2
  11  -3  -4 63.5359  8.2474   5
  11  -3  -4 59.4423  5.8040   2
 -11   3   4 65.9733  9.0087   3
  11   3  -4 57.2704  7.9012   2
  10  -3  -4 289.209  15.737   5
  10  -3  -4 270.108  11.597   2
 -10   3   4 274.103   9.065   1
 -10   3   4 270.654  16.572   3
  10   3  -4 270.045  15.357   2
   9  -3  -4 411.948  13.876   2
  -9  -3   4 407.792  10.027   1
   9  -3  -4 433.885  18.460   5
   9   3  -4 438.658  18.749   2
  -9   3   4 439.392  12.367   1
  -9   3   4 419.046  19.251   3
  -8  -3   4 29.1893  2.9619   1
   8  -3  -4 29.3459  3.3183   1
   8  -3  -4 28.1088  5.5028   5
   8  -3  -4 28.8914  3.8667   2
  -8   3   4 33.0540  6.1326   3
   8   3  -4 27.6828  2.7260   1
   8   3  -4 29.3949  5.2106   2
  -8   3   4 31.5941  3.5693   1
   7  -3  -4 241.977   9.264   1
   7  -3  -4 233.004  12.408   5
   7  -3  -4 234.557   9.251   2
  -7  -3   4 238.060   8.385   1
  -7  -3   4 240.727   8.341   1
   7   3  -4 244.179  12.800   2
   7   3  -4 236.338   8.110   1
  -7   3   4 242.501   9.149   1
  -7   3   4 242.044  12.778   3
  -7   3   4 231.541   9.150   1
  -6  -3   4 35.7975  3.4760   1
  -6  -3   4 43.2538  3.6485   1
   6  -3  -4 46.9326  4.2341   1
   6  -3  -4 50.7843  6.0140   5
   6  -3  -4 44.3474  4.0515   2
  -6   3   4 39.0948  5.0068   3
   6   3  -4 40.6227  5.4091   2
  -6   3   4 42.9866  3.9293   1
   6   3  -4 40.3582  3.4941   1
  -6   3   4 43.1108  4.2035   1
   5  -3  -4 8.48090 1.93827   2
   5  -3  -4 8.04776 2.14062   1
  -5  -3   4 10.2818  2.2647   1
   5   3  -4 10.1095  2.1425   1
  -5   3   4 5.03512 2.16186   1
  -5   3   4 8.61728 3.01070   3
   5   3  -4 13.4503  3.6609   2
  -5   3   4 11.1305  2.2378   1
  -4  -3   4 27.3465  3.2608   1
   4  -3  -4 25.5046  2.8333   2
  -4  -3   4 25.3979  2.9676   1
   4  -3  -4 25.2932  3.0706   1
   4  -3  -4 34.0261  4.4253   5
  -4   3   4 18.4520  2.8216   1
  -4   3   4 26.1046  3.4349   1
   4   3  -4 24.3088  4.1265   2
   4   3  -4 26.8347  2.9669   1
  -4   3   4 20.3059  3.0823   3
  -3  -3   4 8.75470 2.03761   1
   3  -3  -4 14.7452  3.0891   5
   3  -3  -4 9.61853 2.05605   2
  -3  -3   4 13.4238  2.5269   1
   3  -3  -4 8.18874 2.35538   1
  -3   3   4 11.2337  2.1161   1
  -3   3   4 9.69664 2.53449   1
  -3   3   4 13.2133  2.0801   2
   3   3  -4 8.81415 2.17618   1
   2  -3  -4 367.452  11.557   1
  -2  -3   4 380.432  11.313   1
   2  -3  -4 373.891  11.345   5
  -2  -3   4 368.059  11.103   1
   2  -3  -4 390.169  10.063   2
   2   3  -4 374.156  10.554   4
   2   3  -4 377.832  11.634   2
  -2   3   4 375.807   9.873   2
   2   3  -4 397.501  11.429   1
  -2   3   4 360.522  11.139   1
  -2   3   4 354.147  11.380   1
  -1  -3   4 130.331   6.430   1
   1  -3  -4 128.514   6.690   1
   1  -3  -4 133.772   5.855   2
   1  -3  -4 138.502   6.234   5
  -1  -3   4 133.258   6.656   1
  -1   3   4 137.394   6.262   5
   1   3  -4 132.065   6.449   1
  -1   3   4 130.871   6.749   1
   1   3  -4 130.338   6.131   2
  -1   3   4 131.913   6.488   1
   1   3  -4 128.659   5.264   4
  -1   3   4 140.542   5.727   2
   0  -3  -4 324.533  10.585   1
   0  -3  -4 306.842  10.185   1
   0  -3  -4 317.242   9.557   2
   0  -3  -4 329.299   9.031   5
   0  -3   4 317.224  10.421   1
   0   3  -4 326.194   8.604   2
   0   3  -4 324.465  10.453   1
   0   3   4 316.660  10.479   1
   0   3   4 315.195   9.042   5
   0   3   4 315.844   9.057   2
   1  -3   4 343.383  10.821   1
  -1  -3  -4 336.746  10.743   1
  -1  -3  -4 346.535  10.969   1
  -1  -3  -4 354.459   9.034   5
  -1   3  -4 336.427  10.788   1
   1   3   4 348.160  10.937   1
  -1   3  -4 348.708   8.921   5
  -1   3  -4 340.403   7.741   2
  -1   3  -4 335.913  10.763   1
   1   3   4 350.820   9.043   5
   2  -3   4 255.355   9.378   1
  -2  -3  -4 256.281   9.253   1
   2  -3   4 269.115   5.969   2
  -2  -3  -4 250.383   9.037   1
  -2   3  -4 247.606   9.221   1
   2   3   4 256.270   9.185   1
  -2   3  -4 258.777   5.488   2
  -2   3  -4 259.720   7.521   5
   2   3   4 264.566   7.455   5
  -2   3  -4 257.775   9.444   1
  -3  -3  -4 2587.73   37.81   1
  -3  -3  -4 2493.11   37.27   1
   3  -3   4 2514.48   34.15   5
   3  -3   4 2523.13   38.00   1
  -3   3  -4 2504.35   34.92   5
   3   3   4 2538.48   37.32   1
   3   3   4 2523.61   34.19   5
  -3   3  -4 2541.13   38.25   1
  -3   3  -4 2515.68   40.06   3
  -4  -3  -4 19.0427  2.6289   1
   4  -3   4 16.9847  2.7970   1
  -4  -3  -4 14.7583  2.4572   1
   4  -3   4 16.8892  2.2764   5
   4   3   4 21.4137  2.8346   1
  -4   3  -4 13.0733  2.6920   1
  -4   3  -4 18.1442  2.0306   4
  -4   3  -4 18.0890  3.2846   3
  -4   3  -4 13.1340  2.4465   1
   4   3   4 20.3314  2.2120   5
  -4   3  -4 13.5564  2.1766   5
  -5  -3  -4 86.8668  5.1269   1
   5  -3   4 91.4339  4.9809   5
   5  -3   4 88.3971  5.5022   1
  -5  -3  -4 92.9477  5.3945   1
  -5   3  -4 96.5256  7.5469   3
  -5   3  -4 84.2062  4.7400   4
  -5   3  -4 82.9231  5.3843   1
  -5   3  -4 90.9410  5.7086   1
   5   3   4 91.7510  5.1656   1
   6  -3   4 4.77820 1.82145   1
  -6  -3  -4 3.15796 1.49552   1
  -6  -3  -4 3.94720 1.66725   1
  -6  -3  -4 2.60494 2.59469   4
   6   3   4 2.59695 1.36421   1
  -6   3  -4 4.46469 2.75983   3
  -6   3  -4 2.13503 1.83014   1
  -6   3  -4 5.21081 1.83539   1
  -6   3  -4 2.59074 1.74993   4
   7  -3   4 375.774  11.805   5
   7  -3   4 355.570   7.328   2
   7  -3   4 362.057  11.091   1
  -7  -3  -4 381.610  10.454   1
  -7  -3  -4 370.082  16.198   4
   7  -3   4 367.903   7.959   2
  -7  -3  -4 361.639  10.200   1
  -7   3  -4 359.333  11.212   1
  -7   3  -4 381.789  17.241   3
  -7   3  -4 365.441  12.305   4
  -7   3  -4 371.273  11.409   1
   7   3   4 358.633   9.810   1
  -8  -3  -4 4.33933 1.40089   1
   8  -3   4 5.85481 1.16655   2
  -8  -3  -4 6.73710 4.49233   4
  -8   3  -4 2.44315 1.72419   1
  -8   3  -4 4.15996 4.26597   3
   9  -3   4 132.198   7.707   5
   9  -3   4 132.511   5.522   2
  -9  -3  -4 131.866  11.164   4
  -9   3  -4 137.618  11.919   3
  -9   3  -4 125.886   5.967   1
  -9   3  -4 140.090   8.800   4
  10  -3   4 55.6877  5.5109   5
 -10   3  -4 56.8140  8.0731   3
 -10   3  -4 56.7328  3.6183   1
 -10   3  -4 60.3559  6.3685   4
  11  -3   4 9.65954 3.03583   5
 -11   3  -4 9.99061 3.32812   4
 -12   3  -4 25.9594  6.8427   3
 -13   3  -4 104.788  13.053   3
 -14   3  -4 13.4927  5.9285   3
  14  -4  -4 9.74962 5.37216   5
  14   4  -4 3.48837 3.62375   2
 -14   4   4 3.58498 4.23796   3
  13  -4  -4 48.2125  8.0440   5
 -13   4   4 63.0060 10.3091   3
  12  -4  -4 2.26235 4.05043   5
 -12   4   4 -8.0801  5.7130   3
  11  -4  -4 0.53048 1.89398   2
  11  -4  -4 -0.3170  3.7914   5
 -11   4   4 -1.9350  1.5777   1
 -11   4   4 4.46442 4.87047   3
  11   4  -4 2.32934 4.93195   2
  10  -4  -4 27.2147  5.9384   5
 -10  -4   4 32.4023  2.7885   1
  10  -4  -4 32.8372  4.0927   2
 -10   4   4 36.0605  7.3268   3
 -10   4   4 34.9260  3.9523   1
  10   4  -4 43.8463  7.3258   2
   9  -4  -4 174.212  12.076   5
   9  -4  -4 174.472   8.436   2
  -9  -4   4 169.891   7.206   1
  -9   4   4 172.857   8.567   1
  -9   4   4 165.404  12.868   3
   9   4  -4 187.961  12.821   2
  -8  -4   4 153.670   7.316   1
   8  -4  -4 151.117  10.814   5
   8  -4  -4 151.363   7.568   2
   8  -4  -4 155.035   8.079   1
   8   4  -4 156.613  11.568   2
   8   4  -4 150.036   6.964   1
  -8   4   4 161.794  11.842   3
  -8   4   4 152.829   8.182   1
  -7  -4   4 0.82937 1.72322   1
   7  -4  -4 -6.2432  3.8038   5
   7  -4  -4 0.62228 1.88438   1
   7  -4  -4 4.40302 1.91397   2
  -7  -4   4 -1.7792  1.3962   1
   7   4  -4 -0.3304  3.1371   2
   7   4  -4 0.90702 1.49991   1
  -7   4   4 -2.7517  2.3421   1
   6  -4  -4 58.7972  4.4156   2
   6  -4  -4 59.1582  5.1875   1
  -6  -4   4 58.4864  4.6629   1
  -6  -4   4 66.9961  5.1245   1
   6  -4  -4 47.9709  6.0787   5
  -6   4   4 60.5704  6.7168   3
   6   4  -4 56.0566  6.7424   2
  -6   4   4 61.3553  5.3722   1
   6   4  -4 58.2687  4.7101   1
  -6   4   4 61.1484  5.1453   1
   5  -4  -4 -1.1611  1.4226   2
   5  -4  -4 2.50022 2.08487   1
  -5  -4   4 -1.8128  1.5671   1
   5  -4  -4 -1.8329  2.9497   5
   5   4  -4 -0.0785  2.9858   2
  -5   4   4 6.08877 2.14357   1
  -5   4   4 1.39084 1.74229   1
  -5   4   4 2.67654 2.19234   3
   4  -4  -4 517.976  15.271   1
   4  -4  -4 532.303  12.788   2
   4  -4  -4 528.397  16.294   5
  -4  -4   4 524.483  14.743   1
  -4  -4   4 515.529  14.579   1
   4   4  -4 526.528  14.571   1
   4   4  -4 512.789  16.849   2
  -4   4   4 542.745  15.859   1
   3  -4  -4 494.684  12.217   2
   3  -4  -4 504.896  15.136   5
  -3  -4   4 480.031  13.908   1
   3  -4  -4 481.370  14.609   1
  -3  -4   4 489.039  14.258   1
   3   4  -4 506.148  15.659   2
  -3   4   4 508.547  15.078   1
   3   4  -4 494.650  14.041   1
   2  -4  -4 19.8666  3.5056   5
   2  -4  -4 28.7238  3.8605   1
  -2  -4   4 22.9603  3.5573   1
   2   4  -4 29.7163  3.7656   1
  -2   4   4 24.3172  3.4759   1
   2   4  -4 23.9198  3.3104   2
   1  -4  -4 572.113  14.482   5
   1  -4  -4 579.717  13.992   2
   1  -4  -4 578.425  16.134   1
  -1  -4   4 576.245  15.739   1
  -1   4   4 567.489  15.952   1
   1   4  -4 573.692  12.864   4
   1   4  -4 566.639  15.467   1
   1   4  -4 581.541  14.705   2
   0  -4  -4 207.818   9.238   1
   0  -4   4 207.609   9.116   1
   0  -4  -4 206.117   7.804   5
   0   4  -4 204.915   9.104   1
   0   4   4 206.982   9.255   1
   0   4  -4 198.394   7.381   2
   0   4  -4 209.999   6.276   4
   1  -4   4 90.1971  6.0336   1
  -1  -4  -4 87.4979  4.9972   5
  -1  -4  -4 82.2515  5.9816   1
  -1   4  -4 84.4342  4.0331   2
  -1   4  -4 85.7046  3.2068   4
   1   4   4 94.5703  6.2833   1
  -1   4  -4 82.8303  5.9493   1
   2  -4   4 690.382  17.612   1
  -2  -4  -4 677.776  17.342   1
  -2   4  -4 684.210  17.596   1
   2   4   4 667.472  17.057   1
  -2   4  -4 660.622  11.047   2
   3  -4   4 0.99547 1.55938   1
   3  -4   4 -1.4237  1.5034   5
   3   4   4 6.11783 2.43577   1
  -3   4  -4 1.26083 2.11236   1
  -4  -4  -4 -0.7550  1.6214   1
  -4  -4  -4 3.00988 2.20854   1
   4  -4   4 4.50831 1.85379   1
  -4   4  -4 0.60633 2.65545   3
  -4   4  -4 -5.5071  2.5940   1
   4   4   4 0.83893 1.80247   1
  -5  -4  -4 10.0875  2.6545   1
   5  -4   4 7.09653 2.44423   1
  -5   4  -4 9.37474 2.22898   1
  -5   4  -4 11.0037  3.7589   3
  -5   4  -4 7.24601 2.67584   1
  -5   4  -4 10.0702  1.6378   4
  -6  -4  -4 9.93610 2.36939   1
  -6  -4  -4 14.6874  4.5369   4
   6  -4   4 4.82036 2.29181   5
  -6   4  -4 10.1114  1.9601   4
  -6   4  -4 10.2412  2.5036   1
  -6   4  -4 13.1039  4.4355   3
  -6   4  -4 5.62374 2.60995   1
   6   4   4 6.56336 2.08310   1
   7  -4   4 19.5603  3.4198   1
  -7  -4  -4 20.6542  2.9227   1
  -7  -4  -4 30.1877  5.9004   4
   7  -4   4 26.8678  3.7483   5
  -7  -4  -4 30.6480  3.5266   1
  -7   4  -4 18.8918  5.5495   3
  -7   4  -4 19.3001  2.8752   4
  -7   4  -4 20.4722  3.4447   1
   7   4   4 27.4381  3.1741   1
  -8  -4  -4 254.420   9.046   1
   8  -4   4 249.815  10.009   1
   8  -4   4 263.738  10.979   5
  -8  -4  -4 252.848  14.763   4
  -8   4  -4 260.524  15.622   3
  -8   4  -4 248.505  10.237   1
  -8   4  -4 247.955  10.030   4
  -9  -4  -4 1.18257 1.24739   1
   9  -4   4 -4.6235  2.6307   5
  -9   4  -4 -7.3633  4.7689   3
  -9   4  -4 -0.1052  1.6945   4
  -9   4  -4 -1.3475  1.6793   1
 -10   4  -4 3.59307 4.71186   3
 -10   4  -4 6.17048 1.91011   1
  11  -4   4 8.79325 3.00820   5
 -11   4  -4 16.6430  6.2724   3
 -12   4  -4 37.0900  7.7202   3
 -13   4  -4 3.89524 5.63943   3
 -14   4  -4 47.4264 10.2093   3
  14  -5  -4 30.3429  7.1505   5
 -14   5   4 49.4305  9.8817   3
  14   5  -4 36.2634  7.3408   2
  13  -5  -4 11.2378  5.2975   5
 -13   5   4 7.44542 6.23878   3
  12  -5  -4 -2.2065  3.9795   5
 -12   5   4 -2.8362  5.4970   3
  11  -5  -4 90.1540  9.9567   5
  11   5  -4 100.815  10.968   2
 -11   5   4 81.5975 10.7286   3
 -11   5   4 87.5231  6.3937   1
  10  -5  -4 96.0437  6.2380   2
  10  -5  -4 105.953  10.280   5
 -10  -5   4 102.901   5.938   1
 -10   5   4 107.498   7.412   1
  10   5  -4 104.002  10.673   2
 -10   5   4 113.086  11.884   3
   9  -5  -4 0.27450 1.53482   2
  -9  -5   4 0.67805 1.74321   1
   9  -5  -4 -9.0715  4.5994   5
  -9   5   4 4.01516 4.23786   3
  -9   5   4 1.61154 2.11130   1
   9   5  -4 -4.6452  4.6833   2
   8  -5  -4 16.5764  2.7701   2
   8  -5  -4 17.1152  3.3521   1
  -8  -5   4 15.7138  3.0131   1
   8  -5  -4 10.0488  3.6918   5
  -8   5   4 16.6134  3.4752   1
  -8   5   4 8.77200 4.40010   3
   8   5  -4 14.8840  2.8019   1
   7  -5  -4 350.781  13.580   1
  -7  -5   4 365.616  13.013   1
   7  -5  -4 352.457  11.041   2
   7  -5  -4 375.909  16.490   5
   7   5  -4 356.148  16.906   2
  -7   5   4 356.561  17.160   3
  -7   5   4 364.539  14.046   1
   7   5  -4 338.746  12.185   1
   6  -5  -4 58.4000  5.8063   1
   6  -5  -4 66.0458  4.6997   2
   6  -5  -4 62.9460  7.2071   5
  -6  -5   4 71.3954  5.7553   1
  -6  -5   4 74.4673  5.8261   1
   6   5  -4 59.7441  5.2755   1
  -6   5   4 62.2959  6.8120   3
  -6   5   4 50.1402  5.6455   1
   6   5  -4 57.9787  7.0425   2
  -5  -5   4 5.06916 2.82916   1
   5  -5  -4 9.60973 3.22229   1
   5   5  -4 3.99902 3.82812   2
   5   5  -4 4.83855 2.18344   1
  -5   5   4 6.33436 2.87498   1
   4  -5  -4 112.320   5.792   2
   4  -5  -4 102.693   7.666   5
  -4  -5   4 102.310   7.069   1
   4  -5  -4 107.681   7.551   1
  -4   5   4 100.590   7.464   1
   4   5  -4 102.359   6.735   1
   4   5  -4 106.737   8.311   2
  -3  -5   4 93.9871  6.8698   1
   3  -5  -4 86.0695  6.7015   5
   3  -5  -4 91.8605  5.5153   2
   3  -5  -4 93.9252  7.0224   1
   3   5  -4 87.9085  6.4696   1
  -3   5   4 96.7649  7.3406   1
   3   5  -4 82.0572  6.7750   2
   2  -5  -4 45.0521  4.9067   5
   2  -5  -4 38.9381  3.8914   2
   2  -5  -4 48.4552  5.3659   1
  -2  -5   4 48.9643  5.1913   1
   2   5  -4 48.0955  5.0385   2
  -2   5   4 47.1193  5.3826   1
   2   5  -4 39.6481  4.7392   1
   1  -5  -4 42.8167  4.7724   1
   1  -5  -4 46.4690  4.6890   5
  -1  -5   4 52.9034  5.3730   1
   1   5  -4 49.4010  5.1224   1
  -1   5   4 40.8554  4.9697   1
   1   5  -4 46.5657  4.5180   2
   1   5  -4 45.0492  3.5914   4
   0  -5   4 403.414  14.151   1
   0  -5  -4 403.262  14.380   1
   0  -5  -4 391.574  12.301   5
   0   5  -4 411.617  14.263   1
   0   5  -4 398.829  11.750   2
   0   5   4 404.941  14.254   1
   0   5  -4 387.960   9.497   4
  -1  -5  -4 9.39986 2.69043   5
   1  -5   4 16.0400  3.2401   1
  -1  -5  -4 5.58618 2.62097   1
   1   5   4 14.0558  3.4690   1
  -1   5  -4 7.88271 3.17306   1
  -1   5  -4 10.2571  1.9399   2
  -1   5  -4 8.97062 1.17895   4
  -2  -5  -4 121.430   7.716   1
   2  -5   4 128.290   8.042   1
   2   5   4 120.539   7.538   1
  -2   5  -4 128.582   8.081   1
  -2   5  -4 117.128   4.496   2
   3  -5   4 59.1676  4.6740   5
   3  -5   4 57.3116  5.3570   1
  -3  -5  -4 63.6806  5.8004   1
   3   5   4 50.8679  5.1285   1
  -3   5  -4 55.6274  5.6049   1
   4  -5   4 87.4696  6.7296   1
   4  -5   4 87.6270  5.7356   5
  -4  -5  -4 89.3987  6.5191   1
  -4   5  -4 80.1235  7.2032   3
   4   5   4 89.4965  6.4166   1
  -4   5  -4 80.8572  6.6926   1
   5  -5   4 -2.2553  2.5146   1
   5  -5   4 0.64742 2.11288   5
  -5  -5  -4 1.79186 1.49851   1
  -5   5  -4 8.13961 3.35544   3
   6  -5   4 93.4326  7.0024   1
  -6  -5  -4 95.3279  6.5126   1
  -6  -5  -4 94.1598  8.6349   4
   6  -5   4 96.7997  6.5063   5
  -6  -5  -4 94.1667  6.5630   1
   6   5   4 105.589   6.709   1
  -6   5  -4 89.6606  6.8689   1
  -6   5  -4 103.715   8.971   3
   7  -5   4 80.1136  6.0723   5
  -7  -5  -4 73.9052  8.1219   4
   7  -5   4 80.3688  6.4124   1
  -7  -5  -4 70.2002  5.6867   1
  -7   5  -4 73.7519  6.2730   1
   7   5   4 73.5406  5.5105   1
  -7   5  -4 73.6776  8.6468   3
   8  -5   4 20.5179  3.7358   5
  -8  -5  -4 23.2400  3.3918   1
   8  -5   4 26.7533  3.8778   1
  -8  -5  -4 23.2968  5.8013   4
  -8   5  -4 25.7944  6.0890   3
  -8   5  -4 25.3905  4.1212   1
  -9  -5  -4 109.352   6.261   1
   9  -5   4 103.686   7.701   5
  -9   5  -4 114.421   7.596   1
  -9   5  -4 120.005  11.960   3
  10  -5   4 81.0316  7.0376   5
 -10   5  -4 73.1270  5.9408   1
 -10   5  -4 78.5618 10.4929   3
  11  -5   4 0.65170 2.27595   5
 -11  -5  -4 -6.2380  4.2712   4
 -12   5  -4 55.8926  9.7886   3
 -13   5  -4 1.40251 4.06311   3
  13  -6  -4 0.45298 4.30006   5
  13   6  -4 0.46898 3.38791   2
 -13   6   4 8.78707 6.17577   3
  12  -6  -4 -2.2623  4.3059   5
  11  -6  -4 119.722  11.597   5
 -11   6   4 126.846  13.775   3
 -11   6   4 120.422   8.408   1
  10  -6  -4 5.62247 4.87984   5
 -10  -6   4 13.5338  3.0681   1
 -10   6   4 21.5046  6.5176   3
 -10   6   4 17.9375  3.9022   1
   9  -6  -4 36.5201  6.6511   5
  -9  -6   4 29.0022  4.1231   1
  -9   6   4 30.5525  6.8689   3
   9   6  -4 43.5806  7.5906   2
  -9   6   4 32.9340  4.8397   1
   8  -6  -4 8.46146 2.08593   2
  -8  -6   4 3.04806 2.26155   1
   8  -6  -4 7.74854 3.09971   1
   8   6  -4 4.61863 3.67831   2
  -8   6   4 10.3507  3.4814   1
  -8   6   4 10.0100  4.8864   3
   7  -6  -4 8.03948 3.13728   1
   7  -6  -4 9.70716 3.71676   5
  -7  -6   4 3.40345 2.61484   1
   7  -6  -4 12.5519  2.3940   2
  -7   6   4 5.01101 3.24646   1
   7   6  -4 12.7173  4.2413   2
   7   6  -4 6.55255 2.72334   1
  -7   6   4 -1.5910  3.7953   3
  -6  -6   4 -0.8384  2.8240   1
   6  -6  -4 0.14211 3.00499   1
   6   6  -4 0.27895 4.14463   2
   6   6  -4 4.93491 2.52821   1
  -6   6   4 -7.6305  3.7743   1
  -6   6   4 -0.6213  3.2493   3
   5  -6  -4 298.778  13.437   1
   5  -6  -4 298.173  10.264   2
   5  -6  -4 291.943  13.681   5
  -5  -6   4 306.501  13.033   1
   5   6  -4 292.324  12.369   1
  -5   6   4 298.920  13.742   1
  -4  -6   4 114.352   8.237   1
   4  -6  -4 116.873   6.530   2
   4  -6  -4 129.449   9.022   1
   4  -6  -4 109.716   8.426   5
  -4   6   4 109.977   8.308   1
   4   6  -4 124.844   8.351   1
  -3  -6   4 85.5193  6.9230   1
   3  -6  -4 86.3604  7.1966   1
   3  -6  -4 87.5727  6.7860   5
   3  -6  -4 84.8120  5.7509   2
  -3   6   4 92.3816  7.7609   1
   3   6  -4 77.0037  6.7772   1
  -2  -6   4 19.4871  3.8399   1
  -2   6   4 17.9799  4.2715   1
   2   6  -4 14.9826  3.9939   1
  -1  -6   4 31.6311  5.0443   1
   1  -6  -4 29.9696  4.2514   5
   1  -6  -4 31.5684  4.5735   1
   1   6  -4 37.7086  5.2380   1
   1   6  -4 37.6713  3.4205   4
  -1   6   4 33.8440  4.9868   1
   0  -6  -4 446.373  16.382   1
   0  -6  -4 446.490  14.093   5
   0  -6   4 447.265  16.099   1
   0   6  -4 477.090  16.888   1
   0   6  -4 446.696  13.508   2
   0   6   4 438.481  16.031   1
   1  -6   4 5.90826 2.70149   1
  -1  -6  -4 6.63658 2.48797   5
  -1  -6  -4 5.17409 2.62848   1
  -1   6  -4 3.36545 3.33106   1
   1   6   4 2.71883 3.11619   1
   2  -6   4 4.40770 3.15477   1
  -2  -6  -4 3.18276 3.08611   1
  -2   6  -4 0.53355 1.19088   2
   2   6   4 -1.1968  2.4554   1
  -2   6  -4 2.47035 3.18848   1
   3  -6   4 24.0989  3.6305   5
  -3  -6  -4 26.0949  4.7404   1
   3  -6   4 21.5217  4.4077   1
   3   6   4 26.0585  4.4661   1
  -3   6  -4 21.6235  4.0667   1
  -4  -6  -4 3.90116 3.12629   1
   4  -6   4 -0.5855  2.9091   1
   4   6   4 -3.5778  2.5411   1
  -4   6  -4 3.07784 3.09583   1
   5  -6   4 1.95069 3.03062   1
   5  -6   4 0.02747 1.70927   5
  -5  -6  -4 7.02733 4.26407   4
  -5  -6  -4 2.75119 3.03168   1
  -5   6  -4 -2.5671  3.4197   3
   5   6   4 -5.2169  2.8391   1
  -5   6  -4 -4.5530  2.8542   1
  -6  -6  -4 502.938  19.913   4
   6  -6   4 495.195  17.289   1
   6  -6   4 486.101  15.689   5
  -6  -6  -4 490.169  16.656   1
   6   6   4 506.829  16.505   1
  -6   6  -4 503.638  17.809   1
  -6   6  -4 502.447  20.819   3
  -7  -6  -4 52.7212  5.5815   1
   7  -6   4 46.6265  5.3155   5
  -7  -6  -4 52.4108  7.4838   4
   7  -6   4 58.3966  6.0648   1
  -7   6  -4 55.8261  6.1243   1
   7   6   4 64.9898  5.7306   1
  -7   6  -4 73.2250  8.9392   3
  -8  -6  -4 9.27718 2.86018   1
   8  -6   4 6.66950 2.99956   5
  -8   6  -4 14.3268  3.7092   1
   9  -6   4 63.4023  6.3817   5
  -9  -6  -4 62.7029  5.5534   1
  -9  -6  -4 65.9653  8.6521   4
  -9   6  -4 69.5122  9.8048   3
  -9   6  -4 59.3923  6.3024   1
 -10  -6  -4 26.3213  3.4614   1
  10  -6   4 23.2376  4.1746   5
 -10   6  -4 18.2806  6.8643   3
 -10   6  -4 15.7735  3.7520   1
  11  -6   4 29.0924  5.0822   5
 -11   6  -4 31.7163  7.9609   3
 -12   6  -4 46.3451  9.8520   3
 -13   6  -4 3.69050 6.00986   3
  13  -7  -4 9.43752 5.35891   5
 -13   7   4 8.05837 6.14346   3
  12  -7  -4 66.5857  9.4271   5
 -12   7   4 51.6951 10.0624   3
  11  -7  -4 -0.0465  4.5848   5
 -11   7   4 3.78695 2.90952   1
 -11   7   4 2.30035 4.67947   3
 -10  -7   4 49.3244  5.4573   1
 -10   7   4 44.1675  6.1106   1
 -10   7   4 49.2140  8.7526   3
  10   7  -4 41.7509  8.1940   2
   9  -7  -4 124.486  11.335   5
  -9  -7   4 136.455   8.970   1
  -9   7   4 130.953   9.902   1
  -9   7   4 123.426  12.542   3
   9   7  -4 133.963  12.473   2
  -8  -7   4 7.70190 3.13767   1
   8  -7  -4 7.62500 3.60048   1
  -8   7   4 14.1199  5.6666   3
   7  -7  -4 93.9260  8.1806   1
   7  -7  -4 86.5890  5.5948   2
   7  -7  -4 90.0810  8.5740   5
  -7  -7   4 101.504   8.149   1
  -7   7   4 105.399  10.311   3
  -7   7   4 90.3666  8.3758   1
   7   7  -4 97.0136  7.7206   1
   7   7  -4 93.9957  9.9963   2
   6  -7  -4 96.6039  5.9844   2
   6  -7  -4 91.8050  8.4582   5
   6  -7  -4 106.640   8.913   1
  -6  -7   4 100.900   8.261   1
   6   7  -4 100.855   9.592   2
  -6   7   4 106.791   9.181   1
   6   7  -4 85.6165  7.4134   1
   5  -7  -4 14.2458  2.7988   2
  -5  -7   4 14.4743  4.1795   1
   5  -7  -4 12.1981  4.5850   5
   5  -7  -4 14.4893  3.8907   1
   5   7  -4 13.2939  3.3412   1
  -5   7   4 10.1090  4.2305   1
   4  -7  -4 -6.2492  3.6985   5
  -4  -7   4 0.05898 3.08203   1
   4  -7  -4 -3.1354  2.5794   1
   4   7  -4 5.32783 3.46530   1
  -4   7   4 0.92416 3.64248   1
   3  -7  -4 60.8759  6.6141   5
   3  -7  -4 67.3076  7.3288   1
  -3  -7   4 65.9792  7.0595   1
   3   7  -4 66.4091  6.9226   1
  -3   7   4 68.4889  7.4847   1
   2  -7  -4 15.3958  4.5753   1
  -2  -7   4 16.1890  4.5356   1
   2  -7  -4 12.5847  3.6988   5
   2   7  -4 5.32171 3.70958   1
   1  -7  -4 452.797  18.026   1
  -1  -7   4 474.836  17.801   1
   1  -7  -4 465.169  15.949   5
   1   7  -4 455.954  17.568   1
  -1   7   4 478.111  18.276   1
   0  -7  -4 7.81112 4.00292   1
   0  -7  -4 14.4327  3.3482   5
   0   7  -4 12.0540  3.0587   2
   0   7  -4 15.8338  4.4876   1
   1  -7   4 468.285  17.897   1
  -1  -7  -4 474.082  18.366   1
  -1   7  -4 452.583  13.390   2
  -1   7  -4 481.067  18.452   1
   1   7   4 480.889  17.988   1
  -2  -7  -4 27.9821  5.1351   1
   2   7   4 16.1505  4.5686   1
  -2   7  -4 18.6909  2.5607   2
  -2   7  -4 19.6523  4.4143   1
   3  -7   4 382.134  16.282   1
  -3  -7  -4 391.807  16.151   1
  -3   7  -4 372.264   8.306   2
  -3   7  -4 366.418   8.635   2
  -3   7  -4 368.237  16.324   1
   3   7   4 391.756  15.933   1
   4  -7   4 70.6196  7.1699   1
  -4  -7  -4 73.2481  7.1633   1
   4  -7   4 78.0217  6.5646   5
  -4   7  -4 81.6825  8.1808   1
   4   7   4 76.7694  7.3279   1
   5  -7   4 -1.2595  2.6091   1
   5  -7   4 0.10413 1.93303   5
  -5  -7  -4 8.67437 4.24675   4
  -5  -7  -4 -4.3892  3.6938   1
   5   7   4 -0.6065  2.7832   1
  -5   7  -4 4.82328 4.04509   3
  -5   7  -4 4.18900 3.59765   1
   6  -7   4 337.729  15.326   1
  -6  -7  -4 363.693  17.520   4
  -6  -7  -4 314.506  14.174   1
   6  -7   4 332.254  13.625   5
  -6   7  -4 358.122  16.089   1
   6   7   4 314.943  13.859   1
  -6   7  -4 331.109  17.627   3
  -7  -7  -4 6.91763 4.50189   4
   7  -7   4 -4.6649  2.9638   5
   7  -7   4 2.84274 2.89199   1
  -7  -7  -4 -1.8378  2.5383   1
  -7   7  -4 -1.2649  3.0080   3
  -7   7  -4 -1.7975  2.9717   1
   7   7   4 -2.2952  2.4809   1
  -8  -7  -4 7.04809 3.31334   1
   8  -7   4 8.39026 3.52857   5
  -8  -7  -4 -0.8438  9.0449   4
  -8   7  -4 0.27385 3.07963   1
  -8   7  -4 6.64484 5.02032   3
  -9  -7  -4 65.3362  6.2421   1
   9  -7   4 63.9181  6.5358   5
  -9   7  -4 58.7065  8.8604   3
  -9   7  -4 59.0498  6.7419   1
 -10  -7  -4 -2.8028  3.6346   4
  10  -7   4 -0.0107  2.6823   5
 -10  -7  -4 -2.2139  2.0487   1
 -10   7  -4 7.59879 3.17512   1
 -10   7  -4 -4.0786  5.1517   3
 -11   7  -4 15.6861  3.8806   1
 -11   7  -4 9.45452 6.15807   3
 -12  -7  -4 0.91039 4.12211   4
 -12   7  -4 4.31319 5.62347   3
 -13   7  -4 43.1616  9.7387   3
  12  -8  -4 22.6021  5.8524   5
  12   8  -4 15.8819  5.8152   2
  11  -8  -4 0.15964 3.20435   5
 -11   8   4 6.31158 3.46841   1
 -11   8   4 -4.7064  5.2079   3
  10  -8  -4 54.5825  8.2635   5
 -10  -8   4 61.8518  6.6237   1
 -10   8   4 70.4217 10.7003   3
 -10   8   4 78.1895  8.2858   1
  10   8  -4 55.6531  8.7917   2
  -9  -8   4 101.212   8.501   1
   9  -8  -4 97.5591 10.5380   5
  -9   8   4 79.5683 10.2894   3
   9   8  -4 95.1410 11.0515   2
  -9   8   4 80.9347  8.6871   1
  -8  -8   4 15.3897  4.3597   1
   8   8  -4 12.2821  5.9961   2
  -8   8   4 20.2607  5.2794   1
   7  -8  -4 -5.6750  4.6745   5
   7  -8  -4 11.6691  4.1990   1
  -7  -8   4 -3.9212  3.3652   1
  -7   8   4 -2.5856  4.3742   3
   7   8  -4 10.1993  5.2312   2
  -7   8   4 0.62515 3.59088   1
   7   8  -4 2.49251 2.99899   1
  -6  -8   4 -1.8578  3.2232   1
   6  -8  -4 4.25240 3.13702   1
   6  -8  -4 7.22462 4.55711   5
   6   8  -4 2.70145 2.61866   1
   5  -8  -4 225.842  12.809   5
  -5  -8   4 213.389  12.646   1
   5  -8  -4 238.214  13.725   1
   5   8  -4 236.758  13.034   1
  -5   8   4 237.765  14.142   1
   4  -8  -4 51.3669  6.7122   1
  -4  -8   4 53.8512  6.8458   1
   4  -8  -4 48.6999  6.6280   5
  -4   8   4 49.4528  7.2885   1
   4   8  -4 54.2372  6.5082   1
  -3  -8   4 20.1335  4.9728   1
   3  -8  -4 20.3147  4.8965   5
   3  -8  -4 27.3552  5.8437   1
  -3   8   4 19.7376  5.3278   1
   3   8  -4 13.4028  4.1750   1
  -2  -8   4 164.974  11.296   1
   2  -8  -4 174.719  11.824   1
   2  -8  -4 154.938  10.240   5
  -2   8   4 153.976  11.264   1
   2   8  -4 167.723  11.524   1
   1  -8  -4 153.082  11.332   1
  -1  -8   4 154.362  11.018   1
   1  -8  -4 143.259   9.325   5
   1   8  -4 126.064  10.115   1
  -1   8   4 145.981  10.686   1
   0  -8   4 10.4531  4.4180   1
   0  -8  -4 8.90764 4.47645   1
   0  -8  -4 17.5192  4.2255   5
   0   8  -4 9.26030 4.38793   1
   0   8  -4 9.04824 2.80618   2
   0   8   4 14.0097  4.4719   1
   1  -8   4 97.2627  9.0850   1
  -1  -8  -4 107.446   9.466   1
   1   8   4 104.376   8.969   1
  -1   8  -4 97.7496  6.6060   2
  -1   8  -4 89.3265  9.0206   1
  -2  -8  -4 178.952  12.110   1
   2  -8   4 171.221  11.786   1
  -2   8  -4 171.237   7.692   2
   2   8   4 192.362  12.274   1
  -2   8  -4 167.969  11.928   1
  -3  -8  -4 51.3578  6.8324   1
   3  -8   4 48.9411  6.5554   1
  -3   8  -4 52.9646  7.6466   1
  -3   8  -4 52.2624  3.5764   2
   3   8   4 38.7380  6.7651   1
  -4  -8  -4 1146.05   31.01   1
   4  -8   4 1173.64   32.10   1
  -4  -8  -4 1191.21   31.32   4
   4   8   4 1194.67   31.16   1
  -4   8  -4 1173.59   32.34   1
  -5  -8  -4 9.99559 3.64410   4
  -5  -8  -4 5.05902 3.74700   1
   5  -8   4 15.9533  4.6952   1
   5   8   4 12.1378  4.0252   1
  -5   8  -4 10.2732  4.4554   1
  -6  -8  -4 21.5307  5.4943   4
  -6  -8  -4 14.7756  4.4473   1
   6  -8   4 17.1186  4.1454   5
  -6   8  -4 28.1714  5.5830   1
   6   8   4 18.2473  4.0511   1
  -7  -8  -4 4.16805 3.25232   1
   7  -8   4 2.65628 2.47589   1
   7  -8   4 3.52501 2.68901   5
  -7   8  -4 1.68155 4.51906   3
  -7   8  -4 2.76593 3.73367   1
  -8  -8  -4 12.2731  3.7910   1
   8  -8   4 7.92935 3.22836   5
  -8   8  -4 20.6582  5.1493   1
  -8   8  -4 25.3119  7.1883   3
   9  -8   4 56.4041  6.7995   5
  -9  -8  -4 59.4044  6.5282   1
  -9   8  -4 50.2867  9.3528   3
  -9   8  -4 59.3317  7.4698   1
  10  -8   4 9.69202 4.02328   5
 -10  -8  -4 18.2066  3.9263   1
 -10   8  -4 14.0551  5.7491   3
 -10   8  -4 12.3669  4.1302   1
 -11  -8  -4 113.620  12.720   4
  11  -8   4 130.393  10.416   5
 -11   8  -4 132.793  10.265   1
 -11   8  -4 119.043  13.992   3
 -12   8  -4 -0.9881  4.1914   3
  12  -9  -4 26.8109  7.0097   5
 -12   9   4 14.0171  6.4581   3
  11  -9  -4 60.3948  9.3309   5
 -11   9   4 43.5442  6.9483   1
 -11   9   4 57.2155 10.4013   3
  11   9  -4 30.0570  7.3819   2
  10  -9  -4 151.552  13.304   5
 -10  -9   4 141.211  10.322   1
 -10   9   4 146.709  11.848   1
  10   9  -4 133.196  13.485   2
 -10   9   4 145.020  15.273   3
   9  -9  -4 54.8889  7.8769   5
  -9  -9   4 47.4271  6.6422   1
  -9   9   4 41.2526  8.2078   3
  -9   9   4 40.3628  6.8431   1
  -8  -9   4 74.1659  7.9546   1
   8  -9  -4 69.6872  8.9065   5
  -8   9   4 91.3643  9.6906   1
  -8   9   4 74.6780 10.3754   3
   8   9  -4 62.6911  9.4391   2
   7  -9  -4 17.0380  4.8034   1
  -7  -9   4 12.8118  4.3614   1
  -7   9   4 24.4294  6.1808   3
   7   9  -4 7.23862 5.20262   2
  -7   9   4 14.4903  5.0042   1
  -6  -9   4 98.4239  9.4073   1
   6  -9  -4 88.2199  9.4995   1
   6  -9  -4 101.856  10.027   5
   6   9  -4 92.7677  8.8705   1
  -6   9   4 94.8664  9.5822   1
   6   9  -4 81.5599  9.6048   2
   5  -9  -4 -3.8618  4.0293   1
  -5  -9   4 -1.9154  3.6870   1
   5  -9  -4 4.39567 4.45528   5
  -5   9   4 -1.2522  2.9751   1
   5   9  -4 -7.5973  3.7767   1
  -4  -9   4 24.5781  5.6292   1
   4  -9  -4 22.8245  4.9418   5
   4  -9  -4 36.5820  6.5738   1
  -4   9   4 22.3179  5.3599   1
   4   9  -4 24.7935  4.9327   1
   3  -9  -4 164.977  12.564   1
  -3  -9   4 157.862  12.050   1
   3  -9  -4 176.430  11.710   5
  -3   9   4 156.035  12.346   1
   3   9  -4 152.917  11.390   1
   2  -9  -4 67.3906  7.4845   5
  -2  -9   4 62.6545  7.8969   1
   2  -9  -4 69.4303  8.3866   1
  -2   9   4 66.5274  8.0393   1
   2   9  -4 44.6191  6.8781   1
  -1  -9   4 18.7580  5.1614   1
   1  -9  -4 13.0443  5.0123   1
  -1   9   4 10.3211  4.2579   1
   0  -9   4 19.4529  5.3021   1
   0   9   4 14.8157  4.7854   1
   0   9  -4 20.1974  5.3290   1
   0   9  -4 21.5304  4.0797   2
   1  -9   4 15.9930  5.1385   1
  -1   9  -4 14.0066  5.1794   1
   1   9   4 9.76489 3.77325   1
  -1   9  -4 11.9109  3.0865   2
   2  -9   4 14.5760  4.8960   1
  -2  -9  -4 18.9632  5.3539   1
  -2   9  -4 14.8722  2.7962   2
   2   9   4 15.2195  5.1459   1
  -3  -9  -4 35.4750  5.6329   4
   3  -9   4 46.0168  6.6708   1
  -3  -9  -4 45.7807  6.9343   1
  -3   9  -4 53.4780  7.7149   1
   3   9   4 37.1714  6.1655   1
  -4  -9  -4 152.181  11.102   4
   4  -9   4 139.850  11.589   1
  -4  -9  -4 146.071  11.756   1
  -4   9  -4 140.874  11.703   1
   4   9   4 157.377  11.362   1
  -5  -9  -4 4.77747 4.06472   4
   5  -9   4 15.2178  4.9678   1
  -5  -9  -4 9.07859 4.15060   1
  -5   9  -4 4.10666 4.45250   1
   5   9   4 6.01203 3.72753   1
   6  -9   4 85.8790  9.0418   1
   6  -9   4 82.9353  7.7719   5
  -6  -9  -4 66.2296  8.0532   1
  -6  -9  -4 77.6615  9.0946   4
   6   9   4 78.3078  8.1516   1
  -6   9  -4 90.7176  9.8164   1
  -6   9  -4 85.0251 10.3520   3
  -7  -9  -4 27.9971  5.3949   1
   7  -9   4 17.4009  4.6007   5
   7  -9   4 28.1879  5.8949   1
  -7   9  -4 25.2212  5.6515   1
  -7   9  -4 22.4162  6.4382   3
  -8  -9  -4 0.31747 2.47246   1
   8  -9   4 6.72046 3.54513   5
  -8   9  -4 6.99354 5.61523   3
  -8   9  -4 -1.3304  3.7948   1
  -9  -9  -4 22.3241  4.9636   1
  -9  -9  -4 20.2813  5.7897   4
   9  -9   4 14.3356  4.6234   5
  -9   9  -4 14.8469  4.9776   1
  10  -9   4 99.7521  9.4524   5
 -10  -9  -4 103.462   8.832   1
 -10   9  -4 97.4771 12.7299   3
 -10   9  -4 98.7854  9.7524   1
 -11   9  -4 2.31265 3.37904   1
 -11   9  -4 2.94625 4.54732   3
  11 -10  -4 50.1895  9.1641   5
 -11  10   4 51.6750  8.0344   1
 -11  10   4 57.5044 10.4245   3
 -10 -10   4 15.6374  4.4918   1
  10 -10  -4 25.3572  6.1583   5
 -10  10   4 9.76080 6.49877   3
   9 -10  -4 60.8091  9.0625   5
  -9 -10   4 60.8642  7.7349   1
  -9  10   4 59.8604 10.3245   3
  -8 -10   4 17.5844  5.0689   1
   8  10  -4 7.43538 5.25858   2
  -8  10   4 13.7445  4.7907   1
   7 -10  -4 7.39758 4.95472   5
  -7 -10   4 5.59654 4.16537   1
   7 -10  -4 -1.0927  3.9440   1
  -7  10   4 -2.6231  4.6554   1
   7  10  -4 9.52246 5.04678   2
  -7  10   4 -8.3155  5.6637   3
   6 -10  -4 18.1551  5.5816   1
   6 -10  -4 12.0657  5.2744   5
   6  10  -4 11.0365  4.5908   1
  -6  10   4 12.4873  5.4603   1
   5 -10  -4 53.0311  7.7040   5
   5 -10  -4 51.2529  8.0503   1
  -5 -10   4 55.7491  7.8944   1
  -5  10   4 59.6019  8.8510   1
   5  10  -4 41.2397  6.7643   1
   4 -10  -4 41.8989  6.7998   5
   4 -10  -4 46.5064  7.8172   1
  -4 -10   4 44.3542  7.0254   1
   4  10  -4 38.6219  6.5476   1
  -4  10   4 33.9602  7.0323   1
   3 -10  -4 3.19702 3.26691   1
   3 -10  -4 0.75677 3.89892   5
  -3 -10   4 -2.8379  3.3039   1
   3  10  -4 11.5720  4.7215   1
  -3  10   4 -5.4154  4.6119   1
  -2 -10   4 -9.8620  5.1287   1
   2 -10  -4 -4.3519  4.3164   1
  -2  10   4 -1.9563  3.9226   1
   2  10  -4 -7.0016  4.7455   1
   1 -10  -4 119.117  11.411   1
   1 -10  -4 99.5865  9.3285   5
  -1 -10   4 115.281  10.669   1
   1  10  -4 110.805  10.951   1
  -1  10   4 122.210  11.466   1
   0 -10  -4 37.3579  7.0219   1
   0 -10   4 27.2261  6.0647   1
   0  10  -4 32.0642  6.1587   1
   0  10  -4 34.9609  5.2018   2
   0  10   4 39.2085  7.0999   1
  -1 -10  -4 2.39735 4.58188   1
   1 -10   4 1.62367 3.73654   1
  -1 -10  -4 4.88826 2.89131   4
  -1  10  -4 -3.4632  2.4923   2
  -1  10  -4 -3.4460  3.5120   1
  -2 -10  -4 189.955  13.772   1
   2 -10   4 210.190  14.321   1
  -2 -10  -4 206.106  11.819   4
   2  10   4 199.940  14.146   1
  -2  10  -4 214.946  15.146   1
  -3 -10  -4 13.6244  5.3787   1
   3 -10   4 10.2170  4.8770   1
  -3 -10  -4 21.5639  4.9893   4
   3  10   4 16.3106  5.1113   1
  -4 -10  -4 358.210  17.669   4
  -4 -10  -4 365.199  19.180   1
   4 -10   4 375.054  19.652   1
   4  10   4 372.179  18.709   1
  -4  10  -4 381.213  19.839   1
   5 -10   4 -2.7602  3.9465   1
  -5 -10  -4 0.98133 3.52783   4
  -6 -10  -4 12.9100  5.0343   1
   6 -10   4 13.6771  5.1381   1
  -6  10  -4 26.7480  6.9972   3
  -6  10  -4 18.3957  5.9828   1
  -7 -10  -4 0.26482 3.54079   1
   7 -10   4 -8.7958  4.5508   5
   7 -10   4 -4.5212  4.2011   1
  -7  10  -4 0.33165 4.55628   3
  -8 -10  -4 80.5134  8.8650   1
   8 -10   4 83.5950  8.9590   5
  -8  10  -4 84.8083  9.9310   1
  -8  10  -4 95.9710 12.4846   3
  -9 -10  -4 6.16320 4.60432   4
  -9 -10  -4 -5.4603  3.8395   1
   9 -10   4 1.80947 3.27100   5
  -9  10  -4 1.55682 3.60001   1
  -9  10  -4 -7.0795  5.7003   3
 -10 -10  -4 4.97733 3.58724   1
  10 -10   4 0.84381 3.33055   5
 -10  10  -4 0.32697 3.93378   3
  -9 -11   4 13.3251  4.8589   1
  -9  11   4 11.2128  5.4760   3
   8 -11  -4 23.8971  6.4972   5
  -8 -11   4 35.3220  6.8407   1
   8  11  -4 24.2786  6.6100   2
  -8  11   4 21.7114  7.0101   3
  -7 -11   4 21.3317  5.8655   1
   7  11  -4 4.74925 5.01935   2
  -7  11   4 12.2038  4.7410   1
  -7  11   4 9.27719 5.26994   3
  -6 -11   4 5.16902 4.43141   1
  -6  11   4 -2.8744  3.4179   1
   6  11  -4 13.3344  5.7844   2
   5 -11  -4 34.6759  6.3299   5
  -5 -11   4 32.7446  6.8532   1
   5  11  -4 49.5899  8.4246   2
  -5  11   4 34.3166  6.9835   1
   4 -11  -4 -5.1573  4.7474   5
  -4 -11   4 -3.0523  4.0923   1
   4  11  -4 6.68492 4.65250   1
   4  11  -4 -5.5403  4.4987   2
   3 -11  -4 130.422  11.271   5
  -3 -11   4 146.953  12.989   1
  -3  11   4 143.428  12.843   1
   3  11  -4 156.936  13.159   1
   3  11  -4 130.640  11.533   2
  -2 -11   4 -1.6028  4.0995   1
   2  11  -4 9.79343 4.29922   1
  -1 -11   4 113.787  11.631   1
   1  11  -4 95.2938  9.1019   2
   1  11  -4 103.946  11.219   1
   0 -11  -4 25.1858  4.1611   4
   0 -11   4 15.1558  5.6640   1
   0  11  -4 26.3555  4.7716   2
   0  11  -4 19.9630  6.1165   1
   1 -11   4 19.8124  6.0346   1
  -1 -11  -4 8.70552 3.26764   4
  -1  11  -4 14.8619  5.9935   1
   2 -11   4 48.6164  8.3872   1
  -2 -11  -4 38.8750  5.8597   4
  -2  11  -4 53.3336  8.8884   1
   2  11   4 49.6166  7.6491   1
   3 -11   4 11.1021  5.3111   1
  -3 -11  -4 0.65530 3.13881   4
  -3  11  -4 2.90230 3.52620   1
  -4 -11  -4 17.1006  5.2069   1
   4 -11   4 24.2509  6.4386   1
  -4 -11  -4 22.9679  5.3559   4
  -5 -11  -4 67.0897  8.8463   1
   5 -11   4 80.1050  9.7772   1
  -5 -11  -4 65.1388  8.5879   4
  -5  11  -4 74.0418  9.8438   1
   6 -11   4 49.2191  8.3832   1
  -6  11  -4 64.9083 10.2870   3
  -6  11  -4 67.0236  9.2786   1
  -7  11  -4 87.6587 10.3259   1
  -7  11  -4 73.1495 11.0029   3
  -8  11  -4 10.1864  5.4297   1
  -8  11  -4 5.85928 5.75681   3
  -9 -11  -4 90.6884 11.2910   4
   9 -11   4 90.5931  9.6009   5
  -9  11  -4 77.8984 10.2023   1
  -9  11  -4 80.8673 12.6973   3
   8 -12  -4 5.11840 5.16008   5
  -8  12   4 0.66279 4.86428   3
   7 -12  -4 -1.2107  3.4481   5
  -7 -12   4 1.81131 3.64687   1
  -7  12   4 -0.5235  3.5489   3
  -6 -12   4 1.01075 4.38092   1
   6  12  -4 -2.7348  5.1251   2
  -5 -12   4 127.902  12.610   1
   5 -12  -4 112.350  11.110   5
   5  12  -4 117.115  11.953   1
   5  12  -4 114.409  12.137   2
   4 -12  -4 9.07327 5.03381   5
  -4 -12   4 -3.1710  4.8077   1
   4  12  -4 3.75515 4.14703   2
   4  12  -4 7.82384 4.92972   1
  -4  12   4 -1.5870  3.5649   1
  -3 -12   4 44.5207  7.7661   1
   3  12  -4 25.4561  6.5665   1
   3  12  -4 29.1358  6.3108   2
   2 -12  -4 -1.9388  3.4694   1
  -2 -12   4 5.36461 4.76182   1
   2  12  -4 16.1208  5.7952   1
   2  12  -4 3.31679 3.40671   2
  -1 -12   4 16.3788  5.2018   1
  -1  12   4 5.17299 3.83205   1
   1  12  -4 -1.4234  3.1249   2
   1  12  -4 6.99994 5.01591   1
   0 -12   4 22.2427  6.5683   1
   0  12   4 15.2051  5.2535   1
   1 -12   4 26.6641  6.8778   1
  -1 -12  -4 17.4597  5.5703   1
  -1  12  -4 10.5191  4.7642   1
   2 -12   4 25.7412  6.2659   1
  -2  12  -4 17.6954  6.3138   1
  -3 -12  -4 3.03760 3.61461   4
  -3  12  -4 2.43106 4.97429   1
   4 -12   4 2.15914 4.54652   1
  -4 -12  -4 5.34279 3.93187   4
  -4  12  -4 -7.9892  4.4932   1
  -5 -12  -4 50.9070  7.9921   4
   5 -12   4 51.7484  8.7576   1
  -5  12  -4 48.3586  8.9930   1
   6 -12   4 49.1430  8.5005   1
  -6  12  -4 50.7718  9.3359   1
  -6  12  -4 33.9244  8.4110   3
  -7 -12  -4 19.8418  5.6125   1
  -7  12  -4 27.1243  8.2096   3
  -7  12  -4 24.4324  7.1477   1
  -8  12  -4 57.4206 10.7287   3
  -8  12  -4 66.1336 10.0298   1
   6 -13  -4 15.3958  5.9271   5
   6  13  -4 18.3549  6.4556   2
  -5 -13   4 4.83496 4.17401   1
   5  13  -4 4.78235 4.49639   2
  -5  13   4 8.61950 4.91898   1
   4 -13  -4 6.38373 4.03628   5
   4  13  -4 1.31854 4.00508   2
  -3  13   4 44.9464  8.5442   1
   3  13  -4 42.3828  7.5202   2
   1  13  -4 32.2728  7.1909   1
  -2 -13  -4 -5.7368  4.7684   1
   5 -13   4 8.27435 4.45226   1
  -5 -13  -4 -6.3531  4.3927   1
  -6 -13  -4 32.0083  6.9513   4
  -6  13  -4 25.4491  7.9856   3
  -6  13  -4 19.7521  6.1596   1
   2 -14  -4 12.1706  5.5856   1
   2  14  -4 6.95857 4.50511   1
   1 -14  -4 6.47543 4.81324   1
   0 -14  -4 39.4736  8.5022   1
  -3 -14  -4 0.54156 3.86452   1
  15   0  -5 1.27159 3.91112   5
  14   0  -5 -0.7879  4.5413   5
 -14   0   5 3.56643 3.98296   3
  13   0  -5 81.6782 10.0851   5
  13   0  -5 82.3726  8.7284   2
 -13   0   5 91.0639 10.7676   3
  12   0  -5 -5.0488  3.8509   2
 -12   0   5 -2.5617  4.4280   3
  12   0  -5 -8.7405  4.4720   5
  11   0  -5 24.2652  5.9121   5
  11   0  -5 27.4014  5.3325   2
 -10   0   5 2.38154 4.00348   3
  10   0  -5 -0.8413  2.9445   2
  10   0  -5 -0.0140  3.8958   5
   9   0  -5 1119.08   27.98   2
  -9   0   5 1124.31   31.04   3
   9   0  -5 1079.35   30.61   5
  -8   0   5 1.46941 1.14115   1
   8   0  -5 2.82964 1.24872   1
   8   0  -5 5.81626 3.93998   5
  -8   0   5 7.16566 3.74292   3
   8   0  -5 -0.6442  3.0925   2
  -7   0   5 258.388   8.171   1
   7   0  -5 263.014  11.764   2
  -7   0   5 251.079   7.949   1
  -7   0   5 265.102  12.545   3
   7   0  -5 270.076   8.218   1
   7   0  -5 291.184  13.884   5
  -6   0   5 -0.0605  0.9937   1
  -6   0   5 -0.1616  1.3770   1
  -6   0   5 -1.5302  2.3585   3
   6   0  -5 -0.3484  2.4769   2
   6   0  -5 -1.3985  1.2609   1
   5   0  -5 1806.98   31.81   2
   5   0  -5 1844.48   27.99   1
  -5   0   5 1809.18   28.22   1
  -5   0   5 1887.43   32.40   3
  -5   0   5 1789.40   27.71   1
  -4   0   5 1.29707 0.96638   1
  -4   0   5 0.25288 1.42650   3
   4   0  -5 0.97372 1.11336   3
   4   0  -5 1.82575 2.25330   2
   3   0  -5 4362.81   54.72   3
  -3   0   5 4185.38   59.88   1
   3   0  -5 4255.19   53.44   1
  -3   0   5 4106.89   52.92   3
  -3   0   5 4184.93   53.58   1
  -2   0   5 -4.2121  2.4897   1
  -2   0   5 1.45564 1.39579   1
   2   0  -5 0.35846 0.56723   3
  -2   0   5 1.61464 1.50743   2
   2   0  -5 -1.1510  2.1253   2
  -2   0   5 -0.4381  0.9419   3
  -1   0   5 572.511  12.216   2
  -1   0   5 543.073  12.615   1
   1   0  -5 533.878  12.601   1
  -1   0   5 544.028  12.782   1
   1   0  -5 565.060  12.228   2
   1   0  -5 574.951  12.968   1
   0   0   5 8.00197 1.65049   1
   0   0   5 10.0415  8.4759   2
   0   0   5 7.79606 1.77622   1
   0   0  -5 6.41377 5.82521   2
   1   0   5 52.1145  2.7707   3
  -1   0  -5 53.1243  3.3971   2
   1   0   5 47.6400  3.5575   1
  -1   0  -5 45.7506  3.5868   1
   1   0   5 48.4742  3.4931   1
  -1   0  -5 49.3699  2.1367   5
   1   0   5 54.0019  3.3100   2
  -1   0  -5 49.7856  2.6630   3
  -1   0  -5 46.3834  3.6363   1
  -2   0  -5 3.26631 1.65691   2
  -2   0  -5 1.47687 1.05598   1
  -2   0  -5 6.22168 1.85958   1
   3   0   5 263.435   8.335   1
   3   0   5 266.583   7.623   2
  -3   0  -5 274.831   9.442   3
   3   0   5 266.572   9.337   3
  -3   0  -5 259.299   8.244   1
  -3   0  -5 261.148   8.278   1
  -4   0  -5 -0.3798  0.9798   1
   4   0   5 1.69013 1.24306   1
  -4   0  -5 1.11467 1.36847   1
   4   0   5 0.55839 1.06784   2
  -4   0  -5 0.72688 1.39022   3
  -5   0  -5 54.7626  5.4972   3
   5   0   5 55.8446  3.7018   1
  -5   0  -5 59.4211  3.8123   1
  -5   0  -5 59.1000  3.8415   1
   5   0   5 54.6582  2.6880   5
   6   0   5 -2.0411  1.1598   1
  -6   0  -5 -0.0470  1.1086   1
  -6   0  -5 -3.6089  2.8503   3
   6   0   5 1.75141 1.03187   5
  -6   0  -5 -1.4060  1.0678   1
  -7   0  -5 883.820  23.587   4
  -7   0  -5 928.746  26.566   3
   7   0   5 898.393  15.917   1
   7   0   5 909.312  17.368   5
  -7   0  -5 913.692  16.342   1
  -8   0  -5 0.81692 3.61467   3
  -8   0  -5 1.87833 0.91433   1
  -8   0  -5 -0.2105  0.9141   1
   8   0   5 0.81971 0.75690   1
   8   0   5 -1.1530  1.6406   5
  -8   0  -5 -0.6884  3.3426   4
  -9   0  -5 124.439   9.902   4
  -9   0  -5 115.715  10.328   3
   9   0   5 118.503   6.660   5
  10   0   5 4.38868 2.05502   5
 -10   0  -5 -2.9464  4.3238   3
 -10   0  -5 -1.4164  3.7330   4
 -11   0  -5 180.448  14.568   3
  12   0   5 -1.2454  2.8444   2
 -12   0  -5 -8.1466  5.4906   3
 -13   0  -5 143.849  14.362   3
 -14   0  -5 1.30732 5.12782   3
  15  -1  -5 51.5700  9.0951   5
  15   1  -5 55.2123  8.1127   2
  15   1  -5 73.7253 10.1937   5
 -15   1   5 61.4366 10.2849   3
  14  -1  -5 50.5579  8.6995   5
  14   1  -5 39.6070  6.5580   2
  14   1  -5 51.4412  8.8295   5
 -14   1   5 46.8721  9.1494   3
  13  -1  -5 14.5108  4.2412   2
  13  -1  -5 10.5428  4.9034   5
  13   1  -5 12.5357  4.2938   2
  13   1  -5 15.8831  5.7861   5
 -12  -1   5 57.1765  8.5300   3
  12  -1  -5 41.5681  6.0714   2
  12  -1  -5 40.2344  6.7869   5
 -12   1   5 42.3198  7.2952   3
  12   1  -5 31.2961  5.5502   2
 -11  -1   5 98.7105  9.7850   3
  11  -1  -5 100.045   9.805   5
  11  -1  -5 84.3438  7.8680   2
 -11   1   5 88.6326 10.0852   3
  11   1  -5 93.0308  8.9474   2
  11   1  -5 87.1162  9.6483   5
  10  -1  -5 6.30784 3.52463   5
 -10  -1   5 16.3675  5.0071   3
  10  -1  -5 9.45298 3.70425   2
  10   1  -5 9.74568 4.98495   5
  10   1  -5 13.6827  4.6115   2
 -10   1   5 13.9893  5.2029   3
   9  -1  -5 12.1861  4.1162   5
   9   1  -5 5.73514 3.41687   2
  -9   1   5 9.80277 4.36781   3
  -9   1   5 3.14657 1.31727   1
   8  -1  -5 84.4675  4.6420   1
   8  -1  -5 77.9144  7.9901   5
  -8  -1   5 77.7044  7.4723   3
   8  -1  -5 89.9300  7.0767   2
  -8  -1   5 82.7003  4.3448   1
   8   1  -5 77.4584  4.1136   1
  -8   1   5 79.5810  4.5969   1
  -8   1   5 91.3981  8.3844   3
   8   1  -5 83.3865  7.6694   2
  -7  -1   5 34.0439  2.9098   1
   7  -1  -5 39.3884  4.9149   2
   7  -1  -5 37.5697  3.2693   1
   7  -1  -5 35.3580  5.5418   5
  -7  -1   5 41.2353  5.1990   3
  -7  -1   5 35.9830  3.2174   1
  -7   1   5 35.2672  3.1455   1
   7   1  -5 37.3993  3.0738   1
  -7   1   5 37.9459  5.4207   3
  -7   1   5 37.9433  3.4380   1
   7   1  -5 34.7962  5.2710   2
  -6  -1   5 10.8339  2.9400   3
  -6  -1   5 15.8996  2.1668   1
   6  -1  -5 21.9732  3.7990   2
  -6  -1   5 13.9505  2.2620   1
   6  -1  -5 13.6649  2.2226   1
   6  -1  -5 16.7237  3.7287   5
  -6   1   5 10.5293  2.2242   1
   6   1  -5 10.7060  1.9822   1
  -6   1   5 15.2517  3.7407   3
   6   1  -5 18.5050  4.1055   2
  -5  -1   5 710.279  15.221   1
  -5  -1   5 712.430  17.258   3
   5  -1  -5 716.524  17.131   2
   5  -1  -5 703.400  19.745   5
   5  -1  -5 724.973  15.482   1
  -5  -1   5 711.193  14.993   1
  -5   1   5 724.153  15.615   1
  -5   1   5 696.256  15.184   1
   5   1  -5 710.754  18.523   2
  -5   1   5 712.452  18.153   3
   5   1  -5 714.457  15.037   1
  -4  -1   5 745.691  15.909   3
   4  -1  -5 755.981  15.873   1
   4  -1  -5 763.121  16.777   2
   4  -1  -5 774.567  19.446   5
  -4  -1   5 761.635  15.655   1
  -4  -1   5 742.421  15.722   1
   4   1  -5 756.615  15.544   1
  -4   1   5 742.202  15.744   1
   4   1  -5 756.783  16.204   3
  -4   1   5 758.189  17.025   3
  -4   1   5 763.361  16.219   1
   4   1  -5 759.772  18.234   2
  -3  -1   5 506.989  12.494   1
   3  -1  -5 496.603  12.554   2
   3  -1  -5 521.532  12.721   1
   3  -1  -5 526.745  14.560   5
  -3  -1   5 503.757  12.210   1
  -3   1   5 513.550  11.846   3
   3   1  -5 510.042  11.099   3
  -3   1   5 488.798  12.331   1
   3   1  -5 490.700  13.287   2
  -3   1   5 503.279  12.690   1
   3   1  -5 517.375  12.381   1
   2  -1  -5 13.8133  2.6439   5
   2  -1  -5 8.92583 2.14638   2
   2  -1  -5 8.20099 1.80818   1
  -2  -1   5 11.0090  2.1649   1
  -2  -1   5 12.1442  2.0314   2
   2   1  -5 11.5086  1.2739   3
  -2   1   5 12.0577  2.2103   1
  -2   1   5 11.9852  1.5285   3
  -2   1   5 11.3995  2.0087   2
   2   1  -5 6.82497 2.18657   2
  -2   1   5 10.3011  2.3071   1
   1  -1  -5 1837.31   26.83   2
   1  -1  -5 1834.25   28.20   1
  -1  -1   5 1726.66   27.28   1
   1  -1  -5 1846.45   27.28   5
  -1  -1   5 1786.52   27.79   1
   1  -1  -5 1791.49   28.04   1
   1   1  -5 1716.71   27.43   1
  -1   1   5 1806.48   26.81   2
   1   1  -5 1780.09   27.52   1
  -1   1   5 1752.05   27.69   1
  -1   1   5 1812.21   28.04   1
   1   1  -5 1726.16   26.30   2
   0  -1  -5 5850.28   69.03   2
   0   1   5 5668.27   70.29   1
   0   1  -5 5706.44   67.73   2
   0   1   5 5820.83   84.51   1
   0   1   5 5977.80   68.07   5
  -1  -1  -5 2931.64   41.08   1
  -1  -1  -5 3092.43   47.32   1
   1  -1   5 2997.08   38.12   2
   1  -1   5 2974.52   41.13   1
   1  -1   5 2955.11   40.70   1
  -1  -1  -5 3038.27   40.17   2
   1   1   5 3073.57   38.96   3
   1   1   5 3001.68   40.84   1
  -1   1  -5 3177.84   38.93   3
   1   1   5 3037.29   41.41   1
   1   1   5 3119.10   36.59   5
  -1   1  -5 3087.81   38.35   2
  -1   1  -5 2945.80   40.97   1
  -2  -1  -5 330.736   9.649   1
   2  -1   5 323.474   8.921   3
  -2  -1  -5 312.001   9.279   2
  -2  -1  -5 329.406   9.727   1
   2  -1   5 330.280   9.684   1
   2  -1   5 321.609   7.637   2
   2   1   5 329.444   9.291   3
  -2   1  -5 329.094   5.642   5
  -2   1  -5 325.481   9.599   1
   2   1   5 324.630   5.715   5
  -2   1  -5 333.574   7.925   2
   2   1   5 331.317   9.609   1
  -2   1  -5 321.540   9.250   3
  -2   1  -5 321.485   9.600   1
   2   1   5 326.437   8.974   2
   3  -1   5 5.44281 1.70438   3
  -3  -1  -5 6.26368 1.69365   1
   3  -1   5 9.14065 1.42823   2
   3   1   5 8.65138 2.05540   3
  -3   1  -5 9.35756 2.22043   3
   3   1   5 4.54772 1.59884   1
  -3   1  -5 8.45800 1.79842   1
  -3   1  -5 8.02763 0.86615   5
   4  -1   5 34.6623  1.7675   5
  -4  -1  -5 28.6062  2.8343   1
  -4  -1  -5 32.4290  3.8645   3
   4  -1   5 32.5641  3.0201   2
  -4  -1  -5 28.8348  2.9811   1
   4  -1   5 31.3091  2.9851   1
  -4   1  -5 26.3040  3.7976   3
  -4   1  -5 32.3133  3.0132   1
  -4   1  -5 35.2307  3.2296   1
   4   1   5 35.1374  3.0953   1
   5  -1   5 84.1475  4.2323   2
  -5  -1  -5 80.4958  4.5709   1
   5  -1   5 83.7826  3.4367   5
   5  -1   5 84.6616  4.7464   1
  -5  -1  -5 82.8968  4.5263   1
  -5  -1  -5 81.5181  6.2818   3
  -5   1  -5 89.4827  4.9313   1
   5   1   5 87.0917  4.6280   1
  -5   1  -5 79.1258  4.5882   1
  -5   1  -5 86.3431  6.8474   3
  -6  -1  -5 40.1649  3.1267   1
   6  -1   5 41.3320  3.2718   1
  -6  -1  -5 41.0820  5.4679   3
  -6  -1  -5 38.7220  3.1838   1
   6  -1   5 43.4611  3.3168   2
   6  -1   5 40.9552  2.8867   5
  -6   1  -5 41.1138  4.6616   4
  -6   1  -5 40.9072  3.3466   1
  -6   1  -5 45.5446  5.5017   3
  -6   1  -5 40.9100  3.3292   1
   6   1   5 42.3520  3.1683   1
  -7  -1  -5 -3.3332  3.4688   3
  -7  -1  -5 0.42889 1.11522   1
  -7  -1  -5 1.51931 3.04773   4
  -7   1  -5 0.72113 1.08273   1
  -7   1  -5 4.92367 3.02715   4
  -7   1  -5 -2.3600  1.4223   1
  -7   1  -5 7.62418 4.09849   3
   7   1   5 -0.7618  1.3932   5
  -8  -1  -5 6.29953 1.36350   1
  -8  -1  -5 5.53269 1.16668   1
   8  -1   5 4.89672 1.28066   1
  -8  -1  -5 3.69628 3.96608   4
  -8  -1  -5 3.06053 3.03252   3
  -8   1  -5 5.78059 1.55911   1
  -8   1  -5 6.83113 4.57635   3
   8   1   5 4.18728 1.08430   1
   8   1   5 3.97379 1.92541   5
  -9  -1  -5 172.542  11.893   4
   9  -1   5 167.837   7.871   5
  -9  -1  -5 166.977  12.429   3
   9   1   5 175.601   8.297   5
  -9   1  -5 171.971  12.950   3
  -9   1  -5 169.707  10.975   4
  10  -1   5 52.0693  4.8164   5
 -10  -1  -5 55.6145  7.6427   4
 -10  -1  -5 55.6371  7.9727   3
 -10   1  -5 40.9380  5.8829   4
  10   1   5 52.6418  4.9892   5
 -10   1  -5 42.9055  7.3945   3
 -11  -1  -5 6.43110 4.97716   3
  11  -1   5 -1.9039  2.3896   2
 -11   1  -5 7.38098 3.79492   4
 -11   1  -5 1.94509 3.31671   3
 -12   1  -5 100.354  11.731   3
 -12   1  -5 91.6912  9.3809   4
  13   1   5 -4.2064  3.0756   2
 -13   1  -5 -4.5315  5.5238   3
 -14   1  -5 -2.6869  5.3372   3
  15  -2  -5 15.0689  5.2420   5
  15   2  -5 5.01184 5.37748   5
 -15   2   5 30.8847  8.5015   3
  14  -2  -5 25.3494  6.4880   5
 -14   2   5 23.4575  7.4313   3
  14   2  -5 13.9165  5.4014   5
  14   2  -5 40.3875  7.0316   2
  13  -2  -5 14.1777  5.3475   5
  13  -2  -5 20.9420  4.5363   2
 -13   2   5 18.7388  6.3081   3
  13   2  -5 10.0262  4.1514   2
  13   2  -5 24.4712  6.6230   5
  12  -2  -5 14.9187  3.7634   2
  12   2  -5 7.36050 4.83055   5
  12   2  -5 9.38853 3.94515   2
 -12   2   5 6.05946 4.92081   3
  11  -2  -5 12.0639  4.6429   5
 -11   2   5 24.7351  6.3810   3
  11   2  -5 16.6141  4.5730   2
  10  -2  -5 91.0080  9.4491   5
  10  -2  -5 82.0928  6.9992   2
 -10   2   5 93.7159  9.4424   3
  10   2  -5 108.758   9.712   2
 -10   2   5 87.8922  4.6789   1
   9  -2  -5 -1.1602  2.3447   2
   9  -2  -5 4.37446 3.94044   5
   9   2  -5 -6.0556  4.3158   2
  -9   2   5 -1.0040  1.4382   1
  -9   2   5 -4.0041  3.8510   3
   8  -2  -5 8.90464 4.34030   5
   8  -2  -5 10.1292  2.0892   1
  -8  -2   5 13.8661  2.2196   1
  -8   2   5 8.63437 2.25960   1
   8   2  -5 13.8579  3.8187   2
   8   2  -5 11.8512  1.8847   1
  -8   2   5 7.77653 4.12758   3
  -8   2   5 11.0027  2.1302   1
  -7  -2   5 76.1442  4.5877   1
   7  -2  -5 74.2257  7.1005   5
   7  -2  -5 83.6793  5.2012   1
  -7  -2   5 82.3845  4.9418   1
   7  -2  -5 89.4112  6.4181   2
  -7   2   5 79.7269  7.2362   3
  -7   2   5 71.7232  4.7806   1
  -7   2   5 75.3049  5.1439   1
   7   2  -5 80.2917  4.6627   1
   7   2  -5 87.4565  7.8577   2
  -6  -2   5 1167.11   21.52   1
   6  -2  -5 1171.13   23.65   2
   6  -2  -5 1184.87   22.30   1
  -6  -2   5 1146.32   20.98   1
   6  -2  -5 1167.97   27.97   5
  -6   2   5 1122.22   21.62   1
   6   2  -5 1159.65   27.28   2
  -6   2   5 1219.88   22.84   1
   6   2  -5 1203.71   21.38   1
  -6   2   5 1162.14   27.11   3
  -5  -2   5 114.448   5.887   1
   5  -2  -5 111.237   7.763   5
   5  -2  -5 127.845   6.502   1
  -5  -2   5 112.322   5.681   1
   5  -2  -5 120.474   6.523   2
   5   2  -5 121.368   5.881   1
  -5   2   5 118.363   7.295   3
  -5   2   5 128.307   6.402   1
   5   2  -5 113.318   7.664   2
  -5   2   5 110.788   6.218   1
   4  -2  -5 799.927  17.494   1
  -4  -2   5 795.616  16.884   1
   4  -2  -5 790.507  19.788   5
   4  -2  -5 814.666  17.185   2
  -4  -2   5 756.431  16.368   1
  -4   2   5 782.698  17.498   1
   4   2  -5 802.945  17.356   3
  -4   2   5 774.437  17.118   1
   4   2  -5 782.266  19.394   2
   4   2  -5 802.607  16.766   1
  -4   2   5 802.098  18.271   3
   3  -2  -5 270.917  10.386   5
   3  -2  -5 271.005   8.891   2
  -3  -2   5 253.362   8.828   1
  -3  -2   5 269.917   9.230   1
   3  -2  -5 262.754   9.306   1
  -3   2   5 268.937   9.508   1
   3   2  -5 269.821  10.241   2
  -3   2   5 296.919   9.146   3
  -3   2   5 254.785   9.085   1
   3   2  -5 273.110   9.124   1
   3   2  -5 280.061   8.295   3
   2  -2  -5 600.855  14.558   1
   2  -2  -5 616.574  13.641   2
   2  -2  -5 599.913  14.752   5
  -2  -2   5 580.112  14.178   1
  -2  -2   5 577.205  13.945   1
   2   2  -5 629.157  14.531   1
  -2   2   5 581.575  14.520   1
  -2   2   5 609.341  13.523   2
  -2   2   5 591.759  14.343   1
   2   2  -5 620.836  14.801   2
   1  -2  -5 67.2527  4.6537   1
   1  -2  -5 70.2102  4.3558   5
  -1  -2   5 77.2072  4.9627   1
  -1  -2   5 78.3300  4.6069   2
   1  -2  -5 71.4766  4.3596   2
  -1  -2   5 72.9765  4.6826   1
  -1   2   5 70.7354  4.7124   1
   1   2  -5 72.1457  4.6844   1
  -1   2   5 74.2805  4.3152   2
  -1   2   5 73.2797  4.9995   1
   1   2  -5 73.4212  4.4350   2
  -1   2   5 75.9423  4.5175   5
   0  -2   5 110.873   5.665   1
   0  -2   5 120.107   6.157   1
   0  -2  -5 111.311   5.803   1
   0  -2  -5 107.494   5.928   1
   0  -2  -5 105.895   4.683   5
   0  -2  -5 108.735   5.386   2
   0  -2   5 114.973   4.990   2
   0   2   5 106.450   5.599   1
   0   2  -5 114.232   6.033   1
   0   2  -5 114.528   4.833   2
   0   2   5 115.615   5.024   5
   0   2   5 116.614   6.006   1
   0   2   5 106.576   5.144   2
   0   2  -5 110.629   5.796   1
   1  -2   5 0.46320 0.84819   2
   1  -2   5 -0.6543  1.2199   1
  -1  -2  -5 0.96623 1.12959   1
  -1  -2  -5 3.79727 1.96019   1
  -1  -2  -5 2.72175 1.09798   5
   1   2   5 1.01755 3.92986   5
  -1   2  -5 0.53814 1.05602   2
   1   2   5 2.69202 1.47647   1
   2  -2   5 103.701   5.763   1
  -2  -2  -5 98.3399  5.5165   1
  -2  -2  -5 98.7483  3.6398   5
   2  -2   5 102.999   3.858   2
  -2  -2  -5 99.1139  5.6335   1
  -2   2  -5 94.2901  5.0980   3
   2   2   5 98.9126  3.7335   5
  -2   2  -5 100.016   5.552   1
  -2   2  -5 98.0545  3.7654   2
   2   2   5 100.908   5.615   1
  -2   2  -5 101.054   5.692   1
  -2   2  -5 100.347   3.746   5
  -3  -2  -5 1374.73   24.06   1
   3  -2   5 1443.82   24.90   1
  -3  -2  -5 1400.71   24.28   1
   3  -2   5 1413.99   19.46   2
   3   2   5 1398.98   19.34   5
  -3   2  -5 1418.48   19.75   2
  -3   2  -5 1352.93   24.44   1
   3   2   5 1389.34   23.91   1
  -3   2  -5 1394.03   24.46   1
  -3   2  -5 1420.83   26.25   3
  -4  -2  -5 7.88808 2.09426   1
   4  -2   5 11.8110  1.3785   2
   4  -2   5 10.2925  2.2124   1
  -4  -2  -5 6.52278 1.77438   1
   4  -2   5 11.2255  1.4455   5
   4   2   5 12.7874  2.3064   1
  -4   2  -5 13.0407  2.2935   1
  -4   2  -5 15.2060  3.3272   3
  -4   2  -5 15.0580  2.5265   1
   4   2   5 9.67740 1.25898   5
  -4   2  -5 11.3610  1.6162   5
  -5  -2  -5 989.121  19.052   1
   5  -2   5 977.396  15.436   2
   5  -2   5 991.126  16.441   5
   5  -2   5 1001.12   19.65   1
  -5  -2  -5 968.044  19.079   1
   5   2   5 988.128  18.821   1
  -5   2  -5 988.411  19.767   1
  -5   2  -5 975.057  17.613   5
  -5   2  -5 1000.89   24.82   3
  -5   2  -5 996.887  19.828   1
   6  -2   5 1.55524 1.35157   1
   6  -2   5 3.74000 1.11685   2
   6  -2   5 2.98637 1.37816   5
   6   2   5 0.37770 1.23072   1
  -6   2  -5 4.88853 3.42289   3
  -6   2  -5 4.28329 1.94757   1
  -6   2  -5 4.49767 2.26985   4
  -6   2  -5 -0.8081  1.3363   1
   7  -2   5 106.940   4.815   2
   7  -2   5 99.7226  5.3166   5
  -7  -2  -5 109.614   8.879   4
  -7  -2  -5 99.3186  4.9468   1
  -7  -2  -5 98.2103  5.0780   1
   7  -2   5 109.096   5.575   1
   7   2   5 104.074   4.952   1
  -7   2  -5 103.624   9.130   3
  -7   2  -5 107.723   5.750   1
  -7   2  -5 101.118   7.076   4
  -7   2  -5 103.604   5.563   1
  -8  -2  -5 35.8984  2.8141   1
   8  -2   5 36.7770  3.6926   5
  -8  -2  -5 21.5961  4.6282   4
   8  -2   5 33.6073  3.0626   1
  -8  -2  -5 27.0122  2.3721   1
  -8   2  -5 38.1884  6.3620   3
  -8   2  -5 30.3057  4.7396   4
   8   2   5 33.5449  2.6109   1
  -8   2  -5 35.4916  3.2882   1
   9  -2   5 526.288  14.741   5
  -9  -2  -5 522.495  21.218   4
  -9   2  -5 513.348  18.251   4
  -9   2  -5 520.615  22.447   3
  -9   2  -5 512.624  11.956   1
  10  -2   5 27.8911  3.5872   2
  10  -2   5 26.8963  3.7081   5
  10   2   5 27.7871  3.9254   5
 -10   2  -5 31.4670  6.3085   3
 -11   2  -5 15.7349  6.1577   3
 -12  -2  -5 0.09327 3.07492   4
 -12   2  -5 4.59353 3.60398   4
 -12   2  -5 -7.1058  5.5061   3
 -13   2  -5 5.61562 4.80932   3
  14  -3  -5 91.4188 11.0908   5
 -14   3   5 101.318  12.638   3
  14   3  -5 107.615  12.195   5
 -13   3   5 -1.2241  4.7038   3
  13   3  -5 6.86892 4.65351   2
  13   3  -5 2.66562 3.58370   5
  12  -3  -5 35.2664  6.8074   5
  12  -3  -5 31.9981  4.8090   2
 -12   3   5 43.5022  8.0412   3
  11  -3  -5 131.326   8.712   2
  11  -3  -5 158.437  12.576   5
 -11   3   5 139.682  12.357   3
  11   3  -5 147.254  11.847   2
  10  -3  -5 100.637   7.397   2
  10  -3  -5 114.507  10.455   5
 -10   3   5 94.4515 10.2288   3
 -10   3   5 93.3938  5.7026   1
  10   3  -5 116.511  10.521   2
   9  -3  -5 260.198  11.292   2
   9  -3  -5 290.039  15.609   5
  -9  -3   5 263.551   8.785   1
   9   3  -5 270.377  14.968   2
  -9   3   5 236.626  14.338   3
  -9   3   5 270.754  10.112   1
   8  -3  -5 27.5230  5.5480   5
   8  -3  -5 27.3751  3.4264   1
   8  -3  -5 20.2502  3.5386   2
  -8  -3   5 28.8653  3.2662   1
   8   3  -5 28.7193  2.9848   1
  -8   3   5 23.2932  3.4881   1
  -8   3   5 35.8334  6.1753   3
   8   3  -5 28.8218  5.6149   2
  -7  -3   5 164.928   7.268   1
   7  -3  -5 182.078   8.398   1
   7  -3  -5 174.598   8.456   2
   7  -3  -5 180.887  11.374   5
  -7  -3   5 169.658   7.605   1
  -7   3   5 172.769   8.377   1
   7   3  -5 181.070   7.599   1
   7   3  -5 165.417  10.941   2
  -7   3   5 181.015  11.190   3
  -7   3   5 175.867   8.185   1
   6  -3  -5 -2.9085  1.9300   1
  -6  -3   5 0.03865 1.34856   1
  -6  -3   5 2.87572 1.89982   1
   6  -3  -5 0.43505 3.08548   5
   6  -3  -5 0.43689 1.94265   2
   6   3  -5 -0.5163  1.4583   1
   6   3  -5 -5.6556  3.6194   2
  -6   3   5 -3.7187  1.8491   1
  -6   3   5 -3.5442  2.3161   1
  -6   3   5 1.42770 2.46602   3
  -5  -3   5 182.663   7.945   1
   5  -3  -5 185.030   8.570   1
  -5  -3   5 190.016   8.210   1
   5  -3  -5 190.353  10.258   5
   5  -3  -5 182.215   7.859   2
  -5   3   5 177.822   8.274   1
   5   3  -5 186.010   7.939   1
  -5   3   5 185.159   8.575   1
  -5   3   5 184.563   9.598   3
   5   3  -5 185.461  10.190   2
   4  -3  -5 228.815   9.469   1
   4  -3  -5 205.685   9.974   5
  -4  -3   5 223.943   8.920   1
   4  -3  -5 217.840   8.247   2
  -4  -3   5 220.355   8.878   1
  -4   3   5 220.594   9.116   1
   4   3  -5 220.448   8.729   1
  -4   3   5 239.830   9.734   1
   4   3  -5 221.366  10.557   2
  -4   3   5 216.320   9.288   3
   3  -3  -5 37.5326  3.4883   2
  -3  -3   5 33.3414  3.5502   1
   3  -3  -5 38.7251  4.3607   5
  -3  -3   5 30.8248  3.4276   1
   3  -3  -5 35.4542  3.9682   1
   3   3  -5 30.0130  4.0714   2
  -3   3   5 33.7237  3.9416   1
  -3   3   5 37.6870  3.8886   1
   3   3  -5 35.3886  3.7525   1
   2  -3  -5 803.862  18.173   5
   2  -3  -5 824.458  18.935   1
  -2  -3   5 812.295  18.489   1
   2  -3  -5 821.377  16.714   2
  -2  -3   5 762.637  17.686   1
  -2   3   5 799.596  18.725   1
   2   3  -5 816.835  18.223   1
   2   3  -5 813.393  18.419   2
   1  -3  -5 105.919   5.719   5
  -1  -3   5 110.556   6.409   1
   1  -3  -5 98.7531  6.2560   1
   1  -3  -5 102.865   5.390   2
  -1  -3   5 113.720   5.987   2
   1   3  -5 103.539   6.220   1
  -1   3   5 106.203   6.459   1
   1   3  -5 110.071   5.704   2
   0  -3  -5 29.2395  2.9197   5
   0  -3  -5 24.9779  3.5399   1
   0  -3   5 28.9597  2.8251   2
   0  -3  -5 27.9949  3.3458   2
   0  -3   5 35.1502  3.6839   1
   0   3   5 30.0995  2.8672   5
   0   3  -5 33.7217  3.7898   1
   0   3   5 30.0452  3.7072   1
   0   3  -5 29.1206  2.6602   2
   1  -3   5 235.650   7.071   2
  -1  -3  -5 245.487   9.212   2
  -1  -3  -5 237.341   9.538   1
  -1  -3  -5 234.372   7.312   5
   1  -3   5 238.774   9.423   1
   1   3   5 245.357   7.676   5
   1   3   5 254.362   9.706   1
  -1   3  -5 242.078   7.391   5
  -1   3  -5 228.909   9.192   1
  -1   3  -5 232.007   6.667   2
  -2  -3  -5 245.056   7.252   5
  -2  -3  -5 244.099   9.494   1
  -2  -3  -5 244.847   9.382   1
   2  -3   5 250.703   9.669   1
   2  -3   5 257.982   6.569   2
   2   3   5 252.179   7.413   5
  -2   3  -5 247.137   9.727   1
  -2   3  -5 254.023   7.450   5
  -2   3  -5 244.727   9.552   1
   2   3   5 247.481   9.530   1
  -2   3  -5 255.603   6.192   2
  -3  -3  -5 97.9070  5.9141   1
  -3  -3  -5 91.1965  5.7681   1
   3  -3   5 102.940   3.439   2
   3  -3   5 97.0358  6.0913   1
  -3   3  -5 104.470   6.624   3
  -3   3  -5 104.142   4.854   5
  -3   3  -5 106.605   6.468   1
   3   3   5 105.002   6.121   1
  -3   3  -5 96.3086  3.1952   2
   3   3   5 100.978   4.437   5
  -3   3  -5 90.2243  5.7691   1
  -4  -3  -5 70.7657  4.9352   1
   4  -3   5 67.6397  5.0496   1
  -4  -3  -5 72.5393  5.2865   1
   4  -3   5 68.0258  3.8372   5
  -4   3  -5 65.4835  4.9035   1
   4   3   5 73.6062  5.0875   1
  -4   3  -5 69.6769  5.3520   1
   4   3   5 76.3960  3.8692   5
  -4   3  -5 67.0329  4.1543   5
  -4   3  -5 72.4449  6.2387   3
  -5  -3  -5 11.9160  2.3903   1
  -5  -3  -5 9.89755 2.53197   1
   5  -3   5 7.99625 1.71648   5
   5  -3   5 6.44291 2.30686   1
  -5   3  -5 15.3349  3.8723   3
  -5   3  -5 8.52551 1.88216   5
   5   3   5 8.54844 1.99891   1
   5   3   5 9.39444 1.63612   5
  -5   3  -5 8.67897 2.18423   1
  -5   3  -5 8.46900 2.02681   4
  -5   3  -5 6.33038 2.18580   1
  -6  -3  -5 25.7870  3.0442   1
   6  -3   5 28.5846  3.5063   1
  -6  -3  -5 19.1065  2.9768   1
   6  -3   5 21.7157  2.6253   5
  -6   3  -5 15.9311  4.0911   3
  -6   3  -5 28.3038  3.5235   1
  -6   3  -5 20.2726  3.0391   4
   6   3   5 20.4779  2.8322   1
  -6   3  -5 26.2565  3.2746   1
  -7  -3  -5 9.93283 2.28724   1
  -7  -3  -5 10.4665  4.5057   4
   7  -3   5 6.64104 1.11689   2
  -7  -3  -5 5.65930 1.76086   1
   7  -3   5 13.7316  2.5538   5
   7  -3   5 8.74574 2.42948   1
   7  -3   5 10.8764  1.4576   2
  -7   3  -5 10.8431  2.3541   1
   7   3   5 9.92879 2.02373   1
  -7   3  -5 6.84890 2.50600   4
  -7   3  -5 5.48435 2.29894   1
   8  -3   5 54.4750  4.6224   5
   8  -3   5 58.5281  4.4431   1
   8  -3   5 52.0417  3.1825   2
  -8  -3  -5 49.3192  3.8220   1
  -8  -3  -5 43.6296  6.7967   4
  -8   3  -5 52.0981  5.3344   4
  -8   3  -5 50.1558  4.3611   1
   8   3   5 57.0884  3.7988   1
  -8   3  -5 59.0242  7.4381   3
   9  -3   5 92.7596  4.5965   2
   9  -3   5 86.8661  5.9993   5
  -9  -3  -5 84.1393  4.2247   1
  -9  -3  -5 97.4968  9.4595   4
  -9   3  -5 91.8129  9.9311   3
  -9   3  -5 91.4171  7.3086   4
  -9   3  -5 89.5163  5.4237   1
  10  -3   5 16.6825  3.1767   5
 -10   3  -5 17.7418  4.0932   4
 -10   3  -5 21.3490  2.5820   1
 -11   3  -5 21.0556  5.8162   3
 -12   3  -5 266.043  19.127   3
 -13   3  -5 6.06888 4.79214   3
 -14   3  -5 38.1266  9.0758   3
  14  -4  -5 0.01031 3.38587   5
 -14   4   5 -9.6211  5.8242   3
  13  -4  -5 34.4463  7.3603   5
  13   4  -5 42.8215  7.5172   2
 -13   4   5 46.4187  9.1103   3
  12  -4  -5 25.5949  6.4236   5
  12   4  -5 20.0075  5.2939   2
 -12   4   5 9.22655 5.79577   3
  11  -4  -5 101.125   7.366   2
  11  -4  -5 107.083  10.684   5
 -11   4   5 102.464   6.311   1
  11   4  -5 101.830  10.327   2
 -11   4   5 114.443  12.184   3
  10  -4  -5 78.7336  6.2710   2
 -10  -4   5 82.1326  4.9099   1
  10  -4  -5 72.1920  8.3392   5
 -10   4   5 79.1098  5.9613   1
 -10   4   5 78.6183  9.6439   3
  10   4  -5 73.1880  8.8022   2
   9  -4  -5 28.4147  3.8453   2
   9  -4  -5 24.7190  5.7569   5
  -9  -4   5 36.0905  3.7035   1
  -9   4   5 32.6916  6.5863   3
  -9   4   5 31.5660  4.0339   1
   9   4  -5 21.0899  5.8736   2
   8  -4  -5 27.9831  3.8857   1
  -8  -4   5 19.3462  3.0869   1
   8  -4  -5 18.8179  3.2034   2
   8  -4  -5 26.5276  5.5663   5
   8   4  -5 18.5720  2.8274   1
  -8   4   5 16.5698  3.2864   1
   8   4  -5 22.6693  5.7533   2
  -8   4   5 27.1601  5.7210   3
  -7  -4   5 -3.3840  2.2820   1
   7  -4  -5 -0.9314  2.0051   2
   7  -4  -5 5.09547 3.64822   5
  -7  -4   5 2.26487 1.61542   1
   7  -4  -5 -0.0600  1.6252   1
  -7   4   5 -2.2150  3.3210   3
   7   4  -5 -0.3439  1.6342   1
  -7   4   5 3.01875 1.92077   1
   7   4  -5 1.28122 2.89692   2
  -7   4   5 -2.6097  2.5672   1
  -6  -4   5 40.3789  4.3572   1
   6  -4  -5 33.3707  5.5050   5
   6  -4  -5 40.1893  4.0926   2
  -6  -4   5 42.8938  4.2636   1
   6  -4  -5 52.7256  5.2100   1
  -6   4   5 47.2901  6.0011   3
  -6   4   5 45.9908  4.6310   1
   6   4  -5 46.1733  4.4175   1
  -6   4   5 38.8340  4.4272   1
   6   4  -5 45.2205  6.2715   2
  -5  -4   5 -0.1026  1.3474   1
  -5  -4   5 7.10989 2.72439   1
   5  -4  -5 3.56098 3.49202   5
   5  -4  -5 -1.6141  1.7560   2
   5   4  -5 1.99865 1.72113   1
   5   4  -5 0.25090 3.22580   2
  -5   4   5 6.16896 5.52192   1
  -4  -4   5 270.103  10.835   1
  -4  -4   5 278.715  10.747   1
   4  -4  -5 290.343  12.303   5
   4  -4  -5 291.346  11.700   1
   4  -4  -5 276.650   9.544   2
   4   4  -5 271.040  12.275   2
  -4   4   5 265.672  11.289   1
   4   4  -5 279.788  10.796   1
   3  -4  -5 171.656   7.423   2
   3  -4  -5 181.981   9.150   5
  -3  -4   5 176.597   8.528   1
   3  -4  -5 177.744   8.930   1
  -3   4   5 187.026   9.419   1
   3   4  -5 176.490   8.533   1
   3   4  -5 170.329   8.960   2
  -2  -4   5 932.711  21.357   1
   2  -4  -5 911.387  18.787   2
   2  -4  -5 919.291  21.737   1
   2  -4  -5 876.103  20.105   5
  -2   4   5 911.827  21.759   1
   2   4  -5 941.021  21.205   2
   2   4  -5 939.074  21.201   1
   1  -4  -5 137.664   8.031   1
   1  -4  -5 137.128   6.918   2
  -1  -4   5 141.441   7.754   1
   1  -4  -5 140.781   7.185   5
   1   4  -5 142.132   6.079   4
  -1   4   5 136.779   7.960   1
   1   4  -5 142.480   7.869   1
   1   4  -5 138.147   7.027   2
   0  -4  -5 2.80527 2.12413   2
   0  -4   5 0.71858 2.09834   1
   0  -4  -5 -3.6925  2.5712   1
   0  -4  -5 1.90231 1.83703   5
   0   4  -5 -1.5834  1.6031   2
   0   4  -5 -4.2060  2.3620   1
  -1  -4  -5 15.8331  3.3210   1
   1  -4   5 14.9698  3.2168   1
  -1  -4  -5 9.17319 2.17972   5
  -1   4  -5 12.6166  3.0979   1
  -1   4  -5 14.0795  1.9633   2
   1   4   5 12.5968  3.1508   1
  -2  -4  -5 199.326   9.298   1
   2  -4   5 189.995   9.181   1
  -2   4  -5 186.009   9.052   1
  -2   4  -5 190.810   5.491   2
   2   4   5 195.159   9.187   1
   3  -4   5 288.980  11.440   1
  -3  -4  -5 286.029  11.121   1
   3   4   5 279.882  10.978   1
  -3   4  -5 300.642  11.804   1
  -3   4  -5 300.890  11.762   3
   4  -4   5 9.83572 2.74436   1
  -4  -4  -5 6.87496 2.25887   1
   4  -4   5 6.60641 1.86596   5
  -4   4  -5 6.98158 2.72966   1
   5  -4   5 122.442   6.159   5
  -5  -4  -5 135.638   7.529   1
  -5  -4  -5 128.409   7.203   1
   5  -4   5 125.865   7.516   1
  -5   4  -5 125.301   7.520   1
  -5   4  -5 121.132   7.323   1
  -5   4  -5 116.147   8.800   3
   5   4   5 123.369   7.047   1
  -5   4  -5 128.333   5.414   4
  -6  -4  -5 229.683   9.568   1
  -6  -4  -5 213.823   9.189   1
   6  -4   5 216.075   9.899   1
   6  -4   5 229.922   8.756   5
  -6   4  -5 215.140  12.523   3
  -6   4  -5 233.319  10.408   1
  -6   4  -5 219.119   8.047   4
  -6   4  -5 222.149  10.047   1
   6   4   5 216.763   9.114   1
  -7  -4  -5 900.636  27.170   4
   7  -4   5 915.572  19.971   5
  -7  -4  -5 876.891  19.786   1
   7  -4   5 913.810  21.388   1
  -7   4  -5 891.561  19.436   4
  -7   4  -5 880.908  27.666   3
  -7   4  -5 899.614  21.568   1
   7   4   5 881.520  19.355   1
   8  -4   5 15.9072  3.0147   1
   8  -4   5 21.0235  3.4035   5
  -8  -4  -5 12.7501  2.4633   1
  -8  -4  -5  9.8199 13.8499   4
  -8   4  -5 15.5504  3.1747   1
  -8   4  -5 21.8808  3.3714   4
  -8   4  -5 18.8173  5.4394   3
   9  -4   5 15.5932  3.1543   5
  -9  -4  -5 15.7098  2.4368   1
  -9   4  -5 14.9625  2.8876   1
  -9   4  -5 12.3923  2.9807   4
  10  -4   5 33.9382  4.2904   5
 -10   4  -5 37.6289  4.0124   1
 -10   4  -5 37.7888  4.8247   4
 -10   4  -5 30.7897  7.0621   3
 -11   4  -5 116.412  12.314   3
 -12   4  -5 57.7706 10.0699   3
 -13   4  -5 45.4854  9.4054   3
 -14   4  -5 34.1347  8.9827   3
  14  -5  -5 -6.2636  5.0177   5
 -14   5   5 6.92438 5.92430   3
  13  -5  -5 10.7124  4.5078   5
 -13   5   5 7.12520 6.12303   3
  12  -5  -5 3.17624 4.89290   5
 -12   5   5 11.1478  6.3034   3
  12   5  -5 4.29609 3.89311   2
  11  -5  -5 91.3781 10.1831   5
  11   5  -5 80.8304  9.7392   2
 -11   5   5 88.1444 11.1715   3
 -11   5   5 76.3823  6.3182   1
 -10  -5   5 11.0214  2.4406   1
  10  -5  -5 16.8232  4.7998   5
  10  -5  -5 14.4140  3.0034   2
  10   5  -5 8.83887 4.22101   2
 -10   5   5 10.9106  3.0885   1
 -10   5   5 7.10181 5.12721   3
   9  -5  -5 107.049   6.721   2
  -9  -5   5 104.710   6.776   1
   9  -5  -5 108.912   9.844   5
   9   5  -5 100.030  10.337   2
  -9   5   5 98.1585  7.5145   1
  -9   5   5 114.087  10.971   3
  -8  -5   5 20.1083  3.4817   1
   8  -5  -5 21.5375  5.3817   5
   8  -5  -5 28.8516  3.5948   2
   8  -5  -5 26.6618  3.9656   1
  -8   5   5 22.3559  5.6107   3
  -8   5   5 14.9704  3.6353   1
   8   5  -5 25.0876  5.8394   2
   8   5  -5 24.1103  3.5104   1
   7  -5  -5 761.078  24.445   5
  -7  -5   5 785.594  20.356   1
   7  -5  -5 762.666  18.173   2
   7  -5  -5 775.776  21.427   1
   7   5  -5 759.202  25.261   2
  -7   5   5 768.689  21.605   1
   7   5  -5 773.923  19.707   1
  -7   5   5 791.287  25.776   3
   6  -5  -5 105.886   7.802   1
   6  -5  -5 106.633   9.096   5
  -6  -5   5 108.718   7.202   1
  -6  -5   5 99.7515  7.3284   1
   6  -5  -5 104.863   6.337   2
   6   5  -5 109.426   9.617   2
  -6   5   5 97.4820  7.4964   1
  -6   5   5 110.743   8.843   3
   6   5  -5 108.292   7.054   1
   5  -5  -5 246.426  11.419   1
   5  -5  -5 238.917   9.251   2
   5  -5  -5 231.766  12.223   5
  -5  -5   5 248.446  11.084   1
   5   5  -5 239.591  12.769   2
  -5   5   5 265.401  12.333   1
   5   5  -5 259.590  11.083   1
   4  -5  -5 219.718  11.041   1
  -4  -5   5 211.405  10.327   1
   4  -5  -5 209.826   8.595   2
   4  -5  -5 203.825  10.745   5
  -4   5   5 206.799  10.672   1
   4   5  -5 206.755   9.903   1
   4   5  -5 205.549  11.104   2
   3  -5  -5 4.81097 2.90608   1
  -3  -5   5 6.43715 2.99756   1
   3  -5  -5 0.29082 1.95668   2
   3  -5  -5 2.62758 2.79784   5
   3   5  -5 -1.9891  2.5354   1
  -3   5   5 2.78359 4.28666   1
   2  -5  -5 164.977   7.884   2
   2  -5  -5 159.581   8.476   5
  -2  -5   5 159.171   9.035   1
   2  -5  -5 183.828   9.823   1
  -2   5   5 169.208   9.657   1
   2   5  -5 174.573   8.985   2
   2   5  -5 181.558   9.483   1
   1  -5  -5 184.493   8.489   2
  -1  -5   5 173.179   9.404   1
   1  -5  -5 174.079   8.458   5
   1  -5  -5 175.868   9.678   1
   1   5  -5 184.980   8.633   2
   1   5  -5 180.852   9.473   1
  -1   5   5 172.773   9.615   1
   1   5  -5 171.350   7.134   4
   0  -5  -5 2.60222 2.26263   5
   0  -5  -5 9.85739 3.40968   1
   0  -5   5 1.92766 2.63335   1
   0   5   5 -2.0268  2.6669   1
   0   5  -5 -1.8397  1.8630   2
   1  -5   5 122.609   7.987   1
  -1  -5  -5 125.438   6.637   5
  -1  -5  -5 115.025   7.899   1
   1   5   5 128.181   8.173   1
  -1   5  -5 125.175   4.507   4
  -1   5  -5 121.735   5.629   2
  -1   5  -5 116.089   7.897   1
  -2  -5  -5 38.0501  4.5620   1
   2  -5   5 37.1492  4.8414   1
  -2   5  -5 49.8015  5.4872   1
   2   5   5 49.4415  5.3731   1
  -2   5  -5 39.4342  2.7138   2
  -3  -5  -5 92.0564  6.8822   1
   3  -5   5 93.6989  6.9479   1
   3   5   5 100.575   7.207   1
  -3   5  -5 96.5175  7.4124   1
   4  -5   5 16.4827  3.4898   1
   4  -5   5 19.0689  3.0573   5
  -4  -5  -5 13.8442  3.6721   1
  -4   5  -5 16.3604  3.7570   1
   4   5   5 14.7042  3.3822   1
   5  -5   5 183.386   8.352   5
   5  -5   5 182.341   9.787   1
  -5  -5  -5 190.772   9.851   1
  -5   5  -5 194.087  10.420   1
  -5   5  -5 195.595  11.612   3
   5   5   5 188.899   9.475   1
  -6  -5  -5 129.475   9.753   4
   6  -5   5 120.848   7.006   5
  -6  -5  -5 129.040   7.897   1
   6  -5   5 131.181   8.326   1
  -6   5  -5 125.876   8.375   1
  -6   5  -5 121.475   4.966   4
   6   5   5 124.524   7.549   1
   7  -5   5 54.6174  4.9878   5
  -7  -5  -5 49.3070  5.0551   1
   7  -5   5 59.3892  5.7521   1
  -7   5  -5 56.2509  3.8360   4
  -7   5  -5 57.1710  5.8955   1
   7   5   5 56.9747  5.0524   1
  -7   5  -5 73.2201  8.6456   3
   8  -5   5 37.5872  4.5839   1
   8  -5   5 38.3057  4.4404   5
  -8  -5  -5 27.1351  3.7528   1
  -8   5  -5 29.9824  6.0142   3
  -8   5  -5 34.2460  4.5999   1
   9  -5   5 245.159  11.078   5
  -9  -5  -5 234.990   9.745   1
  -9   5  -5 239.417  16.213   3
  -9   5  -5 224.220  10.820   1
 -10  -5  -5 3.41263 1.53177   1
  10  -5   5 5.84597 2.88516   5
 -10   5  -5 2.76512 3.80878   3
 -11   5  -5 162.061  14.915   3
 -12   5  -5 -6.5270  5.9111   3
 -13  -5  -5 0.65688 3.98816   4
 -13   5  -5 0.38452 5.14462   3
  13  -6  -5 0.67207 4.70441   5
  12  -6  -5 364.200  20.532   5
 -12   6   5 347.686  22.416   3
  11  -6  -5 60.4874  8.4530   5
 -11   6   5 60.0455 10.0850   3
 -11   6   5 54.8930  6.1715   1
 -10  -6   5 129.352   7.869   1
  10  -6  -5 118.688  10.968   5
 -10   6   5 131.485   9.126   1
 -10   6   5 125.498  12.657   3
  10   6  -5 132.888  12.504   2
   9  -6  -5 49.6490  7.5896   5
   9  -6  -5 39.5129  4.2557   2
  -9  -6   5 41.4755  4.9630   1
  -9   6   5 47.8432  7.8517   3
   9   6  -5 43.7747  7.9137   2
  -9   6   5 41.9187  5.5707   1
  -8  -6   5 61.5998  6.0116   1
   8  -6  -5 62.9477  6.4971   1
   8  -6  -5 54.6602  4.7142   2
   8  -6  -5 61.4013  8.0139   5
  -8   6   5 47.6366  5.9656   1
   8   6  -5 60.3960  8.4209   2
  -8   6   5 57.3047  8.2105   3
   7  -6  -5 68.7469  6.6989   1
   7  -6  -5 66.5248  7.6386   5
   7  -6  -5 70.3481  5.3184   2
  -7  -6   5 69.5077  6.5264   1
   7   6  -5 64.1965  5.9969   1
   7   6  -5 58.9705  7.5504   2
  -7   6   5 72.0562  8.4396   3
  -7   6   5 68.9117  6.9735   1
   6  -6  -5 6.60636 3.46641   5
  -6  -6   5 -4.3419  3.2437   1
   6  -6  -5 -5.6285  3.3955   1
  -6   6   5 3.13939 3.65202   1
   6   6  -5 -2.4998  2.9403   1
   6   6  -5 0.98679 4.56128   2
  -6   6   5 8.17239 3.63116   3
   5  -6  -5 1.37911 2.17989   2
  -5  -6   5 2.25959 3.16145   1
   5  -6  -5 3.68994 3.28870   1
   5   6  -5 -0.2474  2.6990   1
  -5   6   5 0.68526 2.44605   1
   5   6  -5 -0.2120  3.7396   2
   4  -6  -5 205.955  11.253   5
   4  -6  -5 203.062  11.470   1
  -4  -6   5 189.171  21.455   1
   4  -6  -5 200.175   8.941   2
   4   6  -5 200.882  10.707   1
  -4   6   5 195.622  11.271   1
   4   6  -5 190.417  11.284   2
   3  -6  -5 469.808  17.492   1
  -3  -6   5 482.509  16.984   1
   3  -6  -5 468.548  16.457   5
   3  -6  -5 486.653  14.453   2
  -3   6   5 470.543  17.477   1
   3   6  -5 478.790  16.605   1
   3   6  -5 482.307  17.271   2
  -2  -6   5 329.095  14.019   1
   2  -6  -5 349.416  14.602   1
   2  -6  -5 348.495  12.394   2
   2  -6  -5 339.318  13.292   5
   2   6  -5 339.943  13.947   1
   2   6  -5 362.336  14.045   2
  -2   6   5 363.784  15.251   1
   1  -6  -5 10.7429  3.8569   1
   1  -6  -5 13.0052  3.6564   5
   1   6  -5 14.3219  3.4311   2
  -1   6   5 14.4687  3.6386   1
   0  -6   5 738.137  21.648   1
   0  -6  -5 717.895  21.475   1
   0  -6  -5 700.613  18.637   5
   0   6  -5 733.243  17.869   2
   0   6  -5 703.415  21.116   1
   0   6   5 726.026  21.611   1
   0   6  -5 705.151  14.589   4
  -1  -6  -5 218.649   9.758   5
  -1  -6  -5 218.135  11.452   1
   1  -6   5 222.628  11.677   1
   1   6   5 212.264  11.252   1
  -1   6  -5 212.966  11.336   1
  -1   6  -5 213.267   6.006   4
  -1   6  -5 209.986   8.166   2
   2  -6   5 29.0489  4.5478   1
  -2  -6  -5 42.4538  5.7985   1
  -2   6  -5 26.8482  5.0002   1
  -2   6  -5 29.0629  2.6831   2
   2   6   5 26.8103  4.8570   1
   3  -6   5 23.1881  4.7145   1
  -3  -6  -5 21.4570  4.1519   1
   3   6   5 19.6189  4.3016   1
  -3   6  -5 20.5495  1.6684   2
  -3   6  -5 23.2810  4.6148   1
  -4  -6  -5 115.846   8.512   1
   4  -6   5 105.854   6.924   5
   4  -6   5 115.813   8.639   1
   4   6   5 109.514   8.063   1
  -4   6  -5 118.513   9.002   1
  -5  -6  -5 195.626  10.847   1
   5  -6   5 200.744  11.172   1
   5  -6   5 196.267   9.372   5
  -5   6  -5 195.547  11.301   1
   5   6   5 196.599  10.347   1
  -5   6  -5 217.056  12.955   3
   6  -6   5 0.96146 2.41186   5
  -6  -6  -5 0.62246 3.19824   4
  -6  -6  -5 0.30181 2.91833   1
   6  -6   5 11.9773  3.9546   1
  -6   6  -5 -0.8127  4.0093   3
  -6   6  -5 3.79956 2.64102   1
   6   6   5 5.72969 2.86402   1
  -7  -6  -5 117.134   8.113   1
   7  -6   5 116.557   8.467   1
   7  -6   5 115.907   7.592   5
  -7  -6  -5 129.530  10.739   4
  -7   6  -5 131.999   9.262   1
   7   6   5 114.648   7.720   1
  -7   6  -5 117.466  10.998   3
   8  -6   5 9.26194 3.16698   5
  -8  -6  -5 10.8858  3.0917   1
  -8   6  -5 8.95183 3.66106   1
  -8   6  -5 13.4923  4.6427   3
   9  -6   5 47.9719  5.5726   5
  -9  -6  -5 49.2835  5.1662   1
  -9   6  -5 41.6324  5.4557   1
  -9   6  -5 51.5070  8.6716   3
 -10  -6  -5 -2.3231  1.7686   1
  10  -6   5 -2.1407  2.5481   5
 -10   6  -5 -0.2582  4.6373   3
 -11  -6  -5 13.7736  5.2631   4
 -11   6  -5 7.15813 5.87718   3
 -11   6  -5 3.59861 2.34969   1
 -12   6  -5 -14.520   6.441   3
 -13   6  -5 16.9613  6.4065   3
  13  -7  -5 -4.1120  4.2542   5
 -13   7   5 4.43634 5.53165   3
  12  -7  -5 19.4715  6.2981   5
 -12   7   5 14.4194  7.0342   3
  11  -7  -5 11.1291  5.5411   5
 -11   7   5 8.64185 5.73782   3
  10  -7  -5 21.1769  6.3424   5
 -10  -7   5 26.1411  4.3840   1
 -10   7   5 18.2129  4.4517   1
 -10   7   5 15.2874  6.2236   3
  10   7  -5 30.4040  7.3397   2
   9  -7  -5 11.8269  4.4231   5
  -9  -7   5 7.41587 3.12902   1
  -9   7   5 4.65577 3.37211   1
  -9   7   5 12.7833  5.7577   3
   8  -7  -5 63.4784  8.3196   5
  -8  -7   5 47.6481  6.0564   1
   8  -7  -5 53.7431  4.7822   2
   8  -7  -5 45.1615  6.1728   1
  -8   7   5 64.8359  9.1412   3
  -8   7   5 56.3020  6.8859   1
   8   7  -5 50.2863  8.1631   2
   7  -7  -5 0.49666 2.93461   1
   7  -7  -5 2.67828 1.98944   2
  -7  -7   5 4.05334 3.25705   1
   7  -7  -5 -6.8749  4.3888   5
  -7   7   5 6.87193 3.33474   1
   7   7  -5 2.86024 2.28111   1
   7   7  -5 -2.2846  4.3054   2
  -7   7   5 5.59763 4.29897   3
   6  -7  -5 19.2865  4.8509   5
   6  -7  -5 19.6694  4.6303   1
  -6  -7   5 15.2236  4.1989   1
   6  -7  -5 19.1075  3.2320   2
   6   7  -5 19.2728  3.8084   1
  -6   7   5 19.8757  4.8833   1
   6   7  -5 13.6983  4.5264   2
   5  -7  -5 33.2649  5.2214   1
   5  -7  -5 39.1019  6.2273   5
   5  -7  -5 39.2636  4.4234   2
  -5  -7   5 38.3993  5.4980   1
   5   7  -5 29.3621  5.9415   2
  -5   7   5 32.9657  5.7509   1
   5   7  -5 38.6405  5.4526   1
   4  -7  -5 162.309  10.166   5
  -4  -7   5 173.207  10.928   1
   4  -7  -5 167.725   8.721   2
   4  -7  -5 149.953  10.427   1
  -4   7   5 180.336  11.739   1
   4   7  -5 178.186  10.643   1
   4   7  -5 157.814  11.013   2
   3  -7  -5 4.90304 3.96338   1
   3  -7  -5 10.1433  3.7496   5
  -3   7   5 2.34543 3.77291   1
   3   7  -5 7.10982 3.75317   2
   3   7  -5 6.22013 3.05589   1
  -2  -7   5 150.367  10.344   1
   2  -7  -5 138.632   9.084   5
   2  -7  -5 146.496  10.432   1
  -2   7   5 154.078  10.455   1
   2   7  -5 143.885   9.224   2
   2   7  -5 166.519  10.607   1
   1  -7  -5 1.43717 3.16788   5
  -1  -7   5 0.07982 3.48797   1
  -1   7   5 -9.1427  4.3232   1
   1   7  -5 -2.4743  2.6815   2
   1   7  -5 1.82700 3.54553   1
   0  -7  -5 192.603  10.089   5
   0  -7   5 183.526  11.104   1
   0  -7  -5 199.976  12.017   1
   0   7  -5 197.319  11.863   1
   0   7   5 193.094  11.752   1
   0   7  -5 186.195   9.221   2
  -1  -7  -5 43.8131  6.6113   1
  -1  -7  -5 46.6822  5.5220   5
   1  -7   5 51.7018  6.2748   1
   1   7   5 55.7539  6.7902   1
  -1   7  -5 49.4236  6.7185   1
  -1   7  -5 53.3703  4.6162   2
   2  -7   5 787.458  24.087   1
  -2  -7  -5 817.974  24.461   1
  -2   7  -5 799.037  16.591   2
   2   7   5 842.474  24.635   1
  -2   7  -5 830.194  25.137   1
  -3  -7  -5 106.834   9.317   1
   3  -7   5 113.286   9.360   1
  -3   7  -5 105.857   4.272   2
   3   7   5 107.438   8.587   1
  -3   7  -5 106.681   8.948   1
   4  -7   5 1.58842 3.32331   1
  -4   7  -5 6.28431 4.19728   1
   4   7   5 9.33170 3.19129   1
   5  -7   5 52.5060  5.4420   5
   5  -7   5 51.9083  6.4618   1
  -5  -7  -5 49.4700  6.3345   1
  -5  -7  -5 55.9494  6.7755   4
   5   7   5 58.3464  6.4850   1
  -5   7  -5 62.3712  7.8414   3
  -5   7  -5 67.0310  7.4750   1
  -6  -7  -5 30.0427  5.2730   1
   6  -7   5 33.2705  5.4225   1
  -6  -7  -5 25.8617  9.7254   4
   6  -7   5 31.0871  4.5555   5
  -6   7  -5 39.9141  6.1796   1
  -6   7  -5 18.0169  5.4536   3
   6   7   5 22.0396  4.0382   1
   7  -7   5 86.6601  7.7723   1
   7  -7   5 89.4697  7.1101   5
  -7  -7  -5 78.1377  7.3549   1
  -7   7  -5 80.0970  9.6560   3
   7   7   5 86.8609  7.2263   1
  -7   7  -5 79.7759  8.0117   1
   8  -7   5 3.12282 2.77339   5
  -8  -7  -5 -3.7255  2.8428   1
  -8   7  -5 -5.8987  5.0423   3
  -8   7  -5 0.40890 2.36594   1
  -9  -7  -5 5.86519 2.85862   1
   9  -7   5 -0.9465  2.0141   5
  -9   7  -5 3.74234 5.28618   3
  -9   7  -5 2.60128 2.88976   1
 -10  -7  -5 -1.5691  2.0800   1
 -10   7  -5 0.24138 2.45623   1
 -10   7  -5 -5.9260  5.5327   3
 -11   7  -5 -9.4815  5.9786   3
 -12  -7  -5 124.064  13.558   4
 -12   7  -5 118.858  14.389   3
  12  -8  -5 33.9101  7.9468   5
 -12   8   5 20.3531  7.3651   3
  11  -8  -5 0.34648 4.91086   5
 -11   8   5 4.32497 5.19543   3
 -11   8   5 14.4811  4.2961   1
 -10  -8   5 4.05223 3.12252   1
  10  -8  -5 -2.2170  4.6066   5
 -10   8   5 3.66018 3.63884   1
  -9  -8   5 -1.0318  2.9224   1
   9  -8  -5 -6.3575  4.7490   5
   9   8  -5 7.26309 5.37207   2
  -9   8   5 -7.8581  4.0756   1
  -9   8   5 -0.3545  3.2989   3
  -8  -8   5 76.6298  7.8687   1
   8  -8  -5 70.2701  8.8925   5
  -8   8   5 57.5820  8.9794   3
   8   8  -5 59.8905  8.5213   2
  -8   8   5 77.4742  8.6773   1
  -7  -8   5 6.24680 3.77911   1
   7  -8  -5 9.90250 4.15616   5
   7  -8  -5 5.24104 3.55531   1
  -7   8   5 8.75245 5.14325   3
  -7   8   5 16.3649  4.9994   1
  -6  -8   5 4.69995 3.71977   1
   6  -8  -5 4.77512 3.31760   5
   6  -8  -5 2.31907 3.43477   1
   6   8  -5 8.86242 3.04189   1
  -6   8   5 4.80738 4.01300   1
   6   8  -5 2.23783 3.96593   2
   5  -8  -5 27.0025  5.6476   5
  -5  -8   5 22.7181  5.1762   1
  -5   8   5 34.3488  6.2569   1
   5   8  -5 25.0459  5.0178   1
   4  -8  -5 16.0939  4.8961   5
   4  -8  -5 12.3666  4.5730   1
  -4  -8   5 22.7493  4.7613   1
   4   8  -5 25.0674  5.4830   2
   4   8  -5 25.7324  5.2083   1
  -4   8   5 20.5574  5.4528   1
   3  -8  -5 259.147  13.405   5
  -3  -8   5 265.351  14.235   1
   3  -8  -5 252.485  14.489   1
   3   8  -5 247.397  13.660   2
   3   8  -5 258.343  14.099   1
  -3   8   5 247.092  14.425   1
   2  -8  -5 4.50050 3.97428   5
  -2  -8   5 13.2895  4.5884   1
  -2   8   5 -1.3597  3.8544   1
   2   8  -5 5.06796 3.93552   1
  -1  -8   5 181.034  11.830   1
   1  -8  -5 182.405  10.475   5
   1  -8  -5 177.336  12.333   1
   1   8  -5 186.697  10.622   2
  -1   8   5 170.161  11.766   1
   1   8  -5 189.383  12.317   1
   0  -8  -5 122.285   8.789   5
   0  -8  -5 137.177  10.865   1
   0  -8   5 117.635   9.839   1
   0   8  -5 100.516   7.386   2
   0   8  -5 112.226   9.495   1
   0   8   5 101.768   9.116   1
  -1  -8  -5 42.7190  6.2701   1
   1  -8   5 44.3571  6.7354   1
  -1   8  -5 39.2984  6.3888   1
   1   8   5 41.5621  6.4381   1
  -1   8  -5 32.9629  4.0779   2
   2  -8   5 12.7031  4.5633   1
  -2  -8  -5 7.90744 4.89921   1
  -2   8  -5 5.99841 3.56545   1
  -2   8  -5 10.1645  2.3188   2
  -3  -8  -5 199.632  12.537   1
   3  -8   5 205.846  12.966   1
   3   8   5 206.999  12.838   1
  -3   8  -5 199.892   6.663   2
  -3   8  -5 221.711  13.809   1
   4  -8   5 272.827  15.034   1
  -4  -8  -5 289.531  15.087   1
   4   8   5 291.795  14.998   1
  -4   8  -5 292.373  15.745   1
   5  -8   5 12.4332  4.5085   1
  -5  -8  -5 6.63691 4.16614   1
  -5  -8  -5 10.6175  4.7064   4
   5   8   5 7.94102 3.85832   1
  -5   8  -5 10.1335  4.7345   3
  -6  -8  -5 78.4009  8.6087   4
   6  -8   5 70.1293  6.6900   5
  -6  -8  -5 82.2811  8.2713   1
   6  -8   5 78.0329  8.2088   1
  -6   8  -5 77.2879  9.1153   3
   6   8   5 78.3537  7.5134   1
  -6   8  -5 74.5696  8.0508   1
  -7  -8  -5 99.2025  8.8871   1
   7  -8   5 105.571   9.401   1
   7  -8   5 113.367   8.579   5
  -7   8  -5 113.229  10.075   1
  -7   8  -5 101.316  11.328   3
  -8  -8  -5 151.597  10.643   1
   8  -8   5 151.610  10.177   5
  -8   8  -5 128.183  12.973   3
  -8   8  -5 159.983  11.680   1
  -9  -8  -5 41.3650  5.7181   1
   9  -8   5 39.7157  5.5434   5
  -9   8  -5 38.0673  6.3042   1
 -10  -8  -5 22.2555  4.3529   1
  10  -8   5 34.6036  5.5618   5
 -10   8  -5 21.6825  5.0021   1
 -10   8  -5 16.5999  7.1240   3
 -11  -8  -5 18.1901  6.6505   4
 -11   8  -5 11.8950  4.1300   1
 -12   8  -5 5.89232 6.41871   3
  11  -9  -5 28.0415  6.9837   5
 -11   9   5 26.4251  5.7460   1
  10  -9  -5 -1.6261  3.6577   5
 -10  -9   5 6.10606 3.42663   1
 -10   9   5 13.4669  6.6653   3
 -10   9   5 4.48862 4.14151   1
  -9  -9   5 7.29199 3.61097   1
   9  -9  -5 -1.7791  4.7197   5
   9   9  -5 13.1088  6.1450   2
  -9   9   5 6.66874 4.37773   3
  -9   9   5 3.30091 3.84584   1
   8  -9  -5 19.6217  5.8535   5
  -8  -9   5 33.6546  5.8721   1
  -8   9   5 21.5949  5.3778   1
   8   9  -5 29.9534  6.5798   2
  -8   9   5 29.0372  7.2790   3
   7  -9  -5 139.184  11.794   5
  -7  -9   5 122.593  10.389   1
   7  -9  -5 126.813  11.142   1
  -7   9   5 130.774  12.632   3
  -7   9   5 119.235  11.181   1
   7   9  -5 142.032  12.917   2
   6  -9  -5 140.459  11.469   1
   6  -9  -5 139.193  11.687   5
  -6  -9   5 138.852  11.063   1
   6   9  -5 140.929  12.450   2
  -6   9   5 146.962  12.188   1
   6   9  -5 142.303  10.986   1
   5  -9  -5 234.782  14.770   1
   5  -9  -5 226.192  14.015   5
  -5  -9   5 233.578  14.198   1
   5   9  -5 229.728  15.076   2
  -5   9   5 253.225  15.702   1
   5   9  -5 243.572  14.197   1
   4  -9  -5 101.358  10.068   1
  -4  -9   5 111.347  10.080   1
   4  -9  -5 112.032   9.786   5
   4   9  -5 110.014   9.601   1
  -4   9   5 106.054  10.576   1
   4   9  -5 105.658  10.058   2
  -3  -9   5 11.1770  4.5370   1
   3  -9  -5 -3.8246  4.2885   1
   3   9  -5 4.69592 3.79026   2
  -3   9   5 2.47361 4.33359   1
   3   9  -5 -1.8067  3.6145   1
   2  -9  -5 37.4592  6.6136   1
   2  -9  -5 46.0610  6.5707   5
  -2  -9   5 48.5119  7.3660   1
   2   9  -5 43.3961  6.3430   2
  -2   9   5 56.0047  7.9767   1
   2   9  -5 47.7626  7.3444   1
  -1  -9   5 7.63618 4.22021   1
   1  -9  -5 3.79628 3.24110   1
   1   9  -5 14.2242  4.2952   1
   1   9  -5 7.99156 3.30663   2
  -1   9   5 13.3008  5.0470   1
   0  -9  -5 9.63745 3.99324   5
   0  -9  -5 4.40239 3.30219   1
   0  -9   5 11.5574  4.8003   1
   0   9  -5 8.59562 3.09877   2
   0   9  -5 10.0127  4.4486   1
   0   9   5 5.17731 4.01648   1
   1  -9   5 99.3152  9.7628   1
  -1  -9  -5 99.7420  9.9181   1
  -1   9  -5 94.1364  6.8260   2
   1   9   5 93.4583  9.5394   1
  -1   9  -5 94.7887  9.7127   1
   2  -9   5 23.9127  5.6659   1
  -2  -9  -5 24.4126  5.7532   1
  -2   9  -5 26.8263  3.3797   2
  -2   9  -5 33.0148  5.9244   1
   2   9   5 22.5110  5.6095   1
  -3  -9  -5 4.24612 4.18239   1
   3  -9   5 1.19256 2.71762   1
  -3   9  -5 2.41430 4.04558   1
   4  -9   5 88.0858  9.4704   1
  -4  -9  -5 72.6542  8.3331   1
  -4  -9  -5 90.1758  8.9603   4
  -4   9  -5 79.2264  9.0307   1
   4   9   5 81.6363  8.8675   1
   5  -9   5 107.917  10.213   1
  -5  -9  -5 109.909  10.108   1
   5   9   5 102.452   9.510   1
  -5   9  -5 103.465  10.323   1
  -6  -9  -5 18.0507  5.0431   1
   6  -9   5 21.8550  5.3997   1
   6   9   5 13.0620  4.3103   1
  -6   9  -5 20.4304  5.5665   3
  -6   9  -5 19.1229  5.6214   1
   7  -9   5 -6.3553  3.5229   5
  -7  -9  -5 -6.0895  3.6028   1
   7  -9   5 -3.4680  3.7752   1
  -7   9  -5 -12.240   6.004   3
  -7   9  -5 3.62570 3.67949   1
  -8  -9  -5 14.2334  4.3533   1
   8  -9   5 24.9129  5.2912   5
  -8   9  -5 21.5407  5.7366   1
  -8   9  -5 11.2355  5.0670   3
   9  -9   5 36.1972  5.8210   5
  -9  -9  -5 40.0704  6.3868   1
  -9   9  -5 54.2727  7.4938   1
  -9   9  -5 57.5589 10.2540   3
 -10   9  -5 8.63464 6.63491   3
 -10   9  -5 13.2966  4.7060   1
 -11   9  -5 27.8767  5.9792   1
 -11   9  -5 20.9323  8.0795   3
  10 -10  -5 82.6895 10.6786   5
 -10 -10   5 92.2233  9.3070   1
 -10  10   5 111.058  11.116   1
 -10  10   5 86.6524 12.7079   3
  -9 -10   5 -0.4679  3.2656   1
  -9  10   5 -3.1146  5.5444   3
  -9  10   5 1.45934 3.45328   1
   8 -10  -5 -8.4087  5.1678   5
  -8 -10   5 3.51785 3.66239   1
   8  10  -5 -4.1916  4.6137   2
  -8  10   5 3.42661 4.07274   3
  -8  10   5 4.45834 4.61945   1
  -7 -10   5 33.0977  6.3926   1
   7 -10  -5 46.9954  7.3362   5
  -7  10   5 30.0235  7.5739   3
  -7  10   5 42.0051  7.0562   1
   7  10  -5 43.5284  8.4139   2
  -6 -10   5 28.2028  5.7405   1
   6 -10  -5 40.4347  6.7615   5
   6  10  -5 20.8628  5.9545   2
   6  10  -5 27.1858  5.8826   1
  -6  10   5 23.6831  5.7951   1
   5 -10  -5 23.6098  5.3026   5
  -5 -10   5 40.9776  7.2693   1
   5  10  -5 35.1216  7.2733   2
   5  10  -5 30.5417  5.6922   1
  -5  10   5 28.6224  6.1727   1
   4 -10  -5 14.8912  4.9377   1
   4  10  -5 18.8464  4.8433   1
   4  10  -5 16.7398  5.7486   2
   3 -10  -5 19.1218  4.6479   5
  -3 -10   5 35.3277  6.7114   1
   3  10  -5 22.6888  5.5477   2
   3  10  -5 27.6899  6.0303   1
   2 -10  -5 56.1187  8.0956   1
   2 -10  -5 72.8644  8.1142   5
  -2 -10   5 59.3124  8.3865   1
   2  10  -5 50.2438  6.5408   2
   2  10  -5 42.4024  7.4807   1
   1 -10  -5 18.3190  6.1839   1
   1 -10  -5 23.2981  5.5396   5
  -1 -10   5 25.6726  5.8254   1
   1  10  -5 20.6100  5.6226   1
   1  10  -5 27.5856  5.1538   2
   0 -10   5 18.8123  5.5386   1
   0 -10  -5 24.4836  5.6228   1
   0  10  -5 28.3733  5.8680   1
  -1 -10  -5 235.229  15.659   1
   1 -10   5 224.764  15.059   1
  -1  10  -5 212.707  10.745   2
  -1  10  -5 228.965  15.199   1
   2 -10   5 16.1400  5.3886   1
   3 -10   5 82.8407  9.5557   1
  -3 -10  -5 79.9334  9.3744   1
  -3 -10  -5 73.7916  8.2068   4
  -3  10  -5 71.7047  9.3949   1
  -4 -10  -5 16.3228  5.1001   4
  -4 -10  -5 12.4419 20.4846   1
   4 -10   5 24.2841  6.1731   1
   5 -10   5 -3.0612  4.1119   1
  -5  10  -5 3.31898 4.40193   1
   6 -10   5 43.8076  7.3534   1
  -6 -10  -5 49.4809  7.6548   1
  -6  10  -5 59.0878  8.7789   1
  -6  10  -5 37.6101  7.8189   3
  -7 -10  -5 27.7421  6.2788   4
  -7 -10  -5 26.5615  5.8993   1
  -7  10  -5 31.5232  7.3840   3
  -7  10  -5 37.0148  7.2946   1
  -8 -10  -5 -2.9423  3.8128   1
  -8  10  -5 -2.5059  3.3366   1
  -8  10  -5 6.84181 5.84917   3
  -9 -10  -5 16.6374  4.9537   1
   9 -10   5 16.4817  4.8685   5
  -9  10  -5 21.2810  7.7270   3
 -10 -10  -5 7.32791 3.97201   1
  10 -10   5 8.84607 4.28122   5
 -10  10  -5 6.22053 4.50328   1
  -9  11   5 19.3903  6.6670   3
   9  11  -5 11.9455  5.2671   2
   8 -11  -5 17.2756  6.2791   5
  -8 -11   5 8.49875 3.86664   1
  -8  11   5 7.90381 5.71558   3
  -7 -11   5 -1.0172  3.9658   1
   7 -11  -5 6.72836 5.15062   5
  -7  11   5 6.54217 4.35889   3
   7  11  -5 2.62685 4.10560   2
  -6 -11   5 0.77828 2.90112   1
   6 -11  -5 4.26452 4.57610   5
   6  11  -5 2.66583 4.44130   2
  -5 -11   5 31.2251  6.7426   1
   5  11  -5 35.2221  7.2482   2
   5  11  -5 25.2346  5.7226   1
  -4 -11   5 4.77275 4.42203   1
   4 -11  -5 4.61310 4.88748   5
   4  11  -5 5.61678 3.93624   1
  -4  11   5 3.32319 3.74497   1
   4  11  -5 4.77181 4.11778   2
  -3 -11   5 -4.0998  4.4289   1
   3 -11  -5 2.98043 3.41471   5
   3  11  -5 -1.6609  4.3204   1
   3  11  -5 1.66979 3.64074   2
  -2 -11   5 -0.1338  4.0646   1
   2 -11  -5 1.54903 3.34486   1
   2  11  -5 4.43198 3.65515   2
   2  11  -5 2.79582 4.09955   1
  -1 -11   5 24.8632  6.3944   1
   1  11  -5 23.4258  6.4926   1
   1  11  -5 32.7162  5.5857   2
  -1  11   5 28.5312  6.3977   1
   0 -11   5 95.0517 10.3258   1
   0  11  -5 92.2027  8.1587   2
   0  11   5 83.5618  9.9662   1
   0  11  -5 102.148  11.228   1
  -1 -11  -5 6.39085 4.20527   1
   1 -11   5 4.92517 3.85702   1
  -1 -11  -5 7.73318 3.44074   4
   2 -11   5 136.121  12.484   1
  -2 -11  -5 154.244  11.022   4
  -2  11  -5 149.956  13.666   1
   3 -11   5 37.5100  7.6078   1
  -3 -11  -5 27.1192  5.5166   4
  -3  11  -5 20.3552  6.4460   1
  -4 -11  -5 2.10797 3.68320   4
   4 -11   5 2.10528 3.18002   1
  -4  11  -5 3.06025 4.64739   1
   4  11   5 -1.4860  3.4731   1
   5 -11   5 39.6730  7.7212   1
  -5 -11  -5 35.1866  6.4390   4
  -5  11  -5 41.5261  7.9348   1
   6 -11   5 78.3587  9.9167   1
  -6  11  -5 84.6081 10.7651   1
  -6  11  -5 59.4522  9.7255   3
  -7 -11  -5 -5.9616  5.1701   4
  -7  11  -5 0.44738 5.35735   3
  -7  11  -5 7.70970 5.18564   1
  -8  11  -5 -5.4207  5.8596   3
  -8  11  -5 -0.3337  3.0862   1
  -9 -11  -5 0.55771 4.11756   4
  -9  11  -5 3.47130 4.62418   1
  -9  11  -5 0.50914 4.27353   3
   8 -12  -5 8.38480 5.84386   5
  -8 -12   5 5.95792 3.98865   1
   7 -12  -5 7.77585 5.42129   5
  -7 -12   5 6.97846 5.12921   1
   7  12  -5 1.20601 4.86654   2
  -7  12   5 3.33025 3.81510   1
  -6 -12   5 34.8536  7.3214   1
  -6  12   5 19.7236  6.0334   1
   6  12  -5 26.3539  6.5707   2
   5 -12  -5 -0.2607  4.8292   5
  -5 -12   5 -6.1281  4.7142   1
   5 -12  -5 -5.4464  4.3801   1
   5  12  -5 5.22156 4.87164   1
   5  12  -5 -2.2626  4.4627   2
  -4 -12   5 -12.843   5.735   1
   4 -12  -5 -2.8766  4.7379   5
   4  12  -5 -6.4549  4.8763   1
   4  12  -5 11.8197  5.3857   2
   3 -12  -5 2.06796 4.25437   5
  -3 -12   5 3.37114 4.73907   1
   3  12  -5 -5.5525  4.5751   1
  -2 -12   5 11.4373  4.9049   1
   2  12  -5 7.91391 4.26883   2
  -2  12   5 3.20380 4.18146   1
   2  12  -5 -7.1505  5.0237   1
  -1 -12   5 7.35228 5.07203   1
   1  12  -5 -1.7447  4.3931   1
   0 -12   5 4.50239 4.87744   1
   0  12  -5 4.46962 5.17243   1
   1 -12   5 7.67390 5.07569   1
   1  12   5 -5.0923  3.8872   1
  -1  12  -5 -3.5706  4.9995   1
  -2 -12  -5 0.94009 3.50376   1
   2 -12   5 4.61602 4.82036   1
  -2 -12  -5 -1.6189  3.0195   4
  -2  12  -5 -11.803   5.707   1
  -3 -12  -5 25.6636  5.5734   4
   3 -12   5 15.4851  6.0366   1
  -3  12  -5 34.0266  7.4920   1
   4 -12   5 51.6467  8.8460   1
  -4 -12  -5 55.4291  7.8545   4
  -4  12  -5 44.6171  8.7530   1
  -5 -12  -5 -2.3991  4.2163   4
  -5  12  -5 -9.2831  5.3970   1
   6 -12   5 68.7468  9.9076   1
  -6  12  -5 55.5406  8.9866   1
  -6  12  -5 66.7079 10.1800   3
  -7 -12  -5 -3.4891  4.4409   4
  -7  12  -5 -6.3791  4.3148   1
  -7  12  -5 5.11512 5.93921   3
   6  13  -5 5.89023 5.37774   2
   5  13  -5 5.32705 5.35838   2
   4 -13  -5 29.9489  7.4112   1
   4 -13  -5 24.2485  7.0012   5
   4  13  -5 23.0142  6.6110   2
  -3 -13   5 -8.4765  4.7604   1
   3  13  -5 9.49418 4.87529   2
   0 -13   5 29.4427  7.0656   1
   1 -13   5 19.8803  6.0768   1
   2  13   5 44.5518  8.4155   1
   0  14  -5 4.28240 4.26050   1
   0  14   5 10.6876  5.5504   1
  -1 -14  -5 9.34436 5.28442   1
  -2  14  -5 6.69338 4.68824   1
  15   0  -6 10.4150  5.1913   5
 -14   0   6 214.950  16.930   3
  14   0  -6 191.316  13.620   2
  14   0  -6 196.949  16.033   5
  13   0  -6 1.13711 3.10334   2
 -13   0   6 7.54808 5.06638   3
  13   0  -6 -0.9611  4.1447   5
  12   0  -6 23.3635  5.7248   5
 -12   0   6 32.7244  6.8983   3
  12   0  -6 16.6057  4.7650   2
  11   0  -6 3.99949 4.47478   5
  11   0  -6 -6.7760  3.9827   2
 -11   0   6 -0.6670  3.6619   3
  10   0  -6 3.96273 4.26370   5
 -10   0   6 2.66589 3.48221   3
  10   0  -6 5.58121 3.78808   2
  -9   0   6 4.17389 3.60956   3
   9   0  -6 4.49223 4.56335   5
  -9   0   6 1.60338 1.30461   1
   8   0  -6 119.462   9.900   5
   8   0  -6 127.325   5.948   1
  -8   0   6 136.669   9.700   3
  -8   0   6 135.692   6.257   1
  -8   0   6 131.835   6.089   1
   8   0  -6 125.754   8.925   2
  -7   0   6 1.24827 1.22787   1
   7   0  -6 3.25288 3.64909   5
   7   0  -6 -3.3196  3.2606   2
  -7   0   6 5.62256 2.05272   1
  -7   0   6 4.72755 3.01117   3
   6   0  -6 447.062  12.223   1
  -6   0   6 427.296  11.917   1
  -6   0   6 448.396  14.816   3
   6   0  -6 455.419  15.114   2
  -6   0   6 447.137  12.480   1
  -5   0   6 1.66455 1.40219   1
  -5   0   6 -2.3418  2.0775   3
   5   0  -6 11.1055  5.7579   2
   5   0  -6 -0.5894  1.1748   1
  -5   0   6 1.27057 1.92631   1
  -4   0   6 124.271   5.904   3
   4   0  -6 119.435   6.849   2
   4   0  -6 123.576   6.230   1
   4   0  -6 118.556   5.584   3
  -4   0   6 121.095   6.297   1
  -4   0   6 128.259   6.227   1
   3   0  -6 2.64666 1.00212   3
   3   0  -6 1.85170 2.49177   1
  -3   0   6 2.70584 1.46868   1
   3   0  -6 3.21523 2.27094   2
  -3   0   6 1.32001 1.68789   3
  -2   0   6 1049.31   20.51   1
  -2   0   6 998.551  19.699   1
  -2   0   6 1014.88   14.47   3
   2   0  -6 994.261  19.377   2
   2   0  -6 1049.01   20.24   1
   1   0  -6 -1.4267  1.7731   2
  -1   0   6 0.47453 1.40335   2
   1   0  -6 1.33129 1.76372   1
  -1   0   6 0.65779 1.70558   1
  -1   0   6 -1.1324  1.2819   1
   0   0  -6 1564.04   26.52   1
   0   0  -6 1563.77   24.66   2
   0   0   6 1592.84   24.70   2
   0   0  -6 1558.32   26.37   1
   0   0   6 1605.61   26.46   1
   0   0   6 1563.45   26.55   1
   1   0   6 1.03161 1.59442   1
   1   0   6 0.86795 0.75618   3
  -1   0  -6 0.16712 1.40524   1
   1   0   6 1.15541 1.34618   2
  -1   0  -6 1.22172 1.29197   1
  -2   0  -6 4525.96   58.84   1
   2   0   6 4541.68   58.54   3
   2   0   6 4460.78   55.92   2
  -2   0  -6 4736.37   57.48   2
  -2   0  -6 4638.70   58.24   3
  -2   0  -6 4566.85   59.01   1
   2   0   6 4608.96   59.06   1
   3   0   6 -0.4121  0.9659   1
  -3   0  -6 0.08187 1.47274   1
  -3   0  -6 -1.3186  1.4719   3
  -3   0  -6 -2.6910  1.3340   1
   3   0   6 -1.5588  1.3507   3
   4   0   6 94.6717  5.4056   1
  -4   0  -6 109.201   5.896   1
  -4   0  -6 109.184   6.814   3
  -4   0  -6 107.050   5.656   1
  -5   0  -6 -6.8370  2.8416   3
   5   0   6 -3.3308  1.5712   1
  -5   0  -6 2.32085 1.63353   1
   6   0   6 113.619   5.737   1
  -6   0  -6 111.884   5.730   1
  -6   0  -6 112.794   5.852   1
   6   0   6 117.444   3.999   5
  -6   0  -6 117.626   8.699   3
  -7   0  -6 8.00210 3.74295   4
   7   0   6 -1.4781  1.2127   5
  -7   0  -6 -1.8615  1.7817   1
  -7   0  -6 0.36037 1.28762   1
  -7   0  -6 -2.9339  3.7238   3
   8   0   6 849.233  16.645   5
  -8   0  -6 919.930  28.222   3
  -8   0  -6 860.291  25.055   4
  -8   0  -6 858.511  16.635   1
  -9   0  -6 -5.8772  3.7325   4
  -9   0  -6 -6.5428  4.6431   3
   9   0   6 -0.5135  1.5632   5
 -10   0  -6 413.857  20.780   3
  10   0   6 401.646  12.302   5
 -11   0  -6 3.53755 4.72218   3
 -12   0  -6 219.376  16.348   3
 -13   0  -6 4.38614 4.09031   3
 -14   0  -6 62.0754 10.1342   3
  15  -1  -6 13.7045  5.9632   5
 -15   1   6 9.96054 5.82624   3
  14  -1  -6 17.6740  5.5367   5
  14  -1  -6 27.3797  5.4609   2
 -14   1   6 25.8784  7.2997   3
  14   1  -6 23.5261  6.9313   5
  14   1  -6 20.9262  5.7997   2
  13  -1  -6 19.3229  4.7767   2
  13  -1  -6 16.4916  5.4984   5
  13   1  -6 19.7702  6.2161   5
  12  -1  -6 6.41683 4.73569   5
  12   1  -6 19.2023  6.0768   5
 -12   1   6 12.6472  5.5618   3
 -11  -1   6 39.8512  7.1244   3
  11  -1  -6 59.2279  8.3960   5
  11  -1  -6 48.6894  6.3925   2
 -11   1   6 37.7222  6.5493   3
  11   1  -6 37.7196  7.1621   5
  11   1  -6 47.1590  6.9823   2
 -10  -1   6 70.0031  8.1800   3
  10  -1  -6 53.6020  7.6163   5
  10  -1  -6 61.6208  6.8342   2
 -10   1   6 61.4933  3.8779   1
  10   1  -6 63.1275  8.3541   5
  10   1  -6 61.8449  7.3406   2
 -10   1   6 71.6711  8.6836   3
  -9  -1   6 445.006  11.223   1
  -9  -1   6 457.881  18.422   3
   9  -1  -6 447.268  16.876   2
   9  -1  -6 449.318  19.364   5
  -9   1   6 432.376  11.816   1
   9   1  -6 443.847  17.985   2
  -9   1   6 466.940  19.356   3
   8  -1  -6 142.997  10.788   5
  -8  -1   6 147.623   6.697   1
  -8  -1   6 147.648   6.393   1
   8  -1  -6 137.479   8.769   2
  -8  -1   6 145.408   9.670   3
   8  -1  -6 151.795   6.828   1
   8   1  -6 147.426   6.496   1
  -8   1   6 150.062   6.960   1
  -8   1   6 140.532   6.570   1
   8   1  -6 139.989   9.812   2
  -8   1   6 160.068  10.699   3
  -7  -1   6 196.752   8.052   1
  -7  -1   6 199.957   7.695   1
   7  -1  -6 192.605  11.785   5
   7  -1  -6 205.632   8.234   1
  -7  -1   6 211.550  10.684   3
   7  -1  -6 205.088  10.293   2
  -7   1   6 197.739   8.227   1
  -7   1   6 198.565  10.738   3
  -7   1   6 203.320   8.140   1
   7   1  -6 189.943  10.828   2
   7   1  -6 200.973   7.815   1
  -6  -1   6 7.23590 2.69168   3
  -6  -1   6 14.9720  2.3792   1
   6  -1  -6 13.7940  3.4446   2
   6  -1  -6 9.81478 3.13863   5
   6  -1  -6 11.4848  2.3779   1
  -6  -1   6 9.80580 2.23897   1
  -6   1   6 10.8591  2.0889   1
  -6   1   6 9.27641 3.06786   3
  -6   1   6 8.73874 2.42473   1
   6   1  -6 10.0535  2.1388   1
   6   1  -6 9.86845 3.09167   2
  -5  -1   6 56.6074  4.4247   1
   5  -1  -6 56.2112  4.8041   2
  -5  -1   6 42.0417  4.0813   3
   5  -1  -6 50.8080  5.7837   5
  -5  -1   6 54.0142  4.0883   1
   5  -1  -6 45.2918  4.0847   1
  -5   1   6 57.3240  4.3233   1
   5   1  -6 44.6896  5.2263   2
  -5   1   6 52.4538  4.4779   1
  -5   1   6 53.3787  4.6427   3
   5   1  -6 55.1217  4.2210   1
  -4  -1   6 418.504  12.074   1
   4  -1  -6 418.471  14.335   5
   4  -1  -6 438.277  12.357   1
  -4  -1   6 408.885  11.693   1
   4  -1  -6 408.992  12.346   2
  -4   1   6 415.753  12.283   1
  -4   1   6 403.371  12.000   1
  -4   1   6 412.742  11.936   1
  -4   1   6 410.179  11.763   3
   4   1  -6 406.910  11.644   1
   4   1  -6 408.298  11.091   3
   4   1  -6 397.311  13.001   2
   3  -1  -6 1.99245 1.53200   2
  -3  -1   6 5.66913 1.71850   1
   3  -1  -6 4.97956 2.45152   5
  -3  -1   6 4.09021 1.80209   1
   3  -1  -6 -0.9761  1.8562   1
   3   1  -6 3.34218 2.32086   2
  -3   1   6 0.78434 1.41007   1
   3   1  -6 0.42705 0.76347   3
   3   1  -6 5.28242 1.95420   1
   2  -1  -6 186.177   7.411   2
  -2  -1   6 168.165   7.464   1
   2  -1  -6 172.094   7.599   1
   2  -1  -6 174.972   7.738   5
  -2  -1   6 167.120   7.247   1
   2   1  -6 173.804   4.512   3
  -2   1   6 181.015   7.578   1
   2   1  -6 180.978   7.652   1
  -2   1   6 172.317   7.605   1
   2   1  -6 178.410   7.583   2
  -2   1   6 173.876   5.169   3
  -1  -1   6 120.749   5.710   2
  -1  -1   6 122.564   6.147   1
  -1  -1   6 120.081   6.289   1
   1  -1  -6 115.060   6.205   1
   1  -1  -6 119.611   5.818   2
   1  -1  -6 116.244   5.636   5
  -1   1   6 114.269   5.955   1
   1   1  -6 116.913   6.124   1
   1   1  -6 114.378   5.626   2
  -1   1   6 114.944   6.294   1
   0  -1  -6 430.820  12.194   1
   0  -1   6 410.237  10.390   2
   0  -1  -6 423.111  11.025   2
   0  -1   6 410.667  11.861   1
   0  -1  -6 403.440  13.117   5
   0  -1  -6 405.493  11.740   1
   0   1  -6 413.802  10.334   2
   0   1  -6 382.761  11.377   1
   0   1   6 411.194  11.878   1
   0   1  -6 413.646  11.898   1
   0   1  -6 424.548   7.190   3
  -1  -1  -6 443.672   8.543   5
   1  -1   6 427.065  12.133   1
  -1  -1  -6 439.849  11.410   2
  -1  -1  -6 438.395  12.275   1
   1  -1   6 433.735  10.312   2
  -1  -1  -6 432.577  12.287   1
   1   1   6 424.345   9.563   3
   1   1   6 430.134  12.158   1
  -1   1  -6 429.077  12.216   1
  -1   1  -6 450.118   9.512   3
   1   1   6 458.021   9.054   5
  -1   1  -6 428.960  12.071   1
  -1   1  -6 432.619  10.313   2
   2  -1   6 73.4479  4.8209   1
  -2  -1  -6 81.8802  8.3408   2
  -2  -1  -6 77.9567  4.9814   1
   2  -1   6 71.5243  3.7703   2
   2  -1   6 73.2920  5.9098   3
  -2  -1  -6 79.3908  2.3936   5
  -2  -1  -6 77.5014  5.1351   1
   2   1   6 77.8623  4.4889   3
  -2   1  -6 71.4562  4.8013   1
  -2   1  -6 71.6199  4.2612   3
  -2   1  -6 73.7952  4.9165   5
  -2   1  -6 77.3681  5.0916   1
  -2   1  -6 72.4476  7.0296   2
   2   1   6 78.4164  5.1075   1
   2   1   6 74.1579  2.6045   5
  -3  -1  -6 383.658  11.306   1
  -3  -1  -6 382.836  11.468   1
   3  -1   6 400.123  11.612   1
   3  -1   6 392.646  11.618   3
   3  -1   6 389.114   9.395   2
  -3   1  -6 392.207  11.586   1
  -3   1  -6 390.594  11.437   1
   3   1   6 402.160  11.499   1
  -3   1  -6 407.698  12.199   3
  -3   1  -6 396.651   9.908   2
   4  -1   6 746.052  16.676   1
  -4  -1  -6 743.391  16.679   1
   4  -1   6 743.846  14.209   2
  -4  -1  -6 734.940  16.452   1
  -4  -1  -6 772.504  18.868   3
   4   1   6 739.450  16.435   1
  -4   1  -6 732.034  16.547   1
  -4   1  -6 739.047  16.784   1
  -4   1  -6 781.475  19.478   3
  -5  -1  -6 214.542  10.379   3
  -5  -1  -6 203.440   7.889   1
  -5  -1  -6 217.611   8.308   1
   5  -1   6 203.920   8.028   1
   5  -1   6 208.700   7.002   2
   5  -1   6 212.353   4.764   5
  -5   1  -6 203.191   8.139   1
  -5   1  -6 199.742   7.975   1
   5   1   6 214.988   8.078   1
  -5   1  -6 204.903  10.318   3
  -6  -1  -6 -0.0827  1.5041   1
   6  -1   6 -2.0346  1.4892   1
  -6  -1  -6 3.17746 1.43371   1
   6  -1   6 0.92294 0.83609   5
  -6  -1  -6 0.38217 2.81964   3
  -6   1  -6 0.62409 1.43128   1
   6   1   6 1.38448 1.34934   1
  -6   1  -6 1.10408 1.31787   1
  -6   1  -6 2.85810 2.33247   3
   7  -1   6 14.7433  2.3796   1
  -7  -1  -6 18.9039  2.3933   1
  -7  -1  -6 10.9633  4.2668   3
  -7  -1  -6 14.4457  2.3361   1
   7  -1   6 17.7993  2.0074   5
   7   1   6 14.9949  2.0211   5
  -7   1  -6 14.0122  2.2812   1
   7   1   6 20.2197  2.4631   1
  -7   1  -6 15.0445  2.5085   1
  -7   1  -6 18.2057  4.7894   3
  -7   1  -6 18.1104  4.0603   4
   8  -1   6 312.428   9.341   1
  -8  -1  -6 306.979   9.022   1
  -8  -1  -6 309.267  15.163   4
   8  -1   6 316.931   9.278   5
  -8  -1  -6 321.692  16.042   3
  -8   1  -6 317.784  16.560   3
   8   1   6 303.846   8.669   1
   8   1   6 318.046   9.622   5
  -8   1  -6 301.366   9.466   1
  -8   1  -6 323.239  14.355   4
  -9  -1  -6 366.266  18.199   3
  -9  -1  -6 378.185  17.529   4
   9  -1   6 355.032  10.694   5
  -9   1  -6 348.717   9.442   1
  -9   1  -6 321.046  15.096   4
   9   1   6 356.752  11.127   5
  -9   1  -6 360.633  18.563   3
 -10  -1  -6 8.14154 4.83250   3
  10  -1   6 5.86695 2.05433   5
 -10   1  -6 20.5205  6.0980   3
  10   1   6 10.9366  2.4803   5
 -10   1  -6 20.6844  4.9743   4
 -11  -1  -6 17.3664  5.2260   3
 -11   1  -6 -3.0729  4.8675   3
 -12   1  -6 26.8210  7.4881   3
 -13   1  -6 15.3226  6.4435   3
 -14   1  -6 5.74190 5.36508   3
  15  -2  -6 13.7804  6.0608   5
 -15   2   6 20.9190  6.4509   3
  15   2  -6 21.0197  7.1602   5
  14  -2  -6 11.9735  5.7153   5
 -14   2   6 15.4643  6.8284   3
  14   2  -6 -2.8698  4.5655   2
  14   2  -6 -4.6493  4.9072   5
  13  -2  -6 17.0462  5.9373   5
  13  -2  -6 8.98108 3.69628   2
  13   2  -6 4.80471 4.65468   5
  12  -2  -6 45.7171  8.0206   5
  12  -2  -6 47.1474  6.0469   2
 -12   2   6 50.3979  8.4650   3
  12   2  -6 65.1852  9.2526   5
  11  -2  -6 82.7371  9.7510   5
  11  -2  -6 82.7604  7.5901   2
 -11   2   6 81.3959  9.3415   3
  11   2  -6 92.1064  9.4393   2
  10  -2  -6 27.2266  4.6310   2
  10  -2  -6 37.8088  6.2415   5
 -10  -2   6 34.7752  2.7706   1
 -10   2   6 38.6607  6.8376   3
  10   2  -6 33.4293  5.6172   2
 -10   2   6 36.9117  3.4725   1
   9  -2  -6 2.40557 3.96098   5
  -9  -2   6 0.42743 1.35101   1
   9  -2  -6 2.61886 2.76900   2
   9   2  -6 2.00777 3.85729   2
  -9   2   6 -0.0238  1.6190   1
  -9   2   6 3.87142 3.94401   3
   8  -2  -6 79.4394  6.5811   2
   8  -2  -6 81.0981  5.3876   1
   8  -2  -6 92.3998  8.5401   5
  -8  -2   6 91.6393  5.4235   1
   8   2  -6 94.6294  8.3214   2
   8   2  -6 83.9373  5.0426   1
  -8   2   6 76.3132  8.0193   3
  -8   2   6 83.5862  5.7207   1
   7  -2  -6 509.196  14.150   1
  -7  -2   6 490.990  13.087   1
  -7  -2   6 493.144  13.557   1
   7  -2  -6 497.661  15.586   2
   7  -2  -6 492.473  18.897   5
  -7   2   6 481.585  13.804   1
   7   2  -6 517.491  13.518   1
  -7   2   6 480.156  17.640   3
   7   2  -6 492.166  18.001   2
  -7   2   6 508.832  14.449   1
  -6  -2   6 113.309   6.412   1
   6  -2  -6 109.063   6.510   1
   6  -2  -6 128.922   9.265   5
   6  -2  -6 120.464   7.359   2
  -6  -2   6 115.926   6.193   1
  -6   2   6 121.751   6.962   1
   6   2  -6 120.500   6.296   1
  -6   2   6 112.395   6.443   1
  -6   2   6 110.132   7.810   3
   6   2  -6 121.973   8.472   2
   5  -2  -6 2.00464 1.63037   2
   5  -2  -6 -1.2961  2.0242   5
   5  -2  -6 2.51583 1.77332   1
  -5   2   6 2.20144 1.69037   1
  -5   2   6 1.71438 2.07963   1
  -5   2   6 5.89464 2.48757   3
   5   2  -6 3.98047 3.00181   2
   4  -2  -6 318.623  10.758   2
  -4  -2   6 310.467  10.448   1
   4  -2  -6 314.684  12.457   5
   4  -2  -6 328.427  11.057   1
  -4  -2   6 314.858  10.705   1
  -4   2   6 316.330  10.692   3
  -4   2   6 319.304  11.015   1
  -4   2   6 308.959  10.719   1
   4   2  -6 314.255  10.405   1
   4   2  -6 311.838  12.174   2
   4   2  -6 314.279   9.895   3
   3  -2  -6 692.984  16.924   1
   3  -2  -6 711.375  18.210   5
  -3  -2   6 686.729  16.289   1
   3  -2  -6 701.873  16.010   2
  -3  -2   6 685.669  16.533   1
   3   2  -6 715.471  16.645   1
   3   2  -6 677.205  17.406   2
   3   2  -6 697.187  14.029   3
  -3   2   6 710.048  16.911   1
  -3   2   6 697.825  15.083   3
  -3   2   6 715.637  17.356   1
   2  -2  -6 205.240   8.647   5
  -2  -2   6 199.060   8.180   1
   2  -2  -6 208.646   8.057   2
  -2  -2   6 203.790   8.593   1
   2  -2  -6 199.276   8.541   1
   2   2  -6 197.266   8.233   1
   2   2  -6 206.454   8.303   2
  -2   2   6 197.039   8.282   1
  -2   2   6 196.339   8.566   1
   1  -2  -6 1198.44   21.78   2
  -1  -2   6 1211.50   23.36   1
   1  -2  -6 1214.83   23.71   1
   1  -2  -6 1182.68   21.57   5
   1   2  -6 1217.12   23.35   1
  -1   2   6 1223.95   23.72   1
  -1   2   6 1245.40   22.41   5
   1   2  -6 1199.78   21.79   2
   0  -2   6 41.8317  3.3598   2
   0  -2  -6 43.1217  3.8612   2
   0  -2  -6 43.8943  4.2971   1
   0  -2  -6 41.0109  3.1940   5
   0  -2   6 40.4411  3.9449   1
   0   2  -6 43.9618  4.2769   1
   0   2   6 46.1881  3.4329   5
   0   2   6 45.0466  4.0787   1
   0   2  -6 43.7639  3.4243   2
  -1  -2  -6 1838.88   31.17   1
  -1  -2  -6 1909.64   30.39   2
   1  -2   6 1860.93   27.05   2
  -1  -2  -6 1882.77   26.02   5
  -1  -2  -6 1845.65   30.91   1
   1  -2   6 1852.58   30.95   1
  -1   2  -6 1853.46   31.16   1
   1   2   6 1872.17   31.10   1
  -1   2  -6 1853.07   27.13   3
   1   2   6 1853.31   26.50   5
  -1   2  -6 1816.23   26.67   2
  -2  -2  -6 8.25299 1.25655   5
  -2  -2  -6 8.93817 2.49740   2
  -2  -2  -6 16.6957  2.9947   1
   2  -2   6 5.16646 2.14092   1
   2  -2   6 7.53026 1.43221   2
  -2  -2  -6 9.63404 2.27429   1
  -2   2  -6 10.1476  2.1350   3
   2   2   6 10.7692  1.4243   5
  -2   2  -6 13.0929  1.7232   2
  -2   2  -6 10.1235  1.3040   5
   2   2   6 11.3329  2.0444   3
   2   2   6 9.38980 2.41614   1
   3  -2   6 255.997   6.911   2
  -3  -2  -6 246.654   9.520   1
   3  -2   6 255.632   9.613   1
  -3  -2  -6 261.090   9.558   1
  -3   2  -6 262.782   6.476   5
   3   2   6 267.595   9.630   1
   3   2   6 258.817   6.146   5
  -3   2  -6 262.830   9.642   1
  -3   2  -6 261.527   9.892   1
  -3   2  -6 262.850  10.014   3
  -3   2  -6 256.255   7.049   2
  -4  -2  -6 152.401   7.314   1
   4  -2   6 160.192   7.548   1
   4  -2   6 153.044   5.138   2
  -4  -2  -6 149.326   7.128   1
  -4   2  -6 156.404   8.664   3
  -4   2  -6 146.593   5.028   5
   4   2   6 150.270   7.076   1
   4   2   6 152.012   4.456   5
  -4   2  -6 152.524   7.273   1
  -4   2  -6 154.292   7.558   1
  -5  -2  -6 81.0100  5.3832   1
   5  -2   6 79.0391  5.1977   1
   5  -2   6 81.1602  3.5302   5
  -5  -2  -6 73.1863  5.0013   1
   5  -2   6 90.9400  3.9578   2
   5   2   6 76.6325  3.2557   5
  -5   2  -6 79.2666  5.4620   1
  -5   2  -6 73.9635  3.8469   5
  -5   2  -6 70.9431  6.3302   3
  -5   2  -6 76.9298  5.2888   1
   5   2   6 82.9369  5.2042   1
  -6  -2  -6 216.587   8.426   1
   6  -2   6 222.346   8.781   1
   6  -2   6 228.118   6.715   5
   6  -2   6 209.283   6.618   2
  -6  -2  -6 216.914   8.626   1
  -6   2  -6 222.703   8.969   1
  -6   2  -6 224.191  12.413   3
  -6   2  -6 223.361   9.076   1
   6   2   6 224.097   8.436   1
   7  -2   6 29.7355  2.6529   2
  -7  -2  -6 29.6463  3.0888   1
   7  -2   6 27.0832  3.1978   1
   7  -2   6 27.6967  2.6526   5
  -7  -2  -6 28.1709  3.2228   1
   7   2   6 31.3037  3.1643   1
  -7   2  -6 29.5956  3.3939   1
  -7   2  -6 28.8857  5.6465   3
  -7   2  -6 35.1055  4.5960   4
  -7   2  -6 31.5612  3.6507   1
   8  -2   6 10.6046  2.2127   1
  -8  -2  -6 9.82242 2.07643   1
   8  -2   6 15.0461  2.3282   5
   8   2   6 13.5023  2.1688   1
  -8   2  -6 10.2929  2.3199   1
  -8   2  -6 9.11024 2.97578   4
  -8   2  -6 12.5091  4.4151   3
   9  -2   6 582.989  14.570   5
  -9   2  -6 586.737  14.139   1
  -9   2  -6 599.859  24.321   3
  -9   2  -6 603.448  20.285   4
   9   2   6 577.203  15.410   5
  10  -2   6 0.07912 1.52333   2
 -10  -2  -6 2.28305 3.84641   4
  10  -2   6 -1.4016  1.6895   5
  10   2   6 0.73759 1.69827   5
 -10   2  -6 0.44365 2.38073   4
 -11  -2  -6 53.6004  7.8893   4
 -11   2  -6 53.0149  7.0502   4
 -11   2  -6 68.4818  9.2578   3
 -12   2  -6 24.3795  7.2091   3
 -13   2  -6 67.4573 10.7676   3
 -14   2  -6 0.84630 4.80299   3
  14  -3  -6 28.8114  6.7189   5
  13  -3  -6 28.0332  6.8468   5
 -13   3   6 25.5905  7.2168   3
  13   3  -6 26.4741  6.3798   5
  12  -3  -6 38.4852  5.3550   2
  12  -3  -6 48.1806  8.1273   5
 -12   3   6 33.4024  6.7708   3
  11  -3  -6 -0.6260  4.2137   5
  11  -3  -6 7.00453 3.09245   2
 -11   3   6 -7.7204  4.9591   3
 -11   3   6 1.01880 1.46876   1
  11   3  -6 3.73906 3.40370   2
  10  -3  -6 9.17225 3.21187   2
 -10  -3   6 11.3470  1.9850   1
  10   3  -6 16.0326  5.4794   2
 -10   3   6 1.73223 4.11040   3
 -10   3   6 11.9448  2.5594   1
   9  -3  -6 241.649  14.392   5
   9  -3  -6 259.363  11.580   2
  -9  -3   6 249.324   9.363   1
   9   3  -6 263.949  14.736   2
  -9   3   6 257.885  15.018   3
  -9   3   6 254.309  10.343   1
   8  -3  -6 334.456  16.441   5
   8  -3  -6 325.166  11.772   1
  -8  -3   6 319.113  11.038   1
   8  -3  -6 327.001  12.744   2
   8   3  -6 326.426  15.733   2
  -8   3   6 309.834  15.514   3
   8   3  -6 334.495  10.929   1
  -8   3   6 326.450  12.036   1
  -7  -3   6 469.663  13.887   1
   7  -3  -6 483.646  14.997   2
   7  -3  -6 483.256  14.759   1
  -7  -3   6 461.974  13.513   1
   7  -3  -6 476.714  18.772   5
  -7   3   6 469.095  14.745   1
   7   3  -6 484.216  18.541   2
  -7   3   6 484.858  18.256   3
  -7   3   6 464.719  14.273   1
   7   3  -6 466.562  13.443   1
  -6  -3   6 77.6294  5.5062   1
   6  -3  -6 84.2657  6.1690   1
  -6  -3   6 78.5018  5.6387   1
   6  -3  -6 76.9901  5.8169   2
   6  -3  -6 75.5202  7.1101   5
  -6   3   6 83.0664  6.3142   1
   6   3  -6 87.0510  5.6877   1
   6   3  -6 85.4402  7.8071   2
  -6   3   6 74.1908  5.6479   1
  -6   3   6 75.8357  6.9000   3
   5  -3  -6 17.3246  3.1266   2
   5  -3  -6 13.5460  2.9505   1
   5  -3  -6 9.57353 3.75020   5
  -5  -3   6 9.45551 2.42731   1
  -5   3   6 13.3447  3.4102   3
  -5   3   6 10.5145  2.3449   1
   5   3  -6 12.1084  3.2234   2
  -5   3   6 16.1329  3.3844   1
   5   3  -6 18.0974  2.7940   1
   4  -3  -6 203.692  10.212   5
   4  -3  -6 222.169   9.779   1
   4  -3  -6 205.397   8.435   2
  -4  -3   6 209.410   8.914   1
  -4  -3   6 202.308   9.010   1
   4   3  -6 223.998  10.626   2
   4   3  -6 198.531   8.814   1
  -4   3   6 203.123   8.999   3
  -4   3   6 205.744   9.530   1
   3  -3  -6 120.938   6.336   2
  -3  -3   6 128.199   7.243   1
   3  -3  -6 113.614   7.260   5
   3  -3  -6 118.480   7.089   1
   3   3  -6 121.426   7.559   2
   3   3  -6 126.267   6.928   1
  -3   3   6 114.039   7.159   1
  -2  -3   6 792.986  19.030   1
   2  -3  -6 795.814  19.286   1
   2  -3  -6 790.328  18.572   5
   2  -3  -6 787.485  17.305   2
   2   3  -6 791.027  18.774   1
  -2   3   6 773.466  19.192   1
   2   3  -6 791.314  18.568   2
   1  -3  -6 5.61965 2.48457   1
   1   3  -6 3.96888 1.90831   1
   1   3  -6 3.29533 1.72337   2
  -1   3   6 1.11466 2.14429   1
   0  -3  -6 463.335  11.825   5
   0  -3  -6 478.940  13.235   2
   0  -3   6 479.444  12.243   2
   0  -3  -6 457.943  14.177   1
   0  -3   6 473.574  14.209   1
   0   3  -6 463.804  11.658   2
   0   3  -6 489.451  14.463   1
   0   3   6 467.957  14.269   1
   0   3   6 460.338  12.053   5
   1  -3   6 10.6482  2.4837   1
   1  -3   6 11.8491  1.8355   2
  -1  -3  -6 10.7352  2.5212   1
  -1  -3  -6 14.6129  3.0356   2
  -1   3  -6 11.6785  1.8324   2
   1   3   6 7.79023 2.67101   1
  -1   3  -6 13.6473  3.0622   1
   2  -3   6 2.97316 2.34573   1
   2  -3   6 4.99145 1.46946   2
  -2  -3  -6 1.30297 1.79289   5
  -2  -3  -6 3.12077 2.42417   1
  -2   3  -6 3.02462 2.35896   1
  -2   3  -6 3.85925 2.35476   2
   2   3   6 2.23833 1.15352   5
  -2   3  -6 3.83790 1.28470   5
   3  -3   6 151.439   4.910   2
  -3  -3  -6 146.175   7.847   1
   3  -3   6 141.919   7.644   1
  -3  -3  -6 145.132   7.620   1
  -3   3  -6 141.510   4.620   2
  -3   3  -6 146.171   7.924   1
  -3   3  -6 143.034   5.624   5
   3   3   6 141.907   7.525   1
   3   3   6 135.816   5.255   5
  -3   3  -6 145.390   7.760   3
  -4  -3  -6 604.746  16.148   1
   4  -3   6 595.357  16.190   1
   4  -3   6 593.833  10.524   2
  -4  -3  -6 577.053  15.823   1
  -4   3  -6 594.372  16.417   1
   4   3   6 580.452  11.862   5
  -4   3  -6 583.061  16.221   1
   4   3   6 595.635  15.793   1
  -4   3  -6 602.566  17.851   3
  -4   3  -6 587.869  12.980   5
  -5  -3  -6 83.4966  5.7906   1
   5  -3   6 90.4957  6.2190   1
   5  -3   6 80.8790  4.2105   5
   5  -3   6 86.8149  3.3135   2
  -5  -3  -6 74.9474  5.3881   1
   5   3   6 88.4068  5.8043   1
  -5   3  -6 96.4434  6.5040   1
  -5   3  -6 83.3442  5.8835   1
  -5   3  -6 90.9526  7.5955   3
   5   3   6 81.6260  4.0654   5
  -5   3  -6 83.8634  4.7897   5
  -6  -3  -6 357.706  11.895   1
   6  -3   6 362.723   7.539   2
  -6  -3  -6 361.453  11.872   1
   6  -3   6 362.960   9.722   5
   6  -3   6 347.611  12.012   1
  -6   3  -6 351.208  11.755   4
  -6   3  -6 374.337  16.140   3
  -6   3  -6 357.739  12.222   1
   6   3   6 359.791  11.591   1
   6   3   6 348.374   9.193   5
  -6   3  -6 370.213  12.738   1
   7  -3   6 687.689  17.318   1
   7  -3   6 699.239  15.144   5
  -7  -3  -6 698.307  16.841   1
  -7   3  -6 706.878  23.858   3
  -7   3  -6 669.579  18.071   4
   7   3   6 661.294  15.958   1
  -7   3  -6 673.360  17.529   1
   8  -3   6 81.6695  5.0972   5
   8  -3   6 81.4364  5.5417   1
  -8  -3  -6 74.5922  4.9620   1
   8  -3   6 82.8298  4.1389   2
  -8   3  -6 84.4029  6.7582   4
  -8   3  -6 76.7945  8.9099   3
  -8   3  -6 82.8934  5.7963   1
  -9  -3  -6 37.8612  3.3602   1
   9  -3   6 52.7000  4.3908   5
  -9   3  -6 51.6469  7.9960   3
  -9   3  -6 44.8618  5.3824   4
  -9   3  -6 50.0187  4.4358   1
  10  -3   6 56.4338  4.8149   5
 -10   3  -6 51.3708  4.1682   1
 -10   3  -6 50.5808  6.0933   4
 -10   3  -6 56.7972  8.4308   3
 -11   3  -6 58.9167  9.5181   3
 -11   3  -6 61.8505  7.0027   4
 -12   3  -6 6.44874 4.98434   3
 -13   3  -6 55.1762 10.2138   3
 -14   3  -6 25.7825  7.2519   3
  14  -4  -6 27.4779  7.0980   5
 -14   4   6 22.7357  7.4911   3
  13  -4  -6 50.8468  8.4970   5
 -13   4   6 64.0985 10.2612   3
  12  -4  -6 102.254  11.129   5
 -12   4   6 107.397  12.085   3
  11  -4  -6 48.6774  5.4277   2
  11  -4  -6 42.2414  7.5207   5
  11   4  -6 64.8771  8.8778   2
 -11   4   6 44.9641  4.6818   1
 -11   4   6 41.6639  8.0853   3
  10  -4  -6 28.5534  6.4251   5
 -10  -4   6 20.2565  2.9561   1
 -10   4   6 20.7014  5.8714   3
 -10   4   6 18.7317  3.4288   1
  -9  -4   6 9.35615 2.56778   1
   9  -4  -6 15.2312  3.3379   2
  -9   4   6 14.1349  3.1432   1
  -9   4   6 4.13601 4.09211   3
   9   4  -6 12.8055  4.8905   2
   8  -4  -6 67.2334  7.9730   5
   8  -4  -6 59.5439  5.4262   2
   8  -4  -6 60.9695  5.7086   1
  -8  -4   6 57.9841  5.1563   1
   8   4  -6 65.6735  5.2181   1
  -8   4   6 62.0252  7.4656   3
   8   4  -6 56.6636  7.7015   2
  -8   4   6 49.9590  5.3738   1
  -7  -4   6 140.708   7.952   1
   7  -4  -6 117.517   9.851   5
   7  -4  -6 134.706   7.578   2
   7  -4  -6 132.710   8.227   1
  -7   4   6 128.989   8.365   1
  -7   4   6 130.388   9.762   3
   7   4  -6 117.999  10.093   2
   7   4  -6 143.030   7.744   1
  -6  -4   6 -1.4220  2.3245   1
   6  -4  -6 1.23612 2.17726   2
  -6  -4   6 3.24424 1.66953   1
   6  -4  -6 -1.5095  2.2365   1
   6  -4  -6 -0.7869  3.3715   5
   6   4  -6 2.52544 1.93313   1
  -6   4   6 -0.7991  2.6718   1
   6   4  -6 -0.5748  2.6691   2
  -6   4   6 1.19980 2.86327   3
  -5  -4   6 217.771  10.032   1
   5  -4  -6 207.448   8.815   2
  -5  -4   6 197.519   9.385   1
   5  -4  -6 207.122  10.220   1
   5  -4  -6 196.539  10.857   5
  -5   4   6 206.481  10.385   1
   5   4  -6 202.374  11.198   2
   5   4  -6 207.281   9.572   1
  -5   4   6 203.680  10.362   3
  -4  -4   6 62.5466  5.6656   1
   4  -4  -6 61.6919  5.8729   1
   4  -4  -6 75.4523  5.4314   2
   4  -4  -6 68.5819  6.5919   5
   4   4  -6 68.9155  6.7769   2
   4   4  -6 69.2778  5.7476   1
  -4   4   6 71.6683  6.0654   1
   3  -4  -6 59.1535  5.7053   1
   3  -4  -6 52.0389  5.4091   5
  -3  -4   6 43.1176  4.7251   1
   3  -4  -6 57.5977  4.7734   2
   3   4  -6 59.4054  5.5383   2
   3   4  -6 53.0058  5.1431   1
  -3   4   6 60.9770  5.6846   1
   2  -4  -6 135.441   8.302   1
  -2  -4   6 129.498   7.941   1
   2  -4  -6 137.814   7.051   2
   2  -4  -6 120.734   7.168   5
   2   4  -6 131.026   7.602   2
   2   4  -6 130.779   7.693   1
  -2   4   6 119.332   7.654   1
   1  -4  -6 1245.80   26.83   1
   1  -4  -6 1259.41   24.49   2
   1  -4  -6 1247.58   24.33   5
  -1  -4   6 1243.07   26.31   1
   1   4  -6 1244.20   26.33   1
   1   4  -6 1248.21   24.12   2
  -1   4   6 1255.78   26.97   1
   0  -4   6 341.228  12.718   1
   0  -4  -6 325.509  10.617   5
   0  -4  -6 322.172  11.382   2
   0  -4  -6 324.467  12.468   1
   0   4  -6 332.348  10.237   2
   0   4  -6 334.939  12.606   1
   0   4   6 333.774  12.783   1
   1  -4   6 65.0734  5.7865   1
  -1  -4  -6 70.5383  6.1043   1
  -1  -4  -6 68.4348  4.6210   5
  -1   4  -6 63.9936  5.8459   1
  -1   4  -6 66.9186  4.1346   2
   1   4   6 66.9075  5.9210   1
  -2  -4  -6 584.024  13.625   5
  -2  -4  -6 589.360  17.326   1
   2  -4   6 587.986  17.123   1
  -2   4  -6 556.641  16.802   1
   2   4   6 589.401  16.952   1
  -2   4  -6 568.606  11.330   2
   3  -4   6 493.780  15.726   1
  -3  -4  -6 510.361  15.822   1
   3   4   6 496.228  15.314   1
  -3   4  -6 517.835  16.305   1
  -3   4  -6 498.819   9.222   2
  -3   4  -6 497.854  15.437   3
  -4  -4  -6 35.0760  4.4952   1
   4  -4   6 40.9347  4.8179   1
   4   4   6 34.0477  4.2833   1
  -4   4  -6 28.8514  4.4211   1
  -4   4  -6 40.0521  5.1552   3
  -5  -4  -6 79.4466  6.3281   1
  -5  -4  -6 75.5670  5.8407   1
   5  -4   6 81.9317  6.4261   1
   5  -4   6 77.2977  4.7562   5
  -5   4  -6 79.5761  7.1761   3
   5   4   6 78.5126  5.9716   1
  -5   4  -6 74.7463  6.3888   1
  -5   4  -6 78.0056  4.5386   4
  -6  -4  -6 229.629  10.117   1
   6  -4   6 251.492  11.000   1
  -6  -4  -6 231.602  10.158   1
   6  -4   6 233.562   8.497   5
   6   4   6 230.522   9.828   1
  -6   4  -6 217.194   8.394   4
  -6   4  -6 220.327  10.582   1
  -6   4  -6 234.945  10.697   1
  -6   4  -6 232.161  13.239   3
  -7  -4  -6 7.69930 2.52364   1
   7  -4   6 9.53403 2.37052   5
   7  -4   6 8.61294 2.87268   1
  -7  -4  -6 -0.5038  4.3373   4
  -7   4  -6 11.8426  3.3595   1
   7   4   6 10.8831  2.6434   1
  -7   4  -6 9.96603 3.87815   3
   8  -4   6 148.567   8.168   1
  -8  -4  -6 146.323   7.613   1
   8  -4   6 160.883   7.672   5
  -8   4  -6 141.692   8.278   1
  -8   4  -6 159.809   8.387   4
  -8   4  -6 141.357  11.463   3
   9  -4   6 31.1433  3.8054   5
  -9  -4  -6 30.7596  3.4558   1
  -9   4  -6 31.8348  4.2513   4
  -9   4  -6 34.0436  4.1648   1
  -9   4  -6 26.2230  5.8469   3
  10  -4   6 84.3706  6.1273   5
 -10   4  -6 69.0845  5.4695   1
 -10   4  -6 80.2338 10.1265   3
 -11   4  -6 39.5241  8.2658   3
 -12   4  -6 80.7754 11.0988   3
 -13  -4  -6 57.6647  9.7772   4
 -13   4  -6 72.3206 11.6139   3
 -14   4  -6 3.74523 5.58275   3
  14  -5  -6 14.3858  5.6077   5
 -14   5   6 6.40411 5.78535   3
  13  -5  -6 17.0511  6.3874   5
  12  -5  -6 28.0354  6.2706   5
 -12   5   6 31.0905  8.0224   3
  11  -5  -6 49.6312  8.3562   5
 -11   5   6 45.2394  8.5363   3
 -11   5   6 46.6523  5.1655   1
  11   5  -6 55.8146  8.7848   2
  10  -5  -6 14.0695  3.1793   2
  10  -5  -6 6.25673 4.81058   5
 -10  -5   6 10.2111  2.6149   1
 -10   5   6 14.6608  5.7426   3
 -10   5   6 14.8524  3.5077   1
   9  -5  -6 26.9504  3.7966   2
  -9  -5   6 23.5216  3.6719   1
   9  -5  -6 27.8404  6.3902   5
  -9   5   6 20.7010  5.0531   3
  -9   5   6 20.6364  4.1120   1
   9   5  -6 23.8768  5.4215   2
   8  -5  -6 14.8755  5.0830   5
   8  -5  -6 11.4253  2.7296   2
   8  -5  -6 8.27982 3.06817   1
  -8  -5   6 9.77069 2.96617   1
  -8   5   6 10.6900  4.6892   3
   8   5  -6 17.4511  5.3053   2
  -8   5   6 10.8321  3.4445   1
   8   5  -6 10.5258  2.7586   1
   7  -5  -6 133.531   8.947   1
   7  -5  -6 121.258  10.396   5
   7  -5  -6 127.202   7.486   2
  -7  -5   6 129.730   8.401   1
   7   5  -6 124.153  10.352   2
  -7   5   6 134.560  10.651   3
  -7   5   6 130.742   8.979   1
   7   5  -6 126.082   7.891   1
   6  -5  -6 1115.98   26.94   1
   6  -5  -6 1102.57   23.38   2
  -6  -5   6 1130.38   26.16   1
   6  -5  -6 1138.82   29.64   5
   6   5  -6 1122.25   30.52   2
  -6   5   6 1066.55   28.74   3
   6   5  -6 1125.86   25.52   1
  -6   5   6 1083.78   27.12   1
  -5  -5   6 123.441   8.317   1
   5  -5  -6 136.782   9.042   1
   5  -5  -6 144.711   7.686   2
   5  -5  -6 127.921   9.078   5
   5   5  -6 124.235   9.631   2
   5   5  -6 132.984   8.401   1
  -5   5   6 128.444   8.755   1
  -4  -5   6 263.758  11.986   1
   4  -5  -6 296.476  13.062   1
   4  -5  -6 262.264  12.605   5
   4  -5  -6 264.269  10.372   2
   4   5  -6 285.018  13.452   2
  -4   5   6 270.498  12.760   1
   4   5  -6 274.186  12.015   1
  -3  -5   6 48.2662  5.3942   1
   3  -5  -6 44.9749  5.4454   5
   3  -5  -6 36.3526  4.2309   2
   3  -5  -6 38.3968  5.2651   1
  -3   5   6 47.8843  5.8548   1
   3   5  -6 37.0754  4.8764   1
   3   5  -6 35.3322  5.0406   2
   2  -5  -6 29.1737  4.0042   2
   2  -5  -6 28.3275  4.7632   1
  -2  -5   6 36.9210  4.8520   1
   2  -5  -6 43.1258  4.6422   5
   2   5  -6 46.2685  5.3746   1
   2   5  -6 40.1304  4.9763   2
  -2   5   6 51.6487  5.5912   1
   1  -5  -6 23.3819  3.8610   2
   1  -5  -6 20.7887  4.2304   1
   1  -5  -6 30.4748  4.1125   5
   1   5  -6 23.4770  4.4334   1
   1   5  -6 27.4485  3.7425   2
  -1   5   6 19.7472  4.2201   1
   0  -5  -6 128.053   8.535   1
   0  -5  -6 119.235   6.740   5
   0  -5   6 123.002   8.174   1
   0   5  -6 119.450   8.240   1
   0   5  -6 116.289   6.385   2
   0   5  -6 118.947   5.432   4
   0   5   6 113.212   8.173   1
  -1  -5  -6 207.798   8.700   5
   1  -5   6 196.336  10.289   1
  -1  -5  -6 213.501  11.016   1
  -1   5  -6 209.756  10.840   1
   1   5   6 202.394  10.616   1
  -1   5  -6 206.627   7.514   2
  -2  -5  -6 37.7776  5.0311   1
  -2  -5  -6 31.9090  3.6219   5
   2  -5   6 36.6684  5.0482   1
  -2   5  -6 27.7449  4.6529   1
  -2   5  -6 30.0053  2.5300   2
   2   5   6 34.5289  4.6208   1
  -3  -5  -6 -0.0637  2.7253   1
   3  -5   6 4.21329 2.74747   1
  -3   5  -6 -4.6932  2.6738   1
   3   5   6 -0.3721  1.8625   1
  -3   5  -6 1.68421 0.77929   2
  -4  -5  -6 412.940  15.006   1
   4  -5   6 363.679  14.327   1
  -4   5  -6 375.882  14.644   1
  -4   5  -6 396.682  15.539   3
   4   5   6 375.787  14.056   1
  -5  -5  -6 11.5868  3.6780   1
   5   5   6 7.07053 2.91844   1
  -5   5  -6 11.0116  3.3687   1
  -5   5  -6 11.4494  1.6456   4
  -5   5  -6 6.76985 3.21835   3
  -6  -5  -6 16.8309  3.7377   1
   6  -5   6 20.0957  4.1141   1
   6  -5   6 17.0891  3.1233   5
  -6   5  -6 21.0054  5.0960   3
   6   5   6 12.0430  3.1646   1
  -6   5  -6 15.6327  4.0693   1
  -6   5  -6 10.1862  1.7825   4
  -7  -5  -6 9.20265 3.02736   1
   7  -5   6 9.16341 2.95188   1
   7  -5   6 10.4202  2.6067   5
  -7   5  -6 10.7745  2.0308   4
   7   5   6 9.57679 2.50587   1
  -8  -5  -6 46.2802  7.3318   4
   8  -5   6 44.4382  5.0931   1
   8  -5   6 37.4398  4.2010   5
  -8  -5  -6 28.3518  4.0197   1
  -8   5  -6 42.8158  5.2842   1
  -8   5  -6 41.9075  7.4852   3
  -9  -5  -6 -0.2046  4.1785   4
  -9  -5  -6 1.56004 1.92228   1
  -9   5  -6 0.66117 2.25296   1
  -9   5  -6 5.23117 4.74133   3
  10  -5   6 50.0750  5.1171   5
 -10  -5  -6 52.0749  4.4292   1
 -10   5  -6 51.9140  8.9923   3
 -10   5  -6 51.2561  5.3837   1
 -11   5  -6 -4.6851  5.1798   3
 -12   5  -6 34.4086  8.4300   3
 -13  -5  -6 78.9381 11.0540   4
 -13   5  -6 76.3090 11.2841   3
  13  -6  -6 3.37769 4.18152   5
 -13   6   6 -2.7697  4.2700   3
  12  -6  -6 193.751  15.488   5
 -12   6   6 175.987  15.822   3
  11  -6  -6 314.396  18.855   5
 -11   6   6 337.843  21.350   3
 -11   6   6 324.718  14.478   1
  10  -6  -6 -4.3942  4.8987   5
 -10  -6   6 -0.4777  1.9935   1
 -10   6   6 5.38265 3.02145   1
 -10   6   6 2.36831 4.49034   3
  10   6  -6 2.40347 3.81482   2
   9  -6  -6 12.4380  2.9344   2
  -9  -6   6 16.3222  3.6767   1
  -9   6   6 20.6942  4.4480   1
  -9   6   6 21.6741  5.4796   3
   9   6  -6 16.6435  5.8571   2
   8  -6  -6 115.216  10.175   5
   8  -6  -6 117.512   7.243   2
  -8  -6   6 100.763   7.896   1
   8  -6  -6 100.060   8.187   1
  -8   6   6 94.0070 10.1192   3
   8   6  -6 108.647  10.722   2
  -8   6   6 101.432   8.538   1
  -7  -6   6 109.106   8.255   1
   7  -6  -6 106.626   8.586   1
   7  -6  -6 103.222   9.734   5
   7  -6  -6 103.861   6.769   2
   7   6  -6 109.670   7.948   1
  -7   6   6 112.865   8.900   1
   7   6  -6 111.472   9.978   2
  -7   6   6 101.299   9.952   3
   6  -6  -6 845.234  20.383   2
   6  -6  -6 855.226  24.663   1
   6  -6  -6 874.457  26.298   5
  -6  -6   6 886.443  24.203   1
   6   6  -6 883.207  27.517   2
  -6   6   6 851.167  26.457   3
  -6   6   6 855.919  24.930   1
   6   6  -6 863.287  23.191   1
  -5  -6   6 16.1217  4.0840   1
   5  -6  -6 23.0479  4.9022   1
   5  -6  -6 20.8223  5.1850   5
   5  -6  -6 22.2552  3.6703   2
   5   6  -6 25.2698  5.5689   2
  -5   6   6 19.5817  4.7274   1
   5   6  -6 22.4558  4.2339   1
   4  -6  -6 385.730  15.982   1
  -4  -6   6 392.458  15.558   1
   4  -6  -6 372.492  15.351   5
   4  -6  -6 397.856  13.432   2
   4   6  -6 378.174  15.105   1
  -4   6   6 380.462  16.225   1
   4   6  -6 395.100  16.538   2
  -3  -6   6 173.267  10.571   1
   3  -6  -6 188.277   9.203   2
   3  -6  -6 182.123  11.214   1
   3  -6  -6 174.393  10.054   5
   3   6  -6 171.650  10.306   1
   3   6  -6 182.620  10.538   2
  -3   6   6 186.306  11.219   1
   2  -6  -6 33.9103  4.7383   2
  -2  -6   6 33.3301  5.5613   1
   2  -6  -6 30.3251  4.8796   1
  -2   6   6 27.7883  5.2487   1
   2   6  -6 30.3440  4.8498   2
   2   6  -6 32.0153  5.3270   1
   1  -6  -6 10.1111  4.0592   1
  -1  -6   6 6.04760 3.47643   1
   1   6  -6 10.5050  3.2330   1
   1   6  -6 7.58045 2.93329   2
   0  -6   6 115.384   8.844   1
   0  -6  -6 122.442   9.194   1
   0  -6  -6 113.033   7.461   5
   0   6  -6 104.183   5.316   4
   0   6  -6 112.703   6.750   2
   0   6  -6 120.142   8.870   1
   0   6   6 109.088   8.640   1
   1  -6   6 57.2540  6.4889   1
  -1  -6  -6 54.5711  6.5255   1
  -1  -6  -6 56.3522  5.3885   5
   1   6   6 52.8123  5.9348   1
  -1   6  -6 63.8492  6.8483   1
  -1   6  -6 54.4358  4.3287   2
  -1   6  -6 52.1554  3.2105   4
   2  -6   6 -0.0139  2.9653   1
   2   6   6 3.58510 3.41602   1
  -2   6  -6 8.90940 3.13751   1
  -3  -6  -6 253.619  12.608   1
   3  -6   6 265.254  12.978   1
   3   6   6 228.444  11.957   1
  -3   6  -6 248.898  12.845   1
  -3   6  -6 237.653   6.176   2
  -4  -6  -6 376.794  15.289   1
   4  -6   6 394.948  15.893   1
  -4   6  -6 391.038  16.543   3
  -4   6  -6 411.388  16.626   1
   4   6   6 378.660  15.300   1
   5  -6   6 446.014  16.964   1
  -5  -6  -6 460.029  17.176   1
   5   6   6 460.190  16.496   1
  -5   6  -6 450.740  17.533   1
  -5   6  -6 459.390  19.011   3
   6  -6   6 17.1800  4.1952   1
   6  -6   6 15.1240  3.0529   5
  -6   6  -6 11.0458  3.8950   1
  -6   6  -6 12.0885  4.9560   3
   6   6   6 14.2005  3.4924   1
  -7  -6  -6 -3.2604  4.0427   4
   7  -6   6 1.27488 2.61812   1
   7  -6   6 0.73768 2.25077   5
  -7   6  -6 -8.0520  4.7826   3
   7   6   6 1.35986 2.10937   1
  -7   6  -6 4.58999 2.92735   1
  -8  -6  -6 216.029  11.043   1
   8  -6   6 218.922  10.395   5
  -8   6  -6 238.889  12.561   1
  -8   6  -6 231.390  16.047   3
   9  -6   6 139.607   8.587   5
  -9  -6  -6 144.182   8.697   1
  -9   6  -6 143.707  13.184   3
  -9   6  -6 148.012   9.875   1
  10  -6   6 71.1129  6.4742   5
 -10  -6  -6 88.4303 10.9004   4
 -10  -6  -6 77.4711  6.1074   1
 -10   6  -6 85.2353 10.6074   3
 -11  -6  -6 0.58064 4.15131   4
 -11   6  -6 3.13897 2.47898   1
 -11   6  -6 2.89140 4.68275   3
 -12   6  -6 3.33259 5.61054   3
 -13   6  -6 6.88126 6.00944   3
  13  -7  -6 -4.5637  5.2109   5
 -13   7   6 -4.0922  5.6166   3
  13   7  -6 10.7416  5.2621   2
  12  -7  -6 36.6668  7.8749   5
  12   7  -6 42.8445  8.2548   2
 -12   7   6 49.7114  9.7964   3
  11  -7  -6 45.3069  8.2834   5
 -11   7   6 44.7324  9.0299   3
 -11   7   6 59.9778  7.0282   1
  10  -7  -6 25.9907  6.7636   5
 -10  -7   6 19.5289  4.1970   1
 -10   7   6 20.7568  6.1883   3
 -10   7   6 15.5299  4.3081   1
   9  -7  -6 95.8772 10.2829   5
  -9  -7   6 109.466   8.487   1
   9   7  -6 110.958  11.767   2
  -9   7   6 99.2974 11.3527   3
  -9   7   6 125.385   9.936   1
   8  -7  -6 0.40535 2.85892   1
  -8  -7   6 -0.4200  2.8013   1
   8  -7  -6 -5.2530  4.5247   5
   8  -7  -6 2.25438 2.01753   2
  -8   7   6 3.93812 4.49040   3
  -8   7   6 -7.3267  3.8619   1
   7  -7  -6 242.254  13.466   1
   7  -7  -6 253.692  10.787   2
  -7  -7   6 252.356  13.230   1
   7  -7  -6 260.082  15.220   5
   7   7  -6 232.653  12.343   1
   7   7  -6 225.594  14.979   2
  -7   7   6 255.205  15.604   3
  -7   7   6 255.032  14.039   1
   6  -7  -6 37.3674  6.6080   5
  -6  -7   6 31.9824  4.9519   1
   6  -7  -6 41.7403  6.2706   1
   6  -7  -6 29.1213  4.1619   2
  -6   7   6 27.9656  5.5866   1
   6   7  -6 17.8226  5.4737   2
   6   7  -6 31.9301  5.2226   1
  -5  -7   6 50.5500  6.5094   1
   5  -7  -6 42.2650  6.4148   5
   5  -7  -6 44.9126  4.9663   2
   5  -7  -6 44.0456  6.2024   1
  -5   7   6 42.6812  6.5205   1
   5   7  -6 51.8329  6.3232   1
   5   7  -6 48.6618  6.6069   2
   4  -7  -6 84.3622  8.0066   5
  -4  -7   6 93.1700  8.1282   1
   4  -7  -6 82.5406  6.4202   2
   4  -7  -6 91.4685  8.6133   1
  -4   7   6 83.2205  8.4233   1
   4   7  -6 96.8464  8.4891   1
   4   7  -6 82.4785  8.0004   2
  -3  -7   6 230.264  12.617   1
   3  -7  -6 239.891  13.612   1
   3  -7  -6 238.181  12.260   5
   3  -7  -6 232.373  10.884   2
   3   7  -6 234.656  12.730   2
   3   7  -6 241.569  13.018   1
  -3   7   6 260.451  14.061   1
   2  -7  -6 -0.1207  3.2468   5
   2  -7  -6 1.52106 3.41643   1
  -2  -7   6 -2.4226  3.7459   1
  -2   7   6 3.09397 3.33826   1
   2   7  -6 7.27062 3.77943   1
   2   7  -6 1.21432 2.66899   2
   1  -7  -6 46.8248  5.3395   5
   1  -7  -6 51.7591  6.8900   1
  -1  -7   6 58.1648  7.0476   1
   1   7  -6 38.7849  5.5808   1
   1   7  -6 36.6905  4.6355   2
  -1   7   6 39.7954  6.3329   1
   0  -7  -6 47.4471  6.6626   1
   0  -7  -6 55.8633  5.6106   5
   0  -7   6 43.3209  6.3236   1
   0   7  -6 63.9635  5.6024   2
   0   7  -6 62.8850  7.1981   1
   0   7  -6 57.2068  3.9730   4
   0   7   6 66.3929  7.6881   1
   1  -7   6 41.3243  6.2280   1
  -1  -7  -6 44.4760  5.5063   5
  -1  -7  -6 45.8228  6.6215   1
   1   7   6 38.0826  5.6225   1
  -1   7  -6 37.5043  4.0763   2
  -1   7  -6 41.8147  2.7962   4
  -1   7  -6 44.5624  6.5248   1
   2  -7   6 423.691  17.717   1
  -2  -7  -6 420.193  17.797   1
  -2   7  -6 398.083  10.981   2
  -2   7  -6 412.527  17.565   1
   2   7   6 427.119  17.541   1
  -3  -7  -6 822.955  25.326   1
   3  -7   6 828.578  25.035   1
  -3   7  -6 849.927  25.896   1
   3   7   6 812.721  24.413   1
   4  -7   6 161.828  11.072   1
  -4  -7  -6 159.127  10.944   1
   4   7   6 162.756  10.542   1
  -4   7  -6 154.940  10.775   1
   5  -7   6 62.7703  7.1102   1
  -5  -7  -6 54.0478  6.7034   1
  -5   7  -6 64.5880  7.9421   3
   5   7   6 67.4942  7.0515   1
  -5   7  -6 55.4382  6.8418   1
  -6  -7  -6 5.38423 4.20239   4
  -6  -7  -6 -2.9476  3.2571   1
   6  -7   6 -2.3246  2.5864   5
   6  -7   6 1.42136 2.97512   1
  -6   7  -6 10.1909  4.1368   3
   6   7   6 7.42268 2.96944   1
  -6   7  -6 0.64710 2.93570   1
   7  -7   6 4.23897 3.08368   1
  -7  -7  -6 -2.1439  4.2186   4
  -7  -7  -6 -2.3991  3.0713   1
  -7   7  -6 -5.6810  3.7541   1
  -7   7  -6 2.84515 4.47311   3
  -8  -7  -6 55.9635  6.3055   1
   8  -7   6 49.8775  5.5680   5
  -8   7  -6 53.2279  6.9380   1
  -8   7  -6 58.5151  8.4609   3
  -9  -7  -6 38.8541  5.2645   1
  -9  -7  -6 49.0846  7.8442   4
   9  -7   6 41.4402  5.3264   5
  -9   7  -6 45.4772  6.3890   1
  -9   7  -6 54.0931  9.1039   3
 -10  -7  -6 2.70926 2.36825   1
 -10   7  -6 5.70923 5.62766   3
 -11   7  -6 30.8982  5.2321   1
 -11   7  -6 49.7753  9.9191   3
 -12  -7  -6 21.6513  7.0706   4
 -12   7  -6 35.7651  9.0920   3
 -12   8   6 5.58723 5.50423   3
  11  -8  -6 41.5431  8.1293   5
 -11   8   6 36.5668  6.1694   1
 -11   8   6 30.2183  7.4630   3
 -10  -8   6 7.55600 3.56885   1
  10   8  -6 11.7158  5.1699   2
   9  -8  -6 -0.3980  4.1553   5
  -9  -8   6 6.65914 3.36932   1
  -9   8   6 4.34821 3.72012   1
  -9   8   6 -3.2645  4.3016   3
  -8  -8   6 65.9499  7.4775   1
   8  -8  -6 64.4742  8.8691   5
  -8   8   6 57.6827  9.1278   3
  -8   8   6 66.4766  8.2474   1
   8   8  -6 65.2702  9.3759   2
  -7  -8   6 16.5182  4.6158   1
   7  -8  -6 18.3940  3.4839   2
   7  -8  -6 16.7929  4.9067   1
   7  -8  -6 14.5110  5.5651   5
   7   8  -6 29.5618  6.8291   2
   7   8  -6 17.3801  4.3371   1
  -7   8   6 30.0860  6.8271   3
   6  -8  -6 -1.1688  2.3851   2
  -6  -8   6 0.48832 3.24787   1
   6  -8  -6 5.04926 3.99396   1
   6   8  -6 -1.7545  4.3321   2
   6   8  -6 -2.8263  2.8481   1
   5  -8  -6 -4.4752  3.6161   1
   5  -8  -6 -3.7790  3.9887   5
  -5  -8   6 7.89991 4.08676   1
  -5   8   6 2.66854 3.95895   1
   5   8  -6 7.78686 3.88997   1
   5   8  -6 4.25025 4.24164   2
   4  -8  -6 123.830  10.782   1
  -4  -8   6 148.761  10.978   1
   4  -8  -6 118.862   9.322   5
  -4   8   6 116.206  10.380   1
   4   8  -6 149.270  10.839   1
   4   8  -6 135.611  10.884   2
   3  -8  -6 1.50021 3.60734   5
  -3  -8   6 -2.4437  3.8755   1
   3   8  -6 0.23253 3.45802   1
  -3   8   6 -2.0994  2.9757   1
   3   8  -6 -1.6370  3.2243   2
   2  -8  -6 105.019   9.797   1
  -2  -8   6 107.799   9.536   1
   2  -8  -6 99.5615  8.4572   5
  -2   8   6 106.262   9.847   1
   2   8  -6 97.8013  9.1358   1
   2   8  -6 96.6779  8.2871   2
   1  -8  -6 141.556  11.050   1
  -1  -8   6 133.532  10.338   1
   1  -8  -6 150.068   9.904   5
   1   8  -6 147.469   9.489   2
   1   8  -6 154.147  11.374   1
  -1   8   6 161.296  11.868   1
   0  -8   6 150.322  11.217   1
   0  -8  -6 160.882  11.511   1
   0  -8  -6 157.350   9.830   5
   0   8  -6 155.716   8.896   2
   0   8  -6 143.355  10.708   1
   0   8   6 158.419  11.707   1
   1  -8   6 77.9512  8.6173   1
  -1  -8  -6 78.9715  8.7916   1
  -1  -8  -6 72.7773  6.8443   5
  -1   8  -6 80.4749  8.2643   1
   1   8   6 62.4623  7.8163   1
  -1   8  -6 65.5583  5.4157   2
  -2  -8  -6 309.724  16.205   1
   2  -8   6 294.788  15.330   1
  -2   8  -6 297.985  15.884   1
   2   8   6 280.068  14.929   1
  -2   8  -6 288.104   9.855   2
   3  -8   6 208.038  13.205   1
  -3  -8  -6 221.808  13.839   1
   3   8   6 217.065  13.284   1
  -3   8  -6 197.022  13.238   1
  -4  -8  -6 20.9765  5.5177   1
   4  -8   6 26.4287  5.2107   1
   4   8   6 23.4868  5.2080   1
  -4   8  -6 21.7972  5.7329   1
  -5  -8  -6 263.290  14.625   1
   5  -8   6 261.771  14.712   1
  -5   8  -6 241.638  14.998   3
  -5   8  -6 271.266  15.305   1
   5   8   6 279.994  14.568   1
  -6  -8  -6 45.1139  6.5155   1
   6  -8   6 45.7564  6.4848   1
  -6   8  -6 56.0937  7.5740   1
  -6   8  -6 43.1570  7.6129   3
   6   8   6 41.0158  5.8832   1
   7  -8   6 3.47560 2.92138   5
  -7  -8  -6 4.61054 4.58382   4
  -7  -8  -6 11.0167  4.1974   1
   7  -8   6 3.07427 3.42005   1
  -7   8  -6 4.88689 5.18512   3
  -7   8  -6 13.8629  4.8170   1
  -8  -8  -6 37.8871  5.8953   1
  -8  -8  -6 18.5369  5.5145   4
   8  -8   6 30.6562  5.0661   5
  -8   8  -6 25.6593  7.2054   3
  -8   8  -6 28.8966  5.6897   1
   9  -8   6 51.7175  6.0724   5
  -9  -8  -6 48.9212  6.3444   1
  -9   8  -6 56.4828  7.3905   1
  -9   8  -6 51.2336  8.7199   3
 -10  -8  -6 17.5686  4.0386   1
 -10   8  -6 19.4941  4.9150   1
 -11  -8  -6 3.68172 5.21883   4
 -11   8  -6 -14.176   6.968   3
 -11   8  -6 -2.8395  3.1820   1
 -12   8  -6 -14.178   6.364   3
  11  -9  -6 42.1724  8.4398   5
 -11   9   6 42.0624  8.5992   3
 -11   9   6 41.4392  6.8275   1
 -10  -9   6 20.5115  4.9076   1
 -10   9   6 19.6938  7.3821   3
   9  -9  -6 30.8363  7.0451   5
  -9   9   6 26.1410  5.8126   1
   9   9  -6 19.2603  6.5356   2
  -9   9   6 43.6414  8.4273   3
  -8  -9   6 30.1991  5.9618   1
   8  -9  -6 36.1200  7.3877   5
   8   9  -6 34.6805  7.7090   2
  -8   9   6 29.0476  7.2834   3
  -8   9   6 31.2032  6.5151   1
   7  -9  -6 65.6862  8.4283   5
  -7  -9   6 67.2568  8.1878   1
   7  -9  -6 64.4050  8.4301   1
  -7   9   6 60.2039  8.4263   1
  -7   9   6 77.8215  9.9762   3
   7   9  -6 75.9544  9.7112   2
   6  -9  -6 25.5950  5.9599   5
  -6  -9   6 32.5088  6.3350   1
   6   9  -6 43.7494  8.0477   2
   6   9  -6 23.6140  5.4892   1
  -5  -9   6 43.7961  7.1029   1
   5  -9  -6 31.7932  5.8844   5
   5   9  -6 47.0159  7.7010   2
   5   9  -6 33.4291  5.7689   1
  -4  -9   6 11.5996  4.7324   1
   4   9  -6 5.21845 3.11825   1
   4   9  -6 9.94053 4.68173   2
  -4   9   6 10.2310  4.7316   1
  -3  -9   6 125.437  10.820   1
   3  -9  -6 113.885  10.431   1
   3  -9  -6 97.6796  8.9925   5
   3   9  -6 118.104  10.214   2
   3   9  -6 118.135  10.363   1
  -2  -9   6 241.504  14.817   1
   2  -9  -6 234.117  13.102   5
  -2   9   6 224.985  14.778   1
   2   9  -6 234.523  14.608   1
   2   9  -6 243.363  13.454   2
  -1  -9   6 75.7249  8.7073   1
   1  -9  -6 94.1140  8.5994   5
   1   9  -6 87.1945  7.7687   2
   1   9  -6 85.8071  8.8484   1
   0  -9   6 26.2501  5.9863   1
   0  -9  -6 27.1081  5.2341   5
   0   9  -6 24.2807  5.7682   1
   1  -9   6 134.539  11.377   1
  -1   9  -6 133.562   7.941   2
   1   9   6 151.158  11.992   1
  -1   9  -6 141.274  11.817   1
  -2  -9  -6 93.9385  9.3862   1
   2  -9   6 111.167  10.359   1
  -2   9  -6 101.317   9.808   1
   3  -9   6 8.54624 3.66866   1
   3   9   6 13.2534  4.6825   1
  -3   9  -6 4.24761 4.29225   1
   4  -9   6 1.30689 4.08144   1
   4   9   6 -1.2131  3.4589   1
   5  -9   6 96.5277  9.8131   1
  -5  -9  -6 95.3396  9.7718   1
   5   9   6 103.510   9.797   1
  -5   9  -6 96.1875 10.2318   1
  -5   9  -6 103.492  10.911   3
   6  -9   6 1.42673 3.46837   1
  -6  -9  -6 2.94133 3.62880   4
  -6  -9  -6 4.21688 3.85463   1
  -6   9  -6 6.02781 4.85451   3
   6   9   6 0.28671 2.71385   1
  -6   9  -6 -1.8227  4.1605   1
  -7  -9  -6 23.5835  5.5464   1
   7  -9   6 27.1182  5.7168   1
  -7   9  -6 22.8443  5.8381   1
  -8  -9  -6 37.5463  6.2870   1
  -8  -9  -6 49.9324  8.1954   4
  -8   9  -6 42.2825  7.2673   1
  -8   9  -6 33.9677  8.3326   3
  -9  -9  -6 25.8465  5.4852   1
   9  -9   6 40.6800  6.1215   5
  -9   9  -6 32.3553  6.3076   1
  -9   9  -6 42.3951  8.5954   3
 -10  -9  -6 171.128  11.520   1
 -10  -9  -6 198.613  16.821   4
 -10   9  -6 155.694  12.496   1
 -10   9  -6 173.737  16.951   3
 -11   9  -6 112.779  10.486   1
 -11   9  -6 108.340  14.222   3
 -10 -10   6 30.6791  6.0758   1
  10 -10  -6 36.4305  7.9267   5
  10  10  -6 39.1810  8.2873   2
 -10  10   6 48.8226  9.8469   3
   9 -10  -6 -8.1439  4.7074   5
  -9 -10   6 -4.5356  3.4701   1
  -9  10   6 -6.4878  5.7274   3
  -8 -10   6 1.40124 3.25056   1
   8 -10  -6 11.4434  5.8404   5
  -8  10   6 4.90827 3.92009   3
   8  10  -6 1.23656 4.97908   2
   7 -10  -6 17.8839  6.2662   5
  -7 -10   6 12.0211  4.6988   1
   7  10  -6 22.3398  6.5393   2
  -7  10   6 4.78415 4.81470   3
  -6 -10   6 11.6628  5.2650   1
   6  10  -6 8.35495 3.61933   1
   6  10  -6 21.4142  6.0507   2
  -5 -10   6 65.8735  8.7975   1
   5 -10  -6 57.2596  8.2410   5
   5  10  -6 68.0199  9.0263   2
   5  10  -6 57.6936  8.0490   1
   4 -10  -6 209.654  14.036   5
  -4 -10   6 224.395  15.116   1
   4  10  -6 229.429  15.118   1
   4  10  -6 221.959  14.924   2
  -3 -10   6 1.13323 4.50028   1
   3 -10  -6 5.66315 3.86351   1
   3  10  -6 9.18054 4.01579   1
   3  10  -6 16.9352  4.9523   2
  -2 -10   6 -1.9556  3.9006   1
   2  10  -6 5.60571 3.70898   2
  -2  10   6 -3.3386  3.5311   1
   2  10  -6 3.52619 4.37649   1
   1 -10  -6 101.315   9.347   5
  -1 -10   6 96.9354 10.3524   1
   1  10  -6 92.6137  9.7452   1
   1  10  -6 99.7145  8.6547   2
   0 -10   6 116.415  11.198   1
   0  10  -6 102.112  10.625   1
   0  10  -6 103.920   8.172   2
   1 -10   6 29.1982  6.7155   1
   1  10   6 24.2722  5.7852   1
  -1  10  -6 25.3168  6.5428   1
   2 -10   6 34.5312  6.9141   1
  -2 -10  -6 33.3398  6.4121   1
  -2  10  -6 45.5569  7.3589   1
   3 -10   6 101.591  10.305   1
  -3  10  -6 113.997  11.381   1
  -4 -10  -6 -0.7906  3.7106   4
   4 -10   6 12.5914  5.2219   1
  -4  10  -6 -2.6803  4.6014   1
   5 -10   6 -1.8773  3.9563   1
  -5 -10  -6 0.84814 3.84939   4
  -5  10  -6 2.97892 4.60445   1
  -6 -10  -6 -9.4408  4.9565   4
   6 -10   6 3.90086 3.87761   1
  -6  10  -6 -2.2731  4.4787   1
  -7  10  -6 23.0350  6.4271   1
  -8 -10  -6 -2.6016  3.3716   1
  -8 -10  -6 -7.4804  5.1448   4
  -8  10  -6 4.35251 4.34447   3
  -8  10  -6 10.5246  4.9636   1
  -9 -10  -6 -4.8018  5.1999   4
  -9 -10  -6 4.06014 3.49875   1
  -9  10  -6 1.36036 5.01756   3
  -9  10  -6 -2.4244  4.1208   1
 -10 -10  -6 19.3989  5.0143   1
 -10 -10  -6 16.9616  5.9721   4
 -10  10  -6 18.1222  5.5342   1
  -9 -11   6 9.45182 4.60791   1
   8 -11  -6 -1.4527  3.6159   5
  -8  11   6 -0.9670  4.8573   3
   8  11  -6 10.7505  4.9805   2
  -7 -11   6 -0.2338  2.8617   1
  -7  11   6 6.04214 4.56550   3
   7  11  -6 5.70300 5.01134   2
   6 -11  -6 -1.8068  3.5146   1
  -6 -11   6 5.40898 4.66714   1
   6 -11  -6 18.4861  6.1931   5
   6  11  -6 4.07891 4.67564   2
  -5 -11   6 33.1421  7.2106   1
   5 -11  -6 31.9795  6.9046   1
   5 -11  -6 39.9255  7.5887   5
   5  11  -6 36.1697  7.1519   1
   5  11  -6 24.4921  5.9046   2
  -4 -11   6 26.9277  6.9259   1
   4 -11  -6 32.3449  6.5012   5
   4  11  -6 41.5467  7.1874   2
   4  11  -6 22.5656  6.2258   1
   3 -11  -6 8.15591 4.28656   1
  -3 -11   6 -2.0386  4.3685   1
   3 -11  -6 1.59686 4.58592   5
   3  11  -6 6.13410 3.99659   2
   2 -11  -6 -8.3142  3.7832   5
   2  11  -6 2.70602 3.15933   2
  -1 -11   6 24.1045  6.1870   1
   1  11  -6 19.5361  5.8700   1
   1  11  -6 32.1820  5.6400   2
   0 -11   6 28.2161  6.7644   1
   0  11  -6 13.9191  4.8213   1
   1 -11   6 151.710  13.390   1
  -1  11  -6 132.139  12.376   1
   2 -11   6 4.92505 4.40252   1
  -2 -11  -6 2.49885 3.64233   1
  -2 -11  -6 8.92891 3.90350   4
  -2  11  -6 6.37430 4.12948   1
   3 -11   6 87.7209 10.4154   1
  -3 -11  -6 89.2960  9.2366   4
  -3  11  -6 73.9803  9.9390   1
   4 -11   6 16.7821  5.9345   1
  -4  11  -6 12.2928  5.2458   1
  -5 -11  -6 6.62409 4.70942   4
   5 -11   6 19.9653  6.2709   1
  -5  11  -6 13.8711  6.3408   1
   6 -11   6 58.7049  8.9749   1
  -6  11  -6 62.7483  9.8495   3
  -6  11  -6 57.9957  9.2960   1
  -7  11  -6 36.6212  7.8244   1
  -7  11  -6 19.7726  7.4589   3
  -8 -11  -6 4.25588 5.03300   4
  -8  11  -6 7.48283 5.04459   1
  -8  11  -6 8.13527 6.50159   3
  -9 -11  -6 6.95727 5.40477   4
  -9  11  -6 8.00364 4.73004   1
  -9  11  -6 4.52012 6.14577   3
  -8  12   6 -0.4676  4.0540   1
  -8  12   6 -3.2279  5.4427   3
   7 -12  -6 0.02623 4.69072   5
  -7 -12   6 -8.3242  4.2449   1
  -7  12   6 2.81662 3.75854   3
   7  12  -6 -7.4815  4.5689   2
   6 -12  -6 -1.4359  4.8429   5
  -6 -12   6 0.70870 4.18755   1
   6  12  -6 2.27485 4.40729   2
  -5 -12   6 53.7161  9.0592   1
   5 -12  -6 44.6952  8.1661   5
   5  12  -6 55.6747  9.0062   2
   5  12  -6 56.4585  8.6977   1
  -5  12   6 65.2206  9.6058   1
   4 -12  -6 23.4908  5.8583   5
  -4 -12   6 28.3390  7.1496   1
   4  12  -6 34.6528  7.1648   2
   4  12  -6 21.7152  5.7655   1
  -3 -12   6 13.4573  5.1393   1
   3  12  -6 6.70302 4.09095   2
   3  12  -6 3.79067 4.47161   1
  -3  12   6 5.68176 4.20168   1
  -2 -12   6 1.25072 4.93003   1
   2 -12  -6 2.23149 3.98278   5
   2  12  -6 -3.9316  3.6976   2
  -1 -12   6 47.2262  8.5711   1
   1  12  -6 52.0346  9.0158   1
   0 -12   6 9.30724 4.36542   1
   0  12  -6 2.57391 4.53599   1
   1 -12   6 3.51512 3.55777   1
  -1  12  -6 5.59714 4.88441   1
  -2 -12  -6 12.5216  3.9894   4
   2 -12   6 15.8078  5.6853   1
  -2  12  -6 6.68210 5.23174   1
   2  12   6 20.8969  5.9916   1
  -3 -12  -6 61.3251  7.9472   4
   3 -12   6 51.7334  9.0734   1
  -3  12  -6 75.5710 10.6715   1
  -4 -12  -6 -4.2723  3.9474   4
   4 -12   6 7.23296 4.58344   1
  -4 -12  -6 -7.1089  4.4712   1
  -4  12  -6 2.19655 4.56874   1
  -5 -12  -6 18.9392  5.9295   1
   5 -12   6 11.8982  5.7199   1
  -5  12  -6 16.4523  6.5829   1
   6 -12   6 5.09105 4.98902   1
  -6 -12  -6 4.91881 5.02129   4
  -6  12  -6 0.52999 5.05659   3
  -7  12  -6 15.0567  6.1488   3
  -7  12  -6 21.2027  6.9544   1
  -6 -13   6 34.2431  7.2690   1
   6  13  -6 28.4568  7.4638   2
   5 -13  -6 44.5867  8.5773   5
  -5 -13   6 44.5830  8.2973   1
   5  13  -6 57.8397  9.5071   2
   4 -13  -6 80.3266 10.8394   5
  -4  13   6 85.3262 11.9292   1
   4  13  -6 80.5931 10.5142   2
  -2 -13   6 62.6892  9.6275   1
   1 -13  -6 2.49073 4.01237   1
   1  13  -6 2.63627 3.87854   1
   0 -13  -6 83.1281 11.2806   1
  -3 -13  -6 16.6158  6.1317   1
   4  13   6 -5.9165  4.2857   1
  -5 -13  -6 9.38340 5.03513   4
  -1  14   6 10.2620  5.4701   1
   0 -14   6 15.8579  5.7251   1
   0  14   6 14.4225  5.7440   1
  -1 -14  -6 -2.4601  4.0641   1
   1 -14   6 10.0743  4.9161   1
  15   0  -7 -9.4198  5.8144   5
  15   0  -7 -2.7442  3.9800   2
  14   0  -7 -5.7700  5.3246   5
  14   0  -7 1.27402 3.77413   2
 -14   0   7 -6.3356  5.4898   3
 -13   0   7 -7.2896  5.0645   3
  13   0  -7 -5.0552  4.8494   5
  12   0  -7 -1.9950  3.7265   5
  12   0  -7 0.98088 3.41627   2
 -12   0   7 12.8633  5.2572   3
  11   0  -7 217.023  13.292   2
 -11   0   7 210.942  14.407   3
  11   0  -7 207.183  15.009   5
 -10   0   7 0.31558 1.27217   1
  10   0  -7 2.35917 4.22839   5
 -10   0   7 -5.5100  3.9930   3
  -9   0   7 452.156  18.657   3
  -9   0   7 460.965  12.898   1
   9   0  -7 441.645  19.849   5
   9   0  -7 456.573  17.805   2
  -8   0   7 1.32821 2.96167   3
   8   0  -7 -2.6321  3.9927   5
   8   0  -7 -1.5345  1.5747   1
   8   0  -7 -2.0343  3.5628   2
  -8   0   7 -2.9965  2.0034   1
  -7   0   7 228.205  11.155   3
  -7   0   7 215.109   9.115   1
  -7   0   7 230.161   9.077   1
   7   0  -7 214.080  11.317   2
   7   0  -7 212.018  12.559   5
   7   0  -7 224.650   9.030   1
   6   0  -7 0.31573 1.65755   1
  -6   0   7 -2.9435  1.6522   1
  -6   0   7 2.99855 2.11970   1
   6   0  -7 1.15963 3.36781   2
  -5   0   7 2659.97   41.42   3
  -5   0   7 2651.60   40.59   1
   5   0  -7 2766.40   41.22   1
   5   0  -7 2729.35   44.18   2
  -5   0   7 2738.11   41.77   1
  -4   0   7 1.44167 1.36683   3
   4   0  -7 -0.1087  1.8236   1
   3   0  -7 -5.7876  2.7068   2
  -3   0   7 -2.8632  2.0180   1
   3   0  -7 -4.2425  2.1862   1
   2   0  -7 0.54722 1.35818   1
  -2   0   7 -1.3047  1.1824   1
   2   0  -7 -2.2236  2.0886   2
  -2   0   7 1.08262 1.93163   1
   1   0  -7 17.0330  2.7059   2
   1   0  -7 17.1263  2.7469   1
  -1   0   7 25.6266  3.3571   1
   0   0  -7 -0.1209  4.2911   2
   0   0   7 -3.0558  1.9647   1
   0   0  -7 -3.1053  1.7935   1
   1   0   7 131.263   4.730   3
  -1   0  -7 143.534   6.364   2
  -1   0  -7 140.177   7.128   1
   1   0   7 146.530   7.347   1
  -1   0  -7 139.938   4.653   5
  -2   0  -7 -3.6746  1.8245   1
  -2   0  -7 -1.5961  2.2436   1
   2   0   7 -0.9351  2.0203   1
   2   0   7 -0.0384  0.8628   3
  -2   0  -7 -0.7753  8.0845   2
   3   0   7 2.53584 1.87884   1
  -3   0  -7 2.43217 1.72629   3
  -3   0  -7 1.11666 1.49399   1
   4   0   7 3.91095 1.92266   1
  -4   0  -7 2.55758 2.17489   3
  -5   0  -7 12.7616  2.6214   1
  -5   0  -7 9.81779 1.98435   1
  -5   0  -7 10.5075  3.1653   3
  -6   0  -7 -3.7236  3.0715   3
   6   0   7 0.89034 1.63003   1
  -6   0  -7 0.86471 1.88565   1
  -6   0  -7 -0.4044  1.3402   1
  -7   0  -7 1809.32   29.92   1
  -7   0  -7 1730.27   29.08   1
   7   0   7 1734.32   28.87   1
  -7   0  -7 1791.58   39.52   3
  -8   0  -7 -7.1963  4.7914   4
   8   0   7 0.41112 1.29171   1
  -8   0  -7 -0.9026  1.8808   1
   8   0   7 1.01924 1.02748   5
  -8   0  -7 10.2075  4.8045   3
   9   0   7 0.87239 1.04104   5
  -9   0  -7 -1.6549  3.3971   4
  -9   0  -7 7.20442 4.26311   3
 -10   0  -7 2.45643 3.18529   3
 -11   0  -7 476.236  23.379   3
 -11   0  -7 462.970  21.195   4
 -12   0  -7 -1.0508  3.8034   4
 -13   0  -7 -12.069   6.179   3
 -13   0  -7 5.21293 4.53260   4
  15  -1  -7 -5.0985  4.2255   5
  15   1  -7 3.39255 5.35115   5
  15   1  -7 -0.6868  3.9782   2
 -15   1   7 -2.6169  5.1201   3
  14  -1  -7 4.25583 5.03702   5
  14   1  -7 14.1831  5.3167   2
  14   1  -7 0.34308 3.96284   5
  13  -1  -7 38.5011  6.1435   2
  13  -1  -7 47.3190  8.4058   5
  13   1  -7 33.2469  7.8238   5
 -13   1   7 33.6757  6.8407   3
  13   1  -7 38.6477  6.9793   2
 -12   1   7 -2.8133  4.2367   3
  12   1  -7 12.4949  5.5815   5
  12   1  -7 7.56610 4.35505   2
  11  -1  -7 7.69933 3.76360   2
 -11  -1   7 7.90883 3.81951   3
  11   1  -7 11.7107  4.5213   2
 -11   1   7 5.93134 4.57040   3
  11   1  -7 0.31490 3.08083   5
 -10  -1   7 37.3217  6.3457   3
 -10  -1   7 34.3949  3.1784   1
  10  -1  -7 38.2607  6.9897   5
  10  -1  -7 24.1597  4.9348   2
  10   1  -7 34.3008  6.9029   5
 -10   1   7 34.7922  6.0008   3
 -10   1   7 36.9851  3.5130   1
  10   1  -7 31.6917  6.0509   2
   9  -1  -7 218.505  13.819   5
   9  -1  -7 213.843  11.819   2
  -9  -1   7 221.305  12.631   3
  -9  -1   7 208.827   8.382   1
  -9   1   7 210.506   8.742   1
  -9   1   7 203.397  12.730   3
   9   1  -7 209.233  12.608   2
  -8  -1   7 2.34920 2.07564   1
  -8  -1   7 3.76307 3.18164   3
   8  -1  -7 6.64041 3.67311   2
   8   1  -7 0.49782 1.60834   1
   8   1  -7 13.4591  4.6729   2
  -8   1   7 -5.1030  3.7465   3
  -8   1   7 -1.8249  2.1226   1
  -7  -1   7 159.261   9.188   3
   7  -1  -7 167.559   9.522   2
   7  -1  -7 153.095  10.898   5
  -7  -1   7 153.920   7.753   1
   7  -1  -7 146.049   7.393   1
  -7  -1   7 147.182   7.255   1
  -7   1   7 173.818  10.091   3
   7   1  -7 158.252  10.099   2
  -7   1   7 145.705   7.499   1
  -7   1   7 151.615   7.672   1
   7   1  -7 153.206   7.444   1
  -6  -1   7 1.71763 2.43614   3
   6  -1  -7 -4.3308  2.9156   5
   6  -1  -7 4.59188 3.27831   2
  -6  -1   7 1.67544 1.45812   1
  -6  -1   7 1.61114 1.98138   1
  -6   1   7 2.91102 2.36824   3
  -6   1   7 -1.0627  1.3806   1
   6   1  -7 2.79767 1.97690   1
   6   1  -7 -0.9472  2.4944   2
  -6   1   7 2.33349 2.25918   1
  -5  -1   7 92.9422  5.6338   3
   5  -1  -7 106.681   7.962   5
  -5  -1   7 87.3490  5.9268   1
   5  -1  -7 99.3450  6.8297   2
  -5  -1   7 99.7778  5.9524   1
   5  -1  -7 94.8075  6.0222   1
  -5   1   7 103.321   6.199   1
  -5   1   7 104.086   6.358   3
  -5   1   7 92.8566  6.2435   1
   5   1  -7 103.824   6.141   1
   5   1  -7 101.553   7.278   2
  -4  -1   7 808.698  18.923   1
   4  -1  -7 800.575  18.832   1
   4  -1  -7 790.211  21.032   5
   4  -1  -7 784.531  18.864   2
  -4  -1   7 815.391  18.526   1
  -4   1   7 813.028  18.681   1
   4   1  -7 810.825  20.098   2
  -4   1   7 822.436  17.471   3
   4   1  -7 826.999  18.629   1
   4   1  -7 783.445  16.117   3
  -4   1   7 813.668  19.294   1
   3  -1  -7 1566.36   27.90   2
   3  -1  -7 1630.87   30.56   5
  -3  -1   7 1560.01   28.39   1
   3  -1  -7 1601.68   28.73   1
  -3  -1   7 1561.14   28.02   1
  -3   1   7 1593.32   28.68   1
   3   1  -7 1558.16   28.02   1
   3   1  -7 1611.11   29.14   2
  -3   1   7 1529.43   27.94   1
  -3   1   7 1584.60   24.35   3
   2  -1  -7 0.55836 1.37513   1
   2  -1  -7 0.05343 1.77418   5
   2   1  -7 2.42438 1.61785   2
  -2   1   7 2.25906 2.13801   1
  -2   1   7 1.29298 0.75343   3
   1  -1  -7 74.6829  5.4055   1
  -1  -1   7 81.0871  5.5189   1
   1  -1  -7 76.8565  4.8686   5
   1  -1  -7 76.6689  5.0123   2
   1   1  -7 77.2962  4.9690   2
   1   1  -7 87.0450  5.8012   1
  -1   1   7 76.2613  5.4378   1
   0  -1  -7 46.1679  4.4451   1
   0  -1  -7 52.1706  4.2228   2
   0  -1  -7 55.0375  3.6008   5
   0  -1   7 51.6493  4.6325   1
   0   1   7 47.9020  4.5290   1
   0   1  -7 48.5739  3.9053   2
   0   1  -7 47.8370  4.4578   1
  -1  -1  -7 1.84205 1.99954   2
  -1  -1  -7 2.99056 1.05793   5
   1  -1   7 -0.0327  1.1960   2
  -1  -1  -7 -0.8721  2.0991   1
   1   1   7 0.46032 0.87423   3
  -1   1  -7 2.77069 2.05195   1
   1   1   7 1.73765 1.86152   1
  -1   1  -7 2.41160 0.97425   3
  -1   1  -7 1.73688 1.59069   2
   2  -1   7 88.5729  4.5534   3
  -2  -1  -7 79.7473  5.4977   1
  -2  -1  -7 93.5754  5.9497   1
   2  -1   7 98.1812  6.1427   1
  -2  -1  -7 94.7415  5.5754   2
   2  -1   7 88.6066  4.6764   2
  -2  -1  -7 87.3481  2.7743   5
  -2   1  -7 89.4693  4.8353   3
  -2   1  -7 87.4958  5.7190   1
   2   1   7 90.8141  4.9385   3
  -2   1  -7 87.9654  4.7798   2
   2   1   7 91.5735  5.9007   1
  -2   1  -7 91.7380  5.8077   1
   3  -1   7 798.498  18.477   1
  -3  -1  -7 776.476  18.127   1
   3  -1   7 774.768  15.236   2
  -3  -1  -7 789.963  18.399   1
  -3  -1  -7 811.927  18.416   2
  -3   1  -7 776.074  18.267   1
  -3   1  -7 790.088  18.530   1
   3   1   7 791.710  18.330   1
  -3   1  -7 797.020  18.161   3
  -3   1  -7 789.592  16.012   2
  -4  -1  -7 75.9138  5.4652   1
   4  -1   7 68.7983  5.1215   1
   4  -1   7 76.2771  4.1966   2
  -4  -1  -7 74.3273  5.2086   1
  -4   1  -7 65.9300  4.9560   1
  -4   1  -7 72.1916  5.2387   1
   4   1   7 77.1178  5.2165   1
  -4   1  -7 75.5560  5.9046   3
   5  -1   7 2.08352 1.75862   1
  -5  -1  -7 -1.0024  1.1357   1
  -5  -1  -7 -2.5108  2.6032   3
  -5   1  -7 -4.4371  2.6681   3
   5   1   7 3.27892 1.83278   1
  -5   1  -7 0.08151 1.33365   1
  -5   1  -7 -1.3697  1.9240   1
  -6  -1  -7 245.713   9.454   1
   6  -1   7 234.682   9.251   1
  -6  -1  -7 234.232   9.133   1
  -6  -1  -7 239.582  12.118   3
  -6   1  -7 256.879  12.774   3
  -6   1  -7 241.852   9.405   1
  -6   1  -7 233.153   9.452   1
   6   1   7 256.503   9.408   1
   7  -1   7 48.0229  4.2382   1
   7  -1   7 49.3858  2.5800   5
  -7  -1  -7 47.2848  4.0289   1
  -7  -1  -7 49.5878  6.1982   3
  -7  -1  -7 44.9650  4.1813   1
  -7   1  -7 44.2681  4.2098   1
  -7   1  -7 47.9143  6.3247   3
   7   1   7 51.0214  4.1458   1
  -7   1  -7 52.9218  4.3838   1
  -8  -1  -7 127.107   6.437   1
   8  -1   7 132.447   5.032   5
  -8  -1  -7 125.577  10.341   3
  -8  -1  -7 133.749  10.270   4
   8  -1   7 128.339   6.424   1
  -8   1  -7 125.169  10.366   3
  -8   1  -7 126.949   9.403   4
   8   1   7 130.838   6.257   1
   8   1   7 128.844   5.212   5
  -8   1  -7 133.019   6.815   1
  -9  -1  -7 3.43208 1.54727   1
  -9  -1  -7 5.35199 4.19342   3
  -9   1  -7 -1.9177  3.4769   4
  -9   1  -7 1.03030 2.88916   3
   9   1   7 3.70860 1.51808   5
 -10  -1  -7 39.1677  6.8031   3
 -10  -1  -7 41.6798  6.5691   4
 -10   1  -7 44.0878  6.6644   4
 -10   1  -7 43.5826  7.2725   3
 -11   1  -7 3.50611 4.61873   3
 -12   1  -7 13.6596  6.0296   3
 -13   1  -7 119.288  13.564   3
 -14   1  -7 45.5415  9.4101   3
  14   2  -7 10.6792  5.7856   5
 -14   2   7 7.41708 5.34150   3
  14   2  -7 0.56178 4.33227   2
  13  -2  -7 19.4565  6.4656   5
  13  -2  -7 13.8947  4.2954   2
 -13   2   7 11.1824  5.5363   3
  13   2  -7 12.6912  6.0382   5
  12  -2  -7 41.7943  5.8400   2
  12  -2  -7 44.4788  8.0545   5
  12   2  -7 29.4498  6.2889   2
 -12   2   7 38.9247  7.1712   3
  12   2  -7 43.4942  8.0481   5
  11  -2  -7 17.4161  4.3135   2
 -11   2   7 15.9695  2.5226   1
  11   2  -7 13.6695  5.0973   2
 -10  -2   7 22.0906  2.7607   1
  10  -2  -7 24.3729  4.7158   2
 -10   2   7 21.4184  3.1057   1
 -10   2   7 28.7508  6.0202   3
  10   2  -7 26.2509  5.9602   2
   9  -2  -7 81.3341  7.1056   2
  -9  -2   7 78.9295  5.3930   1
   9  -2  -7 93.0261  9.4771   5
  -9   2   7 77.3511  5.8146   1
   9   2  -7 80.6014  8.5290   2
  -9   2   7 80.7520  8.1127   3
   8  -2  -7 388.134  14.842   2
  -8  -2   7 354.901  11.828   1
   8  -2  -7 348.202  16.946   5
   8  -2  -7 354.208  12.287   1
   8   2  -7 346.818  15.959   2
   8   2  -7 367.433  11.671   1
  -8   2   7 352.414  16.015   3
  -8   2   7 373.612  12.774   1
   7  -2  -7 409.440  14.676   2
   7  -2  -7 400.940  17.473   5
  -7  -2   7 391.434  12.791   1
   7  -2  -7 411.252  13.379   1
  -7  -2   7 382.600  12.246   1
  -7   2   7 405.327  15.918   3
   7   2  -7 414.106  12.765   1
  -7   2   7 403.922  13.540   1
  -7   2   7 391.415  12.872   1
   7   2  -7 411.684  16.628   2
  -6  -2   7 1.54489 2.17217   1
   6  -2  -7 6.35340 3.00740   2
   6  -2  -7 0.70769 3.30064   5
  -6   2   7 3.31417 2.44904   1
  -6   2   7 0.72755 2.59260   3
  -6   2   7 3.21336 1.92759   1
   6   2  -7 6.86066 1.94253   1
   6   2  -7 10.1195  4.2030   2
   5  -2  -7 18.6143  4.3643   5
  -5  -2   7 14.5507  2.6952   1
  -5  -2   7 15.8665  3.0475   1
   5  -2  -7 17.8876  2.9675   1
   5  -2  -7 22.7058  3.7033   2
   5   2  -7 19.1096  3.7630   2
  -5   2   7 15.9193  2.8619   1
  -5   2   7 18.0534  3.3579   1
  -5   2   7 14.8377  3.0407   3
   5   2  -7 16.9001  2.9970   1
   4  -2  -7 84.9560  6.0161   1
   4  -2  -7 77.4598  6.6369   5
  -4  -2   7 82.3283  5.7716   1
   4  -2  -7 77.2327  5.7437   2
  -4  -2   7 88.4460  5.8550   1
   4   2  -7 82.1487  5.7783   1
   4   2  -7 76.2997  6.1785   2
  -4   2   7 85.9484  6.3776   1
   4   2  -7 81.0432  4.7500   3
  -4   2   7 82.1630  5.3557   3
   3  -2  -7 -1.1122  2.2113   2
  -3  -2   7 8.60804 2.79676   1
   3  -2  -7 7.54971 3.07509   5
   3   2  -7 5.42061 3.31244   2
   3   2  -7 -2.2523  2.1969   1
   3   2  -7 2.15964 1.08517   3
   2  -2  -7 647.873  15.821   2
   2  -2  -7 633.877  16.980   1
   2  -2  -7 650.926  16.626   5
  -2  -2   7 668.562  17.005   1
  -2   2   7 634.986  17.111   1
   2   2  -7 635.227  16.142   2
   2   2  -7 654.225  16.757   1
   1  -2  -7 172.701   7.420   5
  -1  -2   7 172.017   8.271   1
   1  -2  -7 167.919   8.390   1
   1  -2  -7 169.037   7.628   2
   1   2  -7 196.265   7.883   2
  -1   2   7 172.347   8.433   1
   1   2  -7 171.359   8.332   1
   0  -2  -7 332.096   9.459   5
   0  -2  -7 347.740  12.099   1
   0  -2  -7 333.643  10.720   2
   0  -2   7 340.612  11.915   1
   0   2  -7 330.035   9.894   2
   0   2   7 339.600  11.985   1
   0   2   7 353.215  10.091   5
   0   2  -7 338.148  11.792   1
   1  -2   7 30.9106  3.9662   1
   1  -2   7 26.0575  2.7185   2
  -1  -2  -7 23.5923  3.4090   2
  -1  -2  -7 27.7165  2.4377   5
  -1   2  -7 29.3149  2.6202   3
  -1   2  -7 33.9782  3.1211   2
  -1   2  -7 27.3204  3.8091   1
   1   2   7 29.3415  3.9654   1
   1   2   7 29.9847  2.6321   5
   2  -2   7 761.999  18.553   1
   2  -2   7 739.143  14.594   2
  -2  -2  -7 788.837  18.771   1
  -2  -2  -7 770.788  12.839   5
  -2  -2  -7 763.817  18.149   2
  -2   2  -7 765.938  12.862   5
   2   2   7 749.852  18.372   1
   2   2   7 772.646  13.523   5
  -2   2  -7 753.695  18.514   1
  -2   2  -7 748.011  14.704   2
  -2   2  -7 744.169  16.324   3
   2   2   7 732.420  16.317   3
   3  -2   7 411.557   9.922   2
   3  -2   7 407.108  13.029   1
  -3  -2  -7 396.589  12.810   1
  -3  -2  -7 398.505  13.096   1
  -3   2  -7 406.599   9.992   2
  -3   2  -7 419.674  13.029   3
   3   2   7 391.866  12.663   1
  -3   2  -7 402.576  13.160   1
   3   2   7 413.344   8.258   5
  -3   2  -7 409.307   8.319   5
   4  -2   7 277.587   7.839   2
   4  -2   7 261.692  10.355   1
  -4  -2  -7 283.138  10.771   1
  -4  -2  -7 266.199  10.260   1
   4   2   7 267.691   5.972   5
  -4   2  -7 273.460   8.217   2
   4   2   7 279.066  10.406   1
  -4   2  -7 265.172   6.595   5
  -4   2  -7 268.610  10.429   1
  -4   2  -7 288.338  11.741   3
  -4   2  -7 262.858  10.441   1
  -5  -2  -7 432.797  13.292   1
  -5  -2  -7 430.028  13.104   1
   5  -2   7 425.590  13.271   1
  -5   2  -7 438.073  13.767   1
  -5   2  -7 425.933  15.816   3
  -5   2  -7 411.284  13.150   1
   5   2   7 402.077   7.849   5
   5   2   7 425.310  12.954   1
   6  -2   7 134.744   5.476   2
   6  -2   7 134.947   7.287   1
   6  -2   7 135.199   4.557   5
  -6  -2  -7 135.703   7.131   1
  -6  -2  -7 139.156   7.415   1
  -6   2  -7 142.314   9.851   3
   6   2   7 141.645   7.222   1
  -6   2  -7 138.161   7.589   1
  -6   2  -7 137.230   7.529   1
   6   2   7 127.488   4.219   5
  -7  -2  -7 384.480  12.165   1
   7  -2   7 358.139   8.559   5
   7  -2   7 363.124  12.064   1
  -7   2  -7 361.098  12.185   1
  -7   2  -7 370.464  14.321   4
  -7   2  -7 360.449  16.757   3
   7   2   7 368.565  11.579   1
   8  -2   7 798.948  15.201   5
  -8  -2  -7 813.841  17.948   1
   8  -2   7 806.478  18.526   1
  -8   2  -7 814.823  27.151   3
   8   2   7 777.656  16.065   5
  -8   2  -7 806.189  22.810   4
  -8   2  -7 775.810  18.498   1
  -9  -2  -7 57.0374  4.1132   1
   9  -2   7 52.3551  3.7945   5
  -9   2  -7 54.7642  4.5243   1
  -9   2  -7 57.7708  6.6716   4
  -9   2  -7 64.6727  8.1526   3
   9   2   7 65.0277  4.5514   5
 -10   2  -7 46.1683  6.4045   4
 -10   2  -7 48.4001  8.2903   3
 -10   2  -7 49.5938  3.9342   1
 -11   2  -7 3.94204 3.39012   4
 -11   2  -7 -0.6956  4.2336   3
 -12   2  -7 5.17736 3.57235   4
 -12   2  -7 13.1022  5.8241   3
 -14   2  -7 21.3734  7.6595   3
  14  -3  -7 180.095  15.441   5
 -14   3   7 177.948  16.197   3
  14   3  -7 172.331  14.219   2
  14   3  -7 197.942  16.849   5
  13  -3  -7 -0.8664  3.6786   5
  13   3  -7 0.74508 4.24568   5
  13   3  -7 2.91694 3.91160   2
 -13   3   7 7.25137 4.73422   3
  12  -3  -7 -0.3433  2.5451   2
  12  -3  -7 6.29061 4.80316   5
  12   3  -7 0.39244 3.89435   2
 -12   3   7 3.54237 4.43357   3
  11  -3  -7 18.9985  6.0905   5
  11  -3  -7 32.2487  5.0850   2
 -11   3   7 30.1356  3.7147   1
 -11   3   7 29.4603  6.6498   3
  11   3  -7 27.6684  6.6091   2
  10  -3  -7 10.8184  3.5026   2
 -10  -3   7 5.37864 1.98006   1
  10  -3  -7 5.82257 3.63569   5
 -10   3   7 2.53047 3.97429   3
  10   3  -7 4.55969 3.79678   2
 -10   3   7 5.15645 2.19394   1
   9  -3  -7 9.48743 4.89582   5
   9  -3  -7 0.14518 2.13670   2
   9   3  -7 4.52668 4.23496   2
  -9   3   7 3.47287 2.39290   1
  -8  -3   7 1.66719 2.04957   1
   8  -3  -7 -0.9650  2.8116   2
   8  -3  -7 0.12590 1.70351   1
   8   3  -7 -0.5827  1.6421   1
   8   3  -7 0.35500 2.84143   2
  -8   3   7 -3.8306  3.7402   3
  -8   3   7 -0.7227  2.2507   1
   7  -3  -7 33.2239  6.0237   5
   7  -3  -7 31.0565  4.2233   1
  -7  -3   7 28.2004  3.9217   1
   7  -3  -7 29.9687  4.6361   2
  -7   3   7 32.6374  4.5630   1
   7   3  -7 30.9599  3.8889   1
   7   3  -7 28.2291  5.2063   2
  -7   3   7 25.1132  4.8992   3
   6  -3  -7 -4.6412  3.9885   5
   6  -3  -7 -2.4726  2.6456   2
   6  -3  -7 1.80614 1.93670   1
  -6  -3   7 4.43901 2.45076   1
  -6  -3   7 1.94641 1.45703   1
  -6   3   7 9.24901 3.16773   1
  -6   3   7 1.35380 2.77132   3
   6   3  -7 -2.1909  2.1596   1
   5  -3  -7 127.709   7.242   2
   5  -3  -7 121.281   7.550   1
  -5  -3   7 121.031   7.415   1
   5  -3  -7 139.344   9.445   5
  -5  -3   7 134.589   7.665   1
   5   3  -7 137.294   9.279   2
  -5   3   7 141.885   8.205   3
   5   3  -7 139.267   7.630   1
  -5   3   7 129.700   8.145   1
   4  -3  -7 11.1718  3.1628   1
   4  -3  -7 17.3808  3.4004   2
   4  -3  -7 10.1126  3.3924   5
  -4  -3   7 4.45884 2.36899   1
   4   3  -7 10.0183  2.7234   1
  -4   3   7 9.37832 3.19388   1
   4   3  -7 9.04317 3.41653   2
  -4   3   7 10.9670  2.6790   3
   3  -3  -7 33.1710  4.1090   1
   3  -3  -7 42.5310  4.3800   2
   3  -3  -7 38.1622  4.4016   5
  -3  -3   7 34.4838  4.3897   1
   3   3  -7 39.4520  4.8604   2
  -3   3   7 25.0167  4.1271   1
   2  -3  -7 142.943   8.201   1
   2  -3  -7 137.205   7.226   2
   2  -3  -7 129.439   7.430   5
  -2  -3   7 132.924   7.724   1
   2   3  -7 150.096   8.195   1
   2   3  -7 142.398   7.725   2
  -2   3   7 138.490   8.228   1
   1  -3  -7 90.5178  6.0410   2
   1  -3  -7 89.1407  6.5835   1
  -1  -3   7 103.912   6.995   1
   1  -3  -7 86.0708  5.6837   5
   1   3  -7 116.663   6.400   2
  -1   3   7 99.5526  6.9460   1
   1   3  -7 103.645   6.953   1
   0  -3  -7 1210.73   21.93   5
   0  -3  -7 1150.31   25.13   1
   0  -3  -7 1193.33   23.84   2
   0  -3   7 1240.83   25.84   1
   0   3   7 1143.99   24.99   1
   0   3  -7 1214.42   25.46   1
   0   3  -7 1189.05   21.56   2
  -1  -3  -7 -4.0423  2.5395   1
   1  -3   7 6.34724 2.78889   1
   1  -3   7 -0.7631  1.2481   2
   1   3   7 1.82690 1.32073   5
   1   3   7 4.71902 2.61275   1
   2  -3   7 1422.74   22.79   2
   2  -3   7 1403.03   28.25   1
  -2  -3  -7 1468.84   28.45   2
  -2  -3  -7 1419.69   22.18   5
  -2  -3  -7 1446.35   28.55   1
  -2   3  -7 1449.62   26.10   3
   2   3   7 1406.90   27.98   1
   2   3   7 1423.00   22.85   5
  -2   3  -7 1385.95   22.01   2
  -2   3  -7 1374.47   22.00   5
  -2   3  -7 1381.56   28.14   1
   3  -3   7 173.042   5.980   2
  -3  -3  -7 167.383   8.890   1
   3  -3   7 175.358   8.994   1
  -3   3  -7 176.645   8.957   1
  -3   3  -7 176.822   8.708   3
  -3   3  -7 174.164   5.860   2
  -3   3  -7 174.319   6.148   5
   3   3   7 164.411   8.547   1
   3   3   7 164.970   5.936   5
   4  -3   7 27.7507  4.0117   1
   4  -3   7 23.9503  2.1237   2
  -4  -3  -7 24.6688  3.6436   1
  -4  -3  -7 26.9873  3.7729   1
   4   3   7 27.3906  2.3556   5
  -4   3  -7 28.6348  4.3138   3
  -4   3  -7 22.4157  2.3439   5
  -4   3  -7 22.4301  3.5112   1
  -4   3  -7 22.0325  2.1294   2
   4   3   7 25.2916  3.7244   1
   5  -3   7 90.2427  3.9042   2
  -5  -3  -7 98.6165  6.5129   1
  -5  -3  -7 81.6922  6.2967   1
   5  -3   7 95.1596  6.5207   1
  -5   3  -7 104.119   7.162   1
  -5   3  -7 104.687   8.126   3
  -5   3  -7 89.4233  4.7472   5
   5   3   7 91.9830  4.1532   5
   5   3   7 87.7331  6.2012   1
   6  -3   7 65.9234  5.6118   1
  -6  -3  -7 53.1629  4.8726   1
   6  -3   7 58.6065  3.1385   2
   6  -3   7 58.5537  3.5840   5
  -6  -3  -7 55.3519  5.1203   1
  -6   3  -7 56.4259  5.3420   1
  -6   3  -7 59.0903  5.2893   1
   6   3   7 53.7188  3.2850   5
  -6   3  -7 49.7309  3.8076   5
  -6   3  -7 65.2744  6.8536   3
   6   3   7 51.9775  4.7487   1
   7  -3   7 38.4914  2.6271   2
   7  -3   7 34.3111  2.9903   5
   7  -3   7 30.0713  3.8444   1
  -7  -3  -7 31.4695  4.0395   1
   7   3   7 37.1554  2.8956   5
   7   3   7 43.8534  4.2435   1
  -7   3  -7 31.9898  4.3109   4
  -7   3  -7 35.9176  5.7556   3
  -7   3  -7 36.6877  4.5221   1
  -8  -3  -7 47.5245  7.2894   4
   8  -3   7 37.6790  3.2868   5
   8  -3   7 29.7856  3.7732   1
  -8  -3  -7 29.0314  3.6234   1
  -8   3  -7 22.5268  5.6806   3
  -8   3  -7 29.5000  3.8726   1
  -8   3  -7 29.2958  4.2019   4
  -9  -3  -7 -4.0113  4.1817   4
   9  -3   7 1.76362 1.47665   5
  -9  -3  -7 0.46964 1.43352   1
  -9   3  -7 -0.3752  1.7378   1
  -9   3  -7 -2.5626  2.5478   4
  -9   3  -7 0.20612 3.70513   3
 -10   3  -7 -3.9594  1.8286   1
 -10   3  -7 0.45209 4.16537   3
 -10   3  -7 -5.8488  3.1518   4
 -11   3  -7 52.0108  9.1296   3
 -11   3  -7 55.6709  6.7529   4
 -12   3  -7 76.8464 11.0568   3
 -13   3  -7 3.87208 4.84905   3
 -14   3  -7 17.9174  7.4303   3
  14  -4  -7 -2.2233  4.9955   5
  14   4  -7 6.03980 5.17616   2
  13  -4  -7 1.10396 4.78688   5
 -13   4   7 13.4717  5.8065   3
  12  -4  -7 0.11665 3.23967   5
 -12   4   7 -0.0495  3.1492   3
  12   4  -7 11.8105  5.0340   2
  11  -4  -7 16.9052  3.9257   2
  11  -4  -7 15.3461  5.6351   5
 -11   4   7 16.8147  3.3410   1
 -11   4   7 13.6924  5.3513   3
  10  -4  -7 52.0786  7.7474   5
  10  -4  -7 47.3495  5.5847   2
 -10  -4   7 49.0544  4.6769   1
 -10   4   7 50.2409  7.4197   3
 -10   4   7 42.2061  5.0269   1
  10   4  -7 58.3589  8.5367   2
  -9  -4   7 88.8304  6.4763   1
   9  -4  -7 98.7780  7.4096   2
   9  -4  -7 97.8064  9.5465   5
  -9   4   7 93.6209  9.8088   3
   9   4  -7 103.145   9.712   2
  -9   4   7 98.5448  7.3930   1
   8  -4  -7 460.359  15.970   1
  -8  -4   7 448.700  14.984   1
   8  -4  -7 447.837  15.307   2
   8  -4  -7 454.600  19.513   5
   8   4  -7 473.155  19.939   2
   8   4  -7 485.852  15.061   1
  -8   4   7 473.981  16.530   1
  -8   4   7 444.977  19.289   3
   7  -4  -7 15.0769  3.4148   2
   7  -4  -7 23.1003  4.1200   1
  -7  -4   7 17.9497  3.7274   1
   7   4  -7 23.5822  3.6904   1
  -7   4   7 15.4069  3.9570   1
  -7   4   7 14.2026  4.6534   3
   7   4  -7 21.9661  5.6242   2
   6  -4  -7 134.893  10.106   5
  -6  -4   7 125.733   8.039   1
   6  -4  -7 122.594   8.222   1
   6  -4  -7 127.150   7.553   2
  -6   4   7 123.991   8.762   3
   6   4  -7 136.117   7.938   1
   6   4  -7 124.380   9.659   2
  -6   4   7 128.205   8.654   1
   5  -4  -7 82.6775  6.9007   1
   5  -4  -7 74.8039  7.4212   5
   5  -4  -7 75.8980  5.6784   2
  -5  -4   7 87.4511  6.8467   1
   5   4  -7 84.0464  6.4943   1
   5   4  -7 83.1954  7.8074   2
  -5   4   7 70.1055  6.4979   3
  -5   4   7 73.0387  6.7883   1
   4  -4  -7 10.7624  3.4675   1
   4  -4  -7 8.35684 2.83516   2
  -4  -4   7 2.05167 2.51592   1
  -4   4   7 7.04874 2.74322   1
   4   4  -7 12.6719  3.3616   2
   4   4  -7 14.1915  3.4323   1
  -3  -4   7 29.1348  4.4941   1
   3  -4  -7 28.4858  3.7265   2
   3  -4  -7 25.0908  4.4214   5
   3  -4  -7 24.6943  4.3991   1
  -3   4   7 24.2778  3.9528   1
   3   4  -7 27.2971  4.0666   2
   3   4  -7 33.7194  4.4829   1
   2  -4  -7 10.8877  3.0387   5
   2  -4  -7 11.8116  3.2919   1
  -2  -4   7 7.02006 3.19655   1
   2  -4  -7 7.59784 2.67673   2
   2   4  -7 2.42838 2.74334   1
   2   4  -7 7.65867 2.97940   2
   1  -4  -7 606.111  18.404   1
  -1  -4   7 620.917  18.227   1
   1  -4  -7 615.677  16.305   5
   1  -4  -7 570.495  16.105   2
   1   4  -7 617.942  18.122   1
   1   4  -7 605.125  15.978   2
  -1   4   7 593.629  18.173   1
   0  -4  -7 131.646   6.742   5
   0  -4   7 134.653   8.432   1
   0  -4  -7 138.275   7.950   2
   0  -4  -7 145.820   8.872   1
   0   4  -7 135.606   6.694   2
   0   4   7 132.881   8.508   1
   0   4  -7 131.577   8.424   1
  -1  -4  -7 618.673  14.653   5
  -1  -4  -7 602.439  18.278   1
  -1  -4  -7 607.251  17.461   2
   1  -4   7 629.387  14.655   2
   1  -4   7 618.245  18.391   1
  -1   4  -7 601.252  13.601   2
  -1   4  -7 611.719  18.339   1
   1   4   7 589.514  17.891   1
  -2  -4  -7 20.5774  2.7267   5
   2  -4   7 20.2994  2.3773   2
  -2  -4  -7 17.4100  3.7983   1
   2  -4   7 18.7360  3.8762   1
   2   4   7 16.1959  3.2571   1
  -2   4  -7 22.2442  2.4009   2
  -2   4  -7 20.3777  4.0655   1
   3  -4   7 13.5014  1.7780   2
   3  -4   7 12.0842  3.0204   1
   3   4   7 18.1531  3.6707   1
  -3   4  -7 13.0379  1.6416   2
  -3   4  -7 15.9872  3.4447   3
  -3   4  -7 10.0519  3.5448   1
  -4  -4  -7 3.88337 3.03933   1
   4  -4   7 8.60541 2.69268   1
  -4   4  -7 2.55737 2.83605   1
  -4   4  -7 3.07123 0.88124   2
   4   4   7 3.89575 2.12928   1
   5  -4   7 62.0194  5.9101   1
  -5  -4  -7 66.1267  6.1538   1
   5   4   7 69.4241  5.9695   1
  -5   4  -7 67.0053  6.4171   1
  -5   4  -7 69.5158  7.0774   3
  -6  -4  -7 19.0127  3.8358   1
   6  -4   7 9.93157 2.12787   5
   6  -4   7 20.0145  3.8174   1
  -6   4  -7 13.0212  3.2395   1
  -6   4  -7 11.1342  2.5014   4
   6   4   7 17.5976  3.4807   1
   7  -4   7 18.8565  3.5629   1
   7  -4   7 23.3843  2.9110   5
  -7  -4  -7 32.1495  4.2157   1
  -7   4  -7 27.8103  3.6133   4
  -7   4  -7 28.2595  4.3720   1
  -7   4  -7 17.2277  4.4613   3
   7   4   7 26.2506  3.6610   1
   8  -4   7 44.7655  4.8171   1
   8  -4   7 45.2449  3.9883   5
  -8  -4  -7 40.6066  4.4573   1
  -8   4  -7 48.6964  7.0279   3
  -8   4  -7 43.4173  5.0248   1
  -8   4  -7 43.8164  4.7532   4
  -9  -4  -7 173.405   8.430   1
   9  -4   7 181.524   8.108   5
  -9   4  -7 176.157   9.678   4
  -9   4  -7 189.433  14.636   3
  -9   4  -7 171.060   9.208   1
 -10  -4  -7 103.252   5.835   1
 -10   4  -7 120.871  12.278   3
 -10   4  -7 90.0692  6.5643   1
 -11   4  -7 143.758  13.839   3
 -12   4  -7 -0.1369  5.3984   3
 -13   4  -7 57.7963 10.6152   3
  14  -5  -7 8.25788 5.47356   5
  14   5  -7 -12.455   6.442   2
  13  -5  -7 12.2237  5.1086   5
  13   5  -7 7.76695 5.33071   2
 -12   5   7 13.6760  5.2869   3
  11  -5  -7 107.712  11.529   5
  11   5  -7 122.940  11.690   2
 -11   5   7 113.970   8.231   1
 -11   5   7 103.225  11.400   3
 -10  -5   7 2.77941 2.11008   1
  10  -5  -7 6.51629 2.81449   2
  10  -5  -7 -0.4175  3.4263   5
  10   5  -7 5.06839 5.06060   2
 -10   5   7 1.86774 4.52618   3
 -10   5   7 0.21655 2.29557   1
   9  -5  -7 11.0695  4.3794   5
  -9  -5   7 4.22342 2.49613   1
   9  -5  -7 3.49676 2.32378   2
  -9   5   7 1.00370 3.78248   3
   9   5  -7 5.88069 4.97851   2
  -9   5   7 4.14513 2.81972   1
   8  -5  -7 55.9094  6.0455   1
   8  -5  -7 59.6072  5.4390   2
  -8  -5   7 54.9926  5.7070   1
   8  -5  -7 64.2135  8.1810   5
   8   5  -7 54.2056  7.7383   2
  -8   5   7 66.8929  8.0899   3
  -8   5   7 71.5800  7.0539   1
   8   5  -7 52.7756  5.3950   1
  -7  -5   7 11.0806  3.6010   1
   7  -5  -7 13.1895  5.2901   5
   7  -5  -7 6.11600 2.90399   2
  -7   5   7 11.7769  4.3942   3
   7   5  -7 14.8407  3.2697   1
   7   5  -7 14.0773  4.4178   2
   6  -5  -7 432.189  14.346   2
   6  -5  -7 447.326  18.576   5
   6  -5  -7 463.251  16.985   1
  -6  -5   7 422.294  15.806   1
   6   5  -7 456.402  15.892   1
  -6   5   7 443.645  17.773   3
  -6   5   7 422.614  16.639   1
   6   5  -7 454.779  18.908   2
   5  -5  -7 14.0642  3.3057   2
   5  -5  -7 14.8186  4.0683   1
  -5  -5   7 20.9745  4.5091   1
   5  -5  -7 17.9065  5.0271   5
   5   5  -7 20.0247  4.4589   2
  -5   5   7 12.2622  3.5278   1
   5   5  -7 18.5279  4.0043   1
   4  -5  -7 164.714  10.259   1
   4  -5  -7 172.824   8.670   2
  -4  -5   7 163.192   9.658   1
   4  -5  -7 167.826  10.227   5
   4   5  -7 180.813  10.925   2
   4   5  -7 165.361   9.707   1
  -4   5   7 162.891  10.393   1
   3  -5  -7 62.9817  5.5106   2
  -3  -5   7 56.5507  6.3857   1
   3  -5  -7 66.5183  6.4385   5
   3  -5  -7 71.3878  6.9457   1
   3   5  -7 66.4191  6.1808   1
   3   5  -7 56.0834  5.9590   2
  -3   5   7 61.5575  6.6468   1
   2  -5  -7 19.9487  4.4251   1
   2  -5  -7 20.2157  3.8086   2
   2  -5  -7 27.1025  4.4612   5
  -2  -5   7 11.7195  3.8592   1
  -2   5   7 18.7427  3.8565   1
   2   5  -7 21.5827  3.9422   1
  -1  -5   7 94.8899  7.4560   1
   1  -5  -7 107.342   7.253   2
   1  -5  -7 100.081   6.910   5
   1  -5  -7 97.5018  7.9846   1
   1   5  -7 88.8002  6.4110   2
   1   5  -7 90.3312  7.4882   1
  -1   5   7 97.6677  8.0079   1
   0  -5  -7 241.616   9.891   5
   0  -5   7 236.755  11.744   1
   0  -5  -7 244.472  11.003   2
   0  -5  -7 241.342  12.145   1
   0   5  -7 233.233   9.253   2
   0   5  -7 233.780  11.572   1
   0   5   7 245.528  12.169   1
  -1  -5  -7 40.5188  5.5837   1
   1  -5   7 53.2053  6.0113   1
  -1  -5  -7 43.6331  4.3897   5
   1   5   7 50.0327  5.9431   1
  -1   5  -7 49.1653  4.0248   2
  -1   5  -7 49.3299  5.5280   1
  -2  -5  -7 2.44849 2.11327   5
  -2   5  -7 6.30567 1.69362   2
   2   5   7 -0.1993  2.7332   1
   3  -5   7 109.813   8.250   1
  -3  -5  -7 118.795   8.543   1
  -3   5  -7 112.712   8.700   1
  -3   5  -7 115.277   4.420   2
  -3   5  -7 115.309   8.029   3
   3   5   7 119.407   8.166   1
   4  -5   7 159.688   9.907   1
  -4  -5  -7 136.724   9.187   1
  -4   5  -7 151.489   9.896   3
   4   5   7 139.151   8.777   1
  -4   5  -7 152.370   9.863   1
  -5  -5  -7 204.685  10.919   1
   5  -5   7 187.018  10.567   1
  -5   5  -7 211.045  12.433   3
  -5   5  -7 187.993  10.950   1
  -5   5  -7 177.070   6.548   4
   5   5   7 179.453   9.954   1
   6  -5   7 184.437   8.158   5
   6  -5   7 182.728  10.554   1
  -6  -5  -7 209.342  10.742   1
  -6   5  -7 186.999  10.697   1
  -6   5  -7 188.044   7.185   4
   6   5   7 199.236  10.278   1
  -6   5  -7 164.873  11.509   3
  -7  -5  -7 -2.7399  2.6906   1
   7  -5   7 5.79892 2.96043   1
   7  -5   7 2.45366 1.87642   5
   7   5   7 4.51979 2.38861   1
  -7   5  -7 -6.5194  3.4569   1
  -7   5  -7 -2.5945  3.9300   3
  -7   5  -7 -0.0083  1.1378   4
  -8  -5  -7 82.1288  6.6195   1
   8  -5   7 77.6193  5.5866   5
  -8   5  -7 84.6672  7.3731   1
  -8   5  -7 77.4031  9.5500   3
   9  -5   7 4.94019 2.16690   5
  -9  -5  -7 -4.7324  2.3847   1
  -9   5  -7 0.36881 2.33884   1
  -9   5  -7 0.77334 4.23954   3
 -10  -5  -7 39.4654  4.2311   1
 -10   5  -7 44.3757  5.1545   1
 -10   5  -7 33.3981  7.9031   3
 -11   5  -7 37.2201  8.2268   3
 -12   5  -7 -4.4301  4.5922   3
 -13  -5  -7 14.5310  6.5176   4
 -13   5  -7 24.9994  8.1332   3
  13  -6  -7 1.23007 4.72050   5
  13   6  -7 12.6815  5.5996   2
 -13   6   7 -1.8380  5.1784   3
  12  -6  -7 4.94796 5.55909   5
  12   6  -7 7.64703 4.77702   2
 -12   6   7 -0.2019  4.9040   3
  11  -6  -7 33.3237  6.8124   5
 -11   6   7 36.0396  5.5107   1
 -11   6   7 26.8846  6.6257   3
  10  -6  -7 28.0456  6.0566   5
  10   6  -7 46.0687  8.1646   2
 -10   6   7 26.9865  6.9444   3
 -10   6   7 25.2497  4.7785   1
   9  -6  -7 50.2152  5.2544   2
  -9  -6   7 48.0463  5.6295   1
   9  -6  -7 48.2205  7.4707   5
  -9   6   7 58.3518  6.6592   1
   9   6  -7 46.5330  7.7669   2
   8  -6  -7 18.0265  5.7818   5
   8  -6  -7 25.5754  4.7435   1
   8  -6  -7 24.4523  3.8683   2
  -8  -6   7 27.1314  4.8558   1
  -8   6   7 17.5132  5.6766   3
   8   6  -7 12.5392  5.3770   2
  -8   6   7 29.5559  5.3307   1
   7  -6  -7 85.7060  8.7513   5
  -7  -6   7 83.7145  7.4584   1
   7  -6  -7 86.1232  6.6182   2
   7  -6  -7 82.9348  7.9075   1
   7   6  -7 80.0682  8.7022   2
  -7   6   7 66.6025  7.1996   1
  -7   6   7 98.0778  9.7000   3
   7   6  -7 87.2142  7.3586   1
   6  -6  -7 29.3467  5.0207   1
  -6  -6   7 39.3025  5.7240   1
   6  -6  -7 31.9491  4.5681   2
   6  -6  -7 24.2073  5.8895   5
  -6   6   7 31.7922  5.8689   1
   6   6  -7 47.3547  7.5780   2
  -6   6   7 31.8485  5.8585   3
   6   6  -7 40.8488  5.5708   1
   5  -6  -7 51.1093  5.2517   2
   5  -6  -7 53.0501  6.4489   5
   5  -6  -7 53.8581  6.7367   1
  -5  -6   7 49.1086  6.1807   1
   5   6  -7 59.5617  6.4915   1
  -5   6   7 49.7303  6.2302   1
   5   6  -7 50.5819  6.6917   2
   4  -6  -7 9.11887 3.25237   2
   4  -6  -7 16.7891  4.7439   5
   4  -6  -7 4.52317 3.75200   1
  -4   6   7 9.49975 3.71077   1
   4   6  -7 16.5520  3.9539   1
   4   6  -7 12.2015  4.6796   2
   3  -6  -7 172.705   9.380   2
   3  -6  -7 164.814  10.238   5
  -3  -6   7 180.279  10.954   1
   3  -6  -7 185.224  11.447   1
   3   6  -7 188.094  11.095   2
  -3   6   7 180.321  11.181   1
   3   6  -7 181.420  10.730   1
   2  -6  -7 151.221   9.274   5
   2  -6  -7 150.750   8.922   2
  -2  -6   7 161.977  10.314   1
   2  -6  -7 157.570  10.653   1
   2   6  -7 151.160   9.803   1
   2   6  -7 162.734   9.621   2
  -2   6   7 148.640  10.511   1
   1  -6  -7 245.552  13.131   1
   1  -6  -7 261.317  11.627   5
   1  -6  -7 256.045  11.885   2
  -1  -6   7 247.308  12.822   1
   1   6  -7 265.249  13.191   1
   1   6  -7 244.726  11.012   2
  -1   6   7 246.145  13.072   1
   0  -6  -7 3.11119 2.71472   5
   0  -6   7 -2.5802  2.6614   1
   0  -6  -7 5.02647 3.75394   1
   0   6  -7 3.32308 3.37908   1
   0   6  -7 0.96092 2.13719   2
   0   6   7 2.03222 6.61941   1
  -1  -6  -7 29.2339  4.9753   1
   1  -6   7 36.1980  5.2075   1
  -1  -6  -7 36.5566  4.4898   5
   1   6   7 30.0059  5.3397   1
  -1   6  -7 44.0962  4.0546   2
  -1   6  -7 39.2838  5.7871   1
  -1   6  -7 30.1735  2.7093   4
   2  -6   7 221.221  12.133   1
  -2  -6  -7 234.459  12.697   1
  -2  -6  -7 231.030   9.903   5
  -2   6  -7 230.211  12.614   1
  -2   6  -7 222.450   7.602   2
  -2   6  -7 223.574   6.385   4
   2   6   7 230.573  12.432   1
  -3  -6  -7 105.740   8.584   1
   3  -6   7 108.146   8.727   1
  -3   6  -7 94.4560  4.0976   2
   3   6   7 109.564   8.632   1
  -3   6  -7 104.901   8.782   1
  -4  -6  -7 17.0782  4.6216   1
   4  -6   7 22.7381  4.9333   1
  -4   6  -7 15.3617  5.0131   1
   4   6   7 29.2226  5.1057   1
   5  -6   7 321.946  14.775   1
  -5  -6  -7 320.249  14.518   1
   5   6   7 311.899  14.015   1
  -5   6  -7 334.854  15.481   1
  -5   6  -7 294.036  15.227   3
  -6  -6  -7 112.739   8.655   1
   6  -6   7 106.089   8.664   1
  -6   6  -7 88.5975  9.3242   3
  -6   6  -7 95.4907  8.4822   1
   6   6   7 105.474   8.046   1
  -7  -6  -7 0.31979 3.55402   4
   7  -6   7 -4.3805  2.4219   5
  -7  -6  -7 -4.1533  2.9809   1
  -7   6  -7 -4.5908  4.4543   3
   7   6   7 1.19460 2.36417   1
  -7   6  -7 -3.7811  3.5567   1
   8  -6   7 147.839   8.289   5
  -8  -6  -7 147.266   9.379   1
  -8   6  -7 147.307  10.216   1
  -8   6  -7 128.433  12.179   3
  -9  -6  -7 27.3646  4.3697   1
   9  -6   7 29.0170  4.0601   5
  -9   6  -7 31.5845  5.2078   1
  -9   6  -7 28.4916  7.3068   3
 -10  -6  -7 43.2029  4.8957   1
 -10  -6  -7 34.8868  7.2388   4
 -10   6  -7 47.2594  5.8917   1
 -10   6  -7 27.4105  7.4598   3
 -11   6  -7 17.4826  3.8620   1
 -12   6  -7 8.06164 6.25430   3
 -13   6  -7 18.0320  6.4811   3
  13  -7  -7 -0.2225  3.4024   5
 -13   7   7 -0.0669  4.8724   3
 -12   7   7 -11.675   6.530   3
  11  -7  -7 61.0607  9.2772   5
 -11   7   7 69.8767 10.6409   3
 -11   7   7 56.5288  6.9554   1
 -10  -7   7 208.677  11.692   1
  10  -7  -7 212.607  15.426   5
  10   7  -7 187.321  15.146   2
 -10   7   7 211.123  16.247   3
 -10   7   7 198.954  12.636   1
   9  -7  -7 2.18222 3.44499   5
  -9  -7   7 -4.9487  3.2371   1
   9   7  -7 -5.3440  5.3966   2
  -9   7   7 1.01101 3.11691   1
   8  -7  -7 19.5351  3.6769   2
  -8  -7   7 14.8819  4.1375   1
   8  -7  -7 20.3929  6.0759   5
   8  -7  -7 12.5738  4.1021   1
  -8   7   7 12.5200  4.0560   1
   8   7  -7 21.5649  6.4889   2
  -8   7   7 12.1221  5.2543   3
   7  -7  -7 55.6341  6.8235   1
   7  -7  -7 49.3386  5.2862   2
   7  -7  -7 44.5213  6.7942   5
  -7  -7   7 58.1955  6.8585   1
  -7   7   7 46.2497  6.8838   1
   7   7  -7 60.7264  6.7100   1
  -7   7   7 54.0239  7.5809   3
   7   7  -7 57.0754  8.3874   2
  -6  -7   7 176.399  11.290   1
   6  -7  -7 178.432  12.364   5
   6  -7  -7 189.395  12.242   1
   6  -7  -7 174.158   9.585   2
   6   7  -7 197.334  13.544   2
  -6   7   7 196.767  12.696   1
   6   7  -7 166.741  10.887   1
  -5  -7   7 9.83318 4.26828   1
   5  -7  -7 14.9325  4.1275   5
   5  -7  -7 18.2578  4.8055   1
   5  -7  -7 8.93079 2.85627   2
   5   7  -7 15.0827  4.8695   2
   5   7  -7 15.7166  4.2372   1
   4  -7  -7 52.7797  5.6554   2
   4  -7  -7 43.9803  6.4360   5
  -4  -7   7 61.1515  7.1104   1
   4  -7  -7 61.7744  7.5404   1
  -4   7   7 38.6816  6.5429   1
   4   7  -7 64.2739  7.5760   2
   4   7  -7 48.1319  6.4090   1
   3  -7  -7 2.68314 3.65077   5
  -3  -7   7 6.37734 4.22648   1
   3  -7  -7 3.21057 3.76447   1
   3   7  -7 -2.8484  3.5967   2
   3   7  -7 0.80363 3.60591   1
  -3   7   7 -4.0199  3.2004   1
  -2  -7   7 75.3555  7.9451   1
   2  -7  -7 82.2022  7.4814   5
   2  -7  -7 86.9340  8.5834   1
   2   7  -7 77.2270  7.3139   2
   2   7  -7 71.5009  7.7658   1
   1  -7  -7 45.7014  5.5766   5
  -1  -7   7 38.2853  5.7038   1
   1  -7  -7 28.4571  5.6115   1
   1   7  -7 44.2916  6.5492   1
  -1   7   7 38.4966  6.3485   1
   1   7  -7 40.7243  5.1289   2
   0  -7  -7 57.5828  7.3231   1
   0  -7  -7 64.1692  6.2644   5
   0  -7   7 64.7723  7.5280   1
   0   7   7 72.3259  7.6325   1
   0   7  -7 67.1464  7.2766   1
   0   7  -7 69.6756  5.8663   2
   1  -7   7 191.868  12.160   1
  -1  -7  -7 200.958  12.403   1
  -1  -7  -7 201.884  10.439   5
  -1   7  -7 202.766  12.317   1
  -1   7  -7 198.733   8.726   2
  -2  -7  -7 484.466  19.465   1
   2  -7   7 450.096  18.442   1
   2   7   7 452.339  18.655   1
  -2   7  -7 460.958  12.206   2
  -2   7  -7 446.343  18.728   1
   3  -7   7 509.851  19.981   1
  -3  -7  -7 534.488  20.241   1
   3   7   7 545.105  20.388   1
  -3   7  -7 514.936  20.498   1
  -3   7  -7 499.931  10.772   2
   4  -7   7 91.1503  8.3402   1
  -4  -7  -7 84.5264  8.2490   1
   4   7   7 90.0923  8.3923   1
  -4   7  -7 102.402   9.254   3
  -4   7  -7 88.4890  8.8135   1
   5  -7   7 39.7452  5.8762   1
  -5  -7  -7 45.0562  6.5001   1
  -5   7  -7 61.6489  7.8378   3
   5   7   7 53.5900  6.5351   1
  -5   7  -7 59.4312  7.2754   1
   6  -7   7 148.246  10.475   1
  -6  -7  -7 141.249  10.299   1
  -6   7  -7 142.995  10.887   1
  -6   7  -7 134.552  11.366   3
   6   7   7 133.717   9.593   1
  -7  -7  -7 14.6415  4.7499   4
  -7  -7  -7 23.8973  4.9252   1
   7  -7   7 33.3897  5.6681   1
  -7   7  -7 24.5855  5.3317   1
  -7   7  -7 14.7086  5.7043   3
  -8  -7  -7 110.132  11.038   4
  -8  -7  -7 96.1255  8.2453   1
   8  -7   7 83.7635  6.9054   5
  -8   7  -7 94.6128  9.0464   1
  -8   7  -7 116.080  11.687   3
  -9   7  -7 18.9337  4.7620   1
  -9   7  -7 16.7307  5.6245   3
 -10  -7  -7 90.6189  7.5584   1
 -10   7  -7 97.1716 12.2349   3
 -10   7  -7 99.3568  8.9806   1
 -11   7  -7 58.3827  9.7844   3
 -11   7  -7 49.9117  6.3967   1
 -12  -7  -7 24.8704  7.0497   4
  12  -8  -7 11.4201  6.3649   5
  12   8  -7 8.22500 5.00974   2
 -12   8   7 9.41118 3.84511   1
 -12   8   7 17.3198  7.1338   3
  11  -8  -7 81.1500 10.8122   5
 -11   8   7 87.0742 12.0110   3
 -11   8   7 72.6477  8.2771   1
  10  -8  -7 22.6934  6.6803   5
 -10  -8   7 20.6454  4.6675   1
 -10   8   7 12.8772  6.0950   3
 -10   8   7 23.7834  5.5332   1
  -9  -8   7 51.7866  6.7600   1
   9  -8  -7 46.8886  8.3024   5
   9   8  -7 61.0032  9.1843   2
  -9   8   7 55.9767  7.7796   1
  -9   8   7 60.8485  9.5557   3
   8  -8  -7 20.4867  5.4147   5
  -8  -8   7 17.7394  4.7838   1
  -8   8   7 20.1225  6.2959   3
   7  -8  -7 60.9934  5.9436   2
   7  -8  -7 61.6387  8.6424   5
   7  -8  -7 48.3952  7.0071   1
  -7  -8   7 69.4440  7.9311   1
   7   8  -7 57.6811  8.2022   2
   7   8  -7 65.5744  7.5223   1
  -7   8   7 74.9329  9.3586   3
  -7   8   7 64.7199  8.2717   1
  -6  -8   7 357.952  17.199   1
   6  -8  -7 361.560  18.206   5
   6  -8  -7 346.361  14.040   2
   6   8  -7 364.208  18.974   2
  -6   8   7 364.169  18.115   1
   6   8  -7 340.987  16.345   1
  -5  -8   7 6.90262 4.08324   1
   5  -8  -7 -4.1620  2.9898   2
   5  -8  -7 0.34212 3.59936   5
   5  -8  -7 2.55072 3.84384   1
  -5   8   7 -2.1942  2.9993   1
   5   8  -7 -5.9215  3.9344   1
   5   8  -7 -1.7720  4.0111   2
  -4  -8   7 3.40950 3.82255   1
   4  -8  -7 -2.9930  3.5267   1
   4  -8  -7 -5.9642  4.2304   5
  -4   8   7 -0.7932  3.8222   1
   4   8  -7 -0.3962  3.4882   2
   4   8  -7 2.91241 3.53862   1
  -3  -8   7 17.6823  4.9801   1
   3  -8  -7 10.2419  3.5434   5
   3   8  -7 18.1181  4.7160   2
   3   8  -7 15.0366  4.6486   1
  -2  -8   7 18.9316  5.2563   1
   2  -8  -7 13.3062  3.7090   5
   2   8  -7 14.8882  4.0725   2
  -2   8   7 21.7862  4.9126   1
   2   8  -7 13.0041  4.1853   1
  -1  -8   7 14.7072  5.0787   1
   1  -8  -7 17.8600  4.7073   5
   1   8  -7 18.8363  4.1849   2
   1   8  -7 18.3214  5.1746   1
   0  -8  -7 6.22770 4.32690   1
   0   8  -7 10.0469  3.1173   2
   0   8  -7 1.34869 3.70344   1
  -1  -8  -7 658.816  20.582   5
   1  -8   7 618.476  22.981   1
  -1   8  -7 646.396  23.784   1
   1   8   7 669.998  23.812   1
  -1   8  -7 654.725  17.447   2
  -2  -8  -7 87.1576  9.0559   1
   2  -8   7 83.6320  8.6976   1
  -2   8  -7 93.9671  9.5087   1
  -2   8  -7 89.0085  5.4276   2
   3  -8   7 26.2413  5.8685   1
  -3   8  -7 40.9726  7.0436   1
   3   8   7 40.0754  6.0522   1
   4  -8   7 -2.1609  3.3158   1
  -4  -8  -7 4.18842 4.15118   1
  -4   8  -7 -4.5006  4.5005   1
   4   8   7 -2.2882  3.0161   1
  -5  -8  -7 50.8779  7.3680   1
   5  -8   7 46.9020  6.5603   1
  -5   8  -7 44.8049  6.9186   3
  -5   8  -7 40.8022  7.0357   1
   5   8   7 44.4638 10.5941   1
  -6  -8  -7 3.34835 3.41553   1
   6  -8   7 1.12043 2.45660   1
  -6  -8  -7 0.53096 4.16190   4
  -6   8  -7 -3.7786  4.6794   3
  -6   8  -7 -7.9426  4.4082   1
   6   8   7 4.87611 3.39895   1
  -7  -8  -7 3.42239 3.42385   1
   7  -8   7 -1.0889  3.0777   1
  -7  -8  -7 10.7413  4.9542   4
  -7   8  -7 0.76738 3.89975   1
  -8  -8  -7 59.1246  7.0747   1
  -8  -8  -7 62.5208  8.9828   4
  -8   8  -7 61.1375  7.6580   1
  -8   8  -7 51.0970  9.1077   3
  -9  -8  -7 2.76588 3.15824   1
  -9  -8  -7 -0.7381  4.7921   4
  -9   8  -7 -8.3357  5.9544   3
  -9   8  -7 8.20493 4.17218   1
 -10  -8  -7 91.4093  8.1863   1
 -10   8  -7 104.003  13.209   3
 -10   8  -7 91.3875  9.1298   1
 -11  -8  -7 -0.5716  4.6328   4
 -11   8  -7 -8.8592  6.2360   3
 -11   8  -7 -4.8020  3.7252   1
  11  -9  -7 66.1449 10.3737   5
 -11   9   7 82.1035  9.3940   1
 -11   9   7 62.3315 10.4782   3
  11   9  -7 67.2055 10.2964   2
 -10  -9   7 10.0252  3.8711   1
  10  -9  -7 19.9513  6.6785   5
 -10   9   7 2.59171 5.63777   3
  -9  -9   7 21.7476  5.3756   1
   9  -9  -7 29.3905  6.9776   5
   9   9  -7 28.5075  7.8413   2
  -9   9   7 23.1161  6.9316   3
  -8  -9   7 42.8338  6.8203   1
   8  -9  -7 42.9266  7.8661   5
  -8   9   7 40.8781  8.0883   3
   8   9  -7 49.5718  8.8876   2
   7  -9  -7 13.2333  4.6390   1
   7  -9  -7 5.83780 5.29122   5
  -7  -9   7 16.7081  5.3814   1
  -7   9   7 15.3367  4.9794   3
   7   9  -7 10.1893  5.4077   2
   6  -9  -7 -3.0798  4.4394   5
  -6  -9   7 5.38280 3.50481   1
   6  -9  -7 1.48966 3.41705   1
   6   9  -7 3.98480 4.90137   2
   5  -9  -7 23.1538  5.4119   1
  -5  -9   7 11.0779  5.0496   1
   5  -9  -7 24.0205  6.0615   5
   5   9  -7 13.4905  4.1797   1
   5   9  -7 21.9798  6.1558   2
  -4  -9   7 -2.9931  4.2393   1
   4  -9  -7 -7.7898  4.4790   1
   4  -9  -7 -1.1412  3.6664   5
   4   9  -7 1.88409 3.98980   2
   4   9  -7 5.30445 3.72029   1
   3  -9  -7 166.406  11.750   5
  -3  -9   7 195.456  13.647   1
   3   9  -7 175.520  12.614   1
   3   9  -7 175.945  12.116   2
  -2  -9   7 -5.0609  4.5455   1
   2  -9  -7 2.89352 3.91580   5
   2   9  -7 4.32658 4.54275   1
   2   9  -7 -7.5401  3.8779   2
   1  -9  -7 5.48154 3.85944   5
   1  -9  -7 2.07230 3.26327   1
  -1  -9   7 3.99599 4.13237   1
   1   9  -7 11.9726  4.1785   1
   1   9  -7 6.96500 2.98347   2
   0  -9  -7 -1.1788  2.9367   1
   0  -9   7 -0.8002  3.9037   1
   0  -9  -7 4.04497 2.81480   5
   1  -9   7 69.5505  8.6922   1
  -1  -9  -7 72.0772  8.8178   1
  -1   9  -7 66.2100  5.7421   2
  -1   9  -7 64.6512  8.7073   1
   2  -9   7 14.9872  5.1312   1
   3  -9   7 147.123  11.733   1
  -3  -9  -7 152.154  12.294   1
  -3   9  -7 138.425  12.005   1
   4  -9   7 11.6141  5.0228   1
  -4  -9  -7 8.28071 4.07010   1
  -4   9  -7 21.6854  5.9309   1
   5  -9   7 13.6346  5.1772   1
  -5  -9  -7 1.68354 3.09425   1
  -5   9  -7 1.69820 4.61556   1
  -5   9  -7 4.44118 4.59353   3
  -6  -9  -7 -6.1802  4.3427   1
  -6  -9  -7 1.60486 4.26688   4
   6   9   7 3.36291 3.47856   1
  -6   9  -7 11.1374  5.0098   1
  -6   9  -7 -3.6805  4.8629   3
  -7   9  -7 112.936  11.171   1
  -7   9  -7 117.631  12.624   3
  -8  -9  -7 10.2645  4.7843   4
  -8  -9  -7 18.3461  4.9843   1
  -8   9  -7 -0.6904  5.2014   3
  -8   9  -7 17.1340  5.4186   1
  -9  -9  -7 40.8235  6.4256   1
  -9   9  -7 29.7022  8.0778   3
  -9   9  -7 38.8198  7.1473   1
 -10  -9  -7 13.3069  6.0426   4
 -10  -9  -7 7.72373 3.82429   1
 -11   9  -7 38.1498  6.6736   1
 -11   9  -7 32.0876  9.1590   3
 -10 -10   7 0.85653 3.24075   1
 -10  10   7 14.7118  5.9769   3
  -9 -10   7 16.8167  5.3046   1
   9 -10  -7 27.8882  7.1054   5
  -8  10   7 9.14532 4.52656   3
   8  10  -7 6.80551 5.66761   2
  -7 -10   7 21.7944  5.6720   1
   7 -10  -7 34.2756  7.5436   5
  -7  10   7 17.4047  6.1961   3
  -6 -10   7 0.06902 4.08194   1
   6 -10  -7 2.97512 3.99110   1
   6 -10  -7 7.18614 5.22868   5
   6  10  -7 1.24886 3.96358   1
   6  10  -7 14.3714  5.8068   2
  -6  10   7 9.93552 4.83012   1
   5 -10  -7 6.11885 3.83695   1
   5 -10  -7 -0.5894  4.0104   5
  -5 -10   7 9.48794 5.04851   1
   5  10  -7 8.14590 4.74110   2
   5  10  -7 -0.0079  3.6970   1
  -4 -10   7 17.4588  6.1196   1
   4  10  -7 10.5667  5.2482   1
   3 -10  -7 248.617  14.952   5
  -3 -10   7 253.554  16.398   1
  -3  10   7 224.058  15.638   1
   3  10  -7 252.414  16.151   1
   3  10  -7 247.840  15.033   2
  -2 -10   7 -3.1047  3.3791   1
   2 -10  -7 2.76634 4.16803   5
   2  10  -7 -6.1769  3.7968   2
   2  10  -7 4.55265 4.54525   1
   1 -10  -7 89.0829  9.0498   5
  -1 -10   7 91.2991 10.3329   1
   1  10  -7 113.361  11.171   1
   1  10  -7 88.8949  8.1576   2
   0 -10  -7 18.8792  5.2616   5
   0  10  -7 11.4190  3.4052   2
   0  10  -7 9.22292 5.23446   1
   1 -10   7 179.995  13.950   1
  -1  10  -7 162.979  13.546   1
   2 -10   7 24.9372  6.3921   1
  -2  10  -7 37.3230  7.4647   1
   2  10   7 27.3609  5.9207   1
   3 -10   7 2.13507 4.32713   1
  -3  10  -7 1.65047 3.51701   1
  -4 -10  -7 6.03838 4.04924   1
   4 -10   7 7.05445 4.67942   1
  -4  10  -7 10.0762  5.5533   1
   5 -10   7 37.7708  6.7319   1
  -5 -10  -7 37.9000  7.1448   4
  -5 -10  -7 43.9002  7.2003   1
  -5  10  -7 38.7804  7.8332   1
  -5  10  -7 51.3293  8.7571   3
   6 -10   7 1.22324 2.87076   1
  -6 -10  -7 1.33825 3.26291   4
  -6  10  -7 5.00464 4.76390   1
  -6  10  -7 4.92662 4.64235   3
  -7 -10  -7 28.2424  7.2576   4
  -7  10  -7 31.1793  8.0659   3
  -7  10  -7 17.5918  5.9356   1
  -8 -10  -7 16.7895  5.7597   4
  -8  10  -7 3.54944 5.40450   3
  -8  10  -7 10.3215  5.2892   1
  -9  10  -7 6.06951 5.63369   3
  -9  10  -7 13.6645  5.2866   1
 -10 -10  -7 19.4890  6.3647   4
 -10  10  -7 22.3119  5.7404   1
  -9 -11   7 14.0193  4.7940   1
   9  11  -7 1.42811 3.79480   2
  -9  11   7 0.60802 3.84416   3
   8 -11  -7 18.8566  6.4904   5
  -8 -11   7 32.2764  6.8864   1
  -8  11   7 22.4053  7.1626   3
   8  11  -7 35.2976  8.2600   2
  -7 -11   7 6.95591 5.14475   1
   7 -11  -7 13.5966  5.5700   5
  -7  11   7 6.49138 5.06956   3
  -7  11   7 3.12956 4.03996   1
   7  11  -7 14.7061  5.9439   2
  -6 -11   7 34.7387  7.1846   1
   6 -11  -7 33.8081  6.5825   5
   6  11  -7 31.0211  6.7283   2
   5 -11  -7 2.29873 3.53388   5
  -5  11   7 1.65008 3.36047   1
   5  11  -7 -2.9830  4.0930   2
   5  11  -7 -2.9240  4.5662   1
  -4 -11   7 180.114  14.632   1
   4 -11  -7 181.535  13.789   5
   4  11  -7 187.005  14.882   1
   4  11  -7 171.180  13.408   2
   3 -11  -7 20.3554  5.9610   5
   3  11  -7 15.2635  5.7182   1
  -3  11   7 16.9291  5.4401   1
   3  11  -7 9.23356 4.66314   2
   2 -11  -7 -0.0754  4.2472   5
  -2 -11   7 0.06421 2.96551   1
   2  11  -7 0.44787 4.02055   1
   2  11  -7 3.80856 3.34666   2
   1 -11  -7 -8.2923  4.7222   5
  -1 -11   7 -2.3055  4.7818   1
   1  11  -7 3.65218 4.58828   1
   1  11  -7 -0.6341  2.8193   2
   0 -11   7 18.9982  5.8845   1
   0  11  -7 9.45712 5.12622   1
   1 -11   7 1.36131 4.39580   1
  -1  11  -7 -6.6381  5.3993   1
   2 -11   7 5.79498 4.70417   1
  -2  11  -7 -8.7275  5.3516   1
   2  11   7 3.08864 3.54740   1
   3 -11   7 94.1019 10.9363   1
  -3 -11  -7 83.3988  9.3042   4
  -3  11  -7 100.243  11.175   1
  -4 -11  -7 172.176  14.320   1
  -4 -11  -7 196.280  14.174   4
   4 -11   7 196.089  15.421   1
  -4  11  -7 204.264  16.038   1
   5 -11   7 28.1070  6.3338   1
  -5 -11  -7 35.4356  6.9488   1
  -5  11  -7 26.5598  7.5584   3
  -5  11  -7 49.1623  8.9470   1
   6 -11   7 155.435  13.769   1
  -6 -11  -7 140.998  13.372   4
  -6  11  -7 154.491  14.043   1
  -6  11  -7 153.368  14.985   3
  -7 -11  -7 -1.8076  3.6255   4
  -7  11  -7 18.2901  6.1652   1
  -7  11  -7 5.13346 4.36844   3
  -8  11  -7 20.4118  6.4996   1
   7 -12  -7 16.0072  6.2185   5
   7  12  -7 2.39404 5.01814   2
  -7  12   7 -1.3940  4.3912   3
   6 -12  -7 15.6123  5.9474   5
  -6 -12   7 15.5569  5.7771   1
   6  12  -7 10.5388  5.5960   2
  -5 -12   7 -8.8944  5.4120   1
   5 -12  -7 -0.1427  4.4325   5
  -5  12   7 2.98144 4.57840   1
   5  12  -7 -0.6947  4.3408   2
   4 -12  -7 5.09990 4.03134   1
  -4 -12   7 6.66937 5.19961   1
   4 -12  -7 3.11501 5.16444   5
   4  12  -7 -2.0583  4.3288   2
   4  12  -7 -3.4477  4.7087   1
  -3 -12   7 2.44493 4.80292   1
   3  12  -7 17.3763  5.6821   1
   3  12  -7 11.7172  4.4757   2
  -2 -12   7 46.0384  8.5472   1
   2 -12  -7 43.8600  7.6002   5
   2  12  -7 64.1168  9.7231   1
   1 -12  -7 0.71903 4.16902   1
  -1 -12   7 2.73452 4.39917   1
   1  12  -7 -4.6646  4.0686   1
   0 -12   7 8.10082 5.14386   1
   0  12  -7 1.87714 4.03966   1
   1 -12   7 -3.1840  4.6474   1
  -1  12  -7 18.1360  6.1421   1
  -2 -12  -7 4.67273 3.66868   4
   2 -12   7 3.60307 4.88610   1
  -2  12  -7 5.24968 3.93354   1
   2  12   7 -1.2396  3.9532   1
  -3 -12  -7 1.33921 3.69851   4
   3 -12   7 3.81956 3.83573   1
  -3  12  -7 1.50523 4.92391   1
   4 -12   7 20.4279  6.8244   1
  -4 -12  -7 13.4692  5.1413   4
  -4  12  -7 22.5881  7.0177   1
  -5 -12  -7 10.0766  4.3836   4
   5 -12   7 15.8154  5.9442   1
  -5  12  -7 5.73488 5.18457   3
  -6 -12  -7 2.00771 4.38948   4
  -6 -12  -7 -0.4345  4.0870   1
  -6  12  -7 0.86600 4.60061   1
  -6  12  -7 1.72038 5.03799   3
  -7 -12  -7 16.8399  6.0930   4
  -7  12  -7 20.0952  6.4750   1
   5 -13  -7 19.1194  6.4567   5
   4 -13  -7 234.580  17.209   5
  -4  13   7 233.525  18.597   1
   4  13  -7 203.533  15.876   2
  -3 -13   7 35.9000  7.8315   1
   3 -13  -7 50.4414  8.9882   5
   2 -13  -7 17.1676  6.1817   1
   1 -13  -7 13.8459  5.5613   1
   0 -13  -7 5.19655 4.45429   1
  -1 -13  -7 7.72953 5.69714   1
   1 -13   7 1.77953 3.62404   1
  -3 -13  -7 9.93899 5.31714   1
  -5 -13  -7 -5.4812  4.2833   4
  -5  13  -7 9.88097 6.12917   3
  14   0  -8 11.4273  6.0578   5
  13   0  -8 -1.1075  4.1124   5
 -13   0   8 3.24270 4.72192   3
  13   0  -8 -6.6470  3.8342   2
 -12   0   8 21.2739  5.7402   3
  12   0  -8 18.9596  5.5755   5
  12   0  -8 29.1674  6.1529   2
  11   0  -8 -0.5476  4.1952   5
  11   0  -8 4.26670 3.30128   2
  10   0  -8 346.114  16.671   2
  10   0  -8 354.876  19.022   5
 -10   0   8 351.906  17.152   3
 -10   0   8 331.062  11.233   1
  -9   0   8 4.59388 3.56713   3
   9   0  -8 5.12457 4.60109   5
   9   0  -8 4.15274 4.06637   2
   8   0  -8 106.511   6.613   1
  -8   0   8 98.6642  8.1502   3
   8   0  -8 95.8245  8.1791   2
   8   0  -8 81.5679  8.8394   5
  -8   0   8 107.442   6.800   1
   7   0  -8 -1.7132  3.7101   2
  -7   0   8 1.39281 2.15673   1
   7   0  -8 0.77776 2.00498   1
  -7   0   8 6.66237 2.93264   3
   7   0  -8 -4.8485  3.5740   5
  -7   0   8 1.46472 1.52576   1
   6   0  -8 1213.96   27.61   2
  -6   0   8 1135.87   24.66   3
   6   0  -8 1132.75   29.54   5
   6   0  -8 1219.88   24.87   1
  -6   0   8 1176.38   24.87   1
  -6   0   8 1121.55   23.99   1
   5   0  -8 0.35205 2.05024   1
  -5   0   8 0.27547 1.68648   1
   5   0  -8 9.04718 9.02245   2
  -5   0   8 -1.6238  1.7188   3
  -5   0   8 2.25103 2.36868   1
  -4   0   8 107.055   5.153   3
   4   0  -8 122.696   7.685   2
   4   0  -8 112.279   6.992   1
  -4   0   8 108.114   6.875   1
   3   0  -8 1.57305 2.55416   2
  -3   0   8 7.03343 2.75962   1
  -3   0   8 1.38395 0.79984   3
   3   0  -8 1.07546 2.02581   1
  -2   0   8 169.016   8.613   1
   2   0  -8 157.628   8.279   1
   2   0  -8 163.905   7.914   2
  -1   0   8 3.10930 2.25344   1
   0   0  -8 -1.9487  1.9727   1
   0   0   8 -1.8551  1.5773   1
   0   0  -8 -1.4089  1.2109   5
   0   0  -8 1.09894 1.84777   2
  -1   0  -8 0.56485 1.77890   2
  -1   0  -8 1.60379 1.99727   1
   1   0   8 -0.3003  0.6321   3
  -1   0  -8 0.46212 0.82196   5
   1   0   8 2.89849 1.69634   1
  -2   0  -8 209.213   9.415   1
  -2   0  -8 204.397   7.123   3
  -2   0  -8 212.404   8.355   2
   2   0   8 193.816   7.238   3
   2   0   8 206.553   9.397   1
  -3   0  -8 4.43564 2.43387   1
   3   0   8 -0.3096  1.2887   1
  -3   0  -8 -2.7139  2.0688   2
  -4   0  -8 194.871   9.083   3
  -4   0  -8 194.832   8.893   1
  -4   0  -8 197.421   9.146   1
   4   0   8 203.171   9.120   1
   5   0   8 0.64040 1.87646   1
  -5   0  -8 3.10700 2.66864   3
  -5   0  -8 -0.2737  1.5785   1
  -5   0  -8 2.17407 1.73092   1
  -6   0  -8 767.909  18.926   1
  -6   0  -8 768.723  18.794   1
  -6   0  -8 762.282  22.718   3
   6   0   8 805.449  19.186   1
  -7   0  -8 -0.9481  2.2007   1
  -7   0  -8 4.44356 3.14500   3
  -8   0  -8 1307.53   34.75   3
  -8   0  -8 1235.93   31.69   4
  -8   0  -8 1237.54   24.52   1
  -9   0  -8 -0.5800  1.4935   1
  -9   0  -8 1.23711 2.77530   3
  -9   0  -8 -3.2118  3.7063   4
 -10   0  -8 91.6822  4.9748   1
 -10   0  -8 111.584  11.065   3
 -11   0  -8 5.96097 4.59713   4
 -11   0  -8 4.20413 5.10726   3
 -12   0  -8 13.3921  5.9574   3
 -13   0  -8 -7.1639  4.4015   4
 -13   0  -8 -2.5584  3.9778   3
  14  -1  -8 7.27742 5.62553   5
  14   1  -8 -4.8488  4.5958   2
  14   1  -8 6.04237 4.70812   5
 -14   1   8 3.62497 4.75039   3
  13  -1  -8 8.54836 5.69723   5
 -13   1   8 6.48671 4.89309   3
  13   1  -8 8.40772 4.50833   2
  13   1  -8 2.60889 5.00168   5
  12  -1  -8 45.7593  8.2344   5
  12  -1  -8 62.0808  7.4669   2
 -12   1   8 50.0091  8.1036   3
  12   1  -8 53.0807  8.9714   5
  12   1  -8 54.2125  7.7257   2
  11  -1  -8 1.24627 4.46018   5
  11   1  -8 -3.3862  3.5433   5
 -11   1   8 5.32167 3.77918   3
  11   1  -8 -9.8841  4.7229   2
  10  -1  -8 116.920  11.153   5
  10  -1  -8 104.821   8.906   2
 -10  -1   8 109.119   6.339   1
 -10   1   8 106.070   6.435   1
  10   1  -8 93.0192 10.2718   5
 -10   1   8 107.683   9.926   3
  10   1  -8 106.996   9.724   2
  -9  -1   8 0.78313 1.86340   1
   9  -1  -8 6.75823 3.65004   2
   9  -1  -8 -0.0024  2.7312   5
  -9  -1   8 -0.0134  3.0367   3
  -9   1   8 4.43613 2.19176   1
   9   1  -8 1.06510 3.80013   2
  -9   1   8 -2.1109  3.3578   3
   8  -1  -8 678.552  24.289   5
  -8  -1   8 646.365  20.230   3
  -8  -1   8 625.284  16.990   1
   8  -1  -8 639.747  20.294   2
   8  -1  -8 661.020  17.468   1
  -8   1   8 618.121  20.728   3
   8   1  -8 658.336  17.106   1
  -8   1   8 655.075  17.794   1
   8   1  -8 663.604  22.105   2
   7  -1  -8 78.2929  5.9154   1
  -7  -1   8 76.6061  6.0140   1
  -7  -1   8 73.0792  5.4845   1
   7  -1  -8 80.5876  8.3931   5
  -7  -1   8 80.1357  6.5843   3
   7  -1  -8 74.2880  6.9803   2
  -7   1   8 72.1197  5.6112   1
   7   1  -8 69.7731  7.4064   2
  -7   1   8 69.2276  6.4804   3
  -7   1   8 75.5941  6.0407   1
   7   1  -8 68.3509  5.5061   1
  -6  -1   8 684.741  17.815   1
   6  -1  -8 687.535  19.695   2
   6  -1  -8 696.319  18.278   1
   6  -1  -8 698.752  22.565   5
  -6  -1   8 698.733  18.318   1
  -6   1   8 698.098  18.664   1
   6   1  -8 714.195  18.059   1
   6   1  -8 685.212  20.576   2
  -6   1   8 681.447  18.026   1
  -6   1   8 703.805  18.987   3
   5  -1  -8 173.447   8.654   1
  -5  -1   8 167.527   8.612   1
   5  -1  -8 169.373  10.163   5
  -5  -1   8 154.207   8.048   1
   5  -1  -8 163.014   9.021   2
  -5   1   8 163.194   8.406   1
   5   1  -8 168.116   7.370   3
  -5   1   8 178.156   9.098   1
  -5   1   8 173.055   8.891   1
  -5   1   8 166.123   8.057   3
   5   1  -8 170.168   8.495   1
   5   1  -8 171.549   9.570   2
   4  -1  -8 460.290  16.095   5
   4  -1  -8 447.227  14.356   2
   4  -1  -8 473.234  14.807   1
  -4  -1   8 475.991  14.766   1
   4   1  -8 470.703  14.487   1
  -4   1   8 456.302  14.710   1
   4   1  -8 478.482  15.489   2
   4   1  -8 475.589  11.344   3
  -4   1   8 475.031  12.286   3
   3  -1  -8 174.442   8.878   1
   3  -1  -8 183.662   9.444   5
   3  -1  -8 183.840   8.800   2
  -3  -1   8 178.905   8.907   1
  -3   1   8 184.425   9.123   1
  -3   1   8 174.904   6.096   3
   3   1  -8 194.266   9.024   1
   3   1  -8 173.042   8.689   2
   3   1  -8 180.093   5.296   3
   2  -1  -8 223.463   9.919   1
  -2  -1   8 214.924   9.703   1
   2  -1  -8 218.071   9.431   5
   2  -1  -8 207.041   8.904   2
   2   1  -8 230.883   9.881   1
  -2   1   8 228.318   5.801   3
  -2   1   8 209.772   9.753   1
   2   1  -8 211.688   9.105   2
   1  -1  -8 9.01138 2.71946   2
   1  -1  -8 4.58854 2.16001   1
  -1  -1   8 11.7098  3.0387   1
   1   1  -8 12.0323  2.8833   1
   1   1  -8 8.25136 2.53550   2
  -1   1   8 4.67042 2.65492   1
   0  -1  -8 38.6699  3.2814   5
   0  -1  -8 38.9601  4.4983   1
   0  -1   8 44.1290  4.4110   1
   0  -1  -8 37.3634  3.9999   2
   0   1  -8 43.7561  3.7999   2
   0   1  -8 47.7168  4.7829   1
   0   1   8 34.2335  4.2937   1
   0   1   8 43.2723  2.4024   3
  -1  -1  -8 139.501   7.107   2
   1  -1   8 141.294   7.727   1
  -1  -1  -8 154.586   8.202   1
  -1  -1  -8 135.556   4.982   5
  -1   1  -8 131.923   4.843   3
   1   1   8 133.670   7.724   1
  -1   1  -8 142.195   6.558   2
   1   1   8 130.385   5.227   3
  -1   1  -8 130.988   7.569   1
   2  -1   8 611.850  16.835   1
   2  -1   8 601.241  13.216   3
  -2  -1  -8 601.314  15.583   2
  -2  -1  -8 608.363  16.833   1
   2   1   8 597.646  14.058   3
  -2   1  -8 617.992  13.893   3
  -2   1  -8 583.430  16.468   1
   2   1   8 631.723  17.033   1
  -2   1  -8 614.189  14.340   2
  -3  -1  -8 336.406  11.668   2
   3  -1   8 342.026  12.167   1
  -3  -1  -8 346.371  12.397   1
  -3   1  -8 314.488  10.872   3
  -3   1  -8 326.491  11.972   1
  -3   1  -8 334.976  10.277   2
   3   1   8 331.879  12.015   1
  -4  -1  -8 31.7105  3.8224   1
  -4  -1  -8 33.2092  4.0851   1
   4  -1   8 33.7758  3.8443   1
  -4   1  -8 32.4267  3.8610   1
   4   1   8 31.1421  3.8615   1
  -4   1  -8 28.6062  3.3452   2
  -4   1  -8 40.3891  4.4612   1
  -4   1  -8 35.7781  4.3673   3
  -5  -1  -8 204.320   9.160   1
  -5  -1  -8 203.268   9.474   1
   5  -1   8 198.448   9.199   1
  -5   1  -8 201.194   9.190   1
   5   1   8 208.638   9.332   1
  -5   1  -8 203.898   9.435   1
  -5   1  -8 202.844  10.673   3
   6  -1   8 -1.0106  1.8406   1
  -6  -1  -8 -1.5240  1.5973   1
  -6   1  -8 -5.5939  3.4392   3
  -6   1  -8 -0.3087  1.6053   1
   6   1   8 1.78960 1.97107   1
   7  -1   8 169.260   8.269   1
  -7  -1  -8 166.411  11.019   3
  -7  -1  -8 184.841   8.728   1
  -7   1  -8 170.534   8.486   1
  -7   1  -8 160.150  11.009   3
   7   1   8 177.097   8.245   1
  -8  -1  -8 336.099  16.537   3
  -8  -1  -8 314.884  10.982   1
  -8   1  -8 329.366  15.445   4
  -8   1  -8 334.143  16.822   3
  -8   1  -8 320.623  11.522   1
  -9  -1  -8 215.584   8.617   1
  -9   1  -8 221.497   9.070   1
  -9   1  -8 205.924  14.276   3
 -10   1  -8 41.3776  7.6334   3
 -10   1  -8 54.9224  4.1383   1
 -11  -1  -8 -1.5252  3.0369   4
 -11   1  -8 -2.9370  4.8289   3
 -11   1  -8 -2.4212  3.8688   4
 -12   1  -8 29.8459  7.5423   3
 -12   1  -8 39.5291  6.9681   4
 -13   1  -8 33.4557  8.1945   3
 -14  -1  -8 6.77306 5.19018   4
 -14   1  -8 12.2084  6.2595   3
  14  -2  -8 -1.2008  4.1907   5
  14   2  -8 3.73384 4.53886   2
  14   2  -8 5.37276 4.88668   5
 -14   2   8 -3.8541  5.1545   3
  13  -2  -8 80.2509 10.5193   5
  13  -2  -8 65.8382  7.7987   2
  13   2  -8 71.8063  8.9902   2
 -13   2   8 54.5676  8.8681   3
  13   2  -8 73.0978 10.6233   5
  12  -2  -8 1.32744 2.86558   2
  12  -2  -8 11.7726  5.5579   5
  12   2  -8 -2.4335  4.5110   2
 -12   2   8 0.06264 3.94510   3
  12   2  -8 1.80703 3.43125   5
  11  -2  -8 110.915  11.530   5
  11  -2  -8 105.188   9.012   2
 -11   2   8 100.695  10.525   3
 -11   2   8 101.492   6.349   1
  10  -2  -8 30.2784  6.5183   5
 -10  -2   8 28.7187  3.4878   1
  10  -2  -8 29.4153  5.0365   2
  10   2  -8 31.5611  6.3707   2
 -10   2   8 27.6252  3.7195   1
 -10   2   8 36.5730  6.3947   3
   9  -2  -8 35.7812  5.4057   2
   9  -2  -8 49.2055  7.5507   5
  -9  -2   8 39.7586  4.3457   1
   9   2  -8 38.6175  6.0659   2
  -9   2   8 33.2342  4.2621   1
  -9   2   8 35.6522  6.0326   3
   8  -2  -8 467.410  16.885   2
   8  -2  -8 464.275  14.952   1
   8  -2  -8 435.314  19.502   5
  -8  -2   8 462.377  14.540   1
  -8   2   8 438.559  17.758   3
  -8   2   8 454.523  15.003   1
   8   2  -8 457.267  14.095   1
   8   2  -8 472.699  18.999   2
  -7  -2   8 319.177  12.244   1
   7  -2  -8 310.904  13.142   2
   7  -2  -8 310.010  15.672   5
   7  -2  -8 306.437  12.076   1
   7   2  -8 317.970  11.743   1
  -7   2   8 321.652  12.659   1
   7   2  -8 314.320  14.748   2
  -7   2   8 321.567  13.934   3
   6  -2  -8 117.248   7.590   1
  -6  -2   8 110.449   7.340   1
  -6  -2   8 116.818   7.084   1
   6  -2  -8 141.069  10.193   5
   6  -2  -8 110.554   7.760   2
   6   2  -8 113.077   6.928   1
   6   2  -8 126.824   9.315   2
  -6   2   8 120.135   7.968   3
  -6   2   8 122.189   7.913   1
   5  -2  -8 145.848   8.323   1
   5  -2  -8 147.319   8.437   2
   5  -2  -8 153.808   9.977   5
  -5  -2   8 135.866   8.018   1
  -5   2   8 147.239   7.908   3
   5   2  -8 142.372   9.224   2
   5   2  -8 148.379   8.098   1
  -5   2   8 140.498   8.501   1
   4  -2  -8 12.9867  3.3426   1
   4  -2  -8 10.7860  3.2654   2
   4  -2  -8 15.0901  3.8751   5
  -4  -2   8 14.4353  3.4371   1
   4   2  -8 13.6141  3.9895   2
  -4   2   8 19.8523  3.4291   1
   4   2  -8 12.3589  1.9904   3
   4   2  -8 15.6940  3.2219   1
  -3  -2   8 1540.27   29.99   1
   3  -2  -8 1588.19   30.67   1
   3  -2  -8 1522.03   28.51   2
   3  -2  -8 1585.16   31.04   5
   3   2  -8 1525.92   23.28   3
  -3   2   8 1522.23   25.13   3
  -3   2   8 1573.48   30.81   1
   3   2  -8 1580.92   30.05   1
   3   2  -8 1561.81   30.21   2
   2  -2  -8 932.073  20.545   2
   2  -2  -8 927.845  21.128   5
   2  -2  -8 966.059  22.520   1
  -2  -2   8 939.479  22.002   1
   2   2  -8 902.639  14.229   3
   2   2  -8 937.543  21.821   1
  -2   2   8 959.416  22.649   1
   2   2  -8 923.600  20.795   2
   1  -2  -8 2562.84   42.18   1
   1  -2  -8 2541.14   38.56   5
  -1  -2   8 2489.61   41.34   1
   1  -2  -8 2590.28   39.67   2
   1   2  -8 2505.00   41.04   1
  -1   2   8 2553.97   42.02   1
   1   2  -8 2477.80   38.53   2
   0  -2  -8 2035.69   31.09   5
   0  -2  -8 2035.29   36.16   1
   0  -2   8 2053.13   36.03   1
   0  -2  -8 2037.45   33.81   2
   0   2   8 2086.51   32.00   5
   0   2   8 2019.79   36.01   1
   0   2  -8 2054.67   32.28   2
   0   2  -8 1974.73   35.20   1
   1  -2   8 110.972   7.307   1
  -1  -2  -8 108.184   7.282   1
  -1  -2  -8 106.435   4.809   5
  -1  -2  -8 105.894   6.715   2
   1   2   8 109.961   5.200   5
  -1   2  -8 119.704   7.362   1
  -1   2  -8 103.808   4.794   3
   1   2   8 114.010   7.334   1
  -1   2  -8 112.014   5.644   2
  -2  -2  -8 103.813   6.671   2
  -2  -2  -8 105.154   4.108   5
  -2  -2  -8 104.965   6.994   1
   2  -2   8 112.279   7.244   1
   2   2   8 114.021   4.644   5
   2   2   8 111.178   7.183   1
  -2   2  -8 102.517   6.870   1
  -2   2  -8 103.141   5.380   2
  -2   2  -8 113.210   5.918   3
  -2   2  -8 100.532   4.012   5
   3  -2   8 1027.80   18.69   2
   3  -2   8 1016.23   23.04   1
  -3  -2  -8 998.970  22.894   1
  -3   2  -8 985.296  15.157   5
  -3   2  -8 981.403  22.751   1
   3   2   8 992.930  22.660   1
  -3   2  -8 1008.35   18.68   2
  -3   2  -8 989.539  21.752   3
   3   2   8 1011.56   15.45   5
   4  -2   8 89.5555  4.7041   2
  -4  -2  -8 98.2877  6.8978   1
  -4  -2  -8 91.9202  6.4855   1
   4  -2   8 100.667   6.836   1
  -4   2  -8 88.7857  6.6682   1
   4   2   8 91.3979  6.4256   1
  -4   2  -8 99.2701  6.8869   3
  -4   2  -8 88.8136  4.9687   2
  -4   2  -8 92.6505  3.4340   5
  -5  -2  -8 59.2416  5.1770   1
   5  -2   8 49.4459  4.9864   1
   5  -2   8 47.0430  3.4743   2
  -5  -2  -8 39.6476  4.7047   1
  -5   2  -8 51.2799  5.2385   1
  -5   2  -8 54.5620  6.0073   3
  -5   2  -8 52.3703  4.8436   1
   5   2   8 53.9572  4.9894   1
   6  -2   8 55.8958  5.1509   1
  -6  -2  -8 60.2630  5.1469   1
  -6  -2  -8 61.3717  5.4327   1
   6   2   8 61.1792  5.0836   1
  -6   2  -8 63.6831  5.5889   1
  -6   2  -8 68.6003  6.9019   3
  -6   2  -8 50.2331  4.9232   1
   7  -2   8 25.1105  3.5824   1
  -7  -2  -8 20.5158  3.5190   1
   7   2   8 18.9919  3.1258   1
  -7   2  -8 22.3341  3.6965   1
  -7   2  -8 27.5461  5.5791   3
   8  -2   8 521.251  11.769   5
  -8  -2  -8 533.235  15.093   1
  -8   2  -8 545.147  22.170   3
  -8   2  -8 528.031  18.474   4
  -8   2  -8 515.258  15.569   1
  -9  -2  -8 69.0902  8.1916   4
  -9  -2  -8 68.3694  5.0018   1
  -9   2  -8 73.5168  8.9128   3
  -9   2  -8 66.6450  7.1220   4
  -9   2  -8 76.6841  5.6688   1
 -10   2  -8 89.2502  5.7569   1
 -10   2  -8 90.2099  8.6812   4
 -10   2  -8 89.2151 10.2991   3
 -11   2  -8 16.5207  6.0206   3
 -12   2  -8 42.4843  8.7022   3
 -13   2  -8 35.3111  8.5398   3
 -14   2  -8 -3.7199  4.8468   3
  14  -3  -8 1.24596 5.04853   5
  14   3  -8 4.53304 5.00070   5
 -14   3   8 -3.0539  4.6367   3
  13  -3  -8 64.1001  9.6723   5
  13   3  -8 49.8970  9.3438   5
 -13   3   8 50.4933  8.9286   3
  12  -3  -8 1.60927 3.43860   5
  12  -3  -8 0.73774 2.88119   2
 -12   3   8 12.5819  5.6079   3
  12   3  -8 5.57803 4.82199   2
  11  -3  -8 43.8681  5.9957   2
  11  -3  -8 28.5141  6.7470   5
  11   3  -8 37.3467  6.6112   2
 -11   3   8 42.6345  4.5763   1
 -11   3   8 26.2899  5.7459   3
 -10  -3   8 -2.5473  1.9329   1
  10  -3  -8 0.65447 4.11909   5
  10  -3  -8 -6.0051  3.3712   2
 -10   3   8 2.47406 2.16065   1
  10   3  -8 -3.1472  4.6889   2
 -10   3   8 2.97611 3.56875   3
  -9  -3   8 71.1259  5.9238   1
   9  -3  -8 72.0543  8.8669   5
   9  -3  -8 81.0707  7.2252   2
  -9   3   8 69.3598  6.1823   1
   9   3  -8 80.0280  8.8710   2
  -9   3   8 78.6593  8.3045   3
  -8  -3   8 187.126   9.596   1
   8  -3  -8 197.532  13.292   5
   8  -3  -8 175.078   9.632   1
   8  -3  -8 188.608  10.529   2
  -8   3   8 198.643  12.212   3
   8   3  -8 187.398  12.321   2
   8   3  -8 181.920   9.085   1
  -8   3   8 179.643   9.837   1
  -7  -3   8 69.5766  6.1418   1
   7  -3  -8 59.1486  5.8238   1
   7  -3  -8 74.6455  6.6088   2
   7  -3  -8 63.1121  7.7467   5
   7   3  -8 59.2431  5.4115   1
  -7   3   8 65.0812  6.2984   1
  -7   3   8 67.1400  6.9739   3
   7   3  -8 61.8643  7.0566   2
  -6  -3   8 21.8682  3.9181   1
   6  -3  -8 16.1045  3.5426   1
   6  -3  -8 17.9148  3.3559   2
   6  -3  -8 17.6331  4.8056   5
  -6   3   8 23.9019  4.3764   1
  -6   3   8 16.7606  3.7797   3
   6   3  -8 17.9782  3.1353   1
  -5  -3   8 158.600   8.938   1
   5  -3  -8 154.128   8.535   2
   5  -3  -8 161.055  10.293   5
   5  -3  -8 156.574   9.178   1
  -5   3   8 150.268   8.529   3
   5   3  -8 164.007  10.270   2
   5   3  -8 146.417   8.362   1
  -5   3   8 144.585   9.022   1
   4  -3  -8 24.4627  4.1732   5
   4  -3  -8 37.0209  5.0032   1
  -4  -3   8 30.1531  4.4236   1
   4  -3  -8 29.3442  3.8653   2
  -4   3   8 24.8077  3.4326   3
   4   3  -8 27.6254  3.0225   3
  -4   3   8 25.0080  4.0019   1
   4   3  -8 30.5285  4.1141   1
   4   3  -8 28.6843  4.9184   2
   3  -3  -8 -1.0921  2.4013   1
   3  -3  -8 -3.0756  2.8561   5
  -3  -3   8 -1.2771  2.6119   1
   3  -3  -8 -4.1614  2.5983   2
   3   3  -8 -1.8653  2.4823   1
   3   3  -8 1.30405 1.08576   3
  -3   3   8 2.43604 2.71071   1
   3   3  -8 -2.6740  2.3101   2
  -2  -3   8 29.3343  4.4321   1
   2  -3  -8 33.5296  4.3946   5
   2  -3  -8 38.6463  4.9316   1
   2  -3  -8 37.1345  4.3415   2
   2   3  -8 29.0887  3.9684   2
  -2   3   8 29.1117  4.1074   1
   2   3  -8 35.0741  4.6775   1
   1  -3  -8 87.9374  5.8697   5
   1  -3  -8 88.6407  6.0998   2
  -1  -3   8 86.3972  6.8187   1
   1  -3  -8 85.3568  6.7619   1
  -1   3   8 89.5117  6.9394   1
   1   3  -8 83.5653  6.5045   1
   1   3  -8 81.7108  5.5808   2
   0  -3  -8 183.417   7.655   5
   0  -3   8 190.862   9.886   1
   0  -3  -8 185.226   9.633   1
   0  -3  -8 197.433   9.334   2
   0   3  -8 187.409   7.998   2
   0   3  -8 193.850   9.997   1
   0   3   8 189.848   9.882   1
  -1  -3  -8 337.337   9.595   5
  -1  -3  -8 338.265  12.398   2
  -1  -3  -8 337.369  13.034   1
   1  -3   8 333.734  12.994   1
   1   3   8 338.126  10.237   5
  -1   3  -8 332.947  13.173   1
  -1   3  -8 333.582  10.079   2
  -1   3  -8 344.152   9.896   3
   1   3   8 343.633  13.188   1
   2  -3   8 347.590  13.387   1
  -2  -3  -8 361.685  13.629   1
   2  -3   8 361.148  10.325   2
  -2  -3  -8 369.591   9.492   5
  -2  -3  -8 377.869  13.697   2
  -2   3  -8 366.351   9.425   5
   2   3   8 357.112   9.818   5
  -2   3  -8 359.825  13.753   1
  -2   3  -8 367.905  10.182   2
  -2   3  -8 359.070  11.445   3
   2   3   8 363.996  13.435   1
  -3  -3  -8 17.2172  3.7431   1
   3  -3   8 23.1015  2.4705   2
   3  -3   8 29.8822  4.0815   1
   3   3   8 27.0024  4.1413   1
  -3   3  -8 21.6716  4.1101   1
  -3   3  -8 22.0017  3.5319   3
  -3   3  -8 20.3668  2.1586   5
  -3   3  -8 18.3533  2.3053   2
   3   3   8 23.3758  2.3591   5
  -4  -3  -8 29.0631  4.4839   1
   4  -3   8 27.2213  2.5471   2
   4  -3   8 27.6435  3.9687   1
  -4   3  -8 27.9093  2.6721   2
   4   3   8 28.6618  2.4306   5
  -4   3  -8 31.8028  4.2847   3
   4   3   8 32.3893  4.4211   1
  -4   3  -8 29.4337  2.5922   5
  -4   3  -8 27.3131  4.4304   1
   5  -3   8 213.132  10.310   1
  -5  -3  -8 218.696  10.409   1
   5  -3   8 219.422   6.899   2
  -5   3  -8 218.841   7.248   5
   5   3   8 213.312   6.394   5
   5   3   8 224.986  10.264   1
  -5   3  -8 217.072  11.732   3
  -5   3  -8 218.582  10.685   1
  -6  -3  -8 34.7445  4.5886   1
   6  -3   8 23.6522  3.9315   1
   6  -3   8 35.8876  2.7008   2
  -6   3  -8 33.4107  4.5900   1
  -6   3  -8 29.6860  5.3166   3
   6   3   8 31.6758  2.3838   5
   6   3   8 31.6946  4.2329   1
   7  -3   8 -1.4004  2.0966   1
  -7  -3  -8 0.03472 2.23689   1
  -7   3  -8 -0.1213  2.2615   1
  -7   3  -8 7.33068 2.96019   4
  -7   3  -8 7.24678 3.49357   3
  -8  -3  -8 -3.2563  2.2443   1
  -8   3  -8 -4.2451  2.5928   4
  -8   3  -8 0.71154 3.81242   3
  -8   3  -8 1.89622 2.28031   1
  -9  -3  -8 139.552  11.661   4
  -9  -3  -8 126.404   7.068   1
  -9   3  -8 120.531   8.788   4
  -9   3  -8 132.033  11.791   3
  -9   3  -8 132.913   7.880   1
 -10  -3  -8 -5.9367  4.9046   4
 -10   3  -8 15.6828  5.8228   3
 -10   3  -8 0.93431 1.68000   1
 -10   3  -8 4.00890 2.95771   4
 -11   3  -8 92.2444 10.9197   3
 -12   3  -8 14.3314  6.5305   3
 -13   3  -8 23.6375  7.8714   3
  14   4  -8 8.83214 4.92537   5
  14   4  -8 2.94771 3.83431   2
 -14   4   8 11.3585  5.2584   3
  13  -4  -8 22.6532  6.8121   5
  13   4  -8 26.2102  6.6825   2
 -13   4   8 38.4861  8.2934   3
  12  -4  -8 57.9614  6.6791   2
  12  -4  -8 61.7411  9.3610   5
 -12   4   8 72.5697 10.0354   3
  11  -4  -8 30.0971  6.7331   5
  11  -4  -8 40.1562  5.5154   2
 -11   4   8 35.7307  4.6763   1
 -11   4   8 38.7389  7.5192   3
 -10  -4   8 328.665  12.791   1
  10  -4  -8 338.402  14.623   2
  10  -4  -8 340.859  18.764   5
 -10   4   8 325.587  18.170   3
 -10   4   8 323.140  13.587   1
  10   4  -8 318.272  17.685   2
   9  -4  -8 84.9803  7.0880   2
  -9  -4   8 78.8711  6.4923   1
   9  -4  -8 88.5919  9.7090   5
  -9   4   8 81.3388  7.1284   1
   9   4  -8 89.0916  9.8270   2
  -9   4   8 92.7078  9.4428   3
   8  -4  -8 180.832  12.957   5
   8  -4  -8 171.670  10.060   1
   8  -4  -8 178.472   9.964   2
  -8  -4   8 185.652  10.087   1
   8   4  -8 202.645  10.084   1
  -8   4   8 191.502  12.557   3
   8   4  -8 199.775  13.577   2
  -8   4   8 173.555  10.366   1
   7  -4  -8 33.7107  4.9159   1
  -7  -4   8 30.8753  4.3130   1
   7   4  -8 25.3509  6.1619   2
  -7   4   8 33.2381  5.7135   3
  -7   4   8 28.5148  4.8927   1
   7   4  -8 35.7621  4.6964   1
   6  -4  -8 268.431  12.436   1
  -6  -4   8 265.771  12.070   1
   6  -4  -8 277.858  11.861   2
   6  -4  -8 262.233  14.112   5
  -6   4   8 274.188  13.167   3
   6   4  -8 249.981  11.385   1
  -6   4   8 261.644  12.694   1
   6   4  -8 251.769  13.830   2
  -5  -4   8 198.758  10.630   1
   5  -4  -8 202.383  11.854   5
   5  -4  -8 188.710   9.524   2
   5  -4  -8 192.292  10.746   1
   5   4  -8 200.666  11.780   2
  -5   4   8 198.406  11.096   1
  -5   4   8 192.685  10.157   3
   5   4  -8 198.271  10.111   1
   4  -4  -8 184.711   9.260   2
   4  -4  -8 186.460  10.747   5
   4  -4  -8 182.599  10.251   1
  -4  -4   8 191.701  10.121   1
   4   4  -8 195.646  10.292   1
   4   4  -8 188.708  10.926   2
  -4   4   8 193.376  10.784   1
   3  -4  -8 11.7982  3.2315   1
   3  -4  -8 10.4063  2.6648   2
   3  -4  -8 8.67951 3.35256   5
  -3  -4   8 14.6029  3.7668   1
   3   4  -8 15.1496  4.0324   2
  -3   4   8 9.83230 3.69136   1
   2  -4  -8 -1.9412  2.7099   2
  -2  -4   8 3.49923 3.15346   1
   2  -4  -8 4.96824 2.95106   5
  -2   4   8 7.01335 3.47798   1
   1  -4  -8 114.779   8.365   1
  -1  -4   8 119.401   8.226   1
   1  -4  -8 114.280   7.090   5
   1  -4  -8 118.060   7.597   2
   1   4  -8 121.375   7.142   2
  -1   4   8 117.760   8.220   1
   1   4  -8 111.358   8.029   1
   0  -4   8 214.324  10.944   1
   0  -4  -8 207.367  10.000   2
   0  -4  -8 198.555  10.860   1
   0  -4  -8 212.956   8.958   5
   0   4  -8 201.371  10.484   1
   0   4   8 210.780  10.868   1
   0   4  -8 199.311   8.458   2
  -1  -4  -8 23.2685  3.1418   5
  -1  -4  -8 18.2243  3.5087   2
   1  -4   8 26.3593  4.6016   1
  -1  -4  -8 20.9914  4.5492   1
  -1   4  -8 19.8373  2.7601   2
   1   4   8 23.1935  4.0342   1
  -2  -4  -8 44.9300  3.7200   5
   2  -4   8 48.2749  3.7792   2
   2  -4   8 37.0000  4.7405   1
  -2  -4  -8 40.6107  5.4450   1
  -2   4  -8 43.2155  5.4851   1
   2   4   8 41.5520  5.3413   1
  -2   4  -8 49.3331  4.6693   3
  -2   4  -8 45.4625  3.5735   2
  -3  -4  -8 14.4419  3.3901   1
   3  -4   8 20.9623  4.3356   1
   3  -4   8 14.9725  2.0582   2
  -3   4  -8 13.2855  3.4580   3
   3   4   8 9.09681 3.40260   1
  -3   4  -8 13.5148  1.9416   2
   4  -4   8 4.03638 1.10916   2
   4  -4   8 -0.6899  2.8492   1
  -4  -4  -8 0.62755 2.13596   1
  -4   4  -8 4.13815 2.88982   3
   4   4   8 5.51483 2.97721   1
  -4   4  -8 10.4094  3.7928   1
  -4   4  -8 5.00696 1.32811   2
  -5  -4  -8 140.663   9.009   1
   5  -4   8 140.947   4.852   2
   5  -4   8 151.249   9.241   1
  -5   4  -8 135.561   9.096   1
  -5   4  -8 146.960  10.031   3
   5   4   8 148.877   8.894   1
  -6  -4  -8 696.755  20.067   1
   6  -4   8 701.569  20.255   1
  -6   4  -8 696.817  20.785   1
  -6   4  -8 667.800  23.003   3
   6   4   8 710.257  19.694   1
   7  -4   8 -0.4033  2.0825   1
  -7   4  -8 3.94228 2.49679   1
  -7   4  -8 -3.5747  2.9622   3
   7   4   8 1.88851 1.98311   1
  -7   4  -8 -1.7858  1.8394   4
  -8  -4  -8 -0.5305  2.0918   1
  -8  -4  -8 0.03593 2.77644   4
  -8   4  -8 -5.7497  2.4918   4
  -8   4  -8 -3.2385  2.7256   1
  -8   4  -8 -0.8771  3.1515   3
  -9  -4  -8 48.1314  8.1551   4
  -9  -4  -8 65.2588  5.6220   1
  -9   4  -8 73.1835  9.3990   3
  -9   4  -8 73.7288  6.5574   4
  -9   4  -8 60.4534  5.9093   1
 -10  -4  -8 90.5169  5.9097   1
 -10   4  -8 90.7591  6.8450   1
 -10   4  -8 80.0527 10.3177   3
 -11   4  -8 0.33764 4.06967   3
 -12   4  -8 0.34776 5.10010   3
 -13   4  -8 69.0543 11.0211   3
  13  -5  -8 47.1832  8.9344   5
  13   5  -8 27.9481  6.8903   2
 -13   5   8 36.8500  8.2957   3
  12  -5  -8 24.0191  7.0054   5
 -12   5   8 6.03083 5.28045   3
  11   5  -8 8.24535 5.53460   2
 -11   5   8 11.8732  5.6735   3
  10  -5  -8 -2.3608  2.5341   2
 -10  -5   8 -5.7355  2.6500   1
  10  -5  -8 -8.2303  5.1884   5
  10   5  -8 -2.8477  3.8411   2
 -10   5   8 3.58428 2.97264   1
 -10   5   8 3.47742 3.45498   3
  -9  -5   8 26.8964  4.3374   1
   9  -5  -8 25.2812  6.3604   5
   9  -5  -8 28.0463  4.4574   2
  -9   5   8 32.8689  5.2412   1
   9   5  -8 39.0017  7.4693   2
  -9   5   8 21.9843  5.9355   3
  -8  -5   8 -1.4866  2.2933   1
   8  -5  -8 1.87284 3.07107   5
   8  -5  -8 3.74843 2.67252   2
   8   5  -8 4.87422 3.98638   2
  -8   5   8 4.12663 3.81375   3
  -7  -5   8 99.6811  7.9902   1
   7  -5  -8 85.9958  6.9661   2
   7  -5  -8 94.0107  9.5467   5
   7  -5  -8 85.9919  7.6192   1
  -7   5   8 81.0125  8.1955   3
  -7   5   8 94.5472  8.3972   1
   7   5  -8 102.209   7.770   1
   7   5  -8 94.8788  9.1090   2
  -6  -5   8 184.775  10.758   1
   6  -5  -8 188.527   9.808   2
   6  -5  -8 191.886  11.362   1
   6  -5  -8 167.053  11.412   5
   6   5  -8 173.378  11.634   2
  -6   5   8 173.043  11.077   3
   6   5  -8 166.989  10.025   1
  -6   5   8 166.706  10.859   1
  -5  -5   8 247.013  12.451   1
   5  -5  -8 240.990  12.485   1
   5  -5  -8 235.774  12.839   5
   5  -5  -8 250.669  11.145   2
   5   5  -8 244.584  12.033   1
  -5   5   8 227.325  12.649   1
   5   5  -8 244.933  13.501   2
   4  -5  -8 115.972   7.690   2
   4  -5  -8 119.958   9.168   5
   4  -5  -8 114.065   9.102   1
  -4  -5   8 114.923   8.573   1
   4   5  -8 113.181   9.077   2
   4   5  -8 126.946   8.811   1
  -4   5   8 126.236   9.198   1
   3  -5  -8 44.6458  5.7257   5
  -3  -5   8 31.0745  4.7654   1
   3  -5  -8 39.5350  4.5632   2
   3  -5  -8 39.8702  5.6729   1
  -3   5   8 38.2335  5.7968   1
   3   5  -8 32.5463  5.1247   2
   3   5  -8 45.2802  5.9432   1
  -2  -5   8 106.720   8.173   1
   2  -5  -8 136.472   8.315   2
   2  -5  -8 113.465   8.970   1
   2  -5  -8 118.025   8.159   5
   2   5  -8 119.583   8.104   2
   2   5  -8 126.270   9.092   1
  -2   5   8 125.734   9.259   1
   1  -5  -8 277.877  12.088   2
   1  -5  -8 278.128  11.607   5
   1  -5  -8 277.889  13.561   1
  -1  -5   8 276.380  13.196   1
   1   5  -8 276.675  13.232   1
  -1   5   8 256.709  12.854   1
   1   5  -8 284.436  11.372   2
   0  -5  -8 1.56229 2.18013   2
   0  -5   8 1.93370 3.04802   1
   0  -5  -8 9.50796 3.88367   1
   0  -5  -8 7.27673 2.66228   5
   0   5  -8 9.40207 3.95925   1
   0   5  -8 3.42048 2.29237   2
   0   5   8 -0.0531  2.2626   1
  -1  -5  -8 20.8696  4.6098   1
   1  -5   8 18.7471  4.2799   1
  -1  -5  -8 19.4583  3.2749   5
  -1   5  -8 16.4967  4.3993   1
   1   5   8 15.7748  3.9557   1
  -1   5  -8 13.9266  2.5896   2
  -2  -5  -8 115.676   8.912   1
   2  -5   8 128.165   9.255   1
  -2  -5  -8 126.758   6.827   5
  -2   5  -8 126.873   9.356   1
  -2   5  -8 121.750   5.727   2
   2   5   8 108.807   8.404   1
  -3  -5  -8 14.5296  3.6906   1
   3  -5   8 11.4861  3.8455   1
  -3   5  -8 13.4306  4.0429   1
  -3   5  -8 17.3595  2.1179   2
  -3   5  -8 8.45614 3.31704   3
   3   5   8 15.5500  4.1425   1
  -4  -5  -8 7.57372 3.05645   1
   4  -5   8 1.23518 2.92927   1
   4   5   8 3.91317 3.06847   1
  -4   5  -8 -2.6694  3.3887   1
  -4   5  -8 4.49581 1.04322   2
   5  -5   8 24.7035  4.7237   1
  -5  -5  -8 23.8290  4.8005   1
  -5   5  -8 16.5750  4.7164   3
  -5   5  -8 26.2049  4.7407   1
   5   5   8 23.7351  4.5086   1
  -6  -5  -8 219.439  11.604   1
   6  -5   8 211.829  11.474   1
  -6   5  -8 216.185   8.240   4
   6   5   8 232.732  11.526   1
  -6   5  -8 211.796  13.197   3
  -6   5  -8 216.208  12.006   1
  -7  -5  -8 8.77814 3.39037   1
  -7   5  -8 13.1252  4.9717   3
  -7   5  -8 3.59250 3.14092   1
   8  -5   8 150.596   7.426   5
  -8  -5  -8 152.513   9.381   1
  -8   5  -8 153.427  12.790   3
  -8   5  -8 142.314   9.644   1
  -9  -5  -8 50.3997  5.4377   1
  -9  -5  -8 41.4046  7.8328   4
  -9   5  -8 49.7929  8.3590   3
  -9   5  -8 49.5800  5.8370   1
 -10  -5  -8 23.9405  3.6974   1
 -10   5  -8 20.1134  4.0480   1
 -10   5  -8 34.3308  7.8990   3
 -11   5  -8 -5.4952  4.4359   3
 -12   5  -8 2.79251 5.66981   3
 -13  -5  -8 -0.1592  5.2967   4
 -13   5  -8 7.58456 5.60688   3
  13  -6  -8 -5.1962  5.0829   5
 -13   6   8 -7.8598  5.7181   3
  13   6  -8 -7.3863  5.4984   2
 -12   6   8 10.1223  5.9443   3
  12   6  -8 5.71994 5.59952   2
  11  -6  -8 -2.0394  5.0870   5
 -11   6   8 -3.7799  5.0671   3
 -11   6   8 3.56348 3.22462   1
  10  -6  -8 17.8305  3.8380   2
 -10  -6   8 12.2800  3.4525   1
  10  -6  -8 11.2307  5.6576   5
 -10   6   8 16.8406  4.3461   1
 -10   6   8 14.3800  4.9375   3
  -9  -6   8 3.45343 2.89525   1
   9  -6  -8 4.60177 4.66779   5
   9  -6  -8 2.93775 2.48348   2
  -9   6   8 -3.9332  4.4647   3
   9   6  -8 6.87004 5.19068   2
   8  -6  -8 51.5265  7.4007   5
   8  -6  -8 44.5196  5.3678   2
   8  -6  -8 48.5910  6.4003   1
  -8  -6   8 59.1640  6.6225   1
   8   6  -8 62.3677  8.6221   2
  -8   6   8 55.1153  6.7100   1
  -8   6   8 54.1502  8.1153   3
  -7  -6   8 56.6670  6.5921   1
   7  -6  -8 56.2123  5.7644   2
   7  -6  -8 56.5356  7.9056   5
   7  -6  -8 60.5528  6.9600   1
  -7   6   8 59.5393  7.1950   1
   7   6  -8 46.6546  5.8405   1
   7   6  -8 64.0889  8.0057   2
  -7   6   8 59.3243  7.7877   3
   6  -6  -8 64.0134  7.3403   1
   6  -6  -8 79.8600  8.6367   5
   6  -6  -8 72.1273  6.4212   2
  -6  -6   8 71.4711  7.2917   1
   6   6  -8 73.8758  8.0736   2
   6   6  -8 70.6357  7.0086   1
  -6   6   8 75.1736  7.9401   3
  -6   6   8 69.8115  7.8773   1
  -5  -6   8 5.60919 3.94857   1
   5  -6  -8 9.60767 4.74039   5
   5  -6  -8 8.24276 3.32531   1
  -5   6   8 5.80300 4.17539   1
  -4  -6   8 341.109  15.243   1
   4  -6  -8 360.844  15.871   5
   4  -6  -8 347.828  13.693   2
   4  -6  -8 350.521  16.055   1
   4   6  -8 363.727  16.098   2
   4   6  -8 360.645  15.693   1
  -4   6   8 353.664  16.417   1
   3  -6  -8 110.360   8.700   5
  -3  -6   8 106.607   8.798   1
   3  -6  -8 111.774   7.747   2
   3  -6  -8 132.190  10.133   1
   3   6  -8 120.648   9.163   2
   3   6  -8 109.215   8.901   1
  -3   6   8 137.162  10.395   1
   2  -6  -8 21.6038  5.3019   1
   2  -6  -8 23.8121  4.2162   5
   2  -6  -8 25.0988  4.6113   2
  -2  -6   8 26.5109  4.8110   1
   2   6  -8 17.7513  4.3553   2
   2   6  -8 24.3296  5.1779   1
  -2   6   8 22.7822  4.7671   1
  -1  -6   8 258.771  13.566   1
   1  -6  -8 250.094  12.225   2
   1  -6  -8 258.476  11.664   5
   1  -6  -8 252.277  13.679   1
  -1   6   8 252.065  13.665   1
   1   6  -8 259.955  11.509   2
   1   6  -8 251.713  13.403   1
   0  -6  -8 317.488  15.275   1
   0  -6   8 305.570  14.762   1
   0  -6  -8 324.226  12.553   5
   0   6  -8 312.249  11.646   2
   0   6  -8 333.175  15.489   1
   0   6   8 310.802  15.082   1
  -1  -6  -8 12.3923  4.6665   1
   1   6   8 19.2178  4.8815   1
  -1   6  -8 10.0485  1.9086   4
  -1   6  -8 15.5629  2.8492   2
  -2  -6  -8 -3.8342  2.5575   5
  -2  -6  -8 -5.3332  3.9984   1
   2  -6   8 -2.8019  3.7638   1
  -2   6  -8 -7.2131  4.4711   1
  -2   6  -8 -3.9982  1.8377   2
   2   6   8 -7.1170  3.6363   1
   3  -6   8 18.9790  4.5117   1
  -3  -6  -8 33.8378  6.0522   1
  -3   6  -8 23.1491  4.3608   3
   3   6   8 24.6460  5.0001   1
  -3   6  -8 33.4340  5.9301   1
  -3   6  -8 30.7023  2.6544   2
  -4  -6  -8 379.303  16.403   1
   4  -6   8 382.003  16.692   1
  -4   6  -8 354.131  16.014   3
  -4   6  -8 374.358  16.617   1
   4   6   8 368.807  15.834   1
   5  -6   8 0.84732 3.17760   1
  -5   6  -8 -1.1053  3.6362   3
  -5   6  -8 -8.3818  4.2392   1
   5   6   8 4.51516 2.58353   1
  -6  -6  -8 30.7448  5.3320   1
   6  -6   8 22.3424  4.8323   1
   6   6   8 24.1056  4.5845   1
  -6   6  -8 28.4460  5.7731   3
  -6   6  -8 29.6605  5.1300   1
   7  -6   8 86.8480  8.0373   1
  -7  -6  -8 84.6599  7.7952   1
  -7   6  -8 101.691  10.367   3
  -7   6  -8 98.5590  8.7974   1
  -8  -6  -8 4.45339 3.03325   1
  -8  -6  -8 -9.6014  4.5393   4
  -8   6  -8 -0.3064  3.1760   1
  -8   6  -8 0.27116 4.25481   3
  -9  -6  -8 56.6264  6.0939   1
  -9  -6  -8 53.0271  8.2805   4
  -9   6  -8 53.0007  6.6520   1
  -9   6  -8 46.8646  8.5623   3
 -10  -6  -8 6.14146 4.37709   4
 -10  -6  -8 2.37841 2.31252   1
 -10   6  -8 0.59070 4.89018   3
 -10   6  -8 5.34859 2.83124   1
 -11  -6  -8 37.8472  8.2097   4
 -11   6  -8 19.2078  7.0903   3
 -11   6  -8 19.5253  4.2146   1
 -12   6  -8 0.55294 3.63599   3
  12  -7  -8 71.6301 10.5401   5
 -12   7   8 63.2117 10.2464   3
 -12   7   8 62.1462  7.1510   1
  11  -7  -8 24.1548  7.0406   5
 -11  -7   8 26.7103  4.6177   1
  11   7  -8 27.5262  6.7717   2
 -11   7   8 25.8032  5.3975   1
 -11   7   8 25.4710  7.4275   3
  10  -7  -8 -7.5161  5.5486   5
 -10   7   8 6.80635 4.11566   1
 -10   7   8 -10.253   5.582   3
  10   7  -8 1.10480 5.14585   2
   9  -7  -8 46.4921  5.4733   2
   9  -7  -8 60.4060  8.8869   5
  -9  -7   8 48.2682  6.4012   1
  -9   7   8 51.7338  7.0689   1
  -9   7   8 53.0729  8.6379   3
   9   7  -8 45.0452  7.6947   2
   8  -7  -8 -3.6380  3.6406   5
   8  -7  -8 -4.5079  2.8008   1
  -8  -7   8 1.86784 3.08745   1
   8  -7  -8 3.41500 2.61593   2
   8   7  -8 -8.0286  5.4746   2
  -8   7   8 0.55936 3.47950   1
   7  -7  -8 8.25148 3.25920   2
   7  -7  -8 -0.0907  3.1110   1
   7  -7  -8 -3.2028  4.4721   5
  -7  -7   8 2.06111 3.32594   1
   7   7  -8 6.80903 4.86109   2
   7   7  -8 1.66556 2.54380   1
  -7   7   8 -1.5420  3.6877   3
  -7   7   8 -1.0999  3.7163   1
  -6  -7   8 5.53709 3.12533   1
   6  -7  -8 3.38038 2.84782   1
   6  -7  -8 0.26828 3.89516   5
   6  -7  -8 0.30425 2.64707   2
   6   7  -8 1.34660 3.89366   2
   6   7  -8 1.14752 3.06890   1
  -6   7   8 1.75089 3.83130   1
   5  -7  -8 141.314  10.852   5
  -5  -7   8 136.438  10.490   1
   5  -7  -8 135.294  10.614   1
   5  -7  -8 144.705   9.159   2
   5   7  -8 143.360  10.425   1
  -5   7   8 149.220  11.280   1
   5   7  -8 139.100  11.153   2
   4  -7  -8 -0.7373  2.7032   2
   4  -7  -8 0.74673 2.61966   5
   4  -7  -8 10.4275  4.2432   1
  -4  -7   8 -0.4576  3.4904   1
   4   7  -8 1.61096 3.44958   1
   4   7  -8 -2.9619  3.8614   2
  -4   7   8 0.42402 3.44128   1
   3  -7  -8 29.7414  4.8840   2
   3  -7  -8 28.3431  5.7618   1
   3  -7  -8 38.0263  5.8393   5
   3   7  -8 44.2600  6.1115   2
   3   7  -8 27.2414  5.6318   1
  -2  -7   8 125.100  10.171   1
   2  -7  -8 135.256   9.406   2
   2  -7  -8 118.627   8.743   5
   2  -7  -8 124.529  10.453   1
   2   7  -8 116.957   9.487   1
  -2   7   8 134.430  10.492   1
   2   7  -8 133.954   9.301   2
   1  -7  -8 478.988  17.060   5
  -1  -7   8 468.905  19.127   1
   1   7  -8 464.887  16.213   2
   1   7  -8 475.608  19.309   1
  -1   7   8 466.728  19.580   1
   0  -7  -8 33.9283  5.1689   5
   0  -7   8 40.9240  5.9052   1
   0   7  -8 39.8000  6.3286   1
   0   7   8 42.6104  6.5728   1
   0   7  -8 41.6080  4.8167   2
  -1  -7  -8 44.2270  5.4976   5
  -1  -7  -8 45.2949  6.8755   1
   1  -7   8 46.4791  6.3356   1
   1   7   8 43.4930  6.7973   1
  -1   7  -8 28.2858  5.8589   1
  -1   7  -8 36.3235  4.0040   2
   2  -7   8 37.9404  5.9721   1
  -2  -7  -8 45.5744 20.1714   1
   2   7   8 36.2521  6.3199   1
  -2   7  -8 51.0459  4.1196   2
  -2   7  -8 39.3883  6.7506   1
   3  -7   8 44.1277  6.6097   1
  -3   7  -8 50.4627  3.3858   2
   3   7   8 39.5556  6.3597   1
  -3   7  -8 47.7623  7.1229   1
   4  -7   8 52.5846  6.8913   1
   4   7   8 63.0448  7.3451   1
  -4   7  -8 63.9333  7.7838   1
  -4   7  -8 60.4561  7.3166   3
  -5   7  -8 18.3563  5.1712   1
  -5   7  -8 16.9646  5.2452   3
   5   7   8 21.0811  4.5837   1
   6  -7   8 133.983  10.477   1
  -6  -7  -8 130.640  10.219   1
  -6   7  -8 118.374  10.329   1
   6   7   8 130.891   9.804   1
  -6   7  -8 128.183  11.294   3
   7  -7   8 14.0443  4.2518   1
  -7  -7  -8 19.4697  5.0900   4
  -7  -7  -8 19.2562  4.6683   1
  -7   7  -8 16.2545  5.7155   3
  -8  -7  -8 0.00000 2.70746   1
  -8  -7  -8 4.35308 4.03734   4
  -8   7  -8 4.07611 3.82461   1
  -8   7  -8 -11.714   5.437   3
  -9  -7  -8 29.1892  5.0638   1
  -9   7  -8 35.8526  6.0008   1
  -9   7  -8 30.7619  7.1631   3
 -10  -7  -8 35.7031  5.1394   1
 -10   7  -8 38.1832  8.2298   3
 -10   7  -8 35.8141  5.9168   1
 -11   7  -8 160.645  16.073   3
 -11   7  -8 170.312  11.329   1
 -12  -7  -8 4.87179 4.83908   4
 -12   7  -8 -12.328   7.150   3
 -12   8   8 28.4602  8.2492   3
 -12   8   8 18.8881  4.9523   1
  11  -8  -8 54.8990  9.3887   5
 -11  -8   8 54.9369  6.7026   1
 -11   8   8 46.7579  9.4800   3
 -11   8   8 67.2486  8.1644   1
 -10  -8   8 4.40559 3.25611   1
  10  -8  -8 10.0907  4.9839   5
 -10   8   8 5.96002 4.18335   3
 -10   8   8 2.08323 3.40036   1
  10   8  -8 1.91886 3.85433   2
  -9  -8   8 51.9351  6.9931   1
   9  -8  -8 68.4584  9.5359   5
  -9   8   8 46.0424  8.4990   3
  -9   8   8 49.7761  7.3598   1
   9   8  -8 48.3649  8.7876   2
   8  -8  -8 4.04416 5.05235   5
  -8  -8   8 0.41435 3.41687   1
  -8   8   8 -0.1237  3.5662   1
  -8   8   8 0.92961 4.01863   3
   8   8  -8 6.09303 4.22026   2
  -7  -8   8 -8.2582  4.3499   1
   7  -8  -8 0.01177 4.58259   5
   7  -8  -8 -7.7799  4.1797   1
   7  -8  -8 3.81505 2.75136   2
  -7   8   8 -2.3475  3.1591   3
   7   8  -8 7.16331 3.88889   1
   7   8  -8 2.22086 4.76621   2
  -6  -8   8 76.6747  8.5705   1
   6  -8  -8 84.4192  7.3613   2
   6  -8  -8 84.6133  9.5297   5
   6   8  -8 73.1209  9.3272   2
   6   8  -8 79.9753  8.1941   1
   5  -8  -8 139.691  11.176   5
   5  -8  -8 155.601   9.886   2
  -5  -8   8 155.512  11.820   1
   5   8  -8 146.609  11.867   2
   5   8  -8 151.225  11.344   1
   4  -8  -8 30.4645  5.0620   2
   4  -8  -8 30.4583  6.1309   5
  -4  -8   8 35.3063  6.4715   1
   4   8  -8 45.4262  6.7158   2
   4   8  -8 39.6089  6.5223   1
  -3  -8   8 -3.5039  4.2913   1
   3  -8  -8 2.63115 3.69277   5
   3   8  -8 2.25082 3.39234   2
  -3   8   8 -4.1578  3.3162   1
  -2  -8   8 0.50259 3.59301   1
   2  -8  -8 1.83236 3.60328   5
   2   8  -8 5.46605 3.14859   1
   2   8  -8 0.55613 3.08229   2
  -2   8   8 -1.8965  4.0901   1
  -1  -8   8 15.2997  4.9940   1
   1  -8  -8 12.4203  4.1508   5
   1  -8  -8 8.06111 4.40426   1
   1   8  -8 8.26816 4.37374   1
   0  -8  -8 6.13980 3.70276   5
   0  -8   8 14.2823  4.3380   1
   0  -8  -8 2.96543 3.57546   1
   0   8  -8 10.4322  3.2332   2
   1  -8   8 24.3127  5.3400   1
  -1  -8  -8 23.8098  4.9633   5
   1   8   8 29.6738  6.2504   1
  -1   8  -8 23.7752  3.7035   2
  -1   8  -8 21.9889  5.8814   1
   2  -8   8 23.7906  5.6600   1
  -2   8  -8 23.1225  3.0490   2
   2   8   8 20.5080  4.9356   1
  -2   8  -8 22.2719  5.7653   1
   3  -8   8 316.278  16.670   1
  -3   8  -8 331.265  17.346   1
  -4  -8  -8 73.3727  8.6329   1
   4  -8   8 66.4420  8.0735   1
  -4   8  -8 62.9793  8.0948   3
  -4   8  -8 70.9469  8.7726   1
   5  -8   8 275.269  15.455   1
  -5   8  -8 263.817  15.847   1
  -5   8  -8 274.587  16.346   3
   6  -8   8 69.2999  8.0101   1
  -6   8  -8 70.2289  9.3893   3
   6   8   8 75.5280  8.0595   1
  -6   8  -8 68.3189  8.5873   1
   7  -8   8 12.3751  4.4507   1
  -7  -8  -8 16.3031  5.1843   4
  -7   8  -8 18.0474  5.4816   1
  -7   8  -8 19.0397  6.1070   3
  -8  -8  -8 0.68542 4.52384   4
  -8  -8  -8 5.16323 3.66554   1
  -8   8  -8 7.31057 3.99052   1
  -8   8  -8 7.32857 5.65039   3
  -9  -8  -8 69.2820  7.7412   1
  -9   8  -8 65.3862 10.5302   3
  -9   8  -8 67.9563  8.5104   1
 -10  -8  -8 46.9434  6.2686   1
 -10   8  -8 38.5971  9.3673   3
 -10   8  -8 55.1966  7.6496   1
 -11  -8  -8 81.9101 11.5746   4
 -11   8  -8 91.5518  9.2661   1
 -11   8  -8 74.4430 11.9358   3
  11  -9  -8 54.7935  9.6907   5
 -11   9   8 71.4858 11.4197   3
  10  -9  -8 -6.1775  5.7450   5
 -10  -9   8 5.17905 3.78436   1
 -10   9   8 -2.9255  4.7828   3
 -10   9   8 -0.9750  3.6699   1
  10   9  -8 0.62952 4.96687   2
  -9  -9   8 4.59875 3.46279   1
   9  -9  -8 -1.5324  4.7324   5
   9   9  -8 0.72461 4.99207   2
  -9   9   8 1.47985 5.02209   3
  -9   9   8 -1.3114  3.4940   1
   8  -9  -8 19.6786  6.4248   5
  -8  -9   8 32.0098  5.8381   1
   8   9  -8 17.9600  6.3991   2
  -8   9   8 28.3319  7.0314   3
   7  -9  -8 -1.6866  3.5570   1
  -7  -9   8 -2.6028  4.1218   1
   7  -9  -8 -0.9625  3.3963   5
  -7   9   8 3.09929 3.45227   1
   7   9  -8 6.03137 5.33474   2
  -7   9   8 -4.0873  4.3160   3
  -6  -9   8 51.2559  7.8258   1
   6  -9  -8 56.5526  8.3903   5
   6   9  -8 57.0826  7.3505   1
   6   9  -8 58.7454  8.7420   2
  -5  -9   8 40.3327  7.1590   1
   5  -9  -8 38.6992  6.2833   5
   5   9  -8 33.7344  6.4442   1
   5   9  -8 47.3220  7.8066   2
   4  -9  -8 6.53672 4.51190   1
   4  -9  -8 -3.7443  4.1388   5
  -4  -9   8 -6.4280  4.6838   1
   4   9  -8 -2.4987  3.7902   2
  -4   9   8 4.77540 3.55553   1
   4   9  -8 -5.5897  4.3121   1
   3   9  -8 13.5007  4.7809   2
   2  -9  -8 234.728  13.694   5
  -2  -9   8 230.167  14.755   1
   2   9  -8 240.869  15.364   1
  -2   9   8 256.797  15.983   1
   2   9  -8 220.990  12.907   2
  -1  -9   8 -6.1180  4.8250   1
   1  -9  -8 0.38620 2.58908   5
   1   9  -8 0.69732 3.11421   1
   1   9  -8 -2.4724  3.1513   2
  -1   9   8 0.54784 3.56523   1
   0  -9   8 15.2276  5.4001   1
   0  -9  -8 12.3244  4.4317   5
   0   9  -8 17.1941  5.6591   1
   0   9   8 13.5954  4.8720   1
  -1  -9  -8 -0.1618  3.7792   1
   1  -9   8 -8.5270  4.8377   1
  -1   9  -8 -4.4698  4.6682   1
   2  -9   8 22.2981  5.8705   1
  -2   9  -8 18.4336  5.5968   1
  -3   9  -8 11.2000  5.2620   1
   3   9   8 6.74965 3.82918   1
   4  -9   8 115.363  11.064   1
  -4   9  -8 119.443  11.539   1
   5  -9   8 2.35404 3.87403   1
  -5   9  -8 -0.2271  4.1514   1
  -6  -9  -8 101.617  10.193   1
   6  -9   8 96.4233 10.1008   1
  -6   9  -8 113.027  11.343   1
  -6   9  -8 90.1796 10.9622   3
  -7   9  -8 19.7250  6.0764   1
  -7   9  -8 19.8921  6.1296   3
  -8  -9  -8 49.2265  8.6481   4
  -8   9  -8 62.4005  8.3824   1
  -8   9  -8 70.6979 10.7835   3
  -9   9  -8 44.3040  9.3748   3
  -9   9  -8 44.0734  7.5422   1
 -10  -9  -8 8.96567 3.82412   1
 -10   9  -8 9.40277 6.35150   3
 -10   9  -8 16.4823  5.5782   1
  10 -10  -8 9.59103 5.81165   5
  -9 -10   8 7.97762 4.41853   1
   9 -10  -8 18.8281  6.3725   5
   8 -10  -8 4.44183 4.92707   5
   8  10  -8 13.1404  6.1464   2
  -8  10   8 6.75883 4.74170   1
  -8  10   8 4.69399 5.08113   3
  -7 -10   8 49.8518  7.9943   1
  -7  10   8 49.6923  8.6160   3
   7  10  -8 75.0208 10.3320   2
  -6 -10   8 119.646  11.586   1
   6 -10  -8 133.054  12.292   5
   6  10  -8 125.549  11.560   1
   6  10  -8 125.963  12.451   2
   5 -10  -8 2.34203 4.52421   5
  -5 -10   8 12.0475  4.5081   1
  -5  10   8 6.22218 4.24335   1
   5  10  -8 5.95991 4.79464   2
   5  10  -8 12.6634  5.1453   1
  -4 -10   8 51.3173  7.6969   1
   4 -10  -8 61.5034  8.6141   1
   4  10  -8 47.1651  7.7093   1
   4  10  -8 59.0035  8.2292   2
  -3 -10   8 23.4406  6.4519   1
   3  10  -8 4.57363 4.70455   1
   2 -10  -8 18.7035  5.3991   1
  -2 -10   8 20.9755  6.1581   1
   2 -10  -8 18.2415  4.6345   5
   2  10  -8 28.3009  6.1039   1
   2  10  -8 26.5661  5.3641   2
   1 -10  -8 -2.5555  3.8018   1
   1 -10  -8 -2.2745  3.0812   5
   1  10  -8 2.00145 3.01659   2
   1  10  -8 -9.2449  5.3124   1
  -1  10   8 1.57302 4.20991   1
   0 -10   8 81.9836  9.9027   1
   0 -10  -8 84.5598  8.7231   5
   0 -10  -8 83.8249 10.0104   1
   0  10  -8 86.7065 10.3261   1
   0  10  -8 84.3466  7.4168   2
  -1 -10  -8 0.36446 3.46808   1
   1 -10   8 1.04557 3.89057   1
  -1  10  -8 2.05247 4.76191   1
   2 -10   8 32.4934  7.1994   1
  -2  10  -8 42.9096  7.9582   1
   3 -10   8 12.0893  5.4329   1
  -3 -10  -8 2.13942 3.45316   1
  -3  10  -8 -3.0059  4.3208   1
   4 -10   8 283.324  17.561   1
   4  10   8 276.404  16.832   1
  -4  10  -8 262.074  17.469   1
  -5  10  -8 1.55836 3.65766   1
   5  10   8 -0.0927  2.6255   1
  -6 -10  -8 68.4517  9.2632   4
   6 -10   8 77.8946  9.7763   1
  -6 -10  -8 66.4839  8.8537   1
  -6  10  -8 87.4810 10.8127   3
  -6  10  -8 72.6103  9.4352   1
  -7  10  -8 14.1794  4.9771   1
  -8 -10  -8 2.70875 3.92211   4
  -8  10  -8 1.96950 5.34288   3
  -8  10  -8 2.94873 4.68613   1
  -9 -10  -8 1.18201 5.31699   4
  -9 -10  -8 -4.2334  3.8300   1
  -9  10  -8 6.58434 4.65540   1
  -9  10  -8 -1.1400  5.1701   3
  -9 -11   8 3.23704 4.04232   1
  -9  11   8 0.75031 4.91160   3
   8 -11  -8 6.15826 4.19451   5
  -8 -11   8 14.2116  5.6647   1
   8  11  -8 9.25150 4.93014   2
  -8  11   8 17.6657  6.5874   3
  -7 -11   8 -4.2678  4.4737   1
   7 -11  -8 9.42179 5.65140   5
   7  11  -8 9.60675 5.85017   2
   6 -11  -8 0.63279 4.58030   5
  -6 -11   8 -1.9704  4.3123   1
   6  11  -8 -7.8760  5.4654   2
  -5 -11   8 0.09408 4.45509   1
   5 -11  -8 -3.1123  4.8825   5
   5  11  -8 5.85363 4.65964   2
  -5  11   8 -8.6591  5.2999   1
   5  11  -8 -0.1017  2.9346   1
   4 -11  -8 8.23868 5.02737   5
   4 -11  -8 -1.9125  3.4439   1
   4  11  -8 4.94149 3.67315   2
   4  11  -8 3.75451 4.37195   1
  -3 -11   8 22.6079  6.2607   1
   3  11  -8 24.1736  5.9356   2
   3  11  -8 30.0150  7.1056   1
   2 -11  -8 -5.7616  5.2870   1
   2 -11  -8 -0.1346  3.1165   5
  -2 -11   8 -1.5963  4.7663   1
   2  11  -8 -6.3477  3.9461   2
   2  11  -8 4.83508 4.47539   1
   1 -11  -8 57.3133  7.9812   5
   1 -11  -8 64.3669  9.3274   1
  -1 -11   8 70.6413  9.8328   1
   1  11  -8 66.7003  9.7404   1
   0 -11   8 -2.6158  3.4539   1
   1 -11   8 91.9877 10.6192   1
  -1  11  -8 81.4978 10.6631   1
   2 -11   8 -3.4545  4.2586   1
  -2  11  -8 4.44796 4.80033   1
  -3 -11  -8 11.0558  5.4225   1
   3 -11   8 2.81773 4.54697   1
  -3  11  -8 17.7581  6.4498   1
  -4 -11  -8 -1.8519  4.8795   1
  -4 -11  -8 -4.4560  4.6927   4
   4 -11   8 1.24604 3.48095   1
   4  11   8 -2.4964  3.8804   1
  -4  11  -8 -4.0653  5.2061   1
  -5 -11  -8 89.1014 10.2739   4
   5 -11   8 104.563  11.711   1
  -5  11  -8 99.3557 11.9976   3
  -5  11  -8 113.871  12.203   1
   6 -11   8 -0.4105  3.8484   1
  -6 -11  -8 3.48162 4.88609   4
  -6 -11  -8 -7.6200  5.1469   1
  -6  11  -8 -2.2250  4.9407   1
  -6  11  -8 3.19293 5.53901   3
  -7 -11  -8 71.3002 10.0476   4
  -7  11  -8 95.3387 11.6512   1
  -7  11  -8 85.9976 12.1151   3
  -8 -11  -8 0.06212 4.87730   4
  -8 -11  -8 4.53141 4.15814   1
  -8  11  -8 16.2215  6.2699   3
  -8  11  -8 11.8950  4.7811   1
  -7 -12   8 22.2205  6.0855   1
   7  12  -8 31.6206  7.6460   2
   6 -12  -8 -4.8130  5.2805   5
   6  12  -8 3.03993 3.70439   2
  -5 -12   8 23.0163  6.7859   1
   5 -12  -8 14.2332  6.0649   5
   5  12  -8 33.4987  6.9777   1
   5  12  -8 19.0274  6.1200   2
   4 -12  -8 21.4779  5.7765   5
  -4 -12   8 13.2055  5.4910   1
   4  12  -8 19.7051  6.3688   1
   4  12  -8 25.1417  6.3455   2
   3 -12  -8 24.2707  6.6475   5
  -3 -12   8 25.0377  7.1119   1
   3  12  -8 24.1957  5.5574   2
   2 -12  -8 -5.2948  4.2282   5
  -2 -12   8 -3.2406  4.9852   1
   2  12  -8 2.73130 3.77940   1
   1 -12  -8 3.79400 3.95573   1
   1  12  -8 5.42587 5.28182   1
   0 -12   8 -0.6008  4.4085   1
   0  12  -8 8.81348 5.43576   1
   1 -12   8 44.4669  8.5130   1
  -1  12  -8 67.8614 10.3207   1
   2 -12   8 133.353  13.725   1
  -2  12  -8 99.2947 12.3845   1
  -3 -12  -8 44.7443  7.6385   4
  -3 -12  -8 45.8186  8.6244   1
   3 -12   8 38.8272  8.4063   1
  -3  12  -8 30.8121  7.7454   1
  -4 -12  -8 20.6933  6.1275   4
   4 -12   8 7.91149 5.00353   1
  -4  12  -8 23.2126  7.4004   1
   4  12   8 9.43796 4.52972   1
   5 -12   8 6.53148 5.21852   1
  -5 -12  -8 6.22605 4.66952   4
  -5  12  -8 20.9240  6.8089   3
  -6 -12  -8 2.03856 4.16598   4
  -6  12  -8 6.80314 5.72930   1
  -6  12  -8 18.4460  7.1484   3
   4 -13  -8 28.1506  6.6589   5
  -4  13   8 39.6103  8.4958   1
   3 -13  -8 69.8152 10.0905   5
  -2 -13   8 -6.6237  4.5391   1
   1 -13  -8 2.89273 4.03707   1
   0 -13  -8 3.32786 4.11316   1
  -1 -13  -8 6.46164 5.57064   1
  -3 -13  -8 -0.7757  3.7816   1
  14   0  -9 10.5163  6.1845   5
 -13   0   9 29.8620  6.7268   3
  12   0  -9 -0.8878  3.6967   2
  12   0  -9 -6.4083  4.1644   5
 -12   0   9 0.39782 3.62402   3
 -11   0   9 205.998   8.898   1
  11   0  -9 205.870  15.292   5
  11   0  -9 218.641  13.812   2
 -11   0   9 210.617  13.695   3
 -10   0   9 -4.3854  3.3126   3
  10   0  -9 -1.4756  3.8344   2
  10   0  -9 1.47796 3.60704   5
  -9   0   9 20.5977  3.5151   1
   9   0  -9 20.8185  5.0403   2
  -9   0   9 21.1229  4.6115   3
  -8   0   9 -2.9680  2.7225   3
   8   0  -9 -4.6107  3.9910   2
  -8   0   9 1.74473 2.32155   1
   8   0  -9 3.76579 3.31754   5
   8   0  -9 -5.6448  2.4741   1
   7   0  -9 69.6714  5.9981   1
  -7   0   9 66.9658  5.9260   3
   7   0  -9 70.4544  7.9742   5
   7   0  -9 75.5401  7.2341   2
  -7   0   9 78.3236  6.5643   1
   6   0  -9 5.33184 3.04761   2
  -6   0   9 9.22210 3.15674   1
   6   0  -9 2.17150 2.52196   1
   6   0  -9 -7.6424  4.4559   5
  -6   0   9 2.96941 2.23914   3
   5   0  -9 82.3089  6.3583   1
  -5   0   9 75.9059  6.5265   1
   5   0  -9 75.4836  7.1054   5
  -5   0   9 73.7430  4.8998   3
   5   0  -9 74.6063  6.8479   2
  -4   0   9 2.17846 2.22945   1
  -4   0   9 -0.5181  1.0396   3
   4   0  -9 -3.1606  2.3169   2
   4   0  -9 -0.4612  2.3063   1
   3   0  -9 981.312  22.280   2
   3   0  -9 966.286  22.653   1
  -3   0   9 960.437  22.896   1
  -3   0   9 969.771  14.371   3
   2   0  -9 0.96293 1.68784   1
   2   0  -9 -4.2279  2.7230   2
  -2   0   9 -0.9023  2.4518   1
   1   0  -9 156.547   7.772   2
   1   0  -9 161.124   7.621   5
   1   0  -9 151.871   8.588   1
  -1   0   9 151.247   8.550   1
   0   0   9 -0.4183  2.1785   1
   0   0  -9 3.04697 1.73583   2
   0   0  -9 0.23236 1.20582   5
   0   0  -9 3.16414 1.92809   1
  -1   0  -9 224.572  10.318   1
   1   0   9 214.285  10.273   1
   1   0   9 218.574   6.389   3
  -1   0  -9 218.867   9.013   2
  -1   0  -9 225.155   6.975   5
  -2   0  -9 3.41854 2.48888   1
   2   0   9 -1.1793  1.5780   1
  -2   0  -9 -4.6018  2.3742   2
   2   0   9 -0.5509  0.9720   3
  -2   0  -9 -0.9754  0.6844   5
  -3   0  -9 46.9264  4.1098   3
  -3   0  -9 46.6855  4.6160   2
  -3   0  -9 44.7882  4.9076   1
  -4   0  -9 -3.0492  2.2662   2
   4   0   9 -0.9504  1.9672   1
  -4   0  -9 2.05925 2.11669   3
  -4   0  -9 1.18869 1.82208   1
   5   0   9 7.82495 2.39635   1
  -5   0  -9 -0.9274  2.3842   3
  -5   0  -9 3.43028 2.60451   1
   6   0   9 1.52666 2.10439   1
  -6   0  -9 3.04871 2.49826   1
  -6   0  -9 4.45100 3.23671   3
   7   0   9 722.014  18.674   1
  -7   0  -9 742.514  19.395   1
  -7   0  -9 695.219  23.220   3
  -8   0  -9 -0.0872  3.5832   3
  -8   0  -9 -2.4387  2.2962   1
  -9   0  -9 17.2113  4.9433   4
  -9   0  -9 14.1020  2.8887   1
 -10   0  -9 -2.6109  1.6837   1
 -10   0  -9 -1.6692  4.3495   3
 -10   0  -9 -9.2245  4.3961   4
 -11   0  -9 72.6647  9.5521   3
 -12   0  -9 8.78491 5.59439   3
 -12   0  -9 6.73609 4.21462   4
 -13   0  -9 11.6496  4.9355   4
  14  -1  -9 22.0827  5.6146   2
  14  -1  -9 16.4501  6.7932   5
  14   1  -9 25.9147  6.4664   2
  14   1  -9 28.9182  7.7047   5
 -14   1   9 25.0265  7.0247   3
  13  -1  -9 3.78212 4.97221   5
  13   1  -9 7.60634 4.42108   2
 -13   1   9 0.10652 3.63450   3
  13   1  -9 -7.6525  5.3832   5
  12  -1  -9 48.1986  8.5964   5
  12  -1  -9 61.0429  7.7404   2
  12   1  -9 61.5926  8.5781   2
 -12   1   9 58.2217  8.3903   3
  12   1  -9 52.5577  8.9759   5
  11  -1  -9 -3.1440  4.8639   5
 -11  -1   9 4.36338 1.83587   1
  11  -1  -9 1.27139 2.70107   2
 -11   1   9 1.88572 1.71476   1
 -11   1   9 1.19443 3.97713   3
  11   1  -9 -1.1254  3.7741   2
  10  -1  -9 69.6457  7.4736   2
 -10  -1   9 68.6051  5.5284   1
  10  -1  -9 71.1869  9.1083   5
  10   1  -9 63.6883  8.0389   2
 -10   1   9 65.9809  5.5644   1
 -10   1   9 82.6705  8.6518   3
  10   1  -9 73.5681  8.9611   5
  -9  -1   9 10.4270  2.8129   1
   9  -1  -9 11.0140  4.1219   5
   9  -1  -9 16.9271  4.6059   2
  -9   1   9 7.25348 2.71561   1
   9   1  -9 1.39137 3.88406   2
   8  -1  -9 62.2948  7.1376   2
   8  -1  -9 71.2026  8.6408   5
   8  -1  -9 71.6220  5.9962   1
  -8  -1   9 77.5492  6.2827   1
   8   1  -9 78.2567  6.1744   1
  -8   1   9 71.8864  6.1438   1
   8   1  -9 58.3280  7.0603   2
  -8   1   9 72.8442  7.1324   3
   7  -1  -9 32.6715  4.4784   1
   7  -1  -9 34.7314  5.5343   2
  -7  -1   9 33.4682  4.5525   1
   7  -1  -9 35.4691  5.9402   5
  -7   1   9 33.3568  4.7043   3
   7   1  -9 31.8448  4.2984   1
   7   1  -9 28.0391  5.7371   2
  -7   1   9 30.1042  4.1733   1
   6  -1  -9 22.5351  4.7487   2
   6  -1  -9 13.6182  3.4257   1
  -6  -1   9 20.5061  3.9077   1
   6  -1  -9 23.8461  5.3773   5
   6   1  -9 15.0699  3.9856   2
   6   1  -9 18.6103  3.3050   1
  -6   1   9 14.1845  3.1576   3
   5  -1  -9 3.62357 3.31178   2
   5  -1  -9 9.39253 3.16078   1
  -5   1   9 6.89330 2.99528   1
   5   1  -9 6.92643 2.96529   2
   5   1  -9 10.3773  1.9580   3
  -5   1   9 11.3597  2.4535   3
   4  -1  -9 125.328   8.710   5
   4  -1  -9 113.240   7.628   2
   4  -1  -9 106.472   7.439   1
  -4  -1   9 118.566   7.778   1
   4   1  -9 104.597   7.598   2
  -4   1   9 106.835   7.614   1
   4   1  -9 108.369   4.762   3
   4   1  -9 96.4230  6.8464   1
  -4   1   9 111.485   5.475   3
   3  -1  -9 216.640  10.414   1
   3  -1  -9 210.034   9.626   2
  -3  -1   9 228.365  10.752   1
   3  -1  -9 216.081  10.445   5
   3   1  -9 217.263  10.266   1
  -3   1   9 219.197   6.661   3
  -3   1   9 230.941  10.780   1
   3   1  -9 232.444  10.518   2
   2  -1  -9 -1.3419  2.5341   1
   2  -1  -9 1.42333 2.58814   2
  -2  -1   9 8.01859 3.00772   1
   2   1  -9 4.86710 2.19491   2
   2   1  -9 5.95204 2.69264   1
  -2   1   9 3.33339 0.87001   3
  -2   1   9 3.71813 2.61247   1
   1  -1  -9 9.82984 2.53972   5
   1  -1  -9 14.4899  3.4707   1
  -1  -1   9 7.36586 2.87990   1
   1   1  -9 11.0886  2.6685   1
   0  -1   9 276.667  11.730   1
   0  -1  -9 290.762   9.254   5
   0  -1  -9 289.905  10.806   2
   0  -1  -9 293.248  12.071   1
   0   1  -9 298.735  10.454   2
   0   1  -9 269.905  11.491   1
   0   1   9 294.710  12.170   1
   0   1   9 286.271   6.857   3
  -1  -1  -9 653.127  16.755   2
   1  -1   9 663.665  18.570   1
  -1  -1  -9 648.885  18.502   1
  -1  -1  -9 652.192  12.997   5
  -1   1  -9 663.997  12.344   3
  -1   1  -9 653.998  15.722   2
   1   1   9 673.228  18.852   1
  -1   1  -9 647.403  18.331   1
   1   1   9 643.576  13.276   3
   2  -1   9 115.872   5.355   3
  -2  -1  -9 134.834   7.582   2
   2  -1   9 120.336   7.751   1
  -2  -1  -9 121.729   7.830   1
  -2  -1  -9 119.395   3.911   5
   2   1   9 117.554   5.854   3
  -2   1  -9 116.677   7.651   1
  -2   1  -9 122.890   6.537   2
   2   1   9 127.992   7.978   1
  -2   1  -9 120.541   5.704   3
   3  -1   9 -2.2946  2.2601   1
  -3  -1  -9 1.27699 2.63096   1
  -3   1  -9 1.80793 1.46989   2
  -3   1  -9 0.12956 1.50025   3
   3   1   9 3.43692 2.38404   1
  -3   1  -9 3.39332 2.48403   1
  -4  -1  -9 12.4531  3.2725   1
   4  -1   9 11.0979  3.0013   1
  -4   1  -9 10.4251  2.9372   3
   4   1   9 11.0708  2.9879   1
  -4   1  -9 16.5953  3.4633   1
  -4   1  -9 7.67157 2.25122   2
   5  -1   9 5.70860 2.60374   1
  -5  -1  -9 -1.5918  2.0498   1
  -5  -1  -9 1.12091 1.68565   1
  -5   1  -9 -2.1335  2.5045   1
   5   1   9 0.31273 2.04895   1
  -5   1  -9 1.56722 2.41956   3
   6  -1   9 89.8773  6.6348   1
  -6  -1  -9 98.1817  7.0267   1
  -6   1  -9 91.3851  6.9032   1
  -6   1  -9 98.1527  6.8043   1
   6   1   9 98.7174  6.7898   1
  -6   1  -9 102.941   8.499   3
   6   1   9 96.2750  6.7591   1
  -7  -1  -9 -1.6129  2.4283   1
   7  -1   9 -2.2180  2.1056   1
  -7   1  -9 -3.6324  3.6460   3
  -7   1  -9 2.65394 2.26111   1
   7   1   9 -4.0087  2.2444   1
  -8  -1  -9 81.5191  6.0990   1
  -8   1  -9 85.5048  8.9435   3
  -8   1  -9 80.8037  6.2437   1
  -9  -1  -9 14.2620  4.5036   4
  -9  -1  -9 18.6429  3.2721   1
  -9   1  -9 24.9575  3.5863   1
 -10  -1  -9 51.1199  8.0444   4
 -10  -1  -9 59.3543  4.5467   1
 -10   1  -9 61.4899  4.8981   1
 -10   1  -9 44.7035  6.6995   4
 -10   1  -9 65.4779  9.1630   3
 -11  -1  -9 85.9512  9.7923   4
 -11   1  -9 90.0644 10.9652   3
 -12  -1  -9 1.17567 4.38188   4
 -12   1  -9 -4.6667  5.1192   3
 -13   1  -9 36.4021  8.6478   3
  14  -2  -9 93.1447 11.5751   5
 -14   2   9 71.5245 10.3760   3
  14   2  -9 95.0424 12.0318   5
  14   2  -9 88.1337 10.3336   2
  13  -2  -9 8.06894 4.04980   2
  13  -2  -9 10.4189  4.8888   5
  13   2  -9 13.6954  6.1837   5
 -13   2   9 3.00070 4.48692   3
  13   2  -9 6.46665 4.76182   2
  12  -2  -9 38.7590  7.8429   5
  12  -2  -9 47.0612  6.7272   2
  12   2  -9 45.2539  7.5828   2
  12   2  -9 32.1999  7.4686   5
 -12   2   9 51.2566  7.8314   3
 -11  -2   9 24.1909  3.2991   1
  11  -2  -9 23.4335  6.6293   5
  11  -2  -9 26.0448  4.8676   2
 -11   2   9 26.0684  3.8072   1
 -11   2   9 27.7201  6.1705   3
  11   2  -9 19.0299  5.6280   2
  10  -2  -9 -3.0238  2.6783   2
 -10  -2   9 0.94767 1.91700   1
  10  -2  -9 -8.1676  5.0290   5
 -10   2   9 5.33516 3.70349   3
  10   2  -9 -5.2794  4.4107   2
 -10   2   9 -1.7128  2.0912   1
  -9  -2   9 12.9776  3.1900   1
   9  -2  -9 15.6884  4.4514   2
  -9   2   9 11.0315  3.1741   1
  -9   2   9 12.5169  4.1801   3
   9   2  -9 20.4123  5.4456   2
   8  -2  -9 579.695  19.313   2
   8  -2  -9 566.033  17.651   1
  -8  -2   9 540.057  16.875   1
   8  -2  -9 538.714  22.148   5
  -8   2   9 561.615  19.879   3
   8   2  -9 550.244  16.607   1
   8   2  -9 562.132  21.441   2
  -8   2   9 573.253  18.101   1
  -7  -2   9 -3.1932  2.6018   1
   7  -2  -9 -6.1131  3.7458   2
   7  -2  -9 -3.0596  4.0698   5
   7  -2  -9 0.17497 2.37674   1
   7   2  -9 3.33137 3.47756   2
   7   2  -9 4.15607 2.47464   1
  -7   2   9 1.58647 2.83485   1
   6  -2  -9 120.021   8.075   1
  -6  -2   9 126.694   8.277   1
   6  -2  -9 129.059  10.068   5
   6  -2  -9 113.309   7.889   2
  -6   2   9 127.053   8.463   1
   6   2  -9 124.202   7.818   1
  -6   2   9 122.546   7.876   3
   6   2  -9 124.690   9.434   2
   5  -2  -9 -1.6225  2.6835   1
   5  -2  -9 10.1640  4.1494   5
   5  -2  -9 0.36827 2.81455   2
   5   2  -9 7.88528 4.09407   2
   5   2  -9 4.49775 2.47127   1
  -5   2   9 2.93054 2.12303   3
   4  -2  -9 297.892  11.960   2
   4  -2  -9 293.132  13.173   5
   4  -2  -9 292.602  12.536   1
  -4  -2   9 293.746  12.394   1
   4   2  -9 301.260  12.250   1
  -4   2   9 287.778  12.503   1
   4   2  -9 287.303   8.659   3
   4   2  -9 288.894  12.875   2
  -4   2   9 278.950   9.772   3
   3  -2  -9 8.11307 3.32155   1
   3   2  -9 6.13115 3.44500   2
   3   2  -9 4.08173 1.08394   3
   2  -2  -9 99.3065  7.4986   1
   2  -2  -9 80.0323  5.9923   5
   2  -2  -9 74.2621  5.9536   2
  -2  -2   9 87.9345  7.0018   1
   2   2  -9 85.8925  6.7227   1
   2   2  -9 89.3556  6.5350   2
  -2   2   9 78.4638  6.5262   1
   1  -2  -9 31.6397  3.9097   2
   1  -2  -9 37.7221  4.8471   1
   1  -2  -9 32.4520  3.9113   5
  -1  -2   9 37.8871  4.8640   1
  -1   2   9 33.1954  4.7625   1
   1   2  -9 33.1713  4.1799   2
   1   2  -9 26.1700  3.9761   1
  -1   2   9 30.0734  4.1850   1
   0  -2  -9 544.423  13.557   5
   0  -2   9 511.823  16.610   1
   0  -2  -9 561.098  15.810   2
   0  -2  -9 515.333  16.671   1
   0   2  -9 527.629  14.430   2
   0   2  -9 520.259  16.877   1
   0   2   9 520.909  16.865   1
   0   2   9 526.930  16.835   1
   0   2  -9 534.009  10.094   3
   1  -2   9 106.445   7.474   1
  -1  -2  -9 105.082   7.347   1
  -1  -2  -9 99.3703  6.8630   2
  -1  -2  -9 102.031   4.882   5
  -1   2  -9 102.063   4.816   3
   1   2   9 95.1147  7.2401   1
   1   2   9 105.643   5.322   5
   1   2   9 102.262   7.398   1
  -1   2  -9 107.229   7.645   1
  -1   2  -9 98.9813  5.8151   2
   1   2   9 99.6247  5.0889   3
  -2  -2  -9 111.760   7.367   2
  -2  -2  -9 103.397   7.568   1
   2  -2   9 105.250   7.454   1
  -2  -2  -9 101.578   4.227   5
  -2   2  -9 105.267   5.731   3
  -2   2  -9 104.613   7.363   1
   2   2   9 106.089   7.530   1
   2   2   9 110.860   7.299   1
  -2   2  -9 98.2741  5.5734   2
   2   2   9 108.313   4.746   5
  -3  -2  -9 91.7805  6.9366   1
   3  -2   9 95.9081  7.1505   1
  -3  -2  -9 83.2597  6.6678   2
  -3   2  -9 95.6243  7.3244   1
  -3   2  -9 99.2809  5.6079   2
  -3   2  -9 88.8644  3.4635   5
   3   2   9 89.2819  3.6741   5
  -3   2  -9 92.3022  6.2479   3
   3   2   9 92.6328  7.0293   1
   4  -2   9 50.1138  5.3226   1
  -4  -2  -9 43.9799  5.0346   1
  -4   2  -9 55.8157  5.8502   1
  -4   2  -9 48.4467  5.1677   3
   4   2   9 49.9582  5.3399   1
  -4   2  -9 49.5141  4.1066   2
  -5  -2  -9 22.7611  4.2673   1
   5  -2   9 24.4153  4.0179   1
   5   2   9 21.9765  3.8315   1
  -5   2  -9 23.9294  4.3107   3
  -5   2  -9 21.9299  4.1185   1
   6  -2   9 193.670   9.834   1
  -6  -2  -9 204.184  10.155   1
  -6   2  -9 200.012  10.200   1
  -6   2  -9 185.783  11.437   3
   6   2   9 189.603   9.595   1
  -7  -2  -9 0.48241 2.52116   1
   7  -2   9 6.98986 2.70847   1
  -7   2  -9 3.90417 3.87647   3
   7   2   9 -1.0113  1.8801   1
  -7   2  -9 -1.3992  2.6611   1
  -8  -2  -9 179.009   9.193   1
  -8   2  -9 186.767  13.158   3
  -8   2  -9 176.563   9.262   1
  -8   2  -9 180.039  11.119   4
  -9  -2  -9 31.3351  6.5912   4
  -9  -2  -9 35.3504  4.0933   1
  -9   2  -9 32.8868  6.6939   3
  -9   2  -9 36.5847  4.3590   1
  -9   2  -9 35.5536  5.7493   4
 -10  -2  -9 2.44247 1.68360   1
 -10  -2  -9 -2.4686  4.1788   4
 -10   2  -9 1.45024 1.86873   1
 -10   2  -9 2.87457 3.57156   3
 -10   2  -9 1.45317 3.20916   4
 -11  -2  -9 2.53116 4.62812   4
 -11   2  -9 6.63899 4.29537   3
 -12   2  -9 130.392  13.680   3
 -13  -2  -9 26.1108  7.1343   4
 -13   2  -9 7.21942 5.88349   3
  14  -3  -9 0.22160 4.75068   5
 -14   3   9 5.52742 5.44372   3
  13  -3  -9 -5.6541  5.3940   5
  13  -3  -9 -1.2024  3.2818   2
 -13   3   9 1.66768 3.41998   3
  13   3  -9 -5.2723  5.6238   2
  13   3  -9 -6.8977  5.9211   5
  12  -3  -9 4.31351 3.46006   2
  12  -3  -9 2.22499 4.45989   5
 -12   3   9 -4.9691  4.7332   3
  12   3  -9 -2.1937  3.5554   2
 -11  -3   9 8.26094 2.46717   1
  11  -3  -9 1.87489 4.50728   5
  11   3  -9 6.85212 4.97173   2
  10  -3  -9 68.2136  9.2600   5
  10  -3  -9 79.9939  7.8405   2
 -10  -3   9 71.3938  6.0984   1
 -10   3   9 76.2070  6.6505   1
  10   3  -9 71.1679  8.5091   2
 -10   3   9 73.5020  8.6747   3
   9  -3  -9 244.860  15.748   5
  -9  -3   9 252.677  11.643   1
   9  -3  -9 249.996  12.984   2
  -9   3   9 263.591  12.403   1
   9   3  -9 258.195  15.398   2
  -9   3   9 250.834  14.725   3
   8  -3  -9 1.62408 2.29253   1
   8  -3  -9 -2.0394  4.2542   5
   8  -3  -9 4.70984 3.46221   2
  -8  -3   9 2.51270 2.48676   1
  -8   3   9 0.00253 2.98540   3
   8   3  -9 2.55107 2.25662   1
  -8   3   9 0.34109 2.63056   1
   8   3  -9 6.38798 4.56230   2
   7  -3  -9 64.4954  6.5539   2
   7  -3  -9 53.9111  7.5004   5
   7  -3  -9 55.9544  5.9808   1
  -7  -3   9 45.2121  5.4297   1
   7   3  -9 61.7891  7.3436   2
  -7   3   9 57.4783  6.1824   1
  -7   3   9 56.0332  6.4128   3
   7   3  -9 55.6446  5.5983   1
   6  -3  -9 32.8744  5.0892   1
   6  -3  -9 41.9650  5.2918   2
  -6  -3   9 35.0438  4.9621   1
   6  -3  -9 29.1742  5.8755   5
   6   3  -9 44.3294  6.5551   2
   6   3  -9 31.1935  4.5351   1
  -6   3   9 32.0560  4.9466   1
  -6   3   9 29.5433  4.4957   3
   5  -3  -9 183.578  10.299   1
  -5  -3   9 197.075  10.489   1
   5  -3  -9 173.381  10.881   5
   5  -3  -9 202.372  10.210   2
   5   3  -9 198.277  11.195   2
   5   3  -9 201.245  10.371   1
  -5   3   9 179.806   9.235   3
  -5   3   9 197.352  11.015   1
   4  -3  -9 1.62023 2.38540   5
   4  -3  -9 2.18972 2.76501   2
  -4  -3   9 8.91935 3.39089   1
   4  -3  -9 0.98259 3.03567   1
  -4   3   9 6.84269 2.30745   3
   4   3  -9 4.56128 1.51982   3
   4   3  -9 9.43358 3.24975   1
   4   3  -9 -0.1758  2.4302   2
  -3  -3   9 90.5272  7.3162   1
   3  -3  -9 92.9046  7.2797   5
   3  -3  -9 102.613   7.810   1
   3  -3  -9 81.7595  6.2387   2
   3   3  -9 91.0550  4.5449   3
   3   3  -9 84.0320  6.9245   1
  -3   3   9 76.9010  6.9032   1
   3   3  -9 91.9919  7.2478   2
   2  -3  -9 523.256  17.519   1
   2  -3  -9 537.677  16.075   2
  -2  -3   9 522.656  17.202   1
   2  -3  -9 529.675  16.110   5
   2   3  -9 520.552  16.015   2
  -2   3   9 517.618  17.456   1
   2   3  -9 530.255  17.226   1
   1  -3  -9 22.6261  4.0563   2
  -1  -3   9 27.5802  4.6146   1
   1  -3  -9 20.8159  4.1612   1
   1  -3  -9 16.5751  3.3412   5
  -1   3   9 28.5356  4.8319   1
   1   3  -9 25.6054  4.0638   1
   1   3  -9 21.4188  3.6671   2
   0  -3  -9 299.139  10.168   5
   0  -3  -9 288.222  12.673   1
   0  -3  -9 282.411  11.505   2
   0  -3   9 305.962  13.112   1
   0   3   9 295.560  12.883   1
   0   3  -9 297.812  10.488   2
   0   3  -9 296.900  12.884   1
   1  -3   9 64.8517  6.3162   1
  -1  -3  -9 67.6736  6.1395   2
  -1  -3  -9 63.3434  6.0631   1
  -1  -3  -9 66.4013  4.3817   5
  -1   3  -9 53.9866  5.9682   1
   1   3   9 56.9612  6.0365   1
  -1   3  -9 70.7860  4.9734   2
  -1   3  -9 61.1636  4.2339   3
  -2  -3  -9 266.579  12.266   1
   2  -3   9 260.699  12.094   1
  -2  -3  -9 278.572  12.070   2
  -2  -3  -9 273.175   8.166   5
   2   3   9 262.557   8.528   5
  -2   3  -9 274.036  12.424   1
   2   3   9 273.183  12.309   1
  -2   3  -9 265.463   9.176   2
  -2   3  -9 260.501   9.784   3
  -2   3  -9 256.265   7.868   5
   3  -3   9 199.233  10.370   1
  -3  -3  -9 213.259  10.878   1
   3   3   9 205.844   6.982   5
   3   3   9 190.642  10.199   1
  -3   3  -9 192.615   7.434   2
  -3   3  -9 199.485   6.563   5
  -3   3  -9 213.670  11.090   1
  -3   3  -9 210.806   9.714   3
   4  -3   9 646.021  19.165   1
  -4  -3  -9 635.256  19.181   1
   4  -3   9 634.843  14.162   2
   4   3   9 636.281  18.817   1
  -4   3  -9 633.973  12.918   5
  -4   3  -9 637.411  14.322   2
  -4   3  -9 642.266  19.499   1
   4   3   9 631.729  12.466   5
  -4   3  -9 642.489  19.328   3
   5  -3   9 14.8903  3.6199   1
  -5  -3  -9 13.2217  3.7450   1
   5  -3   9 14.9997  2.1597   2
   5   3   9 17.2478  1.8238   5
  -5   3  -9 13.9106  1.8279   5
  -5   3  -9 11.2596  3.7517   3
  -5   3  -9 18.2756  4.1135   1
   5   3   9 16.2009  3.6795   1
  -6  -3  -9 514.925  17.052   1
   6  -3   9 510.862  16.926   1
   6  -3   9 485.628  11.717   2
  -6   3  -9 518.376  19.899   3
  -6   3  -9 510.030  17.410   1
   6   3   9 505.883  16.418   1
  -7  -3  -9 597.260  18.111   1
   7  -3   9 603.650  18.446   1
  -7   3  -9 584.154  18.556   1
   7   3   9 574.174  17.232   1
  -7   3  -9 575.807  22.067   3
  -8  -3  -9 35.9175  4.5558   1
  -8   3  -9 27.5185  4.2075   1
  -8   3  -9 41.9074  5.2720   4
  -8   3  -9 38.5979  6.7491   3
  -9  -3  -9 17.6750  5.5848   4
  -9   3  -9 11.0697  4.2902   3
  -9   3  -9 4.54004 3.01367   4
 -10  -3  -9 15.1842  2.7504   1
 -10   3  -9 13.4974  5.6123   3
 -10   3  -9 15.7733  4.1966   4
 -11   3  -9 -2.4900  4.8274   3
 -12   3  -9 24.4306  6.8258   3
 -13  -3  -9 6.62192 5.25997   4
  14  -4  -9 11.2244  5.9675   5
  14   4  -9 -3.5149  5.4219   5
 -14   4   9 1.12161 4.60879   3
  14   4  -9 -5.7985  5.1271   2
  13  -4  -9 3.71429 4.10454   5
 -13   4   9 8.53462 5.38459   3
  13   4  -9 -4.4413  5.2619   2
  12  -4  -9 -2.8624  4.8886   5
  12  -4  -9 0.84165 2.52769   2
 -12   4   9 4.39344 4.40757   3
  12   4  -9 -3.5682  5.0630   2
  11  -4  -9 -6.6344  3.1966   2
 -11  -4   9 4.45027 2.35349   1
  11  -4  -9 -2.9600  3.5220   5
 -11   4   9 6.84189 4.03140   3
 -11   4   9 3.95119 2.68900   1
  11   4  -9 -4.6339  4.5161   2
 -10  -4   9 53.4563  5.6737   1
  10  -4  -9 54.7960  6.3795   2
  10  -4  -9 59.3635  8.8794   5
  10   4  -9 42.2600  7.9699   2
 -10   4   9 52.2287  7.7929   3
 -10   4   9 59.0293  6.3686   1
   9  -4  -9 59.7941  6.4899   2
  -9  -4   9 54.6717  5.8523   1
   9  -4  -9 66.0874  8.8153   5
  -9   4   9 52.9219  6.2007   1
   9   4  -9 48.1425  7.9662   2
   8  -4  -9 210.008  11.305   2
   8  -4  -9 227.768  14.613   5
  -8  -4   9 212.120  11.196   1
   8  -4  -9 199.225  11.293   1
  -8   4   9 214.768  13.061   3
  -8   4   9 228.518  12.314   1
   8   4  -9 215.198  14.209   2
   8   4  -9 219.337  11.026   1
  -7  -4   9 347.342  14.535   1
   7  -4  -9 352.681  14.446   2
   7  -4  -9 350.844  15.017   1
   7  -4  -9 370.371  17.845   5
  -7   4   9 367.403  15.636   1
   7   4  -9 369.534  17.670   2
   7   4  -9 344.991  14.016   1
  -7   4   9 353.349  15.812   3
   6  -4  -9 118.951  10.029   5
   6  -4  -9 124.506   8.414   2
   6  -4  -9 132.349   9.330   1
  -6  -4   9 125.997   8.888   1
   6   4  -9 123.417   8.396   1
  -6   4   9 140.317   9.362   3
  -6   4   9 115.361   9.110   1
   6   4  -9 133.495  10.493   2
   5  -4  -9 176.858   9.679   2
   5  -4  -9 156.004  10.489   5
   5  -4  -9 148.817   9.656   1
  -5  -4   9 154.780   9.768   1
   5   4  -9 166.764  10.778   2
  -5   4   9 151.320  10.067   1
   5   4  -9 164.682   9.779   1
  -5   4   9 144.301   8.780   3
   4  -4  -9 20.2564  4.6462   5
   4  -4  -9 18.4599  3.9899   2
  -4  -4   9 19.8243  3.9307   1
  -4   4   9 18.0619  4.0302   1
   4   4  -9 13.6398  3.8526   1
   4   4  -9 8.73150 4.02444   2
   3  -4  -9 24.4322  4.6367   5
   3  -4  -9 17.9878  4.4497   1
   3  -4  -9 15.6666  3.5933   2
  -3  -4   9 22.4065  4.4966   1
  -3   4   9 17.5058  3.9575   1
   3   4  -9 21.8862  4.4103   2
   3   4  -9 22.4851  4.0972   1
   2  -4  -9 13.6946  3.1279   5
   2  -4  -9 8.53375 3.48981   2
   2  -4  -9 11.2424  3.3403   1
  -2   4   9 16.1156  4.3168   1
   2   4  -9 15.4926  3.2798   2
   2   4  -9 15.5145  4.1503   1
  -1  -4   9 80.1737  7.3501   1
   1  -4  -9 75.1282  5.7061   5
   1  -4  -9 69.0132  6.3332   2
   1  -4  -9 81.8559  7.4972   1
  -1   4   9 76.8522  7.2732   1
   1   4  -9 81.1014  6.2959   2
   1   4  -9 85.5455  7.5469   1
   0  -4  -9 49.3710  6.1514   1
   0  -4  -9 47.8313  5.5343   2
   0  -4   9 40.6787  5.1933   1
   0  -4  -9 51.8440  4.7105   5
   0   4   9 50.8979  6.1975   1
   0   4  -9 54.6224  4.8412   2
   0   4  -9 56.9820  6.4123   1
  -1  -4  -9 230.765  11.336   2
  -1  -4  -9 231.727   8.981   5
  -1  -4  -9 242.126  12.352   1
   1  -4   9 248.407  12.182   1
  -1   4  -9 244.725  12.267   1
  -1   4  -9 218.023   8.716   2
   1   4   9 236.561  12.029   1
  -2  -4  -9 8.30976 2.04968   5
   2  -4   9 18.9682  4.3487   1
  -2   4  -9 9.17006 2.12830   2
  -2   4  -9 15.0610  4.2266   1
  -2   4  -9 7.55754 2.51513   3
   2   4   9 12.2979  3.8975   1
   3  -4   9 87.4246  4.9600   2
   3  -4   9 106.272   8.207   1
  -3  -4  -9 88.9793  7.8109   1
  -3   4  -9 82.0298  6.6380   3
  -3   4  -9 95.6093  7.7727   1
  -3   4  -9 87.9724  4.7921   2
   3   4   9 81.8436  7.1104   1
   4  -4   9 63.0218  3.9566   2
   4  -4   9 52.7979  6.1924   1
  -4  -4  -9 65.7510  6.8786   1
  -4   4  -9 60.7205  6.6994   1
  -4   4  -9 55.2956  6.0581   3
  -4   4  -9 55.4170  3.6288   2
   4   4   9 61.1518  6.1623   1
   5  -4   9 11.9866  3.7766   1
   5  -4   9 9.88863 1.57721   2
  -5  -4  -9 8.49228 2.94166   1
   5   4   9 9.24908 3.33136   1
  -5   4  -9 15.7938  3.9861   3
   5   4   9 10.3986  1.8929   5
  -6  -4  -9 89.9046  7.6102   1
   6  -4   9 87.2613  7.2523   1
  -6   4  -9 78.5477  7.3634   1
   6   4   9 86.2955  6.9402   1
  -6   4  -9 98.5931  9.0172   3
  -7  -4  -9 2.72094 2.70984   1
   7  -4   9 3.73746 2.75683   1
  -7   4  -9 -4.5962  4.0277   3
  -7   4  -9 2.89287 2.02563   4
  -7   4  -9 -1.8688  2.4859   1
   7   4   9 -3.3092  2.3082   1
  -8  -4  -9 10.2195  3.1594   1
  -8   4  -9 5.23507 3.60300   3
  -8   4  -9 12.7288  3.5313   1
  -8   4  -9 8.94363 2.85282   4
  -9  -4  -9 66.1243  6.0338   1
  -9  -4  -9 76.1518  9.7678   4
  -9   4  -9 53.4717  8.3635   3
  -9   4  -9 67.3800  6.5623   1
 -10  -4  -9 19.7627  3.3302   1
 -10   4  -9 22.5361  6.5159   3
 -10   4  -9 16.5508  3.4897   1
 -11   4  -9 78.4798 10.8540   3
 -12  -4  -9 5.65345 5.51272   4
 -12   4  -9 -0.4306  4.4870   3
 -13  -4  -9 0.50133 5.17673   4
  13  -5  -9 105.592  12.645   5
 -13   5   9 125.681  13.502   3
  12  -5  -9 29.6346  6.6834   5
 -12   5   9 36.8190  7.7657   3
 -11  -5   9 18.0562  3.5962   1
  11  -5  -9 24.8854  4.6812   2
  11  -5  -9 14.2166  5.9934   5
 -11   5   9 20.6954  6.4733   3
  11   5  -9 28.7516  6.5283   2
 -11   5   9 25.1628  4.6273   1
  10  -5  -9 -0.3272  2.3377   2
  10  -5  -9 1.66909 4.73493   5
 -10  -5   9 1.41948 2.39889   1
  10   5  -9 3.11482 4.79724   2
 -10   5   9 1.63216 4.06045   3
 -10   5   9 8.81147 3.49677   1
  -9  -5   9 5.71318 3.01038   1
   9  -5  -9 2.51398 2.88249   2
   9  -5  -9 -5.4284  4.9034   5
  -9   5   9 2.73091 3.19672   1
   9   5  -9 15.5527  5.7160   2
  -9   5   9 7.26893 3.60453   3
   8  -5  -9 25.6700  4.5216   2
   8  -5  -9 28.7379  4.9031   1
   8  -5  -9 20.0003  5.9671   5
  -8  -5   9 24.1758  4.5820   1
   8   5  -9 20.1620  5.2077   2
  -8   5   9 27.0016  5.1939   1
  -8   5   9 22.4351  5.5209   3
   7  -5  -9 36.2361  6.1902   5
  -7  -5   9 44.3563  5.9244   1
   7  -5  -9 51.4293  6.4755   1
   7  -5  -9 44.2696  5.4919   2
   7   5  -9 43.2139  6.9946   2
  -7   5   9 59.4542  7.2632   3
  -7   5   9 45.8513  6.3527   1
   7   5  -9 32.9914  5.0645   1
   6  -5  -9 35.3704  4.6816   2
   6  -5  -9 19.9273  5.4732   5
   6  -5  -9 32.5205  5.3443   1
   6   5  -9 27.9937  4.8980   1
  -6   5   9 26.6319  5.2815   1
  -6   5   9 28.5376  4.8149   3
   6   5  -9 33.4181  5.7137   2
   5  -5  -9 35.2896  5.1236   2
  -5  -5   9 36.9545  5.7228   1
   5  -5  -9 37.7053  6.4286   5
   5  -5  -9 34.4103  5.7106   1
   5   5  -9 30.7204  6.1305   2
   5   5  -9 44.1701  5.7565   1
  -5   5   9 38.9746  5.4617   3
  -5   5   9 36.1479  6.0580   1
   4  -5  -9 20.7012  4.3569   5
   4  -5  -9 23.9936  4.4274   2
  -4  -5   9 26.8776  5.1811   1
   4  -5  -9 21.4184  4.9678   1
   4   5  -9 20.4945  4.5507   1
   4   5  -9 26.3226  5.2794   2
   3  -5  -9 630.452  20.154   5
   3  -5  -9 651.374  21.770   1
  -3  -5   9 610.563  20.516   1
   3  -5  -9 639.888  18.993   2
  -3   5   9 661.803  22.084   1
   3   5  -9 660.338  20.639   2
   3   5  -9 635.022  20.687   1
   2  -5  -9 -1.3884  2.5079   5
   2  -5  -9 5.98084 2.79108   2
   2  -5  -9 8.06573 3.44519   1
  -2   5   9 10.9699  4.0771   1
   2   5  -9 3.58127 2.92564   2
   2   5  -9 -1.0193  3.3836   1
   1  -5  -9 95.9215  8.5798   1
  -1  -5   9 96.7984  8.4768   1
   1  -5  -9 102.640   7.364   5
   1  -5  -9 90.1437  7.6162   2
   1   5  -9 92.2321  6.8149   2
   1   5  -9 102.592   8.272   1
  -1   5   9 100.910   8.704   1
   0  -5  -9 24.8938  4.7333   2
   0  -5  -9 20.6087  5.1017   1
   0  -5   9 24.1671  5.0220   1
   0  -5  -9 31.5700  4.2351   5
   0   5  -9 25.0955  3.8115   2
   0   5  -9 20.8257  4.8343   1
   0   5   9 23.2211  4.9625   1
  -1  -5  -9 107.755   6.610   5
  -1  -5  -9 108.835   8.352   2
   1  -5   9 108.168   8.847   1
  -1  -5  -9 112.281   9.026   1
  -1   5  -9 96.4749  8.5325   1
   1   5   9 107.123   8.742   1
  -1   5  -9 100.107   6.100   2
  -2  -5  -9 -2.3534  2.6374   1
  -2  -5  -9 4.05355 2.12230   5
  -2   5  -9 5.35045 2.69140   3
  -2   5  -9 1.65149 1.65405   2
   2   5   9 1.61137 3.29824   1
  -2   5  -9 1.24112 3.29368   1
  -3  -5  -9 275.339  13.835   1
   3  -5   9 248.227   8.691   2
   3  -5   9 252.225  12.959   1
  -3   5  -9 281.176  14.027   1
  -3   5  -9 280.292  12.566   3
   3   5   9 267.276  13.243   1
  -3   5  -9 258.002   8.110   2
   4  -5   9 21.4798  4.6447   1
  -4   5  -9 13.1087  3.7985   1
   4   5   9 9.37554 3.62193   1
  -4   5  -9 17.6903  4.3644   3
  -4   5  -9 13.6075  1.8153   2
  -5  -5  -9 32.6812  5.4505   1
  -5   5  -9 23.0672  4.4718   1
  -5   5  -9 32.2524  5.1819   3
   5   5   9 26.0900  4.6463   1
  -6  -5  -9 136.641   9.687   1
   6  -5   9 138.474   9.532   1
  -6   5  -9 146.159  11.230   3
  -6   5  -9 131.715   9.827   1
   6   5   9 147.995   9.634   1
   7  -5   9 479.573  18.121   1
  -7  -5  -9 484.852  17.742   1
   7   5   9 482.778  17.201   1
  -7   5  -9 477.502  18.416   1
  -7   5  -9 470.423  21.264   3
  -8  -5  -9 10.2822  3.4522   1
  -8   5  -9 10.7004  3.8140   1
  -8   5  -9 11.5166  5.0949   3
  -9  -5  -9 10.1285  3.1391   1
  -9   5  -9 11.5829  5.5577   3
  -9   5  -9 9.26214 3.44737   1
 -10   5  -9 17.6104  4.0470   1
 -10   5  -9 19.1201  6.1871   3
 -11   5  -9 54.8154  9.6042   3
 -12   5  -9 30.2546  8.2586   3
  13  -6  -9 2.72964 3.88982   5
 -13   6   9 -3.6573  4.2584   3
  13   6  -9 -3.6147  5.4897   2
  12  -6  -9 -11.906   6.027   5
  12   6  -9 -1.7211  4.9458   2
 -12   6   9 -0.5206  2.5860   1
  11  -6  -9 2.80022 4.87011   5
  11   6  -9 -0.4182  4.7106   2
 -11   6   9 1.47869 4.73902   3
  10  -6  -9 2.07380 2.72381   2
 -10  -6   9 -3.3036  2.9995   1
 -10   6   9 2.45215 4.43102   3
  10   6  -9 11.7106  5.8513   2
   9  -6  -9 13.6204  3.5969   2
  -9  -6   9 25.7376  4.8932   1
   9  -6  -9 19.1876  6.3317   5
   9   6  -9 22.2245  6.6677   2
  -9   6   9 18.9613  5.6449   3
  -9   6   9 17.4808  4.6859   1
   8  -6  -9 103.012   8.892   1
   8  -6  -9 112.993   8.390   2
   8  -6  -9 106.700  10.765   5
  -8  -6   9 112.508   9.079   1
   8   6  -9 101.336  10.349   2
  -8   6   9 107.200   9.687   1
  -8   6   9 113.718  10.651   3
   7  -6  -9 209.248  11.204   2
  -7  -6   9 209.992  12.416   1
   7  -6  -9 197.929  12.569   1
   7  -6  -9 221.624  14.466   5
   7   6  -9 195.602  13.990   2
  -7   6   9 206.963  13.454   3
  -7   6   9 212.524  13.220   1
   7   6  -9 190.959  11.478   1
   6  -6  -9 10.7310  3.9698   5
  -6  -6   9 12.5431  4.3101   1
   6  -6  -9 19.2362  4.7910   1
  -6   6   9 10.0044  3.8851   3
   6   6  -9 17.1649  3.8296   1
  -6   6   9 11.3838  4.2986   1
   5  -6  -9 314.871  15.546   5
  -5  -6   9 319.213  15.378   1
   5  -6  -9 325.732  13.729   2
   5  -6  -9 325.258  16.097   1
  -5   6   9 311.797  15.718   1
   5   6  -9 332.105  16.454   2
   5   6  -9 325.890  15.164   1
   4  -6  -9 185.027  12.248   1
  -4  -6   9 159.516  10.749   1
   4  -6  -9 183.277  11.611   5
   4  -6  -9 182.922  10.421   2
   4   6  -9 174.050  11.507   2
  -4   6   9 174.573  11.780   1
   4   6  -9 172.370  11.289   1
   3  -6  -9 26.1042  5.4773   1
  -3  -6   9 25.8652  4.8946   1
   3   6  -9 33.5313  5.7856   1
  -3   6   9 35.0876  6.0564   1
   3   6  -9 24.4683  5.1298   2
   2  -6  -9 39.1834  5.6387   2
   2  -6  -9 46.5986  6.7965   1
  -2  -6   9 45.5714  6.7066   1
   2  -6  -9 42.4190  5.8524   5
   2   6  -9 48.1659  6.6523   1
  -2   6   9 41.4929  6.6382   1
   2   6  -9 42.3966  5.7287   2
   1  -6  -9 54.3194  5.6907   5
  -1  -6   9 45.8994  6.5657   1
   1  -6  -9 56.6609  6.5785   2
   1  -6  -9 45.3258  6.2785   1
   1   6  -9 45.9060  6.1539   1
  -1   6   9 50.6605  7.0689   1
   1   6  -9 59.0219  5.9214   2
   0  -6  -9 130.846  10.113   1
   0  -6   9 121.648   9.877   1
   0  -6  -9 117.363   8.837   2
   0  -6  -9 113.941   7.820   5
   0   6   9 121.693   9.899   1
   0   6  -9 114.335   7.199   2
   0   6  -9 123.863  10.074   1
   1  -6   9 571.927  20.905   1
  -1  -6  -9 530.776  16.315   5
  -1  -6  -9 534.211  20.378   1
   1   6   9 570.882  20.922   1
  -1   6  -9 524.825  14.567   2
  -1   6  -9 546.193  20.703   1
  -2  -6  -9 510.948  15.586   5
   2  -6   9 516.178  19.826   1
  -2  -6  -9 505.232  19.880   1
  -2   6  -9 488.746  19.541   1
  -2   6  -9 475.008  12.860   2
   2   6   9 516.543  19.764   1
   3  -6   9 94.1768  8.4837   1
  -3  -6  -9 103.824   9.087   1
  -3   6  -9 98.2205  4.9320   2
  -3   6  -9 103.034   8.273   3
   3   6   9 107.505   9.227   1
  -3   6  -9 103.654   9.423   1
  -4  -6  -9 16.2243  5.3878   1
   4  -6   9 20.8395  5.0715   1
  -4   6  -9 30.9709  5.4222   3
   4   6   9 22.1834  4.9579   1
  -4   6  -9 31.7926  5.4062   1
   5  -6   9 2.20823 3.30646   1
  -5  -6  -9 1.51562 3.34894   1
  -5   6  -9 -4.0829  3.9148   3
   5   6   9 1.45851 2.92095   1
  -5   6  -9 -5.2827  3.6605   1
   6  -6   9 3.22504 3.23532   1
  -6  -6  -9 1.80736 3.12364   1
  -6   6  -9 2.90812 3.01080   1
  -6   6  -9 2.46051 3.25144   3
  -7  -6  -9 4.24384 3.26789   1
  -7   6  -9 7.35029 4.57948   3
  -7   6  -9 -1.4182  3.4893   1
  -8  -6  -9 33.6114  6.5977   4
  -8  -6  -9 22.3938  4.6455   1
  -8   6  -9 26.6452  6.7165   3
  -8   6  -9 29.1381  5.4657   1
  -9  -6  -9 61.3615  9.1845   4
  -9  -6  -9 55.8952  6.3522   1
  -9   6  -9 71.9797  7.6714   1
  -9   6  -9 48.7348  8.6807   3
 -10   6  -9 16.2195  6.5464   3
 -10   6  -9 8.24485 3.54987   1
 -11  -6  -9 125.720  13.416   4
 -11   6  -9 111.419  12.783   3
 -11   6  -9 136.449   9.783   1
 -12  -6  -9 59.9989 10.5739   4
 -12   6  -9 56.3587 10.4031   3
  12  -7  -9 97.2453 11.7628   5
 -12   7   9 98.4466  9.1445   1
 -12   7   9 83.5748 11.5948   3
  11  -7  -9 23.9700  6.2850   5
 -11  -7   9 19.3013  4.3636   1
 -11   7   9 14.2972  4.5784   1
 -11   7   9 17.6364  5.9420   3
  10  -7  -9 121.759  12.111   5
 -10  -7   9 124.191   9.803   1
 -10   7   9 132.894  13.351   3
  10   7  -9 133.707  13.035   2
 -10   7   9 133.649  11.034   1
   9  -7  -9 -4.5082  4.9371   5
  -9  -7   9 2.74474 2.99433   1
   9  -7  -9 2.76731 2.61544   2
  -9   7   9 -3.6435  4.2243   3
  -9   7   9 12.5492  4.7046   1
   9   7  -9 -3.4746  5.3063   2
   8  -7  -9 -1.1518  4.7059   5
   8  -7  -9 1.51995 2.32657   2
  -8  -7   9 -6.4652  3.7835   1
   8  -7  -9 -3.4668  3.6578   1
  -8   7   9 1.42596 3.73521   1
   8   7  -9 0.34476 4.29551   2
  -8   7   9 4.82906 4.34628   3
  -7  -7   9 0.32308 3.32457   1
   7  -7  -9 11.0551  5.0305   5
   7  -7  -9 -0.5872  3.1461   1
   7  -7  -9 0.74002 2.41457   2
   7   7  -9 2.40514 3.59557   2
   7   7  -9 3.64497 3.34547   1
   6  -7  -9 24.6582  5.3533   5
   6  -7  -9 31.1966  4.8519   2
   6  -7  -9 34.7907  6.2488   1
  -6  -7   9 31.8463  5.7440   1
  -6   7   9 44.4141  6.7141   3
  -6   7   9 48.7859  7.2266   1
   6   7  -9 39.3201  5.9596   1
   6   7  -9 46.1982  7.2839   2
   5  -7  -9 1.14078 3.64028   1
   5  -7  -9 12.0146  4.3059   5
  -5  -7   9 -0.0566  3.6486   1
   5   7  -9 6.56503 3.98568   1
   5   7  -9 11.4259  5.0068   2
  -5   7   9 4.34850 4.53303   1
   4  -7  -9 73.3471  8.4836   1
   4  -7  -9 77.3388  8.2643   5
  -4  -7   9 85.4427  8.8773   1
   4  -7  -9 65.9579  6.7907   2
   4   7  -9 69.1890  7.7167   2
   4   7  -9 69.5075  7.9087   1
  -4   7   9 75.1338  8.6933   1
  -3  -7   9 24.1390  5.5515   1
   3  -7  -9 22.7999  5.5853   1
   3  -7  -9 26.8780  4.8462   2
   3  -7  -9 27.1927  5.3464   5
  -3   7   9 27.3415  5.7842   1
   3   7  -9 31.2087  5.4980   2
   3   7  -9 18.7628  5.0184   1
   2  -7  -9 -2.0098  3.4035   2
   2  -7  -9 6.77218 4.55663   1
  -2  -7   9 13.2630  4.9575   1
   2   7  -9 5.15984 2.78117   2
  -2   7   9 5.95596 4.44929   1
   1  -7  -9 44.3567  6.6420   1
  -1  -7   9 41.7660  6.7721   1
   1  -7  -9 45.3792  5.7802   5
   1   7  -9 47.4286  5.6183   2
   1   7  -9 56.4984  7.4862   1
   0  -7  -9 -4.2270  3.1836   5
   0  -7  -9 -1.3428  2.8374   1
   0   7  -9 -0.3873  2.3975   2
   0   7  -9 -0.0341  3.8223   1
   0   7   9 -4.2833  3.9804   1
   1  -7   9 64.6903  7.4961   1
  -1  -7  -9 72.2757  6.6426   5
  -1  -7  -9 63.8989  8.0859   1
  -1   7  -9 49.0430  7.4178   1
  -1   7  -9 56.7556  4.9598   2
   1   7   9 55.7147  7.4485   1
  -2  -7  -9 151.798  11.598   1
  -2  -7  -9 156.605   9.032   5
   2  -7   9 155.424  11.543   1
   2   7   9 160.894  11.553   1
  -2   7  -9 163.125   7.405   2
  -2   7  -9 148.401  11.585   1
  -3  -7  -9 3.13053 4.06024   1
   3  -7   9 3.56197 3.73873   1
  -3   7  -9 -3.3405  3.9954   1
   3   7   9 -0.3461  3.6178   1
  -3   7  -9 1.62364 1.17463   2
   4  -7   9 49.1707  7.0243   1
  -4  -7  -9 73.9155  8.0014   1
  -4   7  -9 59.1514  6.9280   3
   4   7   9 60.4192  7.3589   1
  -4   7  -9 60.7905  7.8276   1
  -5  -7  -9 21.2879  5.1583   1
  -5   7  -9 19.2880  5.5861   1
  -6  -7  -9 240.642  14.191   1
   6  -7   9 248.793  14.466   1
  -6   7  -9 239.347  15.584   3
  -6   7  -9 230.121  14.428   1
   6   7   9 236.200  13.538   1
   7  -7   9 1.97032 3.09683   1
  -7  -7  -9 2.43302 3.36778   1
  -7   7  -9 7.21648 5.05277   3
  -7   7  -9 5.77033 4.18254   1
  -8  -7  -9 63.7203  9.1815   4
  -8  -7  -9 64.5409  7.5063   1
  -8   7  -9 66.5650  8.1536   1
  -8   7  -9 67.7896  9.7667   3
  -9  -7  -9 26.3414  5.0002   1
  -9  -7  -9 33.7034  7.7373   4
  -9   7  -9 15.0821  6.2761   3
  -9   7  -9 20.1036  5.0904   1
 -10  -7  -9 29.9059  5.0201   1
 -10   7  -9 37.4681  8.4560   3
 -11   7  -9 25.8682  8.0134   3
 -11  -8   9 18.3786  4.6501   1
 -11   8   9 21.4775  5.4427   1
 -11   8   9 15.6971  6.4594   3
  11   8  -9 11.2082  5.2652   2
  10  -8  -9 26.4753  7.4896   5
 -10  -8   9 34.8934  5.9938   1
 -10   8   9 24.9344  7.2292   3
   9  -8  -9 23.2819  6.5553   5
  -9  -8   9 27.1988  5.4483   1
  -9   8   9 18.7683  5.5585   1
   9   8  -9 22.9285  6.2653   2
   8  -8  -9 29.4420  4.9434   2
  -8  -8   9 33.2623  6.0073   1
  -8   8   9 21.6836  5.9949   3
  -8   8   9 38.8773  6.8035   1
   8   8  -9 47.5439  8.5088   2
  -7  -8   9 5.04275 3.44976   1
   7  -8  -9 3.23948 3.59962   5
   7  -8  -9 5.01216 2.80146   2
   7  -8  -9 -2.2258  3.5973   1
  -7   8   9 -6.0605  4.5503   1
  -7   8   9 5.62601 4.35788   3
   7   8  -9 4.17017 4.91606   2
   6  -8  -9 25.6739  4.6708   2
  -6  -8   9 23.7130  5.7428   1
   6  -8  -9 15.6619  5.6376   5
   6   8  -9 15.7651  4.8263   1
   6   8  -9 35.7229  7.2465   2
   5  -8  -9 20.4794  4.5491   2
   5  -8  -9 24.5704  5.3645   5
  -5  -8   9 23.5807  5.8104   1
   5  -8  -9 22.9399  5.3728   1
   5   8  -9 30.0531  6.2293   2
   5   8  -9 34.7069  6.3814   1
  -4  -8   9 102.265   9.829   1
   4  -8  -9 103.540  10.200   1
   4  -8  -9 101.451   8.712   2
   4  -8  -9 108.990   9.854   5
   4   8  -9 114.823  10.416   1
   4   8  -9 103.338   9.713   2
   3  -8  -9 3.66076 2.95983   5
  -3  -8   9 -6.5247  4.4381   1
   3  -8  -9 5.96035 4.48010   1
   3   8  -9 1.72796 3.82120   1
   3   8  -9 3.38054 3.00708   2
   2  -8  -9 160.648  12.550   1
   2  -8  -9 175.665  11.124   5
  -2  -8   9 196.450  13.567   1
   2   8  -9 175.106  12.610   1
   2   8  -9 188.643  11.562   2
   1  -8  -9 191.383  13.642   1
  -1  -8   9 173.470  12.683   1
   1  -8  -9 191.070  11.535   5
   1   8  -9 204.631  13.776   1
  -1   8   9 197.850  13.797   1
   1   8  -9 182.178  10.665   2
   0  -8  -9 102.067  10.236   1
   0  -8  -9 97.0671  7.9154   5
   0  -8   9 112.896  10.141   1
   0   8  -9 116.870  10.720   1
   0   8   9 106.145  10.229   1
   0   8  -9 103.922   7.514   2
  -1  -8  -9 172.040  10.309   5
  -1  -8  -9 161.230  12.370   1
   1  -8   9 177.976  12.587   1
  -1   8  -9 174.222  12.988   1
  -1   8  -9 179.190   9.050   2
   2  -8   9 223.715  14.359   1
   2   8   9 246.442  15.093   1
  -2   8  -9 239.445   9.312   2
  -2   8  -9 239.332  15.207   1
  -3  -8  -9 1.34400 3.02140   1
   3  -8   9 4.65342 4.40742   1
  -3   8  -9 4.76150 4.67131   1
   3   8   9 -0.8125  3.9023   1
   4  -8   9 52.9062  7.2569   1
  -4  -8  -9 34.5316  6.6808   1
  -4   8  -9 42.4949  7.0645   3
  -4   8  -9 44.4888  7.6062   1
   4   8   9 43.5235  6.6613   1
   5  -8   9 26.7405  5.9120   1
  -5  -8  -9 38.7145  6.7685   1
  -5   8  -9 35.8332  7.1162   3
   5   8   9 28.0506  5.6413   1
  -5   8  -9 29.9511  6.4715   1
   6  -8   9 10.4550  4.3746   1
  -6   8  -9 12.4396  4.8553   1
  -6   8  -9 -3.1290  4.2640   3
   6   8   9 -4.7611  3.6007   1
  -7  -8  -9 144.735  12.887   4
  -7  -8  -9 134.084  11.254   1
  -7   8  -9 121.536  11.326   1
  -7   8  -9 141.854  13.225   3
  -8  -8  -9 1.94793 4.35376   4
  -8  -8  -9 17.2009  4.8831   1
  -8   8  -9 5.91196 4.53977   1
  -8   8  -9 -0.4532  4.9118   3
  -9  -8  -9 107.273   9.558   1
  -9  -8  -9 107.271  12.803   4
  -9   8  -9 112.761  10.769   1
  -9   8  -9 120.511  13.477   3
 -10  -8  -9 66.6486  7.5068   1
 -10   8  -9 79.4360  9.1168   1
 -10   8  -9 81.0956 11.8736   3
 -11   8  -9 3.42019 3.68375   1
 -11   8  -9 8.77241 6.28910   3
 -11   9   9 5.28854 5.59293   3
 -10  -9   9 -0.5325  3.1469   1
  10  -9  -9 -8.9927  4.9317   5
 -10   9   9 -2.6322  4.7464   3
  10   9  -9 -5.7696  5.6078   2
   9  -9  -9 6.92286 5.33414   5
  -9  -9   9 0.25586 3.44567   1
   9   9  -9 4.05222 5.05220   2
  -9   9   9 -2.4287  4.6939   3
  -8  -9   9 -1.1885  3.9035   1
   8  -9  -9 -3.3896  4.9822   5
   8   9  -9 -0.5364  4.3986   2
  -8   9   9 5.46095 4.59513   3
  -8   9   9 -0.3052  2.8568   1
  -7  -9   9 11.0578  4.3127   1
   7  -9  -9 2.17457 4.80036   5
   7  -9  -9 1.59677 3.96895   1
   7  -9  -9 3.23635 2.73013   2
   7   9  -9 15.5563  6.0204   2
  -7   9   9 1.16520 3.90066   3
  -7   9   9 -3.3880  4.5140   1
  -6  -9   9 56.9854  8.3992   1
   6  -9  -9 70.1149  9.1976   5
   6  -9  -9 63.5629  7.0657   2
   6   9  -9 63.4017  9.0748   2
   6   9  -9 67.8420  8.5867   1
   5  -9  -9 99.2772 10.1760   5
  -5  -9   9 118.061  11.293   1
   5   9  -9 112.346  11.008   2
   5   9  -9 107.934  10.661   1
  -4  -9   9 0.79851 4.41068   1
   4  -9  -9 -9.3003  5.1636   1
   4  -9  -9 6.25930 4.24503   5
   4   9  -9 -0.8297  2.7815   2
   4   9  -9 -0.2983  4.0188   1
   3  -9  -9 101.269  10.512   1
   3  -9  -9 90.8170  9.2273   5
  -3  -9   9 110.511  10.949   1
   3   9  -9 83.9964  9.8892   1
   3   9  -9 96.2445  9.3906   2
   2  -9  -9 42.8041  6.7921   5
  -2  -9   9 38.7775  6.8521   1
  -2   9   9 39.2686  7.0824   1
   2   9  -9 44.2554  7.5817   1
   2   9  -9 34.7868  5.9948   2
   1  -9  -9 142.783  10.544   5
  -1  -9   9 133.978  11.976   1
   1   9  -9 141.496  12.215   1
   1   9  -9 130.285   9.606   2
   0  -9   9 284.631  16.980   1
   0  -9  -9 241.934  13.275   5
   0   9  -9 259.190  12.237   2
   0   9  -9 286.941  17.219   1
   1  -9   9 60.1548  8.5053   1
  -1  -9  -9 63.3285  7.2134   5
   1   9   9 88.8094  9.8030   1
  -1   9  -9 75.3033  6.1717   2
  -1   9  -9 71.6022  9.1860   1
  -2  -9  -9 29.6674  6.2499   1
   2  -9   9 29.6474  6.6236   1
  -2   9  -9 35.7767  7.1708   1
   3  -9   9 40.7238  7.4138   1
  -3   9  -9 42.4463  7.1183   1
   4  -9   9 183.344  13.942   1
   4   9   9 190.766  13.763   1
  -4   9  -9 189.767  14.689   1
  -4   9  -9 187.897  13.916   3
   5  -9   9 13.2298  4.3653   1
  -5  -9  -9 6.46626 4.95275   1
  -5   9  -9 -1.9729  4.6309   1
  -5   9  -9 17.1443  5.8912   3
   5   9   9 5.87113 4.19355   1
  -6  -9  -9 5.63973 4.37528   1
   6  -9   9 2.69525 3.38091   1
  -6   9  -9 7.47654 5.14849   1
  -6   9  -9 4.79196 4.70284   3
  -7  -9  -9 97.3254  9.9692   1
  -7  -9  -9 88.5666 11.1894   4
  -7   9  -9 105.054  11.308   1
  -7   9  -9 83.1762 10.7231   3
  -8  -9  -9 -3.6629  3.7559   1
  -8  -9  -9 1.97844 3.83243   4
  -8   9  -9 -6.9587  5.1206   1
  -9  -9  -9 20.4342  5.2306   1
  -9   9  -9 24.0108  7.8065   3
  -9   9  -9 28.0230  6.4872   1
 -10  -9  -9 20.8712  5.0517   1
   9 -10  -9 5.36337 5.47539   5
  -9  10   9 16.3217  5.6365   3
  -8 -10   9 12.8737  5.1411   1
  -8  10   9 10.4342  5.8095   3
   7 -10  -9 31.5462  6.5655   5
  -7 -10   9 30.5701  6.8187   1
   7  10  -9 41.1638  8.2109   2
  -7  10   9 43.2643  8.1015   3
  -6 -10   9 11.7380  5.4180   1
   6 -10  -9 21.9929  6.3546   5
   6  10  -9 14.0944  5.6730   2
   6  10  -9 7.32916 4.19905   1
   5 -10  -9 95.7972 10.0151   5
  -5 -10   9 119.182  11.881   1
   5  10  -9 99.4068 10.8294   2
   5  10  -9 102.783  10.544   1
  -4 -10   9 -4.4792  4.8464   1
   4 -10  -9 0.15190 4.45287   5
   4 -10  -9 5.38671 4.97568   1
  -4  10   9 -3.0951  3.6757   1
   4  10  -9 -3.5805  4.0258   2
   4  10  -9 1.43864 3.06907   1
   3 -10  -9 -3.5805  5.0384   1
  -3  10   9 -0.3128  4.6097   1
   3  10  -9 4.34227 4.61870   1
  -2 -10   9 14.1347  5.7423   1
   2 -10  -9 11.7812  4.9612   5
   2  10  -9 8.69908 4.01079   2
   2  10  -9 13.4668  5.6913   1
   1 -10  -9 13.1823  4.8654   5
  -1 -10   9 8.91790 4.43256   1
  -1  10   9 7.68596 4.17157   1
   1  10  -9 10.6926  3.5007   2
   1  10  -9 7.78097 5.26441   1
   0 -10   9 37.4624  6.9686   1
   0 -10  -9 30.3779  6.0426   5
   0  10  -9 19.9007  6.3790   1
   0  10   9 28.0447  6.3230   1
   1 -10   9 17.3276  5.5118   1
  -1  10  -9 16.3166  5.6206   1
   2 -10   9 89.0173 10.0352   1
  -2  10  -9 94.7277 10.9614   1
  -3 -10  -9 -0.8241  4.2167   1
   3 -10   9 2.79414 4.52798   1
   3  10   9 8.42098 4.74332   1
  -3  10  -9 0.59738 4.63939   1
  -4  10  -9 10.7699  5.5132   1
   4  10   9 9.03183 4.92668   1
  -4  10  -9 19.8026  5.9921   3
   5 -10   9 63.5187  9.1364   1
  -5  10  -9 55.5663  9.0757   1
  -5  10  -9 60.1156  9.1510   3
  -6 -10  -9 46.0295  8.1436   4
   6 -10   9 34.2471  7.3355   1
  -6  10  -9 33.7113  7.2753   3
  -6  10  -9 30.6282  7.6219   1
  -7 -10  -9 7.50942 5.38565   4
  -7  10  -9 -9.0620  5.3119   1
  -7  10  -9 -12.319   6.375   3
  -8  10  -9 16.7485  7.0549   3
  -8  10  -9 1.17483 3.54339   1
  -9 -10  -9 46.1348  9.6620   4
  -9  10  -9 57.8473  9.1288   1
  -9  10  -9 67.2111 11.4076   3
   8 -11  -9 8.22079 5.99489   5
   8  11  -9 5.47072 5.71324   2
  -8  11   9 -1.6786  3.9391   3
   7 -11  -9 -3.7561  5.1623   5
  -7 -11   9 0.44330 4.47692   1
  -7  11   9 -2.9394  5.0446   1
  -7  11   9 16.6699  6.3927   3
   7  11  -9 13.0301  6.0902   2
   6 -11  -9 3.00931 4.50308   5
  -6 -11   9 4.42781 4.70712   1
  -6  11   9 2.74406 5.08049   1
   6  11  -9 4.72234 5.05365   2
   5 -11  -9 42.1095  7.8242   5
  -5 -11   9 53.6925  9.0918   1
   5  11  -9 32.2468  7.2331   1
   5  11  -9 44.9394  7.9718   2
   4 -11  -9 -3.6357  4.7510   5
  -4 -11   9 -4.7000  4.7666   1
   4  11  -9 5.75478 4.66617   1
   4  11  -9 3.65154 3.30066   2
  -3 -11   9 11.8469  5.5405   1
   3 -11  -9 -6.6010  3.9913   5
   3  11  -9 5.38611 4.20268   2
   3  11  -9 -1.4310  3.1753   1
   2 -11  -9 230.920  17.320   1
  -2 -11   9 212.855  16.221   1
   2 -11  -9 233.657  15.220   5
   2  11  -9 222.255  16.519   1
   2  11  -9 217.117  13.818   2
   1 -11  -9 36.3657  6.8828   5
  -1 -11   9 39.4202  7.3736   1
   1 -11  -9 42.6747  7.8949   1
   1  11  -9 38.8817  7.7956   1
   0 -11  -9 92.3805 11.0058   1
   0 -11   9 72.6810 10.0365   1
   0  11  -9 86.6178 10.4998   1
  -1 -11  -9 5.21060 4.92887   1
   1 -11   9 6.68919 5.27476   1
  -1  11  -9 5.36116 3.98645   1
   2 -11   9 32.5605  7.0172   1
  -2  11  -9 25.8336  6.7790   1
   3 -11   9 42.2668  7.9457   1
  -3 -11  -9 26.9551  6.5749   1
  -3  11  -9 36.1901  7.9231   1
   4 -11   9 18.8936  6.3575   1
  -4  11  -9 17.3315  5.9345   1
   4  11   9 9.82763 4.36248   1
  -5 -11  -9 5.12602 4.80226   1
  -5 -11  -9 5.06517 3.92866   4
  -5  11  -9 -2.4735  4.5226   3
  -5  11  -9 -5.3603  5.6631   1
  -6 -11  -9 -10.307   5.588   1
  -6 -11  -9 -3.3272  4.8750   4
  -6  11  -9 15.1877  6.6566   3
  -6  11  -9 3.09647 4.91601   1
  -7 -11  -9 2.15488 4.14041   1
   6 -12  -9 4.07872 4.80680   1
   6 -12  -9 4.88188 5.36222   5
   6  12  -9 1.14246 4.56579   2
   5 -12  -9 44.5771  8.6032   5
   4 -12  -9 1.51751 4.98217   5
  -4 -12   9 2.71966 5.41266   1
   4 -12  -9 8.89114 5.86830   1
   4  12  -9 5.40819 4.65883   2
   4  12  -9 4.47320 5.15392   1
  -4  12   9 14.5250  6.4813   1
  -3 -12   9 51.7559  9.3753   1
   3 -12  -9 50.6018  7.8656   5
   3  12  -9 47.1066  7.3263   2
   3  12  -9 50.2724  8.5321   1
   2 -12  -9 25.9360  6.8479   5
  -2 -12   9 17.7838  6.5492   1
   2 -12  -9 22.1389  7.1526   1
   2  12  -9 14.9076  6.3572   1
   1 -12  -9 3.84153 4.11158   1
  -1 -12   9 2.74164 3.81352   1
   1  12  -9 3.44402 4.87882   1
   0 -12  -9 -0.9439  3.5249   1
   0 -12   9 -3.6515  4.6504   1
   1 -12   9 17.5144  6.2390   1
  -1  12  -9 16.7964  5.8025   1
   2 -12   9 90.3481 11.3820   1
  -2  12  -9 106.550  12.700   1
  -3 -12  -9 52.6385  8.0040   4
  -3 -12  -9 40.3741  8.0208   1
   3 -12   9 31.4785  7.8633   1
  -3  12  -9 50.6210  9.5087   1
  -4 -12  -9 7.49439 5.84634   1
  -4 -12  -9 9.82198 5.22777   4
   4 -12   9 24.7109  7.0299   1
  -4  12  -9 7.60223 5.57912   1
   4  12   9 11.9891  4.7988   1
  -5 -12  -9 19.5501  6.2546   4
   5 -12   9 9.06546 5.14378   1
  -5  12  -9 -0.8015  5.1049   1
  -5  12  -9 0.73494 3.67398   3
  -6 -12  -9 -1.6595  4.6161   4
  -6  12  -9 5.72196 5.80348   3
  -6  12  -9 10.7461  5.9812   1
  -4  13   9 7.26686 4.96210   1
   3 -13  -9 111.614  12.036   5
   2 -13  -9 18.4722  6.6157   1
   1 -13  -9 11.1426  5.3935   1
  -1  13   9 7.89664 5.80052   1
   0 -13   9 37.3775  7.8396   1
   1 -13   9 12.6468  5.4174   1
   2  13   9 2.08520 4.80371   1
  -3 -13  -9 -3.5881  4.2913   1
  13   0 -10 1.62099 4.90936   5
  13   0 -10 1.12166 3.88226   2
 -12   0  10 23.5852  5.8549   3
  12   0 -10 28.5237  5.5994   2
  12   0 -10 21.6030  6.4668   5
  11   0 -10 0.31857 3.84050   2
 -11   0  10 2.84048 2.17255   1
  11   0 -10 5.74831 4.82122   5
 -11   0  10 -6.1063  3.8427   3
 -10   0  10 134.917  10.099   3
  10   0 -10 147.561  11.256   2
 -10   0  10 144.248   8.563   1
  10   0 -10 143.404  12.773   5
  -9   0  10 -1.9149  2.8512   3
   9   0 -10 -5.6567  4.0504   2
   9   0 -10 3.44499 4.47386   5
  -9   0  10 -0.6285  2.3202   1
  -8   0  10 -1.1557  2.3777   1
   8   0 -10 2.18068 2.78755   2
   8   0 -10 -1.4392  3.9220   5
   7   0 -10 0.54010 3.76219   2
  -7   0  10 -0.1320  2.1363   1
   7   0 -10 -1.1613  3.8602   5
   7   0 -10 3.48921 2.69526   1
  -7   0  10 1.37892 2.23830   3
  -6   0  10 640.947  16.516   3
  -6   0  10 636.994  19.588   1
   6   0 -10 611.925  18.651   1
   6   0 -10 664.043  20.858   2
   6   0 -10 618.734  21.972   5
  -5   0  10 0.44239 2.43928   1
  -5   0  10 -1.5556  1.5281   3
   5   0 -10 -6.5202  3.0213   1
   5   0 -10 0.43466 3.35718   2
   5   0 -10 6.10219 3.77070   5
  -4   0  10 54.8939  5.9824   1
  -4   0  10 49.5492  3.0661   3
   4   0 -10 52.8484  5.8441   2
   4   0 -10 61.3606  6.4605   5
   4   0 -10 55.6950  5.7983   1
   3   0 -10 3.47794 2.88013   5
  -3   0  10 2.36923 2.42904   1
   3   0 -10 0.41191 2.79341   2
   3   0 -10 2.13037 2.72780   1
   2   0 -10 815.403  20.716   5
  -2   0  10 835.151  22.215   1
   2   0 -10 848.818  22.088   1
   2   0 -10 810.760  20.272   2
   1   0 -10 4.87128 2.47422   1
  -1   0  10 -4.6284  2.9726   1
   1   0 -10 -4.1088  2.1098   5
   0   0 -10 94.3857  6.3958   2
   0   0 -10 78.6566  6.7480   1
   0   0 -10 84.6281  5.1344   5
   0   0  10 83.6436  6.9709   1
   1   0  10 3.65041 2.68064   1
  -1   0 -10 1.11527 2.43457   1
   1   0  10 0.58979 0.81088   3
  -1   0 -10 3.20397 2.39851   2
  -1   0 -10 -0.6807  1.1006   5
   2   0  10 234.971   8.181   3
  -2   0 -10 263.735  10.565   2
  -2   0 -10 251.275   6.159   5
  -2   0 -10 235.787  11.359   1
   2   0  10 253.690  11.732   1
  -3   0 -10 0.33178 2.04722   2
   3   0  10 -2.9627  2.4788   1
  -4   0 -10 29.5382  4.4912   1
  -4   0 -10 27.7464  3.8256   3
   4   0  10 26.0646  4.1428   1
  -4   0 -10 27.9988  4.1620   2
  -5   0 -10 -2.6917  2.9964   1
   5   0  10 -0.8026  2.4261   1
  -5   0 -10 7.23204 3.16449   3
  -6   0 -10 -5.0601  2.9902   1
   6   0  10 0.63026 2.19249   1
   7   0  10 -4.7639  2.3939   1
  -7   0 -10 -5.7149  2.9369   1
  -7   0 -10 -3.9678  2.8506   3
  -8   0 -10 131.328   8.220   1
  -8   0 -10 128.033  10.647   3
  -9   0 -10 -2.6365  2.1530   1
 -10   0 -10 2.62290 4.08975   3
 -10   0 -10 5.58093 2.12158   1
 -10   0 -10 14.3127  4.3642   4
 -11   0 -10 15.4498  5.6731   3
 -11   0 -10 5.23634 4.40713   4
 -12   0 -10 23.3739  5.9950   4
 -13   0 -10 3.53666 4.40716   4
  14  -1 -10 -2.7992  3.9269   2
  14  -1 -10 3.05351 5.34507   5
  14   1 -10 2.36653 5.00656   5
  14   1 -10 -0.7041  3.0040   2
 -14   1  10 1.92501 3.54514   3
  13  -1 -10 30.1965  7.7755   5
  13  -1 -10 33.6129  6.5125   2
 -13   1  10 37.4184  7.2901   3
  13   1 -10 17.6265  5.7096   2
  13   1 -10 25.2857  6.6470   5
  12  -1 -10 3.40947 3.95036   2
  12  -1 -10 8.50477 5.62664   5
  12   1 -10 5.95701 5.31299   5
 -12   1  10 11.2933  5.0210   3
  12   1 -10 5.14497 4.50143   2
  11  -1 -10 45.3397  7.0665   2
  11  -1 -10 55.3878  8.9851   5
 -11  -1  10 40.6796  4.4586   1
  11   1 -10 49.8166  7.8457   2
  11   1 -10 39.5454  7.9291   5
 -11   1  10 44.4686  4.8478   1
 -11   1  10 46.9257  7.1562   3
  10  -1 -10 33.6068  6.1543   2
 -10  -1  10 31.7541  4.2715   1
  10  -1 -10 38.5797  6.8094   5
  10   1 -10 34.2259  7.4017   5
 -10   1  10 31.4026  4.4689   1
  10   1 -10 40.6294  7.0248   2
 -10   1  10 32.4154  5.8182   3
  -9  -1  10 -3.5077  2.7135   1
   9  -1 -10 4.03665 4.06925   2
   9   1 -10 -6.1995  4.8471   5
  -9   1  10 -1.4863  2.5228   1
   9   1 -10 -2.4728  4.2714   2
  -9   1  10 1.95327 2.33742   3
  -8  -1  10 7.81615 3.02356   1
   8  -1 -10 3.36933 2.49679   1
   8  -1 -10 10.5824  5.0553   5
   8  -1 -10 17.9589  4.4816   2
   8   1 -10 8.31960 2.95548   1
  -8   1  10 11.5547  3.5234   3
  -8   1  10 9.22497 3.38343   1
   7  -1 -10 37.2086  6.5888   5
   7  -1 -10 44.1182  5.3309   1
  -7  -1  10 43.6112  5.4674   1
   7  -1 -10 39.1132  6.0530   2
   7   1 -10 50.0552  6.3016   2
  -7   1  10 50.4887  5.4921   3
  -7   1  10 48.2696  5.7414   1
   7   1 -10 48.1945  5.3894   1
   6  -1 -10 4.52094 3.66441   5
   6  -1 -10 -5.1263  2.9555   1
  -6  -1  10 1.40612 2.02684   1
  -6   1  10 -0.2128  2.2147   1
   6   1 -10 2.32039 4.00016   2
   5  -1 -10 23.1122  3.8916   1
   5  -1 -10 20.9544  4.9690   5
  -5  -1  10 29.4374  4.6982   1
   5  -1 -10 26.0868  4.3324   2
   5   1 -10 24.0938  2.6651   3
  -5   1  10 22.3844  4.6621   1
  -5   1  10 25.3802  3.1457   3
   5   1 -10 26.0381  4.3064   1
   5   1 -10 29.6884  4.9571   2
   4  -1 -10 21.3082  4.2615   2
   4  -1 -10 23.0644  4.3513   1
  -4  -1  10 27.0187  4.6127   1
   4  -1 -10 25.2082  4.5013   5
   4   1 -10 21.8666  3.9688   1
  -4   1  10 22.7128  2.4919   3
  -4   1  10 24.8326  4.4379   1
   4   1 -10 23.8283  2.0385   3
   4   1 -10 26.4333  4.8444   2
   3  -1 -10 70.1764  6.4411   5
   3  -1 -10 80.0180  6.9148   1
   3  -1 -10 74.3934  6.0824   2
  -3  -1  10 86.5716  7.2198   1
   3   1 -10 78.5841  6.7800   1
   3   1 -10 70.4264  6.4538   2
  -3   1  10 78.9346  6.7070   1
  -3   1  10 77.0287  3.5876   3
  -2  -1  10 14.0012  3.6435   1
   2  -1 -10 1.60161 2.70798   2
   2  -1 -10 0.76310 2.19184   5
   2  -1 -10 0.29869 2.56116   1
  -2   1  10 -0.5833  2.3471   1
  -1  -1  10 34.7726  4.9727   1
   1  -1 -10 30.0677  3.7800   5
   1  -1 -10 33.5067  4.6954   1
   1  -1 -10 27.7053  4.1503   2
  -1   1  10 29.4650  4.6504   1
   1   1 -10 31.4565  4.1525   2
   1   1 -10 31.2663  4.2849   1
   0  -1 -10 755.732  19.084   2
   0  -1 -10 717.446  20.616   1
   0  -1 -10 752.328  16.618   5
   0  -1  10 746.062  20.986   1
   0   1  10 731.214  20.920   1
   0   1 -10 754.358  18.383   2
   0   1  10 723.605  12.597   3
   0   1 -10 731.422  20.514   1
   1  -1  10 4.16658 2.85335   1
  -1  -1 -10 1.15571 1.19814   5
  -1  -1 -10 2.88917 2.90710   1
   1   1  10 7.98361 3.28435   1
   1   1  10 3.75805 1.27912   3
  -1   1 -10 1.00797 2.23587   2
   2  -1  10 491.209  16.695   1
  -2  -1 -10 489.568   9.531   5
  -2  -1 -10 503.884  15.461   2
  -2  -1 -10 475.285  16.354   1
   2   1  10 489.375  16.576   1
  -2   1 -10 467.297  16.093   1
  -2   1 -10 483.289  14.082   2
   2   1  10 486.449  12.975   3
  -2   1 -10 489.322  12.158   3
   3  -1  10 54.8000  5.7902   1
  -3  -1 -10 54.5291  5.9317   1
  -3  -1 -10 52.1082  5.3670   2
   3   1  10 58.2312  5.9619   1
  -3   1 -10 55.3732  4.6480   3
  -3   1 -10 52.6407  5.7480   1
  -3   1 -10 52.2628  4.7728   2
  -4  -1 -10 277.002  12.418   1
   4  -1  10 255.974  11.826   1
  -4   1 -10 261.414  10.390   2
   4   1  10 257.550  11.735   1
  -4   1 -10 256.901  11.041   3
  -4   1 -10 261.075  12.156   1
   5  -1  10 11.0850  3.2724   1
  -5  -1 -10 18.0588  3.9504   1
   5   1  10 15.7558  3.6033   1
  -5   1 -10 20.3896  4.0860   1
  -5   1 -10 26.0929  4.4668   3
   6  -1  10 828.823  22.044   1
  -6  -1 -10 835.994  22.273   1
  -6   1 -10 859.916  24.965   3
  -6   1 -10 853.647  22.689   1
   6   1  10 826.829  21.744   1
   7  -1  10 18.2231  3.4179   1
  -7  -1 -10 16.3225  3.6823   1
  -7   1 -10 15.9499  3.6069   1
  -8  -1 -10 -2.0886  2.3667   1
  -8   1 -10 -3.8312  2.4433   1
  -8   1 -10 6.22797 3.62809   3
  -9  -1 -10 513.289  15.992   1
  -9  -1 -10 519.873  22.043   4
  -9   1 -10 506.366  16.280   1
  -9   1 -10 533.318  23.108   3
  -9   1 -10 526.070  21.322   4
 -10  -1 -10 64.8067  5.3156   1
 -10  -1 -10 59.8858  8.4950   4
 -10   1 -10 55.9358  5.1808   1
 -10   1 -10 58.9816  8.8298   3
 -10   1 -10 66.4675  8.2452   4
 -11  -1 -10 2.09035 3.43428   4
 -11   1 -10 0.01176 3.79224   4
 -11   1 -10 7.56879 5.28635   3
 -12   1 -10 104.966  12.164   3
 -12   1 -10 100.760  10.637   4
 -13   1 -10 34.6593  8.1878   3
  14  -2 -10 13.2187  4.3643   2
  14   2 -10 7.16103 5.98058   5
 -14   2  10 25.4893  7.0378   3
  13  -2 -10 25.6225  6.5910   5
  13  -2 -10 25.0002  5.6518   2
  13   2 -10 20.5346  6.4259   2
 -13   2  10 21.4255  5.9804   3
  13   2 -10 27.1585  7.5313   5
  12  -2 -10 2.90210 4.85405   5
  12  -2 -10 7.66102 4.12270   2
  12   2 -10 -2.7340  5.1561   5
 -12   2  10 1.01235 3.89269   3
  12   2 -10 4.67358 3.83069   2
  11  -2 -10 1.08134 2.76059   2
 -11  -2  10 1.20069 1.86265   1
 -11   2  10 9.67307 4.45553   3
  11   2 -10 8.80752 5.06446   5
  11   2 -10 -1.3611  4.4617   2
  10  -2 -10 63.1032  8.9430   5
 -10  -2  10 58.7692  5.7791   1
  10  -2 -10 61.6019  7.3245   2
  10   2 -10 72.8527  8.9878   2
 -10   2  10 66.9215  7.9783   3
 -10   2  10 66.4030  6.2802   1
  -9  -2  10 2.37945 2.59600   1
   9  -2 -10 -2.8867  4.2916   5
   9  -2 -10 1.05268 3.26885   2
  -9   2  10 3.80282 2.82275   3
  -9   2  10 1.82387 2.59354   1
   9   2 -10 3.48521 4.55580   2
   8  -2 -10 227.499  11.464   1
   8  -2 -10 224.421  12.246   2
  -8  -2  10 213.544  11.090   1
   8  -2 -10 223.220  14.257   5
   8   2 -10 219.585  10.821   1
  -8   2  10 215.685  11.991   3
  -8   2  10 231.908  11.801   1
   8   2 -10 229.035  14.003   2
   7  -2 -10 1.52371 2.97143   2
   7  -2 -10 7.38702 3.09671   1
  -7  -2  10 8.39862 3.35109   1
  -7   2  10 15.5046  4.0629   1
  -7   2  10 10.8747  3.3305   3
   7   2 -10 8.27281 2.57459   1
   6  -2 -10 11.1056  3.4077   2
  -6  -2  10 11.5652  3.5711   1
   6  -2 -10 12.4364  3.6221   1
   6  -2 -10 13.0208  4.6123   5
  -6   2  10 17.1774  4.3091   1
   6   2 -10 26.4217  5.7318   2
  -6   2  10 13.5513  3.1286   3
   6   2 -10 19.8201  3.9056   1
   5  -2 -10 51.3190  6.0220   1
  -5  -2  10 54.0179  6.0951   1
   5  -2 -10 45.0094  5.8637   5
   5   2 -10 40.7234  3.5782   3
  -5   2  10 37.9123  4.1007   3
   5   2 -10 51.9464  5.3920   1
  -5   2  10 49.0098  5.8282   1
   5   2 -10 47.1223  6.3787   2
   4  -2 -10 107.379   8.384   5
  -4  -2  10 94.1804  7.5866   1
   4  -2 -10 101.483   7.574   2
   4  -2 -10 99.8961  7.8096   1
   4   2 -10 100.770   8.076   2
  -4   2  10 96.6643  5.5812   3
   4   2 -10 99.0703  4.6617   3
  -4   2  10 103.940   8.281   1
   4   2 -10 106.045   7.795   1
  -3  -2  10 5.51591 2.64589   1
   3  -2 -10 2.62524 3.00563   2
   3  -2 -10 3.00499 2.92013   5
   3  -2 -10 2.04623 2.23688   1
  -3   2  10 5.90487 1.62715   3
   3   2 -10 5.92144 3.44384   2
  -3   2  10 9.21431 3.57862   1
   3   2 -10 3.92220 2.91762   1
   2  -2 -10 85.1727  6.5717   2
   2  -2 -10 80.0375  6.3570   5
  -2  -2  10 80.6319  6.8491   1
   2  -2 -10 83.9405  7.2887   1
  -2   2  10 81.9133  6.8378   1
   2   2 -10 73.8633  6.8443   1
  -2   2  10 78.1464  7.1992   1
   2   2 -10 80.8890  6.5750   2
   1  -2 -10 106.337   8.107   1
   1  -2 -10 118.187   6.921   5
  -1  -2  10 108.244   8.079   1
   1  -2 -10 122.254   7.731   2
   1   2 -10 114.496   8.212   1
   1   2 -10 108.610   7.086   2
  -1   2  10 119.643   8.300   1
  -1   2  10 109.198   8.226   1
   0  -2 -10 997.943  20.237   5
   0  -2  10 952.872  24.614   1
   0  -2 -10 971.281  25.026   1
   0  -2 -10 1028.53   23.43   2
   0   2  10 1010.16   25.44   1
   0   2 -10 1030.41   25.40   1
   0   2 -10 998.039  21.722   2
  -1  -2 -10 6.93486 2.59011   2
   1  -2  10 5.10855 2.48160   1
  -1   2 -10 10.1640  3.5657   1
  -1   2 -10 12.9074  2.9575   2
   1   2  10 4.16924 3.15980   1
  -1   2 -10 8.42883 1.60805   3
  -2  -2 -10 61.7330  6.0828   2
  -2  -2 -10 56.0791  3.2511   5
  -2  -2 -10 62.4295  6.1430   1
   2  -2  10 59.6810  6.2346   1
   2   2  10 61.7408  6.2670   1
  -2   2 -10 61.1663  4.3883   3
  -2   2 -10 60.7181  6.2347   1
  -2   2 -10 64.3358  5.0151   2
   2   2  10 62.4741  6.3319   1
  -3  -2 -10 139.794   9.231   1
   3  -2  10 134.615   8.925   1
  -3  -2 -10 145.914   9.051   2
  -3   2 -10 145.923   9.136   1
  -3   2 -10 145.777   7.711   3
  -3   2 -10 147.457   7.259   2
  -3   2 -10 134.953   4.402   5
   3   2  10 146.899   9.110   1
  -4  -2 -10 2.69076 3.05770   1
   4  -2  10 -0.0748  2.5458   1
   4   2  10 -2.2463  2.6998   1
  -4   2 -10 0.05055 1.62084   2
  -4   2 -10 1.10464 2.39037   3
  -4   2 -10 -5.3334  2.6190   1
  -5  -2 -10 322.436  13.729   1
   5  -2  10 327.612  13.645   1
   5   2  10 332.225  13.527   1
  -5   2 -10 319.451  13.914   3
  -5   2 -10 331.072  13.814   1
  -6  -2 -10 16.2963  4.0177   1
   6  -2  10 18.0965  3.8246   1
  -6   2 -10 23.3179  4.3033   1
   6   2  10 18.0684  3.7131   1
  -7  -2 -10 1024.09   24.89   1
   7  -2  10 1006.30   24.96   1
   7   2  10 1011.50   24.15   1
  -7   2 -10 1060.63   30.39   3
  -7   2 -10 1024.18   25.59   1
  -8  -2 -10 29.5645  4.3904   1
  -8   2 -10 27.5783  6.1038   3
  -8   2 -10 28.0580  4.4030   1
  -9  -2 -10 10.5513  2.9685   1
  -9   2 -10 15.2148  3.4136   1
  -9   2 -10 11.0640  4.0585   4
 -10  -2 -10 26.8406  3.6738   1
 -10   2 -10 24.6203  6.5459   3
 -10   2 -10 28.8455  4.1001   1
 -10   2 -10 27.2291  5.4722   4
 -11   2 -10 128.468  12.950   3
 -11   2 -10 151.222  12.116   4
 -12  -2 -10 2.30839 4.69440   4
 -13  -2 -10 10.4351  4.8730   4
 -13   2 -10 -1.7939  4.2235   3
  14  -3 -10 29.5009  7.7342   5
  14   3 -10 30.3066  7.4760   2
  14   3 -10 25.9531  7.8225   5
  13  -3 -10 3.55575 3.64897   2
  13   3 -10 -5.3221  5.6956   5
  13   3 -10 -11.090   4.851   2
 -13   3  10 -1.8119  4.2841   3
  12  -3 -10 0.02370 4.52201   5
  12  -3 -10 1.82967 3.18823   2
 -12   3  10 4.60458 4.30613   3
  12   3 -10 -3.9403  5.0794   2
 -11  -3  10 24.0243  3.7491   1
  11  -3 -10 28.4114  5.3930   2
  11  -3 -10 26.5041  6.9323   5
  11   3 -10 27.3591  5.9901   2
 -11   3  10 32.1923  4.7164   1
 -11   3  10 35.5138  6.7444   3
 -10  -3  10 11.7002  3.2000   1
  10  -3 -10 9.64107 5.43508   5
  10  -3 -10 6.34555 3.68731   2
 -10   3  10 14.4832  3.6561   1
 -10   3  10 12.7071  4.7377   3
  10   3 -10 1.35696 4.52744   2
   9  -3 -10 87.8062  9.9411   5
  -9  -3  10 60.9664  6.2118   1
   9  -3 -10 64.1042  7.1479   2
  -9   3  10 68.6724  7.9467   3
   9   3 -10 77.9288  9.2545   2
  -9   3  10 56.4110  6.3739   1
   8  -3 -10 64.6226  6.6600   1
   8  -3 -10 62.2313  6.9273   2
  -8  -3  10 59.4879  6.1246   1
   8  -3 -10 57.1107  8.0509   5
   8   3 -10 57.5742  5.9904   1
   8   3 -10 42.7814  7.2124   2
  -8   3  10 49.8592  6.2325   1
  -8   3  10 56.0399  6.6569   3
   7  -3 -10 194.887  11.109   2
   7  -3 -10 189.903  11.073   1
   7  -3 -10 195.868  13.224   5
  -7  -3  10 181.806  10.707   1
  -7   3  10 194.541  11.451   1
   7   3 -10 189.726  12.655   2
  -7   3  10 183.221  10.872   3
   7   3 -10 176.931  10.054   1
   6  -3 -10 50.3160  7.1062   5
   6  -3 -10 43.2464  5.6418   2
   6  -3 -10 49.9843  6.1505   1
  -6  -3  10 51.8585  6.0994   1
   6   3 -10 48.0210  5.6267   1
   6   3 -10 51.9882  6.9148   2
  -6   3  10 38.1587  4.9074   3
  -6   3  10 52.7179  6.3827   1
   5  -3 -10 0.03991 2.51835   1
  -5  -3  10 6.10694 3.46136   1
   5  -3 -10 1.29643 2.54682   5
   5  -3 -10 9.17734 3.76961   2
   5   3 -10 1.43917 2.31702   1
   5   3 -10 -4.1743  3.1018   2
   4  -3 -10 99.5274  7.9970   5
  -4  -3  10 99.3630  7.9695   1
   4  -3 -10 95.6951  7.1230   2
   4  -3 -10 97.5009  8.0609   1
   4   3 -10 97.6597  5.1516   3
  -4   3  10 101.230   6.292   3
   4   3 -10 114.781   8.397   1
   4   3 -10 107.462   8.234   2
  -4   3  10 104.557   8.276   1
   3  -3 -10 85.4433  7.2440   5
  -3  -3  10 77.1105  6.8964   1
   3  -3 -10 85.1069  7.5688   1
   3  -3 -10 73.0298  6.5635   2
   3   3 -10 71.3911  6.8618   2
   3   3 -10 74.0487  3.9489   3
  -3   3  10 72.2519  7.1571   1
   3   3 -10 75.7116  7.0404   1
  -2  -3  10 -1.4509  2.7676   1
   2  -3 -10 -4.4515  3.2159   2
   2  -3 -10 3.81852 2.99493   5
   2  -3 -10 3.44662 3.03766   1
   2   3 -10 -2.1866  3.1268   2
   2   3 -10 2.54637 3.16505   1
  -2   3  10 0.31192 2.63623   1
   1  -3 -10 560.858  17.217   2
  -1  -3  10 594.568  19.331   1
   1  -3 -10 566.073  16.050   5
   1  -3 -10 598.968  19.642   1
   1   3 -10 581.657  18.862   1
   1   3 -10 589.932  16.893   2
  -1   3  10 569.183  19.073   1
   0  -3 -10 301.157  10.572   5
   0  -3 -10 274.478  13.233   1
   0  -3 -10 314.788  12.819   2
   0  -3  10 315.364  13.851   1
   0   3 -10 292.450   8.286   3
   0   3 -10 291.511  10.969   2
   0   3 -10 299.890  13.474   1
   0   3  10 287.008  13.363   1
  -1  -3 -10 14.7514  4.1999   1
   1  -3  10 10.2961  3.6968   1
  -1  -3 -10 22.7316  4.4324   2
  -1   3 -10 17.3598  3.1159   2
  -1   3 -10 22.1430  4.6524   1
   1   3  10 19.2001  4.2272   1
  -1   3 -10 14.6166  2.3598   3
  -2  -3 -10 191.085  11.021   1
   2  -3  10 198.897  11.074   1
  -2  -3 -10 196.838   6.985   5
  -2  -3 -10 193.928  10.368   2
  -2   3 -10 185.398  10.739   1
   2   3  10 195.105   7.592   5
  -2   3 -10 190.526   6.807   5
  -2   3 -10 189.191   8.111   2
  -2   3 -10 197.986   8.543   3
   2   3  10 183.205  10.464   1
  -3  -3 -10 151.489   9.807   1
   3  -3  10 117.407   8.448   1
  -3   3 -10 125.374   8.924   1
  -3   3 -10 133.982   6.679   2
   3   3  10 133.838   5.679   5
  -3   3 -10 131.372   5.312   5
   3   3  10 143.513   9.445   1
  -3   3 -10 144.273   8.174   3
  -4  -3 -10 0.87722 3.39014   1
  -4   3 -10 9.68793 3.31953   3
   4   3  10 5.95575 1.35312   5
  -4   3 -10 5.21699 1.26509   5
   4   3  10 0.77331 2.88364   1
  -4   3 -10 5.89359 2.96947   1
  -4   3 -10 6.39720 2.02908   2
  -5  -3 -10 342.580  14.430   1
   5  -3  10 336.464  14.262   1
  -5   3 -10 344.822  15.038   3
  -5   3 -10 323.059  14.287   1
   5   3  10 330.463  13.822   1
  -6  -3 -10 -2.4008  3.1622   1
   6  -3  10 -0.3096  2.3530   1
  -6   3 -10 4.58291 3.44247   1
   6   3  10 2.92988 2.76111   1
   7  -3  10 5.57860 2.34383   1
  -7  -3 -10 0.42758 2.63562   1
   7   3  10 3.08442 2.47369   1
  -7   3 -10 -8.4450  4.1453   3
  -7   3 -10 1.55972 2.91659   1
  -8  -3 -10 39.7680  4.9989   1
  -8   3 -10 37.6487  5.2752   4
  -8   3 -10 40.1354  6.9952   3
  -8   3 -10 42.0719  5.3340   1
  -9  -3 -10 60.7739  5.8039   1
  -9   3 -10 54.7789  5.8952   1
  -9   3 -10 43.7873  7.1480   3
  -9   3 -10 56.3375  6.5733   4
 -10  -3 -10 17.6712  5.9598   4
 -10  -3 -10 17.2055  3.2498   1
 -10   3 -10 14.1190  4.1989   4
 -10   3 -10 11.2201  3.1231   1
 -11   3 -10 2.08751 5.11394   3
 -12  -3 -10 -9.9211  5.8463   4
 -12   3 -10 -6.2233  5.2038   3
 -13   3 -10 23.3750  7.3087   3
  13  -4 -10 0.61971 4.30007   5
 -13   4  10 7.90919 5.14442   3
  13   4 -10 -6.5003  5.8689   2
  12  -4 -10 60.1441  9.5462   5
  12  -4 -10 54.7584  6.8870   2
 -12   4  10 52.4961  8.6290   3
  12   4 -10 63.4373  9.0426   2
 -11  -4  10 -0.5924  1.9384   1
  11  -4 -10 -7.3848  3.5512   2
 -10  -4  10 12.5063  3.5151   1
  10  -4 -10 22.7633  6.2574   5
  10  -4 -10 16.6865  4.3844   2
 -10   4  10 20.3179  4.2512   1
  10   4 -10 28.6423  6.9948   2
 -10   4  10 16.1296  5.2261   3
  -9  -4  10 96.6607  7.9538   1
   9  -4 -10 92.6312  8.1794   2
   9  -4 -10 90.3352 10.3302   5
  -9   4  10 74.1381  7.5774   1
  -9   4  10 93.4704  9.3155   3
   9   4 -10 82.2067  9.3072   2
   8  -4 -10 91.9335  7.7614   2
  -8  -4  10 88.0200  7.7147   1
   8  -4 -10 64.4159  8.6612   5
   8  -4 -10 82.3327  7.7206   1
  -8   4  10 95.4828  8.9616   3
  -8   4  10 88.8316  8.1822   1
   8   4 -10 84.6868  7.3895   1
   8   4 -10 83.5884  9.0512   2
   7  -4 -10 705.889  21.556   2
   7  -4 -10 681.013  22.318   1
  -7  -4  10 703.608  22.103   1
   7  -4 -10 751.955  26.074   5
  -7   4  10 691.753  22.350   3
  -7   4  10 712.315  22.940   1
   7   4 -10 735.720  21.939   1
   7   4 -10 701.416  24.745   2
   6  -4 -10 371.081  14.894   2
   6  -4 -10 378.713  17.546   5
   6  -4 -10 390.047  16.368   1
  -6  -4  10 360.852  15.478   1
   6   4 -10 396.381  15.856   1
   6   4 -10 385.852  17.485   2
  -6   4  10 392.490  16.681   1
  -6   4  10 387.114  15.607   3
  -5  -4  10 12.3274  4.1498   1
   5  -4 -10 14.6554  3.5838   2
   5  -4 -10 13.5880  4.2961   5
   5  -4 -10 16.9619  4.5230   1
   5   4 -10 25.2410  4.6573   1
  -5   4  10 20.8216  4.3545   1
  -5   4  10 19.6023  3.8554   3
   5   4 -10 17.8634  4.3758   2
   4  -4 -10 0.88109 2.69631   5
   4  -4 -10 5.36961 3.62283   1
   4  -4 -10 9.16918 3.67579   2
  -4   4  10 7.08044 3.71727   1
   4   4 -10 11.3699  3.7506   2
   3  -4 -10 -6.2271  3.8878   5
   3  -4 -10 1.46635 3.65644   1
  -3  -4  10 3.05495 3.67698   1
   3  -4 -10 -2.0423  2.4478   2
   3   4 -10 8.21156 3.81963   2
   3   4 -10 1.58713 2.35739   1
   2  -4 -10 495.186  18.483   1
   2  -4 -10 467.082  16.013   5
   2  -4 -10 500.332  16.744   2
  -2  -4  10 485.779  18.021   1
   2   4 -10 476.267  17.748   1
   2   4 -10 526.081  17.122   2
  -2   4  10 497.038  18.708   1
  -1  -4  10 503.902  18.412   1
   1  -4 -10 476.872  18.394   1
   1  -4 -10 482.714  15.240   5
   1  -4 -10 495.432  16.567   2
   1   4 -10 477.076  15.239   2
  -1   4  10 508.491  18.725   1
   1   4 -10 501.847  18.280   1
   0  -4 -10 -4.6495  3.5156   2
   0  -4  10 7.51833 3.09127   1
   0  -4 -10 -0.6480  2.1511   5
   0  -4 -10 3.04889 3.55441   1
   0   4 -10 3.16775 2.51396   2
   0   4  10 6.65823 3.68590   1
   0   4 -10 -3.7336  3.9046   1
   1  -4  10 133.278   9.333   1
  -1  -4 -10 131.158   6.790   5
  -1  -4 -10 144.678   9.512   2
  -1  -4 -10 138.950   9.976   1
  -1   4 -10 146.203   7.548   2
   1   4  10 131.688   9.556   1
  -1   4 -10 131.869   9.717   1
  -1   4 -10 138.144   6.922   3
   2  -4  10 21.9675  4.7340   1
  -2  -4 -10 17.1244  2.5752   5
  -2  -4 -10 14.4935  3.8716   1
  -2   4 -10 17.3870  4.6515   1
   2   4  10 15.2560  4.4054   1
  -2   4 -10 15.0135  2.7555   2
  -2   4 -10 20.1552  3.2992   3
  -3  -4 -10 -1.2885  3.2451   1
   3  -4  10 -0.3589  3.2940   1
   3   4  10 0.97213 2.69579   1
  -3   4 -10 7.36881 2.80624   3
  -3   4 -10 2.93344 1.60816   2
  -3   4 -10 6.42199 3.00591   1
   4  -4  10 182.547  11.039   1
  -4  -4 -10 192.872  11.540   1
  -4   4 -10 169.226  10.876   1
   4   4  10 165.695   6.820   5
  -4   4 -10 173.542  10.181   3
   4   4  10 167.766  10.446   1
  -4   4 -10 173.472   7.020   2
  -5  -4 -10 11.4630  3.9101   1
   5  -4  10 4.38119 3.12141   1
   5   4  10 16.5435  3.7597   1
  -5   4 -10 8.92903 3.84328   1
  -5   4 -10 12.5585  4.0072   3
  -6  -4 -10 0.97270 2.96753   1
   6  -4  10 6.83218 3.20263   1
  -6   4 -10 0.36784 3.12431   3
  -6   4 -10 5.35953 2.85309   1
   6   4  10 11.2863  3.3110   1
  -7  -4 -10 19.3887  4.3120   1
   7  -4  10 12.9035  3.6918   1
  -7   4 -10 11.1339  4.6699   3
   7   4  10 13.8646  3.4535   1
  -7   4 -10 15.5504  4.2825   1
  -8  -4 -10 13.4919  3.5820   1
  -8   4 -10 10.0669  3.8842   3
  -8   4 -10 14.8275  3.4056   4
  -9  -4 -10 34.1918  4.7353   1
  -9  -4 -10 39.3155  7.8561   4
  -9   4 -10 25.5517  4.6046   1
  -9   4 -10 31.5740  6.9421   3
 -10  -4 -10 -3.9187  4.9298   4
 -10   4 -10 5.62046 2.72171   1
 -10   4 -10 12.6535  5.0531   3
 -11  -4 -10 2.09253 4.98390   4
 -11   4 -10 1.00033 4.68143   3
 -12   4 -10 87.4075 11.6623   3
 -13   4 -10 0.55724 5.20492   3
  13  -5 -10 4.28760 5.24826   5
  13   5 -10 -5.0848  5.4502   2
 -13   5  10 -5.7258  5.1468   3
  12  -5 -10 41.6963  8.1431   5
  12   5 -10 31.3164  7.0238   2
 -12   5  10 37.6263  7.7749   3
  11  -5 -10 24.9652  7.2141   5
 -11  -5  10 44.3094  5.4370   1
  11  -5 -10 36.7484  5.6012   2
  11   5 -10 43.4274  8.4702   2
 -11   5  10 30.5675  6.9002   3
 -11   5  10 34.1258  5.4116   1
  10  -5 -10 7.23643 3.34189   2
  10  -5 -10 5.33234 5.23786   5
 -10  -5  10 5.42945 3.02370   1
 -10   5  10 1.54088 3.00596   3
 -10   5  10 8.09119 3.83071   1
  10   5 -10 14.2594  5.0906   2
   9  -5 -10 24.9942  6.8543   5
   9  -5 -10 19.8959  4.0819   2
  -9  -5  10 13.9262  4.0883   1
  -9   5  10 17.2546  5.1064   3
  -9   5  10 24.2274  5.1780   1
   9   5 -10 19.5720  6.2674   2
  -8  -5  10 30.1842  4.9736   1
   8  -5 -10 26.1068  5.0952   1
   8  -5 -10 18.7256  6.0556   5
   8  -5 -10 23.9297  4.6449   2
  -8   5  10 35.6782  5.8614   1
  -8   5  10 27.7798  5.4952   3
   8   5 -10 31.4426  7.0479   2
  -7  -5  10 47.3515  6.2364   1
   7  -5 -10 45.6160  6.0642   1
   7  -5 -10 35.7605  6.2657   5
   7  -5 -10 33.3823  5.1447   2
  -7   5  10 42.0035  6.3058   3
   7   5 -10 31.3474  6.7770   2
   7   5 -10 36.8349  5.1554   1
  -7   5  10 53.3277  6.9967   1
   6  -5 -10 147.360  10.700   1
  -6  -5  10 135.714   9.824   1
   6  -5 -10 145.424  11.413   5
   6  -5 -10 152.966   9.670   2
  -6   5  10 147.419  10.914   1
   6   5 -10 154.046  10.174   1
  -6   5  10 141.737  10.063   3
   6   5 -10 157.902  11.487   2
   5  -5 -10 55.5056  6.2115   2
   5  -5 -10 46.7690  6.5736   1
  -5  -5  10 49.7877  6.5945   1
   5  -5 -10 46.1654  6.7943   5
  -5   5  10 58.1355  7.2994   1
   5   5 -10 56.4095  7.3642   2
  -5   5  10 39.9551  5.3825   3
   5   5 -10 46.6858  6.2000   1
   4  -5 -10 89.5403  8.4652   5
   4  -5 -10 109.520   9.373   1
   4  -5 -10 97.5233  7.8329   2
  -4  -5  10 98.0728  8.4115   1
   4   5 -10 97.5989  8.5368   1
   4   5 -10 98.6234  8.7099   2
  -4   5  10 101.706   9.242   1
   3  -5 -10 53.1302  6.1298   2
   3  -5 -10 39.5808  5.9885   5
   3  -5 -10 57.5596  7.2515   1
  -3  -5  10 53.7940  6.4163   1
   3   5 -10 41.0436  6.4079   1
   3   5 -10 58.8168  6.8793   2
  -3   5  10 49.8140  7.0136   1
  -2  -5  10 311.889  15.040   1
   2  -5 -10 291.812  14.885   1
   2  -5 -10 301.593  13.523   2
   2  -5 -10 299.985  13.287   5
   2   5 -10 304.981  14.810   1
  -2   5  10 293.992  14.655   1
   2   5 -10 304.001  13.297   2
   1  -5 -10 -6.4632  4.2606   1
   1  -5 -10 0.82405 2.51906   2
  -1  -5  10 -2.7745  3.7599   1
  -1   5  10 -4.3757  3.9905   1
   1   5 -10 -0.5152  2.5361   1
   0  -5 -10 97.8734  8.9719   1
   0  -5  10 86.5037  8.4046   1
   0  -5 -10 105.013   7.095   5
   0  -5 -10 101.045   8.285   2
   0   5 -10 100.181   8.829   1
   0   5  10 100.801   8.989   1
   0   5 -10 98.8783  6.8488   2
  -1  -5 -10 2.97698 3.83073   1
   1  -5  10 11.6400  4.4362   1
  -1  -5 -10 7.89036 3.43425   2
  -1  -5 -10 15.3414  3.0112   5
  -1   5 -10 10.9958  4.5839   1
   1   5  10 11.1435  4.2867   1
  -1   5 -10 9.28155 2.77988   2
  -2  -5 -10 147.949  10.485   1
   2  -5  10 154.110  10.767   1
  -2  -5 -10 137.155   7.267   5
   2   5  10 142.875  10.134   1
  -2   5 -10 141.010   8.323   3
  -2   5 -10 132.996   9.857   1
  -2   5 -10 141.349   6.963   2
  -3  -5 -10 46.3711  6.5093   1
   3  -5  10 46.0636  6.1807   1
   3   5  10 47.8010  6.4012   1
  -3   5 -10 52.4537  3.9710   2
  -3   5 -10 62.3888  7.3345   1
  -3   5 -10 47.0593  5.4395   3
   4  -5  10 0.23242 3.01080   1
  -4   5 -10 6.23217 2.78743   3
  -4   5 -10 5.47908 1.47380   2
  -4   5 -10 2.85563 2.86195   1
  -5  -5 -10 -2.1556  3.3482   1
   5  -5  10 9.22096 3.69950   1
  -5   5 -10 -2.7867  3.2808   3
   5   5  10 5.31248 3.03071   1
  -5   5 -10 3.19003 2.95710   1
  -6  -5 -10 0.66338 2.84629   1
  -6   5 -10 -2.3281  3.4434   3
  -6   5 -10 -0.2582  3.1244   1
   7  -5  10 1.35027 2.89267   1
  -7  -5 -10 -2.4284  3.0232   1
  -7   5 -10 0.46270 3.22184   1
  -7   5 -10 -3.0997  4.0445   3
  -8  -5 -10 66.7127  6.8984   1
  -8   5 -10 70.6355  7.4560   1
  -8   5 -10 73.6047  9.2808   3
  -9  -5 -10 46.3979  5.6749   1
  -9   5 -10 50.2619  6.4724   1
  -9   5 -10 35.9938  7.5892   3
 -10  -5 -10 131.361  13.519   4
 -10  -5 -10 138.961   8.992   1
 -10   5 -10 135.831   9.727   1
 -10   5 -10 140.428  13.295   3
 -11   5 -10 47.6275  9.2773   3
 -12  -5 -10 255.266  19.823   4
 -12   5 -10 200.331  17.615   3
  12  -6 -10 49.5223  9.1903   5
 -12   6  10 47.6780  9.0559   3
 -12   6  10 54.8672  6.8534   1
 -11  -6  10 40.2840  5.5701   1
  11  -6 -10 55.0339  9.1752   5
 -11   6  10 48.2289  6.8186   1
 -11   6  10 53.1175  8.6383   3
 -10  -6  10 65.3684  7.1955   1
  10  -6 -10 74.6293  9.8208   5
  10  -6 -10 73.0890  7.3806   2
 -10   6  10 76.6843  8.1660   1
 -10   6  10 61.5947  8.9169   3
  10   6 -10 78.4776 10.3247   2
   9  -6 -10 17.2815  3.9683   2
  -9  -6  10 18.0729  4.4696   1
  -9   6  10 19.2895  4.9250   1
   9   6 -10 23.6400  6.6240   2
  -9   6  10 13.5435  5.0219   3
   8  -6 -10 4.70839 3.79283   1
   8  -6 -10 8.60128 3.46266   2
   8  -6 -10 12.3314  5.3463   5
  -8  -6  10 17.8433  4.6270   1
   8   6 -10 7.95597 5.35650   2
  -8   6  10 10.1808  4.5017   1
  -8   6  10 12.3642  4.8093   3
   7  -6 -10 12.4384  3.7168   2
   7  -6 -10 0.81371 3.23789   5
  -7  -6  10 5.71762 3.81111   1
  -7   6  10 5.78075 4.17019   1
   7   6 -10 7.63485 3.59827   1
   6  -6 -10 5.72637 3.97852   1
  -6  -6  10 10.1717  4.3313   1
   6  -6 -10 7.46055 3.02423   2
   6  -6 -10 4.23779 4.37507   5
  -6   6  10 6.39456 4.01287   1
   6   6 -10 14.5543  4.0907   1
  -6   6  10 16.4993  4.6353   3
   5  -6 -10 0.71545 2.90726   2
   5  -6 -10 3.82799 3.81407   1
  -5  -6  10 0.09531 2.49553   1
   5  -6 -10 -8.4347  4.5583   5
   5   6 -10 -4.7357  3.6719   1
   5   6 -10 2.81717 4.30855   2
  -5   6  10 -10.573   4.849   1
   4  -6 -10 91.7776  9.1748   1
  -4  -6  10 91.3619  8.7272   1
   4  -6 -10 84.7933  8.2339   5
   4  -6 -10 81.5944  7.3444   2
  -4   6  10 97.9192  9.5027   1
   4   6 -10 89.6928  8.3560   2
   4   6 -10 82.5215  8.1813   1
   3  -6 -10 -2.1756  2.5894   2
  -3  -6  10 -1.2217  2.7450   1
   3  -6 -10 11.8427  4.8224   1
   3  -6 -10 -2.1373  3.3368   5
   3   6 -10 2.22429 3.62829   1
   3   6 -10 1.81749 3.39914   2
  -3   6  10 4.46700 3.34140   1
   2  -6 -10 22.2223  4.2346   2
   2  -6 -10 25.6866  5.4479   1
  -2  -6  10 14.9908  4.8792   1
   2  -6 -10 22.1464  4.1979   5
  -2   6  10 21.5033  5.4832   1
   2   6 -10 18.9394  4.5957   2
   2   6 -10 27.5061  5.6117   1
   1  -6 -10 4.88744 3.94277   1
   1  -6 -10 3.90052 2.82155   2
  -1  -6  10 5.99989 4.10374   1
   1   6 -10 -6.7980  3.3800   1
   1   6 -10 -7.0227  3.3953   2
   0  -6 -10 111.338   7.826   5
   0  -6 -10 123.898  10.325   1
   0  -6  10 122.616  10.202   1
   0  -6 -10 131.360   9.871   2
   0   6  10 125.620  10.001   1
   0   6 -10 118.864   7.657   2
   0   6 -10 115.394   9.964   1
  -1  -6 -10 409.664  18.205   1
  -1  -6 -10 416.541  14.600   5
   1  -6  10 433.296  18.726   1
   1   6  10 437.584  18.733   1
  -1   6 -10 438.279  18.920   1
  -1   6 -10 419.959  13.527   2
  -2  -6 -10 335.634  12.472   5
  -2  -6 -10 347.822  17.037   1
   2  -6  10 322.918  16.169   1
  -2   6 -10 361.178  14.335   3
   2   6  10 322.648  16.140   1
  -2   6 -10 314.764  15.899   1
  -2   6 -10 330.342  11.029   2
   3  -6  10 273.411  14.609   1
  -3  -6 -10 275.944  14.887   1
  -3   6 -10 300.644  15.678   1
  -3   6 -10 272.280   8.994   2
   3   6  10 269.903  14.582   1
  -3   6 -10 293.844  13.768   3
   4  -6  10 118.971   9.970   1
  -4  -6 -10 140.149  10.747   1
  -4   6 -10 130.653   9.841   3
  -4   6 -10 127.836  10.251   1
   4   6  10 127.889   9.888   1
  -5  -6 -10 197.631  12.512   1
   5  -6  10 190.453  12.459   1
  -5   6 -10 181.119  12.039   3
  -5   6 -10 192.208  12.656   1
   5   6  10 185.169  11.844   1
   6  -6  10 11.3489  4.0662   1
  -6   6 -10 -1.7337  3.9249   3
  -6   6 -10 3.21718 2.98482   1
   6   6  10 2.76730 3.14545   1
  -7  -6 -10 57.2468  6.9515   1
   7  -6  10 54.5259  6.8278   1
  -7   6 -10 78.3967  8.6018   1
  -7   6 -10 62.7553  8.5692   3
  -8  -6 -10 91.2872  8.4009   1
  -8   6 -10 92.6641  8.7764   1
  -8   6 -10 94.3821 10.7896   3
  -9  -6 -10 6.77382 3.11384   1
  -9   6 -10 -0.4912  4.2973   3
  -9   6 -10 6.19497 3.30310   1
 -10  -6 -10 1.23228 5.09444   4
 -10  -6 -10 4.54540 2.82735   1
 -10   6 -10 -1.5106  3.2426   1
 -10   6 -10 2.55709 4.94925   3
 -11  -6 -10 17.9806  7.0508   4
 -11   6 -10 8.09296 3.46142   1
 -12   6 -10 -1.1093  5.3568   3
  12  -7 -10 4.27290 5.53203   5
 -12   7  10 7.40546 5.44701   3
  12   7 -10 0.97119 6.19351   2
 -12   7  10 -0.1490  3.0317   1
 -11  -7  10 103.663   8.970   1
  11  -7 -10 107.681  12.503   5
 -11   7  10 95.2095 11.9495   3
 -11   7  10 95.6617  9.5578   1
  11   7 -10 86.6388 11.0775   2
  10  -7 -10 31.1926  7.6280   5
 -10  -7  10 19.5820  4.7950   1
 -10   7  10 26.4486  6.7420   3
 -10   7  10 20.9530  5.3079   1
  -9  -7  10 12.0114  4.3290   1
   9  -7 -10 1.69671 3.57311   5
  -9   7  10 7.72218 4.80891   3
   9   7 -10 18.2541  6.0962   2
   8  -7 -10 43.8166  8.1376   5
  -8  -7  10 48.1979  6.8476   1
   8  -7 -10 48.2388  6.2112   2
  -8   7  10 66.9850  8.8120   3
  -8   7  10 54.3060  7.7817   1
   8   7 -10 69.8738  9.0274   2
  -7  -7  10 202.784  13.195   1
   7  -7 -10 184.146  13.446   5
   7  -7 -10 189.611  11.392   2
   7  -7 -10 201.999  13.591   1
   7   7 -10 212.184  14.762   2
   7   7 -10 190.943  12.478   1
  -7   7  10 187.685  13.364   3
  -7   7  10 190.176  13.640   1
   6  -7 -10 20.6060  5.5838   1
  -6   7  10 26.4204  6.1658   1
   6   7 -10 18.4530  4.6393   1
  -6   7  10 18.8566  5.1269   3
  -5  -7  10 187.997  12.914   1
   5  -7 -10 215.360  13.776   5
   5  -7 -10 202.992  11.643   2
   5  -7 -10 191.232  13.279   1
   5   7 -10 213.315  13.945   2
   5   7 -10 189.523  12.658   1
  -5   7  10 182.348  13.277   1
   4  -7 -10 -4.1339  4.4377   1
   4  -7 -10 -4.5911  4.0616   5
  -4  -7  10 1.72543 3.90744   1
   4  -7 -10 5.15107 3.76039   2
   4   7 -10 -1.9434  2.7683   2
   4   7 -10 3.71472 3.62841   1
  -4   7  10 -0.0205  4.1837   1
   3  -7 -10 98.1371  8.7897   5
   3  -7 -10 92.2347  9.7668   1
   3  -7 -10 94.9230  8.3499   2
  -3  -7  10 110.574  10.127   1
   3   7 -10 98.8332  8.5718   2
   3   7 -10 91.6470  9.1460   1
  -3   7  10 104.624   9.827   1
   2  -7 -10 44.4060  5.7915   5
   2  -7 -10 58.5245  6.6159   2
   2  -7 -10 55.3116  7.8397   1
  -2  -7  10 42.0730  6.9566   1
  -2   7  10 44.1543  7.2317   1
   2   7 -10 58.5229  6.6791   2
   2   7 -10 45.5584  6.5882   1
   1  -7 -10 1.26400 3.01819   1
   1  -7 -10 -0.2240  2.6337   2
   1  -7 -10 8.99020 3.71607   5
  -1  -7  10 3.46353 4.20130   1
  -1   7  10 -5.7570  4.4325   1
   1   7 -10 0.56452 3.59514   1
   1   7 -10 8.33496 3.40397   2
   0  -7 -10 240.088  14.634   1
   0  -7 -10 242.235  11.997   5
   0  -7  10 237.360  14.182   1
   0   7  10 250.340  14.977   1
   0   7 -10 234.285  11.008   2
   0   7 -10 223.757  14.252   1
  -1  -7 -10 11.3335  4.2432   1
  -1  -7 -10 13.3959  3.6790   5
   1   7  10 18.7051  5.2198   1
  -1   7 -10 12.5902  4.7568   1
  -1   7 -10 14.4785  3.0512   2
   2  -7  10 18.4424  5.1817   1
  -2  -7 -10 28.7404  6.1911   1
  -2  -7 -10 24.9038  4.2777   5
   2   7  10 30.0525  6.0729   1
  -2   7 -10 24.2716  3.2733   2
  -2   7 -10 23.5826  5.8067   1
   3  -7  10 315.898  16.797   1
  -3  -7 -10 303.213  16.358   1
   3   7  10 320.722  16.598   1
  -3   7 -10 303.073  16.756   1
  -3   7 -10 292.978  14.611   3
   4  -7  10 10.0404  4.2682   1
  -4  -7 -10 13.0796  4.5599   1
  -4   7 -10 2.73437 4.27264   1
   4   7  10 21.2942  5.0169   1
  -4   7 -10 12.7315  4.5596   3
   5  -7  10 3.84548 3.01014   1
  -5  -7 -10 -0.6963  2.6782   1
   5   7  10 5.09204 3.79702   1
  -5   7 -10 -2.6784  3.2883   3
  -5   7 -10 -0.9084  3.8840   1
   6  -7  10 42.8107  6.3589   1
  -6  -7 -10 38.7339  6.7488   1
   6   7  10 36.3620  6.0681   1
  -6   7 -10 43.6895  7.2828   1
  -6   7 -10 40.4391  7.2700   3
  -7  -7 -10 40.9546  6.4425   1
   7  -7  10 38.8607  6.4279   1
  -7   7 -10 37.1938  6.8016   1
  -7   7 -10 37.7669  7.5294   3
  -8  -7 -10 18.6422  5.4609   4
  -8  -7 -10 14.3859  4.2861   1
  -8   7 -10 7.90590 4.68975   3
  -8   7 -10 0.89082 3.24204   1
  -9  -7 -10 32.6596  5.7233   1
  -9  -7 -10 46.9973  8.3852   4
  -9   7 -10 33.0329  6.2139   1
  -9   7 -10 47.5688  8.6346   3
 -10  -7 -10 9.17995 5.70930   4
 -10   7 -10 16.3491  4.5597   1
 -10   7 -10 19.4246  7.0390   3
 -11  -7 -10 -8.4952  6.1826   4
 -11   7 -10 -7.4275  6.0303   3
 -11   7 -10 -0.3943  3.1305   1
 -11  -8  10 0.92858 2.98346   1
  11  -8 -10 -3.4314  5.6302   5
 -11   8  10 -7.0742  5.2108   3
  11   8 -10 5.42863 5.75999   2
 -10  -8  10 39.7048  6.3730   1
  10  -8 -10 22.4102  7.0289   5
 -10   8  10 35.4765  6.6382   1
 -10   8  10 28.8834  7.5614   3
  10   8 -10 45.0712  8.3856   2
   9  -8 -10 34.7058  8.0133   5
  -9  -8  10 33.1459  6.2515   1
  -9   8  10 38.7782  7.0838   1
   9   8 -10 44.7740  8.8417   2
  -9   8  10 50.3490  8.5538   3
  -8  -8  10 44.8569  7.0981   1
   8  -8 -10 39.6836  7.2329   5
   8  -8 -10 31.2517  5.3340   2
  -8   8  10 41.1575  7.4544   1
   8   8 -10 39.3960  7.9044   2
   7  -8 -10 84.2267  8.1491   2
   7  -8 -10 91.5099  9.6557   1
  -7  -8  10 91.0668  9.5565   1
   7  -8 -10 97.0499 10.8298   5
   7   8 -10 98.1235 10.9820   2
  -7   8  10 85.0532  9.7799   3
   6  -8 -10 -0.6388  3.7509   1
   6  -8 -10 7.42174 3.65888   2
  -6  -8  10 -2.4114  4.1469   1
   6  -8 -10 -3.1677  4.5199   5
  -6   8  10 7.50758 3.98888   1
   6   8 -10 0.33099 4.09936   2
   5  -8 -10 38.3419  7.0113   1
   5  -8 -10 39.7357  7.1675   5
   5  -8 -10 31.8415  5.6273   2
  -5  -8  10 37.1173  6.3121   1
   5   8 -10 33.7433  6.4093   1
  -5   8  10 37.7052  6.7119   1
   5   8 -10 45.9185  7.4338   2
  -4  -8  10 28.4456  5.8770   1
   4  -8 -10 36.3494  5.9130   5
   4  -8 -10 24.4587  4.7739   2
   4  -8 -10 35.3603  6.4372   1
  -4   8  10 39.4244  7.6043   1
   4   8 -10 44.2153  7.1530   2
   4   8 -10 44.0021  7.1607   1
   3  -8 -10 282.001  14.982   5
  -3  -8  10 291.532  16.483   1
   3  -8 -10 303.216  15.368   2
   3   8 -10 297.917  15.601   2
  -3   8  10 297.690  17.511   1
   3   8 -10 317.751  17.390   1
  -2  -8  10 12.2202  5.3713   1
   2  -8 -10 19.7120  5.0942   5
   2  -8 -10 15.7622  4.9591   1
   2   8 -10 26.6845  6.2121   1
   2   8 -10 14.7281  4.5465   2
  -2   8  10 4.20931 4.57377   1
   1  -8 -10 4.17193 3.25851   5
  -1  -8  10 1.26204 3.17782   1
   1  -8 -10 6.20534 4.56843   1
   1   8 -10 3.00667 3.28014   2
  -1   8  10 2.77976 3.46970   1
   1   8 -10 -2.2634  4.4574   1
   0  -8 -10 17.0917  4.3794   5
   0  -8  10 17.4908  5.4528   1
   0  -8 -10 4.33908 4.65052   1
   0   8 -10 13.8189  3.5068   2
   0   8  10 22.7205  5.3341   1
  -1  -8 -10 -5.5435  3.9376   1
   1  -8  10 -7.6472  4.5107   1
  -1  -8 -10 -2.8053  3.2536   5
  -1   8 -10 5.12120 3.90650   1
   2  -8  10 3.68060 3.38162   1
  -2  -8 -10 -6.3555  4.7633   1
   3  -8  10 14.5929  5.1869   1
  -3  -8 -10 9.16010 4.80629   1
   3   8  10 8.90363 4.18122   1
  -3   8 -10 4.87394 4.64124   1
  -3   8 -10 4.27356 3.61253   3
  -4  -8 -10 12.8162  5.0707   1
   4  -8  10 0.60223 2.68832   1
  -4   8 -10 5.47604 3.11281   3
  -5  -8 -10 22.5916  5.9343   1
   5  -8  10 32.8635  6.6009   1
  -5   8 -10 27.3169  5.9039   1
   5   8  10 42.4396  6.6112   1
  -5   8 -10 35.1161  6.7758   3
  -6  -8 -10 75.7216  8.7384   1
   6  -8  10 75.6131  8.9430   1
  -6   8 -10 81.2599  9.6065   3
  -6   8 -10 69.6283  8.6199   1
  -7  -8 -10 -1.1179  3.7431   1
  -7   8 -10 0.15355 4.13637   3
  -7   8 -10 -2.1729  3.7697   1
  -8  -8 -10 85.8694  9.1584   1
  -8  -8 -10 70.3020 10.0352   4
  -8   8 -10 79.3872  9.5382   1
  -8   8 -10 77.3987 10.7261   3
  -9  -8 -10 13.0946  4.6848   1
  -9  -8 -10 11.8732  6.3017   4
  -9   8 -10 23.4192  6.0031   1
 -10  -8 -10 30.8500  8.3495   4
 -10  -8 -10 30.8904  5.6784   1
 -10   8 -10 49.1258  9.8464   3
 -10   8 -10 32.0629  6.5413   1
  10  -9 -10 -4.5248  5.5592   5
 -10  -9  10 2.01143 3.66136   1
 -10   9  10 -8.5856  5.7006   3
   9  -9 -10 -5.1704  3.9286   5
  -9  -9  10 2.67888 3.71684   1
  -9   9  10 -2.0306  4.4059   1
   9   9 -10 6.00763 5.51651   2
  -9   9  10 8.56513 5.07172   3
  -8  -9  10 2.19739 4.19113   1
   8  -9 -10 4.20911 5.23956   5
   8   9 -10 9.89421 5.52863   2
  -8   9  10 5.15401 4.73623   3
   7  -9 -10 -3.0425  4.7401   5
   7  -9 -10 8.03097 3.51633   2
  -7  -9  10 0.31359 3.87120   1
   7  -9 -10 -0.8521  3.9440   1
  -7   9  10 8.26214 4.80602   3
  -7   9  10 5.78259 4.87421   1
   6  -9 -10 17.1243  5.6110   1
   6  -9 -10 24.7319  5.0386   2
   6  -9 -10 34.4728  6.4703   5
  -6  -9  10 25.3115  6.3118   1
   6   9 -10 28.7255  6.8049   2
   6   9 -10 28.5775  6.3019   1
   5  -9 -10 27.3053  6.3672   5
   5   9 -10 33.9134  6.8235   1
   4  -9 -10 93.0378  9.8397   5
  -4  -9  10 79.4953  9.2630   1
  -4   9  10 96.6078 10.8818   1
   4   9 -10 80.3577  8.7184   2
   4   9 -10 83.0161  9.7753   1
  -3  -9  10 17.5581  5.8797   1
   3  -9 -10 4.14862 4.02499   5
  -3   9  10 24.0952  6.4865   1
   3   9 -10 9.24894 5.21645   1
   3   9 -10 10.6458  4.6030   2
   2  -9 -10 -5.4811  3.3464   5
  -2  -9  10 -2.6250  4.5326   1
   2  -9 -10 -4.7177  4.9563   1
   2   9 -10 -0.8736  3.0512   1
  -2   9  10 -9.4596  5.2897   1
   1  -9 -10 103.539   9.281   5
  -1  -9  10 92.8471 10.4610   1
   1   9 -10 110.362  11.276   1
   1   9 -10 107.565   8.659   2
  -1   9  10 93.6772 10.8311   1
   0  -9 -10 181.464  11.860   5
   0  -9  10 169.094  13.389   1
   0   9 -10 160.331   9.748   2
   0   9 -10 180.397  14.278   1
   0   9  10 189.725  14.732   1
   1  -9  10 35.5467  6.6952   1
  -1  -9 -10 41.2986  6.2102   5
   1   9  10 36.5778  7.3543   1
  -2  -9 -10 58.5414  8.7795   1
   2  -9  10 67.0385  9.0497   1
   2   9  10 68.5937  9.0044   1
  -2   9 -10 66.2596  9.3632   1
   3  -9  10 9.67063 5.08320   1
  -3   9 -10 12.5038  5.2247   1
   4  -9  10 14.0908  5.3216   1
  -4   9 -10 17.4027  6.4282   1
  -4   9 -10 13.4763  4.3933   3
   5  -9  10 2.59929 3.94012   1
   5   9  10 3.35853 4.04205   1
  -5   9 -10 5.62915 4.27258   1
  -5   9 -10 13.6404  5.5184   3
  -6   9 -10 41.3365  7.7069   3
  -6   9 -10 39.9452  7.1774   1
  -7  -9 -10 2.31690 4.01165   1
  -7  -9 -10 4.72390 5.08283   4
  -7   9 -10 8.68009 5.06062   3
  -7   9 -10 -0.7474  4.1612   1
  -8  -9 -10 130.050  13.545   4
  -8  -9 -10 130.136  11.673   1
  -8   9 -10 107.277  11.517   1
  -8   9 -10 140.539  14.417   3
  -9  -9 -10 16.0563  5.1448   1
  -9   9 -10 15.1519  5.0240   1
  -9   9 -10 21.6799  7.3657   3
   9 -10 -10 -3.4005  5.2015   5
  -9 -10  10 9.66397 4.68182   1
  -9  10  10 0.19195 3.86521   1
  -9  10  10 -2.0834  4.6082   3
   8 -10 -10 2.04550 3.67328   5
   8  10 -10 1.34986 3.78038   2
   7 -10 -10 3.80297 4.41136   1
  -7 -10  10 -7.0105  5.1306   1
   7 -10 -10 1.11959 4.89876   5
  -7  10  10 -1.4683  4.0965   3
  -7  10  10 -4.2806  4.8446   1
  -6 -10  10 27.1423  6.7866   1
   6 -10 -10 36.4026  7.6944   5
   6  10 -10 31.7289  6.7355   2
  -5 -10  10 51.1836  8.6749   1
   5 -10 -10 54.1273  8.5967   5
   5  10 -10 49.4132  8.3491   2
   5  10 -10 47.8001  8.1743   1
   4 -10 -10 -2.3944  4.8759   1
   4 -10 -10 4.31391 3.94897   5
  -4 -10  10 15.0142  6.0066   1
   4  10 -10 17.9203  6.2715   1
  -4  10  10 11.7389  4.7976   1
   4  10 -10 4.97081 4.57784   2
   3 -10 -10 9.31962 5.06388   5
   3  10 -10 11.2937  4.8811   2
   3  10 -10 15.5967  5.0750   1
  -2 -10  10 6.66727 4.70821   1
   2 -10 -10 9.10990 4.50839   1
   2  10 -10 14.2753  4.4410   2
  -2  10  10 6.92736 4.99758   1
   1 -10 -10 114.266  10.263   5
   1 -10 -10 113.623  12.195   1
  -1 -10  10 86.6950 10.5802   1
  -1  10  10 75.6772  9.6902   1
   1  10 -10 102.430  11.003   1
   1  10 -10 87.9488  8.2122   2
   0 -10  10 93.5293 11.0409   1
   0 -10 -10 82.1764  8.9226   5
   0  10 -10 75.3228 10.0940   1
   0  10  10 100.413  11.014   1
   1 -10  10 24.5917  6.6285   1
  -1 -10 -10 10.6829  4.5974   1
  -1  10 -10 17.6705  6.0330   1
   1  10  10 1.65193 4.18122   1
  -2 -10 -10 3.14259 4.83135   1
   2 -10  10 -9.4461  5.3564   1
   2  10  10 2.18374 4.16420   1
  -2  10 -10 8.62285 4.52290   1
   3 -10  10 1.94774 3.35417   1
  -3 -10 -10 8.88399 5.26375   1
   3  10  10 5.28731 3.75210   1
  -3  10 -10 -12.300   6.170   1
  -4 -10 -10 64.7809  9.6112   1
   4 -10  10 47.6614  8.5001   1
  -4  10 -10 54.8060  8.7250   3
  -4  10 -10 57.4671  9.3185   1
   4  10  10 51.0521  8.2867   1
   5 -10  10 99.8792 11.4060   1
   5  10  10 80.3861  9.9221   1
  -5  10 -10 81.0436 10.5249   3
  -5  10 -10 92.7846 11.5393   1
   6 -10  10 129.288  12.491   1
  -6 -10 -10 127.620  12.668   4
  -6  10 -10 114.611  12.622   1
  -6  10 -10 129.750  13.163   3
  -7 -10 -10 25.9775  5.9280   1
  -7  10 -10 21.6085  6.7148   1
  -8 -10 -10 14.6378  5.4734   1
  -8  10 -10 8.33639 5.30194   1
   8  11 -10 5.93922 5.10755   2
  -8  11  10 5.66366 5.35524   3
   7 -11 -10 48.0022  8.1543   5
   7  11 -10 55.1951  8.9481   2
  -7  11  10 53.5961  9.1923   3
   6 -11 -10 -0.6979  4.5281   5
  -6  11  10 -10.202   5.926   1
   6  11 -10 -5.0198  4.7070   2
  -5 -11  10 63.1287  9.4328   1
   5 -11 -10 65.3060  8.9545   5
   5  11 -10 67.8525  9.4274   2
   5  11 -10 62.0592  9.4421   1
   4 -11 -10 54.4271  8.4648   5
  -4 -11  10 54.3368  8.6595   1
   4 -11 -10 59.9131  9.5317   1
   4  11 -10 43.2424  7.3678   2
   4  11 -10 58.9460  9.4310   1
  -4  11  10 72.3452 10.4957   1
   3 -11 -10 1.32097 4.91081   1
   3 -11 -10 10.2582  5.3531   5
   3  11 -10 -9.0577  4.7469   2
  -3  11  10 -4.0925  5.1578   1
   3  11 -10 -4.8956  5.1388   1
   2 -11 -10 18.2800  6.4434   1
   2  11 -10 11.6920  5.6787   1
   2  11 -10 13.2583  4.3822   2
  -1 -11  10 78.7685 10.6958   1
   1 -11 -10 80.3918  9.2535   5
   1 -11 -10 89.6415 11.1777   1
   1  11 -10 79.0580 10.6525   1
   0 -11 -10 65.4623  9.7097   1
   0 -11  10 64.8717  9.9377   1
   0  11 -10 68.7626 10.3357   1
   1 -11  10 -1.0199  4.7246   1
  -1 -11 -10 -3.6241  4.9729   1
   1  11  10 4.45678 4.90773   1
  -1  11 -10 -10.369   5.908   1
   2 -11  10 21.0035  6.6289   1
  -2  11 -10 14.7110  6.3900   1
  -3 -11 -10 24.5004  6.3759   1
   3 -11  10 20.1706  6.5857   1
  -3  11 -10 25.1479  6.6262   1
   4 -11  10 60.3878  9.8135   1
   4  11  10 55.9627  8.5421   1
  -4  11 -10 43.3130  7.6695   3
  -4  11 -10 61.8100 10.1407   1
   5 -11  10 7.06618 4.65436   1
  -5 -11 -10 9.89671 4.49098   4
  -5 -11 -10 0.89329 4.36488   1
  -5  11 -10 16.1767  6.5811   3
  -6 -11 -10 -10.858   5.676   1
  -6 -11 -10 -3.6451  5.3569   4
  -6  11 -10 -8.4986  4.6960   1
  -6  11 -10 1.36809 4.81544   3
  -7 -11 -10 27.0709  7.2049   4
  -7 -11 -10 20.2380  5.9020   1
  -7  11 -10 24.6135  7.8886   3
   6  12 -10 17.1276  6.5489   2
   5 -12 -10 141.874  13.254   5
   5  12 -10 162.421  14.401   2
   4 -12 -10 68.5543  9.8494   5
   4 -12 -10 46.9564  9.1261   1
   4  12 -10 52.1725  8.4698   2
   3 -12 -10 83.4287 10.5513   5
   2 -12 -10 3.79319 5.27618   1
   2 -12 -10 10.9778  5.2150   5
  -2 -12  10 6.45691 5.48479   1
  -2  12  10 -0.1604  5.1516   1
   2  12 -10 4.34933 4.06629   1
  -1 -12  10 26.9685  7.5946   1
   1 -12 -10 16.4396  4.9416   5
   1  12 -10 7.25659 5.90745   1
  -1  12  10 7.88484 6.14223   1
   0 -12 -10 12.8115  5.8771   1
   0 -12  10 10.4335  6.0773   1
   0  12 -10 0.36832 5.19204   1
   1 -12  10 0.95038 4.95781   1
  -1  12 -10 1.82752 5.17768   1
   1  12  10 8.17261 5.71016   1
   2 -12  10 6.80175 5.49143   1
   2  12  10 17.7865  6.5790   1
  -2  12 -10 2.72438 5.46586   1
  -3 -12 -10 -4.9804  4.8676   1
   3 -12  10 12.3071  5.9819   1
   3  12  10 3.96302 4.83130   1
  -3  12 -10 -1.9229  3.8628   1
   4 -12  10 27.5082  7.3701   1
  -4 -12 -10 22.8958  6.6699   4
  -4  12 -10 37.0638  8.6233   1
  -4  12 -10 38.5065  7.8922   3
   4  12  10 36.5913  7.5098   1
  -5 -12 -10 12.8143  5.6475   4
   5 -12  10 17.5084  6.4349   1
  -5  12 -10 20.9477  6.4583   1
  -5  12 -10 13.0344  5.6358   3
   2  13 -10 34.9115  8.1647   1
   1 -13 -10 5.96184 4.89542   1
   1  13 -10 1.75748 4.99779   1
   0 -13 -10 14.8265  6.4517   1
   0 -13  10 -7.9429  5.7316   1
   0  13 -10 -1.6152  5.1218   1
   1 -13  10 3.84183 5.55704   1
  -1 -13 -10 8.67453 5.91326   1
   2 -13  10 6.00443 5.37523   1
   2  13  10 12.7045  5.9571   1
  14   0 -11 1.76989 3.88431   2
  14   0 -11 5.13114 5.37377   5
  13   0 -11 110.459  13.026   5
  13   0 -11 98.1951 10.7138   2
  12   0 -11 -5.2654  4.6216   2
  12   0 -11 9.18011 5.68029   5
 -11   0  11 100.759   7.414   1
  11   0 -11 76.6524  8.6606   2
 -11   0  11 82.3582  8.5784   3
  11   0 -11 88.2439 10.9572   5
 -10   0  11 1.27541 2.32318   1
 -10   0  11 2.24129 2.97177   3
  10   0 -11 -3.0453  3.2178   2
  10   0 -11 7.85833 5.50139   5
   9   0 -11 66.5321  9.2493   5
  -9   0  11 61.8892  6.5713   3
  -9   0  11 59.4167  6.3861   1
   9   0 -11 60.2262  7.6889   2
   8   0 -11 -6.3620  4.4249   5
   8   0 -11 6.22615 4.25184   2
  -8   0  11 7.09401 2.82284   3
  -8   0  11 -2.3220  2.8356   1
   8   0 -11 2.10803 2.55531   1
  -7   0  11 901.520  24.757   1
   7   0 -11 870.572  23.778   1
   7   0 -11 877.006  25.893   2
  -7   0  11 833.145  20.618   3
   7   0 -11 839.735  27.760   5
  -6   0  11 4.65728 1.90996   3
  -6   0  11 7.44192 3.62233   1
   6   0 -11 -5.9965  3.9768   5
   6   0 -11 1.01195 2.12160   1
  -5   0  11 5.26361 2.93310   1
   5   0 -11 8.49513 3.42682   1
   5   0 -11 2.74482 3.36562   5
  -4   0  11 1.44198 3.19762   1
   4   0 -11 0.67695 2.16471   5
   4   0 -11 2.82417 2.92474   2
  -3   0  11 95.7603  7.8972   1
   3   0 -11 87.2488  7.0380   2
   3   0 -11 94.5236  7.5597   1
   3   0 -11 87.5329  7.1102   5
   2   0 -11 4.36433 3.37116   2
  -2   0  11 8.65508 3.67594   1
   2   0 -11 3.63538 2.67776   5
   1   0 -11 154.783   8.114   5
  -1   0  11 148.804   9.557   1
   1   0 -11 151.165   8.580   2
   1   0 -11 160.656   9.777   1
   0   0 -11 2.43850 2.81082   2
   0   0  11 0.89151 1.96221   1
   0   0 -11 1.10211 2.59899   1
   1   0  11 2.40459 2.18803   1
  -1   0 -11 7.17497 2.89135   2
  -1   0 -11 2.12119 2.84667   1
  -1   0 -11 2.57969 1.41956   5
   2   0  11 0.26559 1.04651   3
   2   0  11 -0.5437  2.5910   1
  -2   0 -11 0.89217 0.84710   5
  -2   0 -11 0.83642 2.78280   1
  -2   0 -11 -2.1248  2.5704   2
   3   0  11 616.910  19.351   1
  -3   0 -11 622.784  19.537   1
  -3   0 -11 632.626  18.078   2
   4   0  11 3.51885 2.86421   1
  -4   0 -11 -3.3995  2.5614   2
  -4   0 -11 1.42745 2.20574   1
   5   0  11 1470.55   32.00   1
  -5   0 -11 1525.97   32.03   3
  -5   0 -11 1488.57   32.71   1
  -6   0 -11 0.96954 2.75180   1
  -6   0 -11 0.89865 2.57471   3
   6   0  11 5.03768 2.75633   1
  -7   0 -11 14.6837  3.7284   1
   7   0  11 11.1745  3.1451   1
  -7   0 -11 11.9957  4.0640   3
  -8   0 -11 2.87846 3.74898   3
  -8   0 -11 2.78213 2.52816   1
  -9   0 -11 41.1541  7.1230   3
  -9   0 -11 49.3510  5.3554   1
 -10   0 -11 3.88625 3.34222   4
 -11   0 -11 26.2147  6.4401   4
 -12   0 -11 0.99165 2.97021   4
 -13   0 -11 16.3337  6.1634   4
  14  -1 -11 17.3773  5.6277   2
  14   1 -11 20.0571  7.2908   5
  13  -1 -11 6.72105 4.26037   2
  13  -1 -11 3.93564 5.51830   5
  13   1 -11 21.1993  7.2053   5
  12  -1 -11 27.5444  7.5078   5
  12  -1 -11 29.3713  6.3015   2
  12   1 -11 15.1115  5.3609   5
 -12   1  11 25.7121  5.8115   3
  12   1 -11 32.6179  6.7797   2
 -11  -1  11 7.50388 2.63129   1
  11  -1 -11 8.55308 4.59402   2
  11   1 -11 7.61260 4.59541   5
  11   1 -11 12.0626  5.0825   2
 -11   1  11 14.8457  3.4275   1
 -11   1  11 12.7500  4.7662   3
 -10  -1  11 9.25058 3.10154   1
  10  -1 -11 5.23637 5.06390   5
  10  -1 -11 0.56871 3.83121   2
  10   1 -11 11.4055  5.2184   2
 -10   1  11 9.28577 3.27730   1
  10   1 -11 7.99267 5.38767   5
   9  -1 -11 272.773  14.859   2
   9  -1 -11 254.944  16.396   5
  -9  -1  11 265.848  12.884   1
  -9   1  11 267.942  13.674   3
  -9   1  11 246.205  12.418   1
   9   1 -11 264.672  15.196   2
   9   1 -11 254.996  16.604   5
   8  -1 -11 206.971  11.251   1
  -8  -1  11 203.298  11.287   1
   8  -1 -11 194.494  13.572   5
   8  -1 -11 207.866  12.517   2
  -8   1  11 194.646  11.097   1
   8   1 -11 194.885  12.421   2
   8   1 -11 191.453  10.666   1
  -8   1  11 206.181  11.014   3
   7  -1 -11 20.7381  4.3968   1
  -7  -1  11 19.2440  4.4217   1
   7  -1 -11 8.56956 3.34074   2
  -7   1  11 9.38888 3.65474   1
  -7   1  11 12.8710  2.9827   3
   6  -1 -11 84.5444  7.5722   1
   6  -1 -11 78.3627  7.2937   2
  -6  -1  11 87.4205  7.7201   1
   6  -1 -11 77.7960  8.3674   5
  -6   1  11 92.1514  8.0779   1
   6   1 -11 77.8470  6.9477   1
  -6   1  11 76.3902  5.6161   3
   6   1 -11 83.8049  8.1723   2
   5  -1 -11 3.65441 3.62325   5
  -5  -1  11 11.1529  3.9188   1
  -5   1  11 5.04109 3.65708   1
  -5   1  11 12.0428  2.2361   3
   5   1 -11 5.55757 4.09646   2
   5   1 -11 11.2294  3.1137   1
   4  -1 -11 80.2125  7.3868   1
   4  -1 -11 57.7457  5.8890   2
  -4  -1  11 74.7857  7.3813   1
   4  -1 -11 59.8822  6.7039   5
  -4   1  11 57.7095  3.5597   3
   4   1 -11 61.4955  6.4640   1
  -4   1  11 72.9284  7.0272   1
   4   1 -11 63.6103  6.3437   2
  -3  -1  11 8.53367 3.59470   1
   3  -1 -11 5.71905 3.39758   1
   2  -1 -11 200.866  11.140   1
   2  -1 -11 189.725   9.633   5
   2  -1 -11 219.250  10.765   2
  -2  -1  11 215.791  11.614   1
  -2   1  11 216.453  11.657   1
   2   1 -11 189.497   9.977   2
   2   1 -11 186.239  10.721   1
   1  -1 -11 2.51913 2.34036   1
   1  -1 -11 -1.7982  2.2468   5
  -1  -1  11 -2.9644  3.0428   1
   1  -1 -11 4.01720 3.02943   2
   1   1 -11 8.25231 2.62856   2
   1   1 -11 2.49737 2.27426   1
   0  -1 -11 134.487   6.808   5
   0  -1 -11 142.719   8.519   2
   0  -1  11 128.226   9.041   1
   0  -1 -11 122.432   8.845   1
   0   1  11 125.530   4.323   3
   0   1 -11 130.386   7.896   2
   0   1  11 124.412   8.946   1
   0   1 -11 127.338   8.874   1
  -1  -1 -11 541.088  12.636   5
  -1  -1 -11 576.140  19.068   1
   1  -1  11 561.009  18.832   1
  -1  -1 -11 540.344  16.545   2
  -1   1 -11 554.548  18.584   1
   1   1  11 550.981  18.653   1
   1   1  11 544.167  12.235   3
  -1   1 -11 561.818  16.142   2
  -2  -1 -11 0.62094 0.85116   5
   2  -1  11 -0.8570  2.8062   1
  -2   1 -11 0.44916 0.93392   5
  -2   1 -11 -0.7257  1.2597   3
  -2   1 -11 -1.7159  2.4356   2
   2   1  11 -0.1428  2.5445   1
  -2   1 -11 -1.1905  2.0899   1
   2   1  11 2.24677 1.38368   3
   3  -1  11 6.71747 3.21464   1
  -3  -1 -11 -4.2061  3.2014   2
  -3  -1 -11 1.48837 3.06035   1
  -3   1 -11 4.64705 1.96527   3
   3   1  11 1.24957 3.00234   1
  -3   1 -11 1.70443 3.17420   1
  -3   1 -11 -1.2963  2.4604   2
  -4  -1 -11 73.0320  6.8548   2
  -4  -1 -11 81.7138  7.4249   1
   4  -1  11 78.9287  7.0685   1
  -4   1 -11 74.9139  6.0838   3
  -4   1 -11 74.4102  7.0771   1
  -4   1 -11 66.6737  5.7389   2
   4   1  11 82.8399  7.2426   1
  -5  -1 -11 301.133  13.620   1
   5  -1  11 295.669  13.440   1
   5   1  11 296.878  13.286   1
  -5   1 -11 294.245  12.945   3
  -5   1 -11 303.918  13.770   1
  -6  -1 -11 6.86920 3.32128   1
   6   1  11 6.33399 3.01550   1
  -6   1 -11 3.92796 2.88672   1
  -6   1 -11 14.7262  4.0097   3
   7  -1  11 464.127  16.502   1
  -7  -1 -11 433.447  16.192   1
  -7   1 -11 454.403  18.931   3
  -7   1 -11 445.880  16.367   1
   7   1  11 436.464  15.877   1
  -8  -1 -11 93.2924  7.5110   1
  -8   1 -11 87.8189  7.3427   1
  -8   1 -11 90.1363  8.9684   3
  -9  -1 -11 13.1573  3.2857   1
 -10  -1 -11 44.9541  4.9304   1
 -10  -1 -11 33.3448  6.9287   4
 -10   1 -11 48.5842  7.4102   4
 -10   1 -11 48.9562  5.2829   1
 -10   1 -11 45.2229  7.8804   3
 -11  -1 -11 97.4781 10.7934   4
 -11   1 -11 114.321  11.223   4
 -11   1 -11 91.3506 11.0872   3
 -12  -1 -11 -6.5117  5.3187   4
 -12   1 -11 4.40419 3.44648   4
 -12   1 -11 3.22222 3.83309   3
 -13  -1 -11 -3.1972  4.9091   4
 -13   1 -11 -3.3375  4.8391   3
  14  -2 -11 51.6869  7.6343   2
  14   2 -11 44.8492  8.3111   2
  13  -2 -11 6.23577 4.19633   2
  13  -2 -11 5.91425 4.30552   5
  13   2 -11 2.54495 4.59419   5
  13   2 -11 3.01315 4.89948   2
  12  -2 -11 23.6074  7.1353   5
  12  -2 -11 12.2392  4.6632   2
  12   2 -11 18.1121  6.4392   2
 -12   2  11 20.8454  5.7043   3
  12   2 -11 19.5118  6.7347   5
 -11  -2  11 7.64357 2.80494   1
  11  -2 -11 12.0991  6.0304   5
  11  -2 -11 9.81667 3.94643   2
  11   2 -11 8.45319 5.59728   5
 -11   2  11 7.37763 3.04410   1
 -10  -2  11 1.21572 2.47485   1
  10   2 -11 7.64963 5.25902   2
 -10   2  11 0.30727 2.41431   1
 -10   2  11 8.47183 4.10547   3
   9  -2 -11 22.6573  5.2148   2
   9  -2 -11 11.8552  5.2070   5
  -9  -2  11 25.0861  4.5656   1
   9   2 -11 25.8383  6.2314   2
  -9   2  11 22.8772  4.6312   3
  -9   2  11 20.5986  4.5997   1
   8  -2 -11 5.58081 3.13866   1
   8  -2 -11 1.93820 3.60239   2
   8  -2 -11 0.62751 3.50124   5
  -8  -2  11 -4.0935  3.0997   1
  -8   2  11 -4.9402  2.9672   3
  -8   2  11 -7.2678  3.5531   1
   8   2 -11 0.70396 1.72554   1
   8   2 -11 -2.8788  3.5667   2
  -7  -2  11 0.34312 2.72613   1
   7  -2 -11 2.21904 2.84636   1
   7  -2 -11 9.77992 3.42682   2
  -7   2  11 -0.1174  2.7819   1
   7   2 -11 0.79461 3.88171   2
   7   2 -11 3.15511 2.69336   1
  -6  -2  11 4.78827 3.26344   1
   6  -2 -11 10.1665  3.7460   5
   6  -2 -11 12.1893  3.6443   2
   6  -2 -11 2.89889 3.04964   1
   6   2 -11 0.77395 2.91217   2
   6   2 -11 8.09042 3.21155   1
  -6   2  11 6.81607 3.63601   1
  -6   2  11 2.93477 2.13532   3
   5  -2 -11 21.7731  4.1790   1
  -5  -2  11 23.7332  4.7772   1
   5  -2 -11 16.3067  4.4959   2
   5  -2 -11 17.3881  4.6691   5
  -5   2  11 26.3824  5.1969   1
   5   2 -11 18.2064  3.7066   1
   5   2 -11 22.0338  2.5302   3
   5   2 -11 14.3766  3.8844   2
  -5   2  11 18.7555  2.9885   3
   4  -2 -11 479.136  17.585   1
   4  -2 -11 458.245  16.395   2
  -4  -2  11 495.809  18.004   1
   4  -2 -11 441.472  17.181   5
   4   2 -11 460.550  17.041   2
   4   2 -11 474.814  17.193   1
  -4   2  11 463.869  12.440   3
   4   2 -11 494.273  10.361   3
  -4   2  11 486.965  17.967   1
  -3  -2  11 472.207  17.523   1
   3  -2 -11 487.700  17.121   5
   3  -2 -11 460.217  16.165   2
   3  -2 -11 469.811  17.600   1
  -3   2  11 451.569  17.263   1
   3   2 -11 465.294  17.070   1
   3   2 -11 467.081  16.381   2
  -3   2  11 448.277  10.977   3
   2  -2 -11 165.317   9.266   5
   2  -2 -11 156.813   9.327   2
  -2  -2  11 165.107  10.468   1
   2  -2 -11 175.511  10.492   1
   2   2 -11 169.836   9.523   2
  -2   2  11 158.520  10.360   1
  -2   2  11 153.782  10.335   1
   2   2 -11 174.868  10.423   1
   1  -2 -11 54.0160  6.5542   1
  -1  -2  11 59.1040  6.6117   1
   1  -2 -11 60.5018  6.0782   2
   1  -2 -11 48.1381  4.9011   5
  -1   2  11 64.2400  6.9100   1
   1   2 -11 51.9718  5.2715   2
   1   2 -11 61.7216  6.3455   1
   0  -2  11 113.010   8.765   1
   0  -2 -11 133.107   8.500   2
   0  -2 -11 123.955   6.704   5
   0  -2 -11 132.071   9.415   1
   0   2  11 114.005   5.037   3
   0   2 -11 115.443   7.451   2
   0   2  11 125.438   8.963   1
   0   2 -11 122.503   9.111   1
  -1  -2 -11 219.543  11.999   1
   1  -2  11 227.452  12.123   1
  -1  -2 -11 245.731  11.458   2
  -1  -2 -11 229.196   8.137   5
  -1   2 -11 226.874   7.040   3
  -1   2 -11 244.514  10.291   2
  -1   2 -11 227.650  12.102   1
   1   2  11 230.143   8.198   3
   1   2  11 222.224  11.826   1
   2  -2  11 14.9251  4.1745   1
  -2  -2 -11 8.42314 1.57550   5
  -2  -2 -11 10.6433  3.6238   2
  -2  -2 -11 1.11111 3.24724   1
   2   2  11 5.81785 3.30935   1
  -2   2 -11 11.9215  3.2815   1
   2   2  11 11.7857  3.2131   1
  -2   2 -11 7.90126 1.92655   3
  -2   2 -11 12.1111  2.5379   2
  -3  -2 -11 29.3527  5.0240   2
  -3  -2 -11 23.6192  4.9197   1
   3  -2  11 30.7276  5.1706   1
  -3   2 -11 23.5184  3.5345   2
   3   2  11 24.6702  4.7389   1
  -3   2 -11 27.5891  3.5910   3
   3   2  11 31.1270  4.5398   1
  -3   2 -11 36.9174  5.5847   1
  -3   2 -11 26.3900  1.9274   5
  -4  -2 -11 -0.9946  3.1894   1
   4  -2  11 3.60575 2.39980   1
   4   2  11 -0.5713  2.6948   1
  -4   2 -11 0.06598 1.84907   2
  -4   2 -11 -3.4649  2.4012   3
  -4   2 -11 -7.2859  3.5323   1
  -5  -2 -11 3.61144 3.33675   1
   5  -2  11 7.73968 3.18618   1
   5   2  11 4.07469 2.98039   1
  -5   2 -11 1.40704 3.03381   1
  -5   2 -11 4.73715 2.99928   3
  -6  -2 -11 69.0713  6.7986   1
   6  -2  11 81.3904  7.2559   1
  -6   2 -11 71.4839  7.4399   3
   6   2  11 81.4186  7.0125   1
  -6   2 -11 75.4285  7.1376   1
  -7  -2 -11 3.45857 2.64037   1
  -7   2 -11 5.70407 3.13856   3
  -8  -2 -11 53.2960  5.9805   1
  -8   2 -11 46.5834  5.7184   1
  -8   2 -11 36.0461  6.3927   3
  -9  -2 -11 2.23152 2.42144   1
  -9   2 -11 -6.9323  4.3365   3
  -9   2 -11 -3.3292  3.0528   4
  -9   2 -11 -3.0916  2.5617   1
 -10  -2 -11 58.8973  5.6334   1
 -10   2 -11 55.7763  7.4655   4
 -10   2 -11 68.6808  9.5449   3
 -10   2 -11 64.3935  6.1357   1
 -11  -2 -11 29.9451  7.3823   4
 -11   2 -11 29.4720  6.1987   4
 -11   2 -11 26.4460  7.1976   3
 -12  -2 -11 122.566  12.875   4
 -12   2 -11 115.987  13.126   3
 -13  -2 -11 -0.9893  4.5226   4
 -13   2 -11 4.30882 5.10190   3
  13   3 -11 -3.6658  5.1953   2
  13   3 -11 7.33916 5.49314   5
  12  -3 -11 -0.5812  2.6868   2
  12  -3 -11 16.9225  6.4347   5
  12   3 -11 1.28418 4.87410   2
 -12   3  11 4.16988 4.15662   3
  11  -3 -11 0.10724 2.46875   2
 -11  -3  11 -0.1441  2.1276   1
  11  -3 -11 7.94623 5.44466   5
 -11   3  11 3.14384 3.37619   3
  11   3 -11 5.94231 4.89030   2
 -11   3  11 0.30372 2.37950   1
  10  -3 -11 5.92221 4.83684   5
  10  -3 -11 11.5567  4.3539   2
 -10   3  11 -0.6201  3.0686   3
 -10   3  11 11.6096  3.7420   1
  10   3 -11 -2.7603  4.1520   2
  -9  -3  11 20.3794  4.3063   1
   9  -3 -11 7.83305 4.11440   2
   9   3 -11 23.6669  5.6165   2
  -9   3  11 15.2181  4.2305   1
  -9   3  11 14.2409  4.1991   3
  -8  -3  11 206.342  11.853   1
   8  -3 -11 219.620  14.832   5
   8  -3 -11 200.472  11.808   1
   8  -3 -11 192.186  11.832   2
  -8   3  11 193.907  11.643   3
   8   3 -11 200.546  11.105   1
  -8   3  11 212.307  12.307   1
   8   3 -11 195.370  13.450   2
  -7  -3  11 2.68235 3.23016   1
   7  -3 -11 3.38130 3.43370   2
   7  -3 -11 2.47860 3.20582   1
   7  -3 -11 3.51588 4.42946   5
  -7   3  11 6.48226 3.04077   3
   7   3 -11 -2.3339  4.4849   2
   7   3 -11 3.01639 2.71356   1
   6  -3 -11 4.23277 4.37134   5
  -6  -3  11 6.95839 3.63432   1
   6  -3 -11 12.9654  4.1092   2
  -6   3  11 3.42412 2.56119   3
   6   3 -11 15.0435  3.8131   1
  -6   3  11 7.31522 3.90988   1
  -5  -3  11 23.5972  4.3802   1
   5  -3 -11 15.4637  4.0458   2
   5  -3 -11 16.7966  4.6025   5
   5  -3 -11 14.8756  3.8737   1
   5   3 -11 13.2126  3.8986   1
  -5   3  11 22.9769  4.9940   1
  -5   3  11 15.7769  3.1539   3
   4  -3 -11 150.623   9.954   5
   4  -3 -11 149.739  10.077   1
   4  -3 -11 149.428   9.369   2
  -4  -3  11 142.428  10.004   1
   4   3 -11 137.989   9.613   1
  -4   3  11 141.803  10.129   1
   4   3 -11 146.772   9.716   2
   4   3 -11 141.127   5.873   3
  -4   3  11 135.250   7.176   3
  -3  -3  11 17.8927  4.5471   1
   3  -3 -11 10.2919  3.9810   2
   3  -3 -11 10.0563  3.7265   5
   3  -3 -11 17.9955  4.0563   1
   3   3 -11 13.0441  4.2798   1
  -3   3  11 8.64673 4.03219   1
   3   3 -11 15.8849  1.7762   3
   2  -3 -11 1856.49   36.12   2
  -2  -3  11 1901.30   39.19   1
   2  -3 -11 1899.34   36.06   5
   2  -3 -11 1863.39   39.31   1
   2   3 -11 1869.23   36.01   2
  -2   3  11 1847.46   39.06   1
   2   3 -11 1889.02   38.88   1
   1  -3 -11 35.8034  4.4951   5
   1  -3 -11 32.9727  5.4546   1
  -1  -3  11 32.7761  5.5532   1
   1   3 -11 24.6889  4.5045   2
   1   3 -11 26.8349  2.0712   3
   1   3 -11 23.9704  5.2088   1
   0  -3 -11 852.665  22.760   2
   0  -3 -11 812.433  24.335   1
   0  -3  11 822.388  23.927   1
   0  -3 -11 858.385  19.558   5
   0   3 -11 830.773  24.138   1
   0   3 -11 824.734  15.376   3
   0   3 -11 856.406  20.857   2
   0   3  11 801.632  23.820   1
  -1  -3 -11 271.210   9.454   5
   1  -3  11 272.064  13.407   1
  -1  -3 -11 267.517  12.708   2
  -1  -3 -11 275.301  13.827   1
  -1   3 -11 249.553  12.958   1
  -1   3 -11 260.666  10.526   2
   1   3  11 269.419  13.235   1
  -1   3 -11 267.513   8.868   3
  -2  -3 -11 128.757   9.120   2
  -2  -3 -11 134.818   5.893   5
   2  -3  11 124.868   9.186   1
  -2  -3 -11 123.965   9.301   1
   2   3  11 134.503   9.536   1
  -2   3 -11 133.592   9.818   1
  -2   3 -11 124.678   6.826   3
  -2   3 -11 130.512   7.214   2
   2   3  11 136.235   6.476   5
   3  -3  11 20.7517  4.6669   1
  -3  -3 -11 19.4187  4.8029   2
  -3  -3 -11 37.6708  5.7732   1
  -3   3 -11 24.7490  4.7368   1
   3   3  11 36.1709  3.0482   5
   3   3  11 25.9029  4.4649   1
  -3   3 -11 33.9125  4.1588   3
  -3   3 -11 27.8150  3.5210   2
  -3   3 -11 32.2400  2.6592   5
  -4  -3 -11 41.8203  6.0547   1
  -4   3 -11 43.6599  4.1568   2
  -4   3 -11 44.0404  6.1411   1
   4   3  11 31.3625  5.0747   1
   4   3  11 46.2538  2.9327   5
  -4   3 -11 37.1694  5.0039   3
  -5  -3 -11 1.92507 3.03448   1
   5  -3  11 -0.2193  2.7502   1
   5   3  11 0.75631 2.36997   1
  -5   3 -11 3.35829 1.82340   2
  -5   3 -11 3.93816 2.77465   3
  -5   3 -11 -4.0266  3.4090   1
   6  -3  11 56.4943  6.3559   1
  -6  -3 -11 60.6216  6.7622   1
  -6   3 -11 40.5034  6.0525   3
   6   3  11 59.9472  6.3263   1
  -6   3 -11 48.4671  5.8604   1
   7  -3  11 43.0596  5.5801   1
  -7  -3 -11 53.9517  6.3199   1
   7   3  11 51.8932  5.8354   1
  -7   3 -11 55.3586  7.2520   3
  -7   3 -11 33.6993  5.2830   1
  -8  -3 -11 25.5014  4.5343   1
  -8   3 -11 20.7280  4.3527   1
  -8   3 -11 12.1067  4.5519   3
  -9  -3 -11 5.49935 2.87848   1
  -9   3 -11 10.8880  3.3133   1
  -9   3 -11 2.38873 2.89552   4
  -9   3 -11 1.89664 3.91975   3
 -10  -3 -11 73.1008 10.1615   4
 -10  -3 -11 73.3647  6.4628   1
 -10   3 -11 65.7658  6.4893   1
 -10   3 -11 72.9951  9.8352   3
 -11  -3 -11 21.0230  7.0071   4
 -12  -3 -11 12.1261  6.0340   4
 -12   3 -11 3.90510 5.54096   3
  13  -4 -11 40.1579  8.4609   5
  13   4 -11 41.9931  7.8192   2
  12  -4 -11 -1.5565  4.9235   5
 -12   4  11 -1.2617  3.7478   3
  12   4 -11 4.88934 5.40809   2
 -11  -4  11 0.05756 2.10681   1
  11  -4 -11 3.97589 3.25842   2
 -11   4  11 -2.5896  3.8127   3
 -11   4  11 -4.1836  3.0681   1
  11   4 -11 0.75312 3.49313   2
  10  -4 -11 17.1079  4.7291   2
 -10  -4  11 27.1154  4.8070   1
  10  -4 -11 30.2635  7.1895   5
 -10   4  11 20.7482  4.7548   1
 -10   4  11 24.9121  5.7344   3
  10   4 -11 15.6779  6.1322   2
   9  -4 -11 48.8231  8.2014   5
  -9  -4  11 40.3761  5.6667   1
   9  -4 -11 30.9089  5.2548   2
   9   4 -11 39.5438  7.6780   2
  -9   4  11 39.1554  5.7610   1
  -9   4  11 41.2551  6.3224   3
   8  -4 -11 65.8400  7.2772   1
   8  -4 -11 53.1366  8.2101   5
  -8  -4  11 56.0363  6.7163   1
   8  -4 -11 61.3249  7.0419   2
  -8   4  11 52.0152  6.7732   3
   8   4 -11 52.3893  8.2156   2
  -8   4  11 54.6840  6.9235   1
  -7  -4  11 120.442   9.439   1
   7  -4 -11 103.747  10.286   5
   7  -4 -11 111.135   9.154   1
   7  -4 -11 96.1478  8.4326   2
  -7   4  11 103.400   8.604   3
  -7   4  11 103.586   8.892   1
   7   4 -11 98.7606 10.1860   2
   7   4 -11 100.010   8.411   1
   6  -4 -11 50.3340  6.5831   1
   6  -4 -11 54.4435  7.3552   5
  -6  -4  11 64.2661  7.2678   1
   6  -4 -11 48.7343  5.9472   2
   6   4 -11 56.3574  7.5256   2
   6   4 -11 53.1040  6.4680   1
  -6   4  11 56.8521  7.1763   1
  -6   4  11 55.6491  6.1977   3
   5  -4 -11 25.7161  4.9200   2
   5  -4 -11 21.0960  4.8906   1
  -5  -4  11 29.4759  5.5370   1
   5  -4 -11 31.5946  5.7801   5
  -5   4  11 24.1895  4.0986   3
   5   4 -11 20.1670  4.5289   2
   5   4 -11 26.3635  4.5894   1
  -5   4  11 31.4395  5.2947   1
   4  -4 -11 1.57589 2.42802   2
   4  -4 -11 0.53229 3.64641   1
   4   4 -11 -0.3613  3.1623   1
   4   4 -11 1.59058 2.86406   2
  -4   4  11 11.2676  3.7565   1
  -4   4  11 9.32293 2.70547   3
  -3  -4  11 135.966  10.114   1
   3  -4 -11 145.515   9.833   5
   3  -4 -11 146.771  10.588   1
   3  -4 -11 136.134   8.952   2
   3   4 -11 138.931   9.707   2
  -3   4  11 131.406  10.026   1
   3   4 -11 140.319   6.060   3
   3   4 -11 143.479  10.031   1
   2  -4 -11 15.4271  4.4113   2
   2  -4 -11 12.7802  3.8292   5
  -2  -4  11 10.7581  4.6496   1
   2  -4 -11 15.6749  5.1320   1
   2   4 -11 16.9986  4.2862   1
  -1  -4  11 -0.0803  3.1057   1
   1  -4 -11 7.66085 4.01799   1
   1  -4 -11 0.49365 3.47993   2
   1   4 -11 2.27810 3.80967   1
   1   4 -11 3.61624 2.43792   2
  -1   4  11 3.22740 3.19993   1
   0  -4 -11 13.8621  4.5972   1
   0  -4 -11 13.1627  4.3319   2
   0  -4  11 10.1971  3.8663   1
   0  -4 -11 14.1283  3.0221   5
   0   4 -11 15.5694  3.5268   2
   0   4 -11 13.3608  2.2544   3
   0   4  11 15.5495  4.0310   1
   0   4 -11 15.1806  4.4185   1
  -1  -4 -11 19.5210  4.7138   1
   1  -4  11 13.7314  4.3682   1
  -1  -4 -11 14.4561  2.8829   5
  -1   4 -11 19.0717  4.5294   1
  -1   4 -11 12.3621  2.4929   3
   1   4  11 12.3340  3.6222   1
  -2  -4 -11 21.7017  4.6819   2
   2  -4  11 24.8869  4.6204   1
  -2  -4 -11 15.6326  4.6140   1
  -2  -4 -11 19.3161  2.8322   5
  -2   4 -11 16.2761  3.1678   3
  -2   4 -11 16.2820  3.0516   2
   2   4  11 15.3708  4.4676   1
   3  -4  11 156.655  10.663   1
  -3  -4 -11 153.721  10.763   1
  -3   4 -11 152.313  10.718   1
   3   4  11 148.311  10.159   1
  -3   4 -11 154.381   7.370   2
  -3   4 -11 147.558   8.706   3
  -4  -4 -11 -1.4175  3.6345   1
   4   4  11 0.41192 2.18939   1
  -4   4 -11 1.92121 2.80235   3
  -4   4 -11 0.64808 1.47373   2
  -4   4 -11 1.07763 3.30712   1
  -5  -4 -11 40.1069  5.8887   1
   5  -4  11 34.3140  5.4358   1
  -5   4 -11 27.8991  5.3808   1
  -5   4 -11 29.1714  5.0946   3
  -5   4 -11 31.1030  3.2283   2
   5   4  11 33.0697  5.2599   1
  -6  -4 -11 3.21991 3.35126   1
   6  -4  11 0.16718 2.49142   1
   6   4  11 0.84104 2.65632   1
  -6   4 -11 -2.7125  3.4563   1
  -6   4 -11 2.45180 2.99566   3
   7  -4  11 -3.1680  2.3163   1
  -7  -4 -11 -0.5553  2.8039   1
  -7   4 -11 3.02026 3.60837   3
  -7   4 -11 -2.3764  3.3292   1
  -8  -4 -11 10.6100  3.6259   1
  -8   4 -11 1.35960 3.72670   3
  -9  -4 -11 93.3882  7.8151   1
  -9   4 -11 111.023  11.376   3
  -9   4 -11 87.0936  8.0024   1
 -10  -4 -11 31.3952  4.6387   1
 -10  -4 -11 31.1369  7.5320   4
 -10   4 -11 43.8464  7.8787   3
 -10   4 -11 44.3803  5.8834   1
 -11   4 -11 0.27147 4.82411   3
 -12  -4 -11 19.8486  7.1626   4
 -12   4 -11 13.8517  6.3389   3
  13   5 -11 -3.9586  4.0844   2
  12  -5 -11 0.37395 5.01988   5
 -12   5  11 13.0599  5.3512   3
 -12   5  11 12.1298  3.6935   1
  11  -5 -11 3.75964 3.16961   2
 -11  -5  11 7.45070 3.10491   1
  11  -5 -11 -0.4061  4.9204   5
  11   5 -11 7.19402 4.67951   2
 -11   5  11 10.2437  5.0931   3
  10  -5 -11 37.2695  8.0268   5
 -10  -5  11 42.2304  6.0072   1
  10  -5 -11 56.2302  6.7075   2
 -10   5  11 43.9107  6.4650   1
 -10   5  11 55.6810  8.0716   3
  10   5 -11 45.7523  8.5843   2
   9  -5 -11 34.7120  7.5156   5
   9  -5 -11 45.8709  6.2338   2
  -9  -5  11 45.9861  6.3975   1
  -9   5  11 46.8934  7.2539   3
   9   5 -11 41.3967  8.0174   2
  -9   5  11 52.0128  6.9575   1
  -8  -5  11 85.6089  8.3409   1
   8  -5 -11 84.0207 10.0581   5
   8  -5 -11 88.6168  8.7789   1
   8  -5 -11 92.6311  8.3088   2
   8   5 -11 82.7051  9.8296   2
  -8   5  11 90.6242  9.0078   1
  -8   5  11 84.6055  8.7784   3
  -7  -5  11 6.71391 3.76145   1
   7  -5 -11 -7.7826  4.7755   5
   7  -5 -11 2.52121 3.19596   1
   7  -5 -11 2.88482 3.19669   2
   7   5 -11 -8.0057  3.5666   1
  -7   5  11 -1.2345  3.4886   1
   7   5 -11 -4.5537  4.6706   2
  -7   5  11 5.48416 3.51061   3
   6  -5 -11 34.4504  6.0291   1
  -6  -5  11 26.7149  5.5238   1
   6  -5 -11 36.1739  5.5274   2
   6  -5 -11 25.0680  6.0049   5
   6   5 -11 28.9471  5.1814   1
   6   5 -11 24.7648  5.4771   2
  -6   5  11 24.1604  5.5869   1
  -6   5  11 31.5225  5.1866   3
  -5  -5  11 114.830   9.291   1
   5  -5 -11 124.553  10.199   1
   5  -5 -11 105.782   8.495   2
   5  -5 -11 105.832   9.667   5
   5   5 -11 116.319   9.331   1
  -5   5  11 116.627  10.213   1
   5   5 -11 116.495  10.073   2
  -5   5  11 118.411   8.473   3
   4  -5 -11 60.4962  6.6227   2
   4  -5 -11 77.0265  7.9918   5
   4  -5 -11 86.2952  8.7410   1
  -4  -5  11 71.8538  7.8190   1
   4   5 -11 74.5872  7.9826   2
   4   5 -11 76.9687  7.6036   1
  -4   5  11 72.0717  8.2912   1
  -3  -5  11 45.2296  6.6913   1
   3  -5 -11 55.2155  7.3607   1
   3  -5 -11 43.6799  6.2410   5
   3  -5 -11 59.0629  6.7208   2
  -3   5  11 57.4482  7.5642   1
   3   5 -11 49.6941  6.5479   2
   3   5 -11 52.7785  6.5569   1
   2  -5 -11 3.97397 3.44639   5
  -2  -5  11 15.0711  4.3253   1
   2  -5 -11 12.8627  4.2266   2
   2  -5 -11 8.84168 3.86629   1
  -2   5  11 19.5297  5.0872   1
   2   5 -11 3.39989 3.62026   2
   2   5 -11 4.89194 3.99728   1
   1  -5 -11 32.0619  4.4781   5
   1  -5 -11 24.7905  5.1624   2
  -1  -5  11 33.8089  6.0937   1
   1  -5 -11 23.6048  5.6515   1
   1   5 -11 38.4416  4.9326   2
   1   5 -11 34.8507  5.5739   1
  -1   5  11 43.5392  6.7163   1
   0  -5 -11 6.68410 3.22536   2
   0  -5 -11 10.9964  3.2182   5
   0  -5 -11 8.66612 4.76164   1
   0   5  11 14.6055  4.8037   1
   0   5 -11 11.3303  3.2136   2
   0   5 -11 17.7303  5.0807   1
  -1  -5 -11 49.7412  7.1724   1
   1  -5  11 39.6855  6.5181   1
  -1  -5 -11 43.1380  6.3854   2
  -1  -5 -11 49.1932  4.8502   5
  -1   5 -11 48.0751  4.8546   2
   1   5  11 40.6511  6.3774   1
  -1   5 -11 41.1285  6.6961   1
  -1   5 -11 36.5046  4.2298   3
   2  -5  11 3.37680 3.66189   1
  -2  -5 -11 -0.3344  2.7122   1
  -2  -5 -11 0.89774 1.82900   5
   2   5  11 -2.3050  3.5868   1
  -2   5 -11 1.79145 1.96480   2
  -2   5 -11 5.86757 4.06938   1
  -3  -5 -11 -2.5367  3.9545   1
  -3   5 -11 0.78371 1.54062   2
  -3   5 -11 -7.5596  4.2026   1
   4  -5  11 67.1036  7.6219   1
  -4  -5 -11 53.2519  7.0258   1
   4   5  11 46.4715  6.3883   1
  -4   5 -11 60.8325  4.2080   2
  -4   5 -11 61.1334  7.1133   1
  -4   5 -11 60.2258  6.4952   3
   5  -5  11 129.829  10.188   1
  -5  -5 -11 150.898  11.039   1
   5   5  11 136.192  10.153   1
  -5   5 -11 142.739  10.502   3
  -5   5 -11 134.373  10.474   1
   6  -5  11 9.59491 3.85306   1
  -6  -5 -11 15.4190  4.2835   1
   6   5  11 14.3624  4.1425   1
  -6   5 -11 9.34855 3.52631   1
  -6   5 -11 6.85008 3.92942   3
  -7  -5 -11 191.530  12.120   1
   7  -5  11 202.799  12.400   1
  -7   5 -11 204.707  13.910   3
  -7   5 -11 188.776  12.220   1
  -8  -5 -11 15.4253  4.2709   1
  -8   5 -11 0.42058 3.91859   3
  -9  -5 -11 21.3366  4.4480   1
  -9   5 -11 15.7297  4.4202   1
  -9   5 -11 7.10485 4.96621   3
 -10   5 -11 15.0245  4.1304   1
 -10   5 -11 23.5955  6.1184   3
 -11  -5 -11 31.5023  7.4335   4
 -11   5 -11 26.7531  7.4251   3
 -12  -5 -11 43.6198  8.7803   4
 -12   5 -11 47.1880  8.8738   3
 -12   6  11 19.5983  6.3336   3
 -12   6  11 9.44978 3.77934   1
  12   6 -11 -3.0172  5.5163   2
 -11  -6  11 76.2924  7.6772   1
  11  -6 -11 61.3078  9.2627   5
 -11   6  11 61.2602  7.5870   1
  11   6 -11 68.4504  9.7186   2
 -11   6  11 67.9347  9.7338   3
  10  -6 -11 6.29145 4.21486   5
 -10  -6  11 1.01834 3.06164   1
 -10   6  11 14.9216  4.8464   1
 -10   6  11 14.4861  5.5089   3
  -9  -6  11 55.8443  6.9518   1
   9  -6 -11 51.4738  6.4282   2
   9  -6 -11 53.3721  8.1992   5
  -9   6  11 67.5316  8.2407   1
  -9   6  11 49.4495  7.5305   3
   9   6 -11 52.0955  8.8658   2
   8  -6 -11 8.16900 4.07207   1
   8  -6 -11 3.66344 3.05676   2
   8  -6 -11 12.3226  5.6409   5
  -8   6  11 1.43140 3.68324   3
   8   6 -11 20.3049  6.2599   2
   7  -6 -11 -3.7532  3.2329   2
   7  -6 -11 -0.5690  3.2996   1
  -7  -6  11 2.85279 3.63265   1
   7  -6 -11 -11.084   5.000   5
  -7   6  11 4.09013 3.65878   3
   7   6 -11 0.90087 2.35813   1
   6  -6 -11 1.30459 3.44365   1
   6  -6 -11 8.24215 3.21512   2
  -6  -6  11 18.1705  4.9655   1
   6  -6 -11 8.60554 4.83011   5
   6   6 -11 14.0451  4.4412   1
   6   6 -11 12.1264  5.3384   2
  -6   6  11 6.95048 3.10502   3
   5  -6 -11 78.2514  8.8272   5
   5  -6 -11 92.2115  8.2381   2
  -5  -6  11 77.1478  8.5001   1
   5  -6 -11 87.6596  9.2621   1
   5   6 -11 74.6695  8.5192   2
   5   6 -11 84.6723  8.2742   1
  -5   6  11 86.3798  9.3031   1
   4  -6 -11 68.1811  7.1644   2
  -4  -6  11 54.2221  7.4194   1
   4  -6 -11 58.0525  7.0764   5
   4  -6 -11 56.9861  7.8775   1
   4   6 -11 71.3806  7.8711   1
  -4   6  11 85.5486  9.4856   1
   4   6 -11 68.6454  7.9310   2
  -3  -6  11 123.768  10.383   1
   3  -6 -11 137.314  11.173   1
   3  -6 -11 121.511   9.536   5
   3  -6 -11 121.552   9.336   2
  -3   6  11 128.104  10.541   1
   3   6 -11 115.332   9.746   1
   3   6 -11 121.212   9.543   2
   2  -6 -11 -3.1906  3.6479   2
  -2  -6  11 -0.5478  2.8404   1
   2  -6 -11 8.79330 4.35073   1
   2  -6 -11 1.21226 3.13166   5
  -2   6  11 -1.1749  3.8766   1
   2   6 -11 5.87969 3.84613   1
   2   6 -11 -0.7113  2.2318   2
   1  -6 -11 8.69609 4.13570   1
  -1  -6  11 14.0724  4.8185   1
   1  -6 -11 6.30824 4.05195   2
   1   6 -11 16.5524  4.3736   1
  -1   6  11 4.63024 4.13114   1
   1   6 -11 15.4361  3.7855   2
   0  -6 -11 45.5692  7.1891   1
   0  -6 -11 39.0501  6.3864   2
   0  -6 -11 42.7176  5.3528   5
   0   6 -11 25.9573  5.9831   1
   0   6  11 32.2359  5.8845   1
   0   6 -11 34.0355  4.3706   2
  -1  -6 -11 153.910   8.849   5
  -1  -6 -11 137.941  11.029   1
   1  -6  11 149.656  11.587   1
  -1   6 -11 154.226  11.716   1
  -1   6 -11 152.399   8.273   2
   1   6  11 163.937  11.899   1
  -2  -6 -11 120.650   7.560   5
   2  -6  11 111.789  10.145   1
  -2  -6 -11 109.777  10.178   1
  -2   6 -11 130.826  10.897   1
  -2   6 -11 129.097   8.578   3
  -2   6 -11 127.462   7.076   2
   2   6  11 133.487  10.765   1
  -3  -6 -11 34.7448  5.8577   1
   3  -6  11 35.9209  5.8398   1
  -3   6 -11 32.8978  6.4894   1
  -3   6 -11 22.8992  4.5323   3
   3   6  11 34.7592  6.0456   1
  -3   6 -11 29.8349  3.1948   2
  -4  -6 -11 8.22403 4.43123   1
   4   6  11 12.0579  3.7339   1
  -5  -6 -11 29.3217  5.8987   1
   5  -6  11 29.4499  5.8438   1
   5   6  11 23.6415  5.0438   1
  -5   6 -11 22.3526  5.1587   3
  -5   6 -11 20.9650  5.7241   1
   6  -6  11 60.7948  7.5777   1
  -6  -6 -11 66.4724  7.9424   1
  -6   6 -11 63.9239  8.0626   1
   6   6  11 68.2936  7.5833   1
  -6   6 -11 56.9133  7.7506   3
   7  -6  11 101.511   9.253   1
  -7  -6 -11 76.6774  8.2371   1
  -7   6 -11 89.6516 10.0165   3
  -7   6 -11 76.4458  8.5931   1
  -8  -6 -11 19.8337  4.8744   1
  -8   6 -11 29.5495  6.7495   3
  -9  -6 -11 37.2411  8.3009   4
  -9  -6 -11 42.6552  6.1510   1
  -9   6 -11 45.2079  8.6054   3
  -9   6 -11 45.9734  6.8946   1
 -10  -6 -11 55.0113  6.5459   1
 -10   6 -11 40.8608  8.4872   3
 -10   6 -11 58.9240  7.3236   1
 -11  -6 -11 -6.2921  6.1388   4
 -11   6 -11 2.60375 4.98542   3
 -11   6 -11 -5.3518  3.3230   1
  11  -7 -11 -2.3987  5.5789   5
 -11  -7  11 3.72234 3.31775   1
  11   7 -11 13.8710  6.7837   2
 -11   7  11 6.83240 4.19574   3
  10  -7 -11 31.6674  7.5556   5
 -10  -7  11 18.4128  4.8404   1
  10   7 -11 25.7491  6.6161   2
 -10   7  11 25.7046  5.9788   1
 -10   7  11 24.6315  6.6764   3
   9  -7 -11 0.56074 2.59623   2
   9  -7 -11 -7.3049  5.6448   5
   9   7 -11 -0.7059  5.1777   2
  -9   7  11 5.21394 3.80016   1
  -9   7  11 -1.7172  3.4547   3
   8  -7 -11 12.7284  4.1093   2
  -8  -7  11 12.6383  4.5721   1
   8  -7 -11 4.80735 4.80858   5
  -8   7  11 13.4271  5.0658   3
   8   7 -11 26.8951  7.0983   2
   7  -7 -11 16.0148  5.3704   1
   7  -7 -11 23.1195  6.3619   5
  -7  -7  11 2.72108 4.01115   1
   7  -7 -11 8.97619 3.85462   2
  -7   7  11 13.3691  4.9135   3
  -7   7  11 6.30312 4.76740   1
   6  -7 -11 32.1658  6.9461   5
   6  -7 -11 25.8748  5.9876   1
   6  -7 -11 39.0549  6.0947   2
  -6  -7  11 49.6414  7.4830   1
   6   7 -11 29.4338  6.2679   2
  -6   7  11 38.7549  6.3585   3
  -6   7  11 41.5783  7.3705   1
   6   7 -11 42.5242  6.7735   1
   5  -7 -11 -2.1049  3.6942   1
   5   7 -11 1.09856 3.40648   1
   5   7 -11 9.47588 5.02928   2
  -4  -7  11 16.8204  4.7253   1
   4  -7 -11 29.0382  5.5443   2
   4  -7 -11 17.0494  4.5013   5
   4   7 -11 17.8658  5.2712   1
   4   7 -11 10.3487  4.5319   2
  -4   7  11 29.1253  6.5605   1
   3  -7 -11 27.1909  5.3840   2
  -3  -7  11 27.5274  5.7222   1
   3  -7 -11 24.8762  5.5629   5
   3   7 -11 34.9471  6.5542   1
   3   7 -11 30.7190  5.7794   2
  -3   7  11 20.1629  5.1756   1
  -2  -7  11 60.2345  8.1302   1
   2  -7 -11 56.5997  6.8296   5
   2  -7 -11 41.6873  7.1655   1
   2  -7 -11 54.0962  7.0844   2
  -2   7  11 45.4856  7.6503   1
   2   7 -11 56.3040  6.6942   2
   2   7 -11 51.1946  7.7025   1
  -1  -7  11 62.0063  7.7466   1
   1  -7 -11 61.9369  7.5758   2
   1  -7 -11 66.6935  6.8051   5
   1  -7 -11 64.1359  7.9930   1
  -1   7  11 55.7556  8.0284   1
   1   7 -11 77.0796  8.9296   1
   1   7 -11 56.8705  6.4024   2
   0  -7  11 19.2546  5.4435   1
   0  -7 -11 9.31977 4.01140   1
   0   7 -11 7.58206 4.04796   1
   0   7  11 0.66276 3.86897   1
  -1  -7 -11 -5.1332  3.0324   5
  -1  -7 -11 2.64002 3.29525   1
  -1   7 -11 -1.4149  2.0299   2
  -1   7 -11 -3.0202  3.1936   1
   1   7  11 6.50382 4.43686   1
   2  -7  11 242.544  14.818   1
  -2  -7 -11 268.721  16.133   1
  -2  -7 -11 259.049  11.901   5
  -2   7 -11 257.743  15.640   1
  -2   7 -11 259.713  10.278   2
   2   7  11 277.982  16.066   1
  -2   7 -11 254.641  12.983   3
   3  -7  11 49.2527  7.5683   1
  -3  -7 -11 64.4475  8.0190   1
   3   7  11 54.3090  7.7080   1
  -3   7 -11 60.8452  8.4264   1
  -3   7 -11 62.2494  7.1705   3
  -4  -7 -11 85.1735  9.4517   1
   4  -7  11 82.6936  8.8863   1
  -4   7 -11 80.5454  9.3118   1
  -4   7 -11 92.1370  8.6696   3
   4   7  11 75.8562  8.4754   1
   5  -7  11 22.9870  5.7042   1
  -5  -7 -11 36.9138  6.6325   1
  -5   7 -11 23.1127  5.3172   1
   5   7  11 18.6676  4.9035   1
  -5   7 -11 27.5725  6.0760   3
  -6  -7 -11 9.97528 4.45050   1
   6  -7  11 14.6677  4.7195   1
   6   7  11 20.7989  4.9809   1
  -6   7 -11 3.82240 3.71752   3
  -6   7 -11 5.42547 3.73373   1
  -7  -7 -11 -6.2755  4.1585   1
  -7   7 -11 10.8058  4.8274   1
  -7   7 -11 -0.1107  2.7605   3
  -8  -7 -11 6.38116 4.09487   1
  -8   7 -11 12.7899  4.8793   3
  -8   7 -11 18.8781  5.3951   1
  -9  -7 -11 2.12504 5.46076   4
  -9  -7 -11 -0.1236  2.7904   1
  -9   7 -11 -1.3517  3.7106   1
  -9   7 -11 2.89766 4.64079   3
 -10  -7 -11 33.6786  8.3629   4
 -10  -7 -11 37.3268  5.8785   1
 -10   7 -11 35.8941  6.6040   1
 -11   7 -11 14.9815  4.5698   1
 -11  -8  11 3.26970 3.40866   1
 -11   8  11 9.21426 5.67974   3
  11   8 -11 8.94299 6.13864   2
 -11   8  11 15.8897  4.9019   1
 -10  -8  11 -2.9454  3.7139   1
  10  -8 -11 12.8526  5.8124   5
 -10   8  11 5.71038 4.94040   3
  10   8 -11 -5.1931  5.8629   2
 -10   8  11 5.43340 4.23443   1
  -9  -8  11 17.6060  4.8393   1
   9  -8 -11 10.7613  5.9293   5
  -9   8  11 19.3518  5.4048   1
  -9   8  11 22.8527  6.5068   3
  -8  -8  11 23.2099  5.2220   1
   8  -8 -11 26.8420  5.1842   2
   8  -8 -11 14.7259  6.1857   5
  -8   8  11 25.8870  6.3703   1
   8   8 -11 19.4723  5.6831   2
  -8   8  11 19.1618  5.2982   3
   7  -8 -11 26.7199  6.8463   5
  -7  -8  11 22.2863  5.8811   1
   7  -8 -11 24.6566  6.0972   1
   7  -8 -11 29.8800  5.2142   2
   7   8 -11 25.9621  6.3141   2
  -7   8  11 19.3403  5.4064   3
  -7   8  11 20.9040  6.0542   1
  -6  -8  11 30.2106  6.4215   1
   6  -8 -11 34.5521  7.1701   5
   6  -8 -11 23.8004  5.9058   1
   6  -8 -11 27.2410  4.9701   2
  -6   8  11 18.6747  5.2545   3
   6   8 -11 32.9871  7.0997   2
   6   8 -11 23.8196  5.5906   1
  -6   8  11 31.4920  6.4667   1
   5  -8 -11 9.98030 3.98636   2
  -5  -8  11 17.1414  5.6454   1
   5  -8 -11 7.89694 4.95173   1
   5  -8 -11 18.3804  5.6335   5
   5   8 -11 7.04337 3.97722   1
  -5   8  11 7.33176 4.14983   1
  -4  -8  11 3.76372 4.85322   1
   4  -8 -11 -3.2264  3.9027   2
   4  -8 -11 0.68444 3.91532   5
   4  -8 -11 4.12595 3.60698   1
  -4   8  11 1.36155 4.59450   1
   4   8 -11 -2.6079  3.4623   1
   3  -8 -11 346.919  16.956   2
   3  -8 -11 328.048  16.565   5
  -3  -8  11 331.121  18.160   1
   3  -8 -11 330.630  18.873   1
   3   8 -11 324.361  17.862   1
  -3   8  11 339.897  19.031   1
   3   8 -11 351.589  16.920   2
   2  -8 -11 25.1210  5.8183   1
  -2  -8  11 33.4413  6.7760   1
   2  -8 -11 27.7083  5.7969   5
   2   8 -11 30.2211  6.7326   1
  -2   8  11 35.1203  7.2534   1
   2   8 -11 27.6088  5.3517   2
  -1  -8  11 177.098  13.551   1
   1  -8 -11 195.419  14.424   1
   1  -8 -11 185.491  11.622   5
   1   8 -11 207.736  11.688   2
  -1   8  11 178.456  13.510   1
   1   8 -11 182.638  13.705   1
   0  -8  11 21.0693  6.1377   1
   0  -8 -11 7.38790 4.87558   1
   0  -8 -11 15.6737  4.3425   5
   0   8 -11 9.42410 3.39598   2
   0   8  11 6.35426 3.84229   1
   0   8 -11 10.6653  4.3542   1
  -1  -8 -11 4.36127 3.56244   1
   1  -8  11 5.87306 4.65474   1
  -1   8 -11 13.4003  4.6400   1
  -1   8 -11 5.55334 2.52256   2
  -2  -8 -11 18.7325  5.9903   1
  -2   8 -11 7.43393 4.34554   1
  -3  -8 -11 12.9765  5.3163   1
   3  -8  11 0.05690 3.84291   1
   3   8  11 0.20374 3.23278   1
  -3   8 -11 1.75515 4.42951   1
  -4  -8 -11 11.9570  5.3471   1
   4  -8  11 2.49332 4.10891   1
  -4   8 -11 0.19016 3.59161   3
   4   8  11 14.3174  4.9207   1
  -4   8 -11 -1.7469  3.2611   1
  -5  -8 -11 0.00589 3.97472   1
   5  -8  11 -2.1435  3.8850   1
  -5   8 -11 3.61124 3.42564   3
  -5   8 -11 -2.6659  4.3018   1
   5   8  11 -1.2420  3.2864   1
   6  -8  11 22.7506  5.8888   1
  -6  -8 -11 34.9027  6.8835   1
  -6   8 -11 23.7896  6.3119   3
  -6   8 -11 37.1133  7.3439   1
  -7  -8 -11 50.6827  7.7391   1
  -7   8 -11 40.7846  7.8797   3
  -7   8 -11 35.9526  6.9892   1
  -8  -8 -11 24.0059  7.3746   4
  -8  -8 -11 35.3987  6.6367   1
  -8   8 -11 30.4741  7.7776   3
  -8   8 -11 44.6776  7.7336   1
  -9  -8 -11 57.1154  7.6532   1
  -9  -8 -11 59.9494  9.8449   4
  -9   8 -11 66.8479 10.7166   3
  -9   8 -11 46.3844  7.4440   1
 -10  -8 -11 66.9043  7.9434   1
 -10  -8 -11 57.9426 10.3045   4
 -10   8 -11 65.7755  8.5249   1
 -10   8 -11 82.0288 11.7771   3
  10  -9 -11 -2.4145  5.3182   5
 -10   9  11 8.15356 4.59676   3
  10   9 -11 -2.0144  5.1442   2
 -10   9  11 1.14853 4.15540   1
  -9  -9  11 81.5954  9.5156   1
   9  -9 -11 81.9482 10.8845   5
   9   9 -11 79.0427 11.0961   2
  -9   9  11 76.6768  9.9986   1
  -9   9  11 70.8362 10.3848   3
  -8  -9  11 14.9409  5.5258   1
   8  -9 -11 8.63905 6.03098   5
   8   9 -11 9.27707 6.28476   2
  -8   9  11 23.2810  6.6463   1
  -8   9  11 8.45157 4.53300   3
   7  -9 -11 11.6077  5.0654   1
   7  -9 -11 11.2372  4.1297   2
   7  -9 -11 10.5278  4.5146   5
  -7   9  11 14.3392  5.3003   3
   6  -9 -11 2.70741 3.43210   2
   6  -9 -11 9.00768 4.96785   5
  -6  -9  11 -1.1510  4.4527   1
   6  -9 -11 1.59895 3.37842   1
  -6   9  11 -2.9350  4.6945   1
   6   9 -11 5.77979 3.98972   2
   6   9 -11 3.88751 3.38763   1
  -5  -9  11 19.1126  5.8978   1
   5  -9 -11 16.2070  4.8631   5
   5  -9 -11 18.6670  5.0729   2
   5  -9 -11 20.5586  6.1183   1
   5   9 -11 15.4055  5.6184   2
   4  -9 -11 5.69518 4.68621   5
  -4  -9  11 -3.3648  4.8153   1
   4  -9 -11 2.76468 4.82031   1
   4   9 -11 11.3687  4.1979   2
  -4   9  11 -2.7354  4.9456   1
   4   9 -11 3.33823 3.46262   1
   3  -9 -11 57.8621  8.4172   1
  -3  -9  11 60.0153  8.4120   1
   3  -9 -11 47.5291  7.2431   5
   3   9 -11 47.1949  6.7280   2
  -3   9  11 50.8053  8.6586   1
   3   9 -11 53.7408  8.3505   1
   2  -9 -11 14.2846  5.0344   5
   2  -9 -11 -2.0367  4.6646   1
   2   9 -11 4.77342 3.74618   2
  -2   9  11 -0.9748  4.2970   1
   1  -9 -11 1.34940 3.61950   5
  -1  -9  11 2.54658 3.48948   1
   1  -9 -11 6.29522 5.21300   1
  -1   9  11 -1.7718  4.3776   1
   1   9 -11 -8.2003  5.3436   1
   1   9 -11 -4.3227  3.1740   2
   0  -9  11 -0.2503  4.1883   1
   0  -9 -11 11.4096  5.8770   1
   0  -9 -11 5.63644 4.00911   5
   0   9 -11 5.70144 4.36498   1
   0   9  11 2.10477 4.34178   1
  -1  -9 -11 87.6541 10.5916   1
  -1  -9 -11 79.5519  7.7191   5
   1  -9  11 92.7338 10.5516   1
  -1   9 -11 78.1006  9.6073   1
   1   9  11 80.4983 10.1251   1
  -2  -9 -11 35.7182  7.2349   1
   2  -9  11 24.4512  5.8650   1
  -2   9 -11 22.1354  6.5860   1
   2   9  11 39.5465  7.3894   1
  -3  -9 -11 2.15274 4.77646   1
  -3   9 -11 -4.1181  3.8532   3
   3   9  11 -6.1483  5.1783   1
  -3   9 -11 -3.0580  5.0142   1
   4  -9  11 37.6621  7.4596   1
  -4  -9 -11 47.2397  8.2838   1
   4   9  11 37.4338  7.0863   1
  -4   9 -11 32.2244  7.0634   1
  -4   9 -11 30.2462  6.4813   3
   5  -9  11 14.4117  5.4921   1
  -5  -9 -11 6.60648 4.63016   1
  -5   9 -11 -2.1218  4.2318   3
   5   9  11 -6.3571  4.5539   1
  -6  -9 -11 -0.8717  4.0582   1
   6  -9  11 -2.6428  4.4470   1
  -6   9 -11 -9.1108  5.5555   1
  -6   9 -11 3.95488 4.15653   3
  -7  -9 -11 28.9071  6.7758   1
  -7   9 -11 41.2647  7.9503   1
  -7   9 -11 25.3919  7.2410   3
  -8  -9 -11 61.6781  8.6275   1
  -8  -9 -11 49.7398  9.9745   4
  -8   9 -11 46.4449  8.1765   1
  -8   9 -11 39.4842  8.8835   3
  -9  -9 -11 20.5743  6.5901   4
  -9  -9 -11 20.4029  5.7288   1
  -9   9 -11 15.6297  7.0154   3
  -9   9 -11 27.2984  6.8184   1
  -9  10  11 1.56967 4.64114   3
  -9  10  11 15.3083  5.6595   1
   9  10 -11 0.90642 5.47301   2
  -8 -10  11 2.18427 4.21143   1
   8 -10 -11 -7.2135  5.6914   5
  -8  10  11 7.95003 5.22395   1
  -8  10  11 -3.8432  4.8921   3
   8  10 -11 4.28936 5.45568   2
   7 -10 -11 -11.742   5.838   5
   7  10 -11 0.70368 4.72304   2
  -7  10  11 1.89154 4.98709   1
  -7  10  11 -0.4296  4.3560   3
  -6 -10  11 0.45658 3.11462   1
   6 -10 -11 -11.834   5.939   5
   6 -10 -11 7.56093 5.37265   1
   6  10 -11 -3.1711  5.1118   2
  -6  10  11 0.07841 4.74780   1
   5 -10 -11 69.4941  9.4616   5
  -5 -10  11 69.5633  9.5900   1
   5  10 -11 58.6484  8.8904   2
   5  10 -11 82.4628 10.0785   1
  -5  10  11 71.0763 10.4457   1
   4 -10 -11 22.1401  6.6973   1
  -4 -10  11 20.4060  5.6869   1
   4  10 -11 14.9670  5.5277   2
  -4  10  11 14.0543  5.3353   1
   4  10 -11 23.2694  6.5789   1
   3 -10 -11 48.4491  7.6537   5
  -3 -10  11 52.3032  8.8521   1
   3  10 -11 43.9840  7.0932   2
   3  10 -11 37.6121  8.0224   1
  -3  10  11 47.4532  8.7016   1
   2 -10 -11 -1.5080  3.0702   5
   2 -10 -11 9.84270 4.79049   1
  -2 -10  11 5.94507 4.94669   1
  -2  10  11 -1.6490  4.5475   1
   2  10 -11 4.28020 3.73024   1
   2  10 -11 2.73438 2.70225   2
   1 -10 -11 6.49384 5.30159   1
  -1 -10  11 13.3760  5.9005   1
   1 -10 -11 2.86311 3.17184   5
   1  10 -11 -0.8295  4.6851   1
  -1  10  11 0.09517 3.04626   1
   1  10 -11 11.5635  3.9852   2
   0 -10 -11 27.2087  7.2022   1
   0 -10  11 44.3606  8.3665   1
   0 -10 -11 41.4312  6.6790   5
   0  10 -11 46.9647  8.6013   1
   0  10  11 43.8136  7.7407   1
  -1 -10 -11 5.44243 4.08822   1
   1 -10  11 1.27336 4.69455   1
  -1  10 -11 7.90071 5.42311   1
   1  10  11 3.66469 4.51760   1
   2 -10  11 23.2499  6.4834   1
   2  10  11 38.4231  7.8469   1
   3 -10  11 158.174  14.034   1
  -3 -10 -11 157.675  14.129   1
   3  10  11 154.064  13.512   1
  -3  10 -11 147.261  13.691   1
  -3  10 -11 148.236  12.570   3
   4 -10  11 5.74893 4.80433   1
  -4 -10 -11 10.0014  5.5941   1
   4  10  11 5.80460 4.66659   1
  -4  10 -11 5.31474 5.50972   1
  -4  10 -11 4.79230 4.86798   3
   5 -10  11 42.4219  7.9922   1
  -5  10 -11 49.6098  8.9988   1
  -6  10 -11 52.5682  8.6297   1
  -7 -10 -11 3.52566 3.82408   1
  -7 -10 -11 4.52830 4.89856   4
  -7  10 -11 6.00906 5.32348   3
  -8 -10 -11 -0.1580  3.7452   1
  -8  10 -11 -0.4823  4.9159   3
  -8  10 -11 -3.9724  4.8864   1
   7 -11 -11 0.01566 4.77151   5
  -7 -11  11 4.61662 4.93590   1
  -7  11  11 1.98196 5.26131   1
   7  11 -11 5.81654 5.42822   2
   6 -11 -11 26.6432  7.2840   5
   6  11 -11 26.0932  7.3032   2
  -5 -11  11 7.11663 5.46635   1
   5 -11 -11 3.88470 5.11133   5
  -5  11  11 6.21141 5.33641   1
   5  11 -11 -1.5940  4.6193   1
   5  11 -11 6.90689 4.90207   2
   4 -11 -11 13.0899  5.2706   1
  -4 -11  11 4.85423 5.41707   1
   4 -11 -11 12.4695  5.3917   5
  -4  11  11 3.46587 5.62977   1
   4  11 -11 1.53802 4.14393   2
   4  11 -11 12.2893  5.8106   1
  -3 -11  11 64.7998  9.4639   1
   3 -11 -11 67.4491  9.2534   5
   3  11 -11 62.5290  8.3952   2
  -3  11  11 59.8224 10.0332   1
   3  11 -11 55.0324  9.2739   1
   2 -11 -11 6.94832 5.66621   1
   2 -11 -11 9.28696 4.21123   5
  -2 -11  11 14.1230  6.1181   1
   2  11 -11 -2.7133  5.2174   1
   1 -11 -11 11.9572  4.9385   5
   1 -11 -11 2.50387 4.11652   1
  -1 -11  11 4.87505 4.56605   1
   1  11 -11 4.20035 5.27082   1
  -1  11  11 4.87565 5.18817   1
   0 -11 -11 6.54628 4.66756   1
   0 -11  11 11.7041  4.9624   1
   0 -11 -11 1.80981 2.83764   5
   0  11 -11 -6.2791  5.1902   1
   0  11  11 4.54813 5.30066   1
   1 -11  11 74.5416 10.1842   1
  -1  11 -11 76.1912 10.8348   1
  -2 -11 -11 138.145  14.275   1
   2 -11  11 142.547  13.759   1
  -2  11 -11 111.095  13.020   1
   2  11  11 131.807  13.428   1
  -3 -11 -11 5.89359 5.23027   1
   3 -11  11 -0.7139  4.9067   1
  -3  11 -11 -6.8067  6.1487   1
   4 -11  11 67.1923  9.9362   1
  -4 -11 -11 73.6621 10.5347   1
  -4  11 -11 57.3497  9.8035   1
  -4  11 -11 58.4243  9.1068   3
   4  11  11 44.3946  7.8951   1
  -5 -11 -11 0.33670 4.60113   1
   5 -11  11 -3.0149  4.6959   1
  -5  11 -11 -9.4251  5.8810   3
  -5  11 -11 4.33500 5.49517   1
  -6 -11 -11 5.55224 5.11819   1
  -6 -11 -11 6.32291 5.47773   4
  -6  11 -11 -4.6990  5.3476   1
  -5 -12  11 8.92437 6.02679   1
   5 -12 -11 -0.2559  5.0363   5
   5  12 -11 20.5491  6.5584   2
  -5  12  11 21.9625  7.3911   1
   4 -12 -11 142.005  14.794   1
   4 -12 -11 133.532  12.593   5
  -4 -12  11 113.710  13.479   1
   4  12 -11 115.779  11.815   2
   3 -12 -11 72.1977  9.9977   5
  -3 -12  11 59.7235 10.1911   1
  -3  12  11 75.3994 11.3622   1
   3  12 -11 59.1427  9.5984   1
  -2  12  11 8.45409 6.32955   1
   2  12 -11 -10.531   6.068   1
  -1 -12  11 -1.3412  3.9887   1
   1 -12 -11 8.81435 4.96300   5
   1 -12 -11 -3.6143  5.5692   1
   1  12 -11 4.00917 5.36121   1
  -1  12  11 -1.0337  5.1076   1
   0 -12  11 -7.1286  5.5617   1
   0  12 -11 5.23922 4.36139   1
   0  12  11 -1.4613  5.0099   1
  -1 -12 -11 7.03157 6.06337   1
   1 -12  11 2.91819 5.10995   1
  -1  12 -11 6.17358 4.56259   1
   2 -12  11 11.2984  5.3755   1
   2  12  11 10.4262  5.0022   1
  -2  12 -11 1.67042 5.09991   1
   3 -12  11 9.12739 5.63932   1
  -3  12 -11 -5.1378  5.9052   1
   4 -12  11 7.40141 5.66363   1
  -4 -12 -11 3.65521 4.67829   1
  -4  12 -11 7.22878 4.23148   3
  -4  12 -11 1.95253 4.14243   1
  13   0 -12 2.60435 4.64711   2
  13   0 -12 -9.1229  6.2179   5
  12   0 -12 -7.7846  5.7733   5
  12   0 -12 0.96079 4.08598   2
 -11   0  12 3.44756 2.56709   1
  11   0 -12 -3.6107  4.3068   2
  11   0 -12 3.81677 4.84819   5
 -10   0  12 0.60735 2.44626   1
  10   0 -12 2.34525 4.43238   5
   9   0 -12 5.73270 3.98070   5
  -9   0  12 7.54587 3.25245   1
   9   0 -12 -4.8041  4.5543   2
  -8   0  12 -2.7343  2.0981   3
   8   0 -12 -3.5364  3.9810   2
   8   0 -12 -5.7910  4.7312   5
  -8   0  12 3.42630 2.88445   1
   8   0 -12 -6.7114  3.2769   1
  -8   0  12 -1.9433  3.2506   1
   7   0 -12 0.85391 2.04135   1
   7   0 -12 -3.2254  4.2822   5
  -7   0  12 0.19734 3.10366   1
   7   0 -12 2.65467 4.69501   2
   6   0 -12 -4.0823  3.9799   2
   6   0 -12 4.62442 3.97021   5
   6   0 -12 2.93174 2.85220   1
  -6   0  12 -1.1634  2.7964   1
   5   0 -12 -0.1181  3.5855   2
   5   0 -12 3.96818 3.39830   5
  -5   0  12 0.17902 3.10544   1
   5   0 -12 1.85603 3.05455   1
   4   0 -12 101.257   8.590   5
   4   0 -12 99.1150  8.3724   1
  -4   0  12 100.235   8.324   1
   4   0 -12 107.609   8.554   2
  -3   0  12 8.00705 3.16076   1
   3   0 -12 3.54952 2.91308   5
   3   0 -12 7.37026 3.68522   1
   2   0 -12 560.192  17.636   5
   2   0 -12 540.903  18.942   1
  -2   0  12 537.423  19.221   1
   2   0 -12 556.976  17.753   2
   1   0 -12 -3.5753  2.4064   5
   1   0 -12 3.07335 2.36144   1
   0   0 -12 67.2311  6.8010   1
   0   0 -12 65.2628  5.0801   5
   0   0  12 75.0309  7.3701   1
   0   0 -12 64.5547  6.0707   2
   1   0  12 -0.2926  0.7236   3
  -1   0 -12 -3.4749  2.7144   1
   1   0  12 0.31183 2.85635   1
  -1   0 -12 4.71640 2.93171   2
  -1   0 -12 0.87371 1.31200   5
   2   0  12 208.963  11.572   1
  -2   0 -12 208.366  11.721   1
   2   0  12 201.548   7.520   3
  -2   0 -12 227.389  10.899   2
  -2   0 -12 216.785   6.358   5
  -3   0 -12 -0.2625  2.8763   2
   3   0  12 -2.0738  3.0957   1
  -3   0 -12 3.27347 3.33667   1
  -4   0 -12 28.9785  4.6897   2
   4   0  12 23.4048  4.6354   1
  -4   0 -12 20.8845  4.7459   1
  -5   0 -12 -1.1391  3.3483   1
   5   0  12 -0.0320  3.0833   1
  -6   0 -12 63.2275  6.6676   1
   6   0  12 81.5749  7.3365   1
  -7   0 -12 7.39565 3.33158   1
   7   0  12 1.00274 2.38752   1
  -8   0 -12 168.839  10.431   1
  -9   0 -12 0.07738 2.41178   1
 -10   0 -12 172.975  13.931   4
 -10   0 -12 188.958  10.320   1
 -12   0 -12 33.6799  7.4964   4
  13  -1 -12 17.9845  6.6488   5
  13   1 -12 16.5913  6.9552   5
  13   1 -12 28.9065  7.1124   2
  12  -1 -12 26.8294  6.7971   5
  12  -1 -12 27.0239  6.2522   2
  12   1 -12 25.9492  6.7113   2
  12   1 -12 22.3440  7.2522   5
  11  -1 -12 50.4102  7.7018   2
  11  -1 -12 58.4886  9.4309   5
 -11  -1  12 42.6425  5.4934   1
  11   1 -12 45.6260  7.8091   2
 -11   1  12 44.8518  5.6745   1
  11   1 -12 69.7558 10.2009   5
  10  -1 -12 98.5877 11.3253   5
  10  -1 -12 101.840  10.012   2
 -10  -1  12 109.436   8.587   1
 -10   1  12 99.3173  8.3597   1
 -10   1  12 85.2498  8.2715   3
  10   1 -12 96.5309 11.3244   5
  10   1 -12 113.021  10.757   2
   9  -1 -12 50.8151  8.2093   5
  -9  -1  12 58.8555  6.8273   1
   9  -1 -12 80.4618  8.4300   2
   9   1 -12 73.5813  9.8255   5
   9   1 -12 52.5355  7.8986   2
  -9   1  12 64.5382  6.7863   3
  -9   1  12 70.4828  7.2165   1
   8  -1 -12 66.2035  8.7631   5
   8  -1 -12 71.9955  7.1254   1
   8  -1 -12 64.5664  7.8875   2
  -8  -1  12 62.2020  6.7146   1
  -8   1  12 67.7218  6.3371   3
   8   1 -12 70.4935  7.0012   1
  -8   1  12 53.5168  6.5749   1
   8   1 -12 49.9030  7.5580   2
   8   1 -12 63.7490  8.7721   5
   7  -1 -12 156.673  11.072   2
  -7  -1  12 145.220  10.372   1
   7  -1 -12 147.718   9.854   1
   7  -1 -12 146.665  11.567   5
   7   1 -12 152.259  11.104   2
  -7   1  12 149.251  10.405   1
  -7   1  12 151.848   8.398   3
   7   1 -12 158.291  10.208   1
  -6  -1  12 126.184   9.318   1
   6  -1 -12 126.344   9.726   2
   6  -1 -12 123.714   9.325   1
   6  -1 -12 136.938  10.997   5
   6   1 -12 125.499   9.184   1
  -6   1  12 118.033   9.449   1
  -6   1  12 124.678   9.232   1
   6   1 -12 131.616   9.869   2
  -6   1  12 125.752   6.837   3
   5  -1 -12 90.9489  8.1897   1
   5  -1 -12 98.5788  8.4059   2
  -5  -1  12 90.4526  8.1102   1
   5  -1 -12 86.1871  8.4270   5
  -5   1  12 88.0237  8.3494   1
   5   1 -12 90.1498  7.8613   1
  -5   1  12 88.4504  4.9068   3
   5   1 -12 94.1846  8.1711   2
   4  -1 -12 62.0230  6.4184   2
  -4  -1  12 74.7847  7.3105   1
   4  -1 -12 59.8328  6.5672   5
   4  -1 -12 67.7584  7.2503   1
  -4   1  12 65.4750  3.3759   3
   4   1 -12 64.2942  6.9906   1
  -4   1  12 62.5829  7.0903   1
   4   1 -12 73.2363  7.4014   2
   3  -1 -12 130.425   9.076   5
   3  -1 -12 131.880   8.723   2
   3  -1 -12 137.337   9.842   1
  -3  -1  12 132.497   9.560   1
   3   1 -12 141.117   9.793   1
  -3   1  12 141.618  10.087   1
   3   1 -12 131.572   9.065   2
  -2  -1  12 71.4006  7.4308   1
   2  -1 -12 77.9422  7.1374   2
   2  -1 -12 70.8373  6.4740   5
   2  -1 -12 76.5363  7.5489   1
  -2   1  12 66.7391  7.2054   1
   2   1 -12 69.8510  6.8982   2
   2   1 -12 79.8023  7.5290   1
  -1  -1  12 3.00517 3.23375   1
   1  -1 -12 8.75079 2.94839   2
   1  -1 -12 4.77295 2.50814   5
   1  -1 -12 4.65889 3.43403   1
   1   1 -12 6.04613 2.91038   1
   0  -1 -12 -0.6940  2.1481   2
   0  -1 -12 8.93316 3.14442   1
   0  -1  12 5.64363 3.46686   1
   0  -1 -12 -0.5742  1.7332   5
   0   1 -12 -0.9750  3.0324   1
  -1  -1 -12 59.7484  6.5388   1
   1  -1  12 65.6379  7.0790   1
  -1  -1 -12 59.9538  4.1885   5
  -1  -1 -12 60.5854  6.1981   2
  -1   1 -12 62.2243  6.9573   1
  -1   1 -12 56.8189  5.3523   2
   1   1  12 54.0226  3.5624   3
   1   1  12 58.0680  6.6258   1
  -2  -1 -12 543.187  19.327   1
  -2  -1 -12 494.618  10.493   5
  -2  -1 -12 525.320  17.444   2
   2  -1  12 488.302  18.262   1
  -2   1 -12 501.361  15.816   2
  -2   1 -12 501.854  11.379   5
   2   1  12 523.472  18.791   1
  -2   1 -12 500.877  18.440   1
   2   1  12 491.957  13.343   3
  -3  -1 -12 46.6890  5.8705   2
  -3  -1 -12 48.2451  5.9950   1
   3  -1  12 55.4183  6.5697   1
  -3   1 -12 56.5132  4.5774   3
  -3   1 -12 51.7806  6.3990   1
   3   1  12 49.9203  6.3116   1
  -3   1 -12 45.8745  5.1574   2
  -4  -1 -12 31.7777  4.8096   2
  -4  -1 -12 25.2197  5.0013   1
   4  -1  12 21.2350  4.4918   1
   4   1  12 20.9488  4.4524   1
  -4   1 -12 24.3507  3.7227   3
  -4   1 -12 30.5291  5.2308   1
  -4   1 -12 18.9201  3.7610   2
   5  -1  12 399.316  16.388   1
  -5  -1 -12 409.988  16.673   1
  -5   1 -12 424.677  17.164   1
   5   1  12 398.951  16.261   1
  -5   1 -12 393.827  15.211   3
  -6  -1 -12 99.3788  8.3693   1
   6  -1  12 92.7851  7.8048   1
  -6   1 -12 89.8411  8.0366   3
   6   1  12 101.479   8.172   1
  -6   1 -12 97.4510  8.1582   1
   7  -1  12 13.2017  3.5111   1
   7   1  12 15.8970  3.8477   1
  -7   1 -12 8.39254 3.45814   1
  -7   1 -12 2.18642 3.28280   3
  -8  -1 -12 25.4259  4.6642   1
  -8   1 -12 21.1980  4.4234   1
  -9  -1 -12 15.6638  3.6287   1
  -9   1 -12 22.0990  5.7202   3
  -9   1 -12 10.1439  3.3000   1
 -10  -1 -12 82.9895  6.9860   1
 -10  -1 -12 70.0348  9.6461   4
 -10   1 -12 85.4008  7.2222   1
 -10   1 -12 83.0019  9.3489   4
 -10   1 -12 82.7488 10.1319   3
 -11  -1 -12 77.0372 10.2691   4
 -11   1 -12 75.4783 10.1351   3
 -11   1 -12 73.2291  9.4720   4
 -12  -1 -12 11.5880  5.7278   4
 -12   1 -12 6.13654 4.86125   3
 -12   1 -12 10.6711  4.9473   4
  13  -2 -12 46.1725  7.4671   2
  13  -2 -12 43.5914  8.9733   5
  13   2 -12 36.2374  8.7306   5
  13   2 -12 42.6213  7.6170   2
  12  -2 -12 -7.8544  5.5661   5
  12  -2 -12 1.85482 3.74810   2
  12   2 -12 3.58820 5.14440   5
  11  -2 -12 59.7188  9.5390   5
 -11  -2  12 52.6913  6.0366   1
  11  -2 -12 58.3105  7.7196   2
 -11   2  12 55.7416  6.3808   1
  11   2 -12 50.6427  8.3476   2
  11   2 -12 80.8590 10.5699   5
 -10  -2  12 35.0484  5.3500   1
  10  -2 -12 43.8389  7.0044   2
  10   2 -12 30.4831  7.0161   2
 -10   2  12 47.7726  6.0891   1
 -10   2  12 35.8267  5.9963   3
   9  -2 -12 92.9790 10.5076   5
   9  -2 -12 74.7969  8.4554   2
  -9  -2  12 87.3156  7.9694   1
   9   2 -12 86.7406  9.6573   2
  -9   2  12 90.7409  8.1360   3
  -9   2  12 82.4643  8.0674   1
   8  -2 -12 16.9881  4.9793   2
   8  -2 -12 5.62081 4.68102   5
   8  -2 -12 5.02254 3.18174   1
  -8  -2  12 14.8910  4.2052   1
   8   2 -12 5.60773 2.99823   1
  -8   2  12 7.22343 3.04518   3
  -8   2  12 9.14500 3.51845   1
   7  -2 -12 43.9647  5.8934   1
  -7  -2  12 42.6719  5.6739   1
   7  -2 -12 38.4484  6.7051   5
   7  -2 -12 32.0424  5.2124   2
   7   2 -12 35.1806  5.2967   1
  -7   2  12 33.0001  4.3837   3
   7   2 -12 39.6500  6.0697   2
  -7   2  12 33.4191  5.3517   1
   6  -2 -12 14.3598  3.9209   2
  -6  -2  12 20.4701  4.7567   1
   6  -2 -12 10.3443  4.3788   5
  -6   2  12 18.2996  3.1167   3
   6   2 -12 17.6528  4.2044   1
  -6   2  12 23.2849  5.1015   1
  -5  -2  12 93.3793  8.4171   1
   5  -2 -12 106.560   9.301   5
   5  -2 -12 104.069   8.852   1
   5  -2 -12 113.131   8.895   2
   5   2 -12 103.807   9.108   2
  -5   2  12 90.2024  5.6425   3
  -5   2  12 105.813   8.773   1
   5   2 -12 99.7067  8.2894   1
   4  -2 -12 74.5157  7.1284   2
   4  -2 -12 76.2987  7.6593   1
   4  -2 -12 81.7337  7.8463   5
  -4  -2  12 75.0189  7.8571   1
  -4   2  12 71.5862  4.5523   3
  -4   2  12 78.1008  8.0280   1
   4   2 -12 87.2259  7.8896   1
   4   2 -12 79.5242  7.4757   2
   3  -2 -12 6.59888 3.89381   1
  -3  -2  12 7.82209 4.48862   1
   3  -2 -12 16.8708  3.8525   2
   3   2 -12 13.8378  4.4423   2
  -3   2  12 11.6469  1.8552   3
   3   2 -12 10.3134  3.9504   1
  -3   2  12 3.16360 3.56045   1
   2  -2 -12 162.278  10.810   1
   2  -2 -12 146.817   9.534   2
   2  -2 -12 146.022   9.088   5
  -2  -2  12 157.251  10.642   1
  -2   2  12 149.574   5.128   3
   2   2 -12 148.680  10.215   1
  -2   2  12 149.167  10.468   1
  -2   2  12 144.485  10.381   1
   2   2 -12 150.201   9.171   2
  -1  -2  12 233.976  12.664   1
   1  -2 -12 224.715  12.658   1
   1  -2 -12 222.898  11.172   2
   1  -2 -12 199.239   9.512   5
   1   2 -12 237.408  11.212   2
   1   2 -12 228.893  12.550   1
  -1   2  12 226.681  12.788   1
   0  -2  12 46.2482  6.3944   1
   0  -2 -12 34.7299  5.1573   2
   0  -2 -12 32.5856  3.8986   5
   0  -2 -12 37.7193  5.9510   1
   0   2 -12 40.1468  5.0449   2
   0   2  12 30.5711  4.9935   1
   0   2  12 33.8423  2.7962   3
   0   2 -12 30.2999  4.8901   1
  -1  -2 -12 4.56506 3.49554   2
  -1  -2 -12 14.5848  4.5136   1
   1  -2  12 9.76305 4.05967   1
   1   2  12 6.65540 1.70554   3
  -1   2 -12 5.46659 1.38429   3
  -1   2 -12 3.94827 2.74834   1
  -1   2 -12 8.31025 3.05866   2
   1   2  12 7.68299 3.09943   1
   2  -2  12 87.6268  7.8435   1
  -2  -2 -12 98.4461  8.6396   1
  -2  -2 -12 87.5708  4.3686   5
  -2  -2 -12 93.9163  7.6389   2
  -2   2 -12 92.7427  6.6629   2
  -2   2 -12 90.1337  5.2190   3
  -2   2 -12 92.2457  8.2731   1
   2   2  12 95.6994  8.3831   1
   3  -2  12 12.1042  4.0892   1
  -3  -2 -12 2.66018 3.53500   1
  -3  -2 -12 10.1105  4.0463   2
  -3   2 -12 7.94694 2.91622   2
   3   2  12 13.7249  3.5597   1
  -3   2 -12 6.86207 3.70193   1
  -3   2 -12 10.3479  2.5838   3
  -4  -2 -12 26.7426  4.7610   1
   4  -2  12 25.5975  4.9123   1
  -4   2 -12 23.3982  5.0015   1
  -4   2 -12 30.3957  4.0578   2
   4   2  12 28.1347  4.9778   1
  -4   2 -12 19.6812  3.6814   3
  -5  -2 -12 7.85632 3.65985   1
   5  -2  12 -0.5192  2.8085   1
  -5   2 -12 10.1751  3.9144   1
  -5   2 -12 2.96435 2.29905   2
  -5   2 -12 5.29145 2.93083   3
   5   2  12 -3.1277  3.0303   1
   6  -2  12 62.8594  6.7165   1
  -6  -2 -12 55.9581  6.7285   1
   6   2  12 54.0057  6.0700   1
  -6   2 -12 58.7270  6.7920   3
  -6   2 -12 51.8567  6.2492   1
   7  -2  12 21.6654  4.3761   1
  -7  -2 -12 27.4364  4.9109   1
   7   2  12 28.9390  4.8358   1
  -7   2 -12 18.7757  4.9628   3
  -7   2 -12 25.5347  4.9077   1
  -8  -2 -12 1.66715 2.70430   1
  -8   2 -12 0.34446 3.21976   3
  -8   2 -12 -0.8755  2.6480   1
  -9  -2 -12 1.86177 2.62176   1
  -9   2 -12 1.46912 2.37269   1
 -10  -2 -12 14.6541  5.9048   4
 -10   2 -12 -1.2756  3.2125   4
 -10   2 -12 -4.5956  4.7914   3
 -11   2 -12 26.9849  7.2573   3
 -12  -2 -12 11.4830  6.0729   4
 -12   2 -12 4.02237 4.98537   3
  13  -3 -12 56.5327  7.7707   2
  13  -3 -12 64.9049 10.5264   5
  13   3 -12 80.8885 12.0708   5
  13   3 -12 60.6491  9.8533   2
  12  -3 -12 49.5177  8.9879   5
  12  -3 -12 47.1624  7.1561   2
  12   3 -12 45.0955  7.9625   2
  11  -3 -12 -5.3649  5.1526   5
  11  -3 -12 4.69515 3.66518   2
 -11  -3  12 5.74366 2.95154   1
  11   3 -12 1.90159 4.90626   2
 -11   3  12 12.0914  3.7082   1
 -10  -3  12 12.9513  3.9109   1
  10  -3 -12 12.4330  4.4056   2
  10  -3 -12 13.4583  5.1705   5
 -10   3  12 24.5429  5.2080   3
 -10   3  12 20.0447  4.5878   1
  10   3 -12 20.1052  6.3502   2
   9  -3 -12 85.8232  8.7390   2
  -9  -3  12 103.838   8.626   1
   9  -3 -12 94.5003 10.8087   5
  -9   3  12 86.6736  8.3713   1
  -9   3  12 90.3297  8.5489   3
   9   3 -12 91.5170 10.4084   2
  -8  -3  12 10.9790  4.0809   1
   8  -3 -12 21.5137  4.8194   1
   8  -3 -12 24.3489  6.3982   5
   8  -3 -12 15.1691  4.7275   2
  -8   3  12 23.9386  5.3689   1
  -8   3  12 13.5477  3.6808   3
   8   3 -12 20.0547  6.0401   2
  -7  -3  12 443.475  18.245   1
   7  -3 -12 478.641  21.347   5
   7  -3 -12 454.566  18.008   2
   7  -3 -12 478.468  19.031   1
   7   3 -12 462.952  18.140   1
   7   3 -12 450.132  20.008   2
  -7   3  12 430.965  16.255   3
  -7   3  12 462.428  19.003   1
   6  -3 -12 4.88018 3.51016   1
   6  -3 -12 2.21808 3.43535   2
  -6   3  12 3.16580 2.30997   3
   6   3 -12 -0.8528  4.2735   2
  -6   3  12 6.20177 3.32006   1
   5  -3 -12 17.5852  4.5691   1
  -5  -3  12 12.8226  4.2448   1
   5  -3 -12 24.1540  5.4817   5
   5  -3 -12 17.1782  4.6219   2
  -5   3  12 18.0776  4.8170   1
  -5   3  12 14.7517  2.9051   3
   5   3 -12 17.7024  4.4094   1
   4  -3 -12 7.79959 4.26910   1
   4  -3 -12 3.64994 3.63813   5
  -4   3  12 7.41301 2.13156   3
   4   3 -12 4.06084 2.93340   2
   4   3 -12 5.14741 1.29177   3
   4   3 -12 -0.3692  3.1535   1
  -4   3  12 -0.0086  3.4553   1
  -3  -3  12 39.4602  5.7603   1
   3  -3 -12 43.3158  5.8119   2
   3  -3 -12 51.8253  6.2978   5
   3  -3 -12 32.2550  5.8717   1
   3   3 -12 36.4499  5.7865   2
  -3   3  12 39.6330  3.6062   3
  -3   3  12 36.9882  6.1752   1
   3   3 -12 31.4531  5.5959   1
   2  -3 -12 216.412  11.119   5
   2  -3 -12 202.997  11.362   2
  -2  -3  12 215.161  12.864   1
   2  -3 -12 193.566  12.140   1
  -2   3  12 195.721  12.240   1
   2   3 -12 217.043  12.658   1
   2   3 -12 204.072  11.153   2
   1  -3 -12 163.123  10.033   2
   1  -3 -12 150.588   8.504   5
   1  -3 -12 147.385  10.775   1
  -1  -3  12 139.029  10.364   1
   1   3 -12 142.279  10.026   1
  -1   3  12 142.880  10.569   1
   1   3 -12 160.165   9.286   2
   0  -3  12 221.896  12.860   1
   0  -3 -12 210.657  12.677   1
   0  -3 -12 197.299   9.111   5
   0  -3 -12 193.038  11.093   2
   0   3  12 203.947  12.350   1
   0   3 -12 199.712   6.300   3
   0   3 -12 230.236  12.941   1
   0   3 -12 190.839   9.901   2
  -1  -3 -12 32.1785  5.9337   1
  -1  -3 -12 35.5701  3.6914   5
  -1  -3 -12 23.3726  5.0718   2
   1  -3  12 33.2361  5.8351   1
   1   3  12 31.6995  5.7061   1
  -1   3 -12 43.5272  4.7863   2
  -1   3 -12 30.3959  3.0212   3
  -1   3 -12 32.8862  5.8170   1
   2  -3  12 85.9236  8.3232   1
  -2  -3 -12 81.1661  4.7075   5
  -2  -3 -12 74.4965  7.5949   2
  -2  -3 -12 85.9131  8.4306   1
  -2   3 -12 85.9770  5.6537   3
   2   3  12 79.6749  7.5862   1
  -2   3 -12 85.5524  6.3494   2
  -2   3 -12 93.9701  8.3039   1
  -3  -3 -12 226.390  12.731   2
  -3  -3 -12 198.458   6.478   5
   3  -3  12 204.390  12.216   1
  -3  -3 -12 205.883  12.491   1
  -3   3 -12 200.899  12.340   1
   3   3  12 209.320  12.222   1
  -3   3 -12 204.524   9.677   3
  -3   3 -12 194.256   9.106   2
   4  -3  12 19.0149  4.4361   1
  -4  -3 -12 8.42712 3.93601   1
  -4   3 -12 17.1613  4.5486   1
  -4   3 -12 15.3197  3.4361   3
  -4   3 -12 13.5603  2.9254   2
   4   3  12 14.9122  4.1757   1
   5  -3  12 24.0197  4.7679   1
  -5  -3 -12 29.0464  5.3316   1
  -5   3 -12 24.9904  5.1089   1
  -5   3 -12 30.2061  4.8283   3
  -5   3 -12 27.9232  3.7051   2
   5   3  12 33.7083  5.3164   1
   6  -3  12 23.7809  4.5682   1
  -6  -3 -12 31.2614  5.4153   1
  -6   3 -12 30.1505  5.0789   3
  -6   3 -12 31.2018  5.4436   1
   6   3  12 24.5854  4.3468   1
   7  -3  12 12.2905  3.7137   1
  -7  -3 -12 4.38072 3.33002   1
  -7   3 -12 6.02086 3.15577   1
  -7   3 -12 5.72414 3.53123   3
  -8  -3 -12 15.7466  4.1562   1
  -8   3 -12 16.0094  4.2352   1
  -8   3 -12 8.92890 4.28728   3
  -9  -3 -12 13.9169  3.8534   1
  -9   3 -12 17.3716  5.5746   3
  -9   3 -12 14.2032  4.1817   4
  -9   3 -12 10.1113  3.5726   1
 -10  -3 -12 100.121   7.854   1
 -10  -3 -12 89.0945 11.4749   4
 -10   3 -12 103.629   8.326   1
 -10   3 -12 90.0485 10.9120   3
 -11  -3 -12 -2.0916  3.8107   4
 -11   3 -12 12.0499  6.0951   3
 -12  -3 -12 4.48146 5.01341   4
 -12   3 -12 4.11260 5.01025   3
  13  -4 -12 19.9228  7.0161   5
  12  -4 -12 18.1059  4.9097   2
  12   4 -12 6.93865 5.47095   2
 -11  -4  12 11.8591  3.7531   1
  11  -4 -12 4.16537 4.18031   5
 -11   4  12 17.5125  4.3536   1
  11   4 -12 24.2450  7.1873   2
  10  -4 -12 120.790  12.404   5
 -10  -4  12 132.619   9.929   1
  10  -4 -12 140.698  10.967   2
 -10   4  12 130.075  10.334   1
  10   4 -12 125.312  12.329   2
 -10   4  12 124.698  10.800   3
   9  -4 -12 28.0235  7.0471   5
   9  -4 -12 19.1212  5.0819   2
  -9  -4  12 17.0054  4.7106   1
   9   4 -12 33.1972  6.9229   2
  -9   4  12 21.5010  4.9886   3
  -9   4  12 22.4043  5.2672   1
   8  -4 -12 61.0352  7.3840   1
  -8  -4  12 63.0811  7.3875   1
   8  -4 -12 61.8018  8.9529   5
   8  -4 -12 45.8844  6.5669   2
  -8   4  12 64.3900  7.2498   3
   8   4 -12 61.6987  8.6132   2
  -8   4  12 46.0768  6.8060   1
   7  -4 -12 -5.3664  3.6679   1
   7  -4 -12 5.74078 4.39046   5
   7  -4 -12 0.47200 3.26389   2
   7   4 -12 2.42917 4.79848   2
   7   4 -12 2.73536 3.04969   1
  -7   4  12 2.84186 2.77302   3
  -7   4  12 3.01043 3.15245   1
   6  -4 -12 -10.298   4.505   1
  -6  -4  12 -4.0033  3.6898   1
   6  -4 -12 -2.2614  3.5295   2
  -6   4  12 5.02819 3.87658   1
   6   4 -12 0.56946 2.73068   1
  -6   4  12 -1.0390  2.2528   3
   6   4 -12 -6.0330  3.6329   2
  -5  -4  12 90.6206  8.6958   1
   5  -4 -12 87.3486  8.3550   1
   5  -4 -12 101.486   8.516   2
   5  -4 -12 80.9567  8.2153   5
  -5   4  12 90.6629  9.0743   1
  -5   4  12 93.7500  6.9994   3
   5   4 -12 79.8471  8.0279   1
   5   4 -12 95.2756  9.0994   2
  -4  -4  12 70.8069  7.5613   1
   4  -4 -12 73.5134  7.3826   5
   4  -4 -12 67.4702  7.1591   2
   4  -4 -12 68.9068  7.5852   1
  -4   4  12 63.2911  5.4087   3
   4   4 -12 74.3921  7.4935   2
   4   4 -12 66.9074  7.5818   1
  -4   4  12 67.2176  8.0180   1
  -3  -4  12 57.9097  6.8376   1
   3  -4 -12 60.3866  7.6943   1
   3  -4 -12 49.4876  6.3308   2
   3  -4 -12 52.4905  6.5356   5
   3   4 -12 61.2793  6.9748   2
   3   4 -12 56.4393  7.0995   1
  -3   4  12 64.3307  7.9445   1
   2  -4 -12 201.683  11.623   2
   2  -4 -12 224.880  11.465   5
  -2  -4  12 224.069  13.279   1
   2  -4 -12 214.860  13.142   1
   2   4 -12 214.552  12.763   1
  -2   4  12 213.815  12.925   1
   2   4 -12 226.589  11.830   2
   1  -4 -12 7.79494 3.15556   5
  -1  -4  12 2.84293 3.66207   1
   1  -4 -12 2.68847 4.03090   1
  -1   4  12 9.78425 4.57193   1
   1   4 -12 2.70256 2.95417   2
   1   4 -12 3.52241 2.94391   1
   0  -4 -12 1.43186 3.77430   1
   0  -4 -12 4.09152 3.65942   2
   0  -4 -12 5.32627 2.60477   5
   0  -4  12 6.71627 4.30001   1
   0   4 -12 -1.8251  2.4987   2
   0   4  12 2.80279 3.63383   1
   0   4 -12 -0.5715  3.3588   1
  -1  -4 -12 131.648   7.186   5
   1  -4  12 140.522  10.727   1
  -1  -4 -12 131.269   9.799   2
  -1  -4 -12 135.467  10.534   1
  -1   4 -12 144.671   8.279   2
  -1   4 -12 134.975  10.405   1
   1   4  12 139.100  10.529   1
  -1   4 -12 140.924   7.022   3
  -2  -4 -12 89.4664  8.5013   2
  -2  -4 -12 82.6700  5.3310   5
   2  -4  12 86.1086  8.5578   1
  -2  -4 -12 96.5245  9.1142   1
  -2   4 -12 88.7943  6.2604   3
  -2   4 -12 84.6504  6.0976   2
   2   4  12 90.8902  8.5752   1
  -2   4 -12 84.4438  8.1269   1
  -3  -4 -12 25.7619  5.6111   1
   3  -4  12 47.3181  6.5765   1
  -3   4 -12 34.0301  5.9606   1
   3   4  12 36.8606  5.9594   1
  -3   4 -12 31.6618  3.8747   2
  -3   4 -12 33.0397  4.5596   3
   4  -4  12 119.367   9.530   1
  -4  -4 -12 118.178   9.658   1
  -4   4 -12 108.535   6.440   2
   4   4  12 106.706   9.207   1
  -4   4 -12 122.321   9.982   1
  -4   4 -12 113.764   8.371   3
  -5  -4 -12 194.412  12.327   1
   5  -4  12 211.267  12.666   1
  -5   4 -12 215.469  13.086   1
   5   4  12 204.964  12.323   1
  -5   4 -12 209.047  12.092   3
  -5   4 -12 201.732   8.569   2
  -6  -4 -12 169.234  11.537   1
   6  -4  12 136.992  10.116   1
  -6   4 -12 153.656  11.147   3
  -6   4 -12 141.068  10.769   1
   6   4  12 145.008  10.376   1
   7  -4  12 2.77899 3.03525   1
  -7  -4 -12 4.43261 3.44369   1
  -7   4 -12 2.03711 3.36624   3
  -7   4 -12 -6.0819  3.8139   1
  -8  -4 -12 18.4707  4.5744   1
  -8   4 -12 24.7340  5.1379   1
  -8   4 -12 30.9315  6.4949   3
  -9  -4 -12 14.7652  3.8691   1
  -9   4 -12 18.2115  5.5901   3
 -10  -4 -12 18.6305  3.9866   1
 -10   4 -12 9.32178 3.50306   1
 -10   4 -12 15.8728  5.7749   3
 -11  -4 -12 5.97240 4.54422   4
 -11   4 -12 -0.3249  4.7268   3
 -12  -4 -12 52.8459 10.1187   4
 -12   4 -12 46.0938  9.4184   3
  12  -5 -12 5.84930 5.34868   5
  12   5 -12 16.2039  6.5818   2
 -12   5  12 15.6765  4.2877   1
  11  -5 -12 12.6752  6.0978   5
 -11  -5  12 7.01673 3.25452   1
  11  -5 -12 13.5100  4.2672   2
  11   5 -12 6.61400 5.57267   2
  10  -5 -12 36.9647  7.8761   5
  10  -5 -12 32.1858  5.8055   2
 -10  -5  12 41.1451  6.2029   1
  10   5 -12 25.3991  6.2047   2
 -10   5  12 46.7376  7.4303   3
 -10   5  12 37.7534  6.3251   1
  -9  -5  12 87.9151  8.8443   1
   9  -5 -12 78.8648 10.2499   5
   9  -5 -12 80.8946  8.2433   2
  -9   5  12 81.0963  8.8041   3
   9   5 -12 86.7701 10.1026   2
  -9   5  12 88.0714  9.1810   1
   8  -5 -12 13.5613  4.4918   2
   8  -5 -12 10.1019  4.2769   1
  -8  -5  12 11.7869  4.5119   1
   8  -5 -12 7.25667 5.37899   5
  -8   5  12 15.8035  4.9461   1
  -8   5  12 8.66782 3.94795   3
   8   5 -12 3.08047 3.66759   2
   7  -5 -12 4.90288 3.50462   2
  -7  -5  12 3.44262 3.80518   1
   7  -5 -12 3.58352 4.41894   5
  -7   5  12 1.64805 3.68353   1
  -7   5  12 -2.1922  3.2036   3
   7   5 -12 -2.3838  4.6121   2
   6  -5 -12 181.953  11.535   2
   6  -5 -12 192.014  13.421   5
   6  -5 -12 186.439  12.877   1
  -6  -5  12 204.739  12.872   1
  -6   5  12 181.420  12.845   1
   6   5 -12 189.797  13.262   2
  -6   5  12 172.104  10.718   3
   6   5 -12 177.216  11.871   1
   5  -5 -12 125.011  10.598   1
   5  -5 -12 123.428   9.250   2
   5  -5 -12 122.501  10.574   5
  -5  -5  12 130.059  10.586   1
  -5   5  12 133.056  11.109   1
   5   5 -12 136.135  11.004   2
  -5   5  12 129.948   8.745   3
   5   5 -12 129.833  10.219   1
   4  -5 -12 225.236  14.026   1
  -4  -5  12 227.680  13.778   1
   4  -5 -12 229.449  12.527   2
   4  -5 -12 212.169  12.842   5
  -4   5  12 216.321  13.853   1
   4   5 -12 201.413  12.800   2
   4   5 -12 224.439  13.254   1
   3  -5 -12 330.279  15.194   5
   3  -5 -12 296.330  14.417   2
   3  -5 -12 335.719  17.063   1
  -3  -5  12 299.507  15.705   1
   3   5 -12 301.725  14.637   2
  -3   5  12 307.051  16.205   1
   3   5 -12 304.639  15.645   1
   2  -5 -12 74.4607  7.6502   2
  -2  -5  12 69.4739  8.0881   1
   2  -5 -12 55.9593  7.5436   1
   2  -5 -12 72.0552  7.1101   5
   2   5 -12 75.9336  8.0464   1
   2   5 -12 63.7361  6.8084   2
  -2   5  12 77.8444  8.6479   1
   1  -5 -12 2.65992 3.47125   2
  -1  -5  12 -6.6146  4.5298   1
   1  -5 -12 -1.3408  2.7535   5
  -1   5  12 4.18888 3.17628   1
   1   5 -12 -9.3834  4.5831   1
   1   5 -12 0.83233 2.22857   2
   0  -5 -12 169.365  11.374   2
   0  -5  12 161.145  11.691   1
   0  -5 -12 163.431  12.192   1
   0  -5 -12 158.211   8.922   5
   0   5 -12 142.067   7.250   3
   0   5 -12 161.516   9.147   2
   0   5 -12 163.013  11.873   1
   0   5  12 168.640  11.830   1
  -1  -5 -12 145.750   8.143   5
  -1  -5 -12 147.072  11.327   1
   1  -5  12 132.772  10.699   1
  -1  -5 -12 146.499  10.567   2
  -1   5 -12 140.783   7.832   3
  -1   5 -12 155.178  11.695   1
  -1   5 -12 155.956   8.663   2
   1   5  12 146.871  11.285   1
   2  -5  12 4.45363 3.96532   1
  -2  -5 -12 2.88059 1.97027   5
  -2  -5 -12 0.05763 3.74120   1
   2   5  12 -2.3041  3.7733   1
  -2   5 -12 2.14055 2.35834   3
  -2   5 -12 5.09499 4.02717   1
  -3  -5 -12 2.12471 3.65018   1
   3  -5  12 1.75454 3.62138   1
   3   5  12 0.06988 2.33934   1
  -3   5 -12 1.50782 2.81755   1
  -3   5 -12 6.39522 2.73240   3
   4  -5  12 205.846  13.044   1
  -4  -5 -12 250.032  14.551   1
  -4   5 -12 235.955  14.339   1
   4   5  12 255.709  14.159   1
  -4   5 -12 244.222  12.790   3
  -4   5 -12 227.761   8.829   2
  -5  -5 -12 34.8413  6.1446   1
   5  -5  12 30.3298  5.7614   1
  -5   5 -12 44.1821  6.2777   3
  -5   5 -12 37.2830  6.5261   1
   5   5  12 43.6027  6.0734   1
  -6  -5 -12 149.863  11.118   1
   6  -5  12 186.334  12.301   1
  -6   5 -12 173.006  12.183   1
  -6   5 -12 174.346  12.281   3
   6   5  12 174.170  11.669   1
  -7  -5 -12 25.7988  5.5418   1
  -7   5 -12 29.6965  6.3003   3
  -7   5 -12 21.4735  4.8884   1
  -8  -5 -12 0.10962 3.11472   1
  -8   5 -12 -0.9501  3.2068   3
  -9  -5 -12 14.0727  3.9258   1
  -9   5 -12 7.19767 4.78628   3
 -10  -5 -12 32.0707  5.0852   1
 -10  -5 -12 45.0579  9.0119   4
 -10   5 -12 34.7024  5.7118   1
 -11  -5 -12 4.46236 5.67943   4
 -11   5 -12 16.3208  6.5648   3
  12  -6 -12 4.76150 5.04531   5
  12   6 -12 17.9675  7.0093   2
 -12   6  12 11.8126  4.2097   1
  11  -6 -12 48.0168  8.3780   5
 -11  -6  12 55.2460  6.9972   1
 -11   6  12 56.4670  7.7148   1
  10  -6 -12 25.8047  6.4291   5
 -10  -6  12 18.0058  4.7564   1
  10  -6 -12 23.9895  5.0715   2
 -10   6  12 16.2856  5.1334   1
  10   6 -12 10.7786  5.8438   2
 -10   6  12 16.1603  5.2939   3
   9  -6 -12 22.3814  5.9698   5
   9  -6 -12 22.1382  4.9760   2
  -9  -6  12 28.7456  5.7474   1
  -9   6  12 28.7939  6.2155   3
  -9   6  12 21.4587  5.6543   1
   8  -6 -12 7.35358 5.38710   5
   8  -6 -12 1.05194 2.35745   2
  -8  -6  12 -1.8311  3.2578   1
   8   6 -12 4.47290 3.93337   2
  -8   6  12 1.83071 3.24734   3
  -8   6  12 -2.2699  4.1394   1
   7  -6 -12 24.1006  6.2509   5
   7  -6 -12 17.7591  4.3485   2
  -7  -6  12 14.9146  4.9490   1
   7  -6 -12 30.1373  6.0601   1
   7   6 -12 18.1669  4.9104   1
   7   6 -12 23.1938  6.4380   2
  -7   6  12 16.2535  4.7308   1
  -7   6  12 20.8245  4.6858   3
   6  -6 -12 -3.0934  4.6007   5
   6  -6 -12 -7.6008  4.4223   1
   6  -6 -12 8.01407 3.23895   2
  -6  -6  12 2.85587 3.92259   1
   6   6 -12 2.12948 4.74587   2
  -6   6  12 1.72368 2.99739   3
   6   6 -12 3.03925 2.69485   1
   5  -6 -12 211.945  12.635   2
  -5  -6  12 217.623  13.883   1
   5  -6 -12 219.719  14.508   1
   5  -6 -12 212.792  13.880   5
  -5   6  12 215.519  14.524   1
   5   6 -12 199.441  13.468   2
  -5   6  12 207.775  11.884   3
   5   6 -12 200.830  13.177   1
   4  -6 -12 448.795  18.882   5
  -4  -6  12 450.582  20.144   1
   4  -6 -12 445.824  20.527   1
   4  -6 -12 436.107  17.959   2
   4   6 -12 435.890  19.493   1
  -4   6  12 432.366  20.231   1
   4   6 -12 448.976  19.142   2
   3  -6 -12 21.1659  5.7240   1
  -3  -6  12 16.0034  5.2564   1
   3   6 -12 18.2234  5.0406   2
   3   6 -12 13.9664  5.0343   1
   2  -6 -12 15.2636  5.2512   1
  -2  -6  12 18.5896  5.1272   1
   2  -6 -12 16.6714  4.9298   2
   2  -6 -12 22.4639  4.8261   5
   2   6 -12 18.9983  4.7384   1
   2   6 -12 17.2187  4.1956   2
  -2   6  12 13.9553  5.1401   1
   1  -6 -12 16.2963  3.7159   5
   1  -6 -12 28.6258  5.6530   2
   1  -6 -12 22.2977  5.5564   1
  -1  -6  12 18.7124  5.3594   1
  -1   6  12 18.6434  5.5626   1
   1   6 -12 20.4233  4.3045   2
   1   6 -12 18.3131  5.3441   1
   0  -6 -12 6.04362 4.24372   2
   0  -6  12 9.30982 4.43020   1
   0  -6 -12 13.0584  4.2813   1
   0  -6 -12 13.7231  3.7854   5
   0   6 -12 11.5035  5.1800   1
   0   6 -12 11.3808  3.3462   2
   0   6  12 8.34077 4.50008   1
  -1  -6 -12 -3.4849  2.4535   5
  -1  -6 -12 7.91636 4.46126   1
   1  -6  12 -6.0472  4.1353   1
  -1   6 -12 1.44102 4.17999   1
  -1   6 -12 0.24712 1.98669   3
   1   6  12 2.62354 3.89104   1
  -1   6 -12 -4.9373  2.6328   2
   2  -6  12 26.0332  5.9964   1
  -2  -6 -12 36.8131  6.9298   1
  -2  -6 -12 30.8749  4.1657   5
   2   6  12 24.2027  5.7317   1
  -2   6 -12 43.0030  5.3113   3
  -2   6 -12 31.5183  6.4898   1
  -2   6 -12 30.7523  3.8813   2
  -3  -6 -12 177.213  12.728   1
   3  -6  12 183.144  12.911   1
  -3   6 -12 175.893   8.011   2
  -3   6 -12 168.619  12.462   1
  -3   6 -12 176.744  10.903   3
   3   6  12 170.776  12.359   1
   4  -6  12 21.8447  5.4208   1
  -4  -6 -12 14.0955  4.7319   1
  -4   6 -12 10.0346  3.7307   3
   4   6  12 10.3142  4.2410   1
  -4   6 -12 11.1258  4.9510   1
   5  -6  12 0.39435 3.27090   1
  -5  -6 -12 0.01823 3.29017   1
  -5   6 -12 -4.1574  4.2996   1
   5   6  12 4.71702 3.67117   1
  -5   6 -12 8.23956 4.01413   3
   6  -6  12 12.6415  4.4624   1
  -6  -6 -12 5.91520 4.14541   1
  -6   6 -12 -0.2527  3.9768   1
   6   6  12 7.80519 3.87637   1
  -7  -6 -12 18.8931  5.0934   1
  -7   6 -12 24.1028  5.8804   3
  -8  -6 -12 55.4546  7.4477   1
  -8   6 -12 67.4328  8.3800   1
  -8   6 -12 61.9334  8.5581   3
  -9  -6 -12 53.7595  6.8838   1
  -9   6 -12 52.8576  8.9583   3
  -9   6 -12 55.8518  7.5423   1
 -10  -6 -12 24.9965  7.6420   4
 -10  -6 -12 14.1569  4.0072   1
 -10   6 -12 17.8137  6.4794   3
 -11  -6 -12 13.6138  7.1300   4
 -11   6 -12 7.72961 5.52498   3
 -11  -7  12 28.9813  5.7776   1
  11  -7 -12 20.4784  7.0315   5
 -11   7  12 39.9023  7.0929   1
  11   7 -12 34.8156  8.5163   2
  10  -7 -12 17.4277  6.7299   5
 -10  -7  12 7.74900 4.02290   1
 -10   7  12 6.86912 4.30473   1
   9  -7 -12 11.1192  3.9856   2
   9  -7 -12 3.96057 5.17498   5
  -9  -7  12 -1.8584  3.4271   1
  -9   7  12 12.1009  4.9729   1
   9   7 -12 6.81065 5.74488   2
  -9   7  12 4.63546 4.11238   3
   8  -7 -12 -4.4094  3.8694   5
   8  -7 -12 3.57321 3.24141   2
  -8  -7  12 7.05339 3.79479   1
   8   7 -12 -0.5720  4.5884   2
  -8   7  12 -2.5762  3.7027   1
  -8   7  12 -1.7042  2.8103   3
  -7  -7  12 20.3517  5.6463   1
   7  -7 -12 26.2775  6.7787   5
   7  -7 -12 29.2598  6.3192   1
   7  -7 -12 30.6427  5.6046   2
  -7   7  12 20.0539  5.1019   3
  -7   7  12 37.3275  7.1269   1
   7   7 -12 29.1587  7.0317   2
  -6  -7  12 14.8831  5.0308   1
   6  -7 -12 9.14434 4.28935   2
   6  -7 -12 15.1990  5.8813   5
   6  -7 -12 16.1701  5.4179   1
  -6   7  12 16.5149  5.7059   1
  -6   7  12 15.1770  4.2294   3
   5  -7 -12 3.40631 3.70524   2
   5  -7 -12 6.07440 4.53536   1
   5  -7 -12 4.42186 4.57685   5
   5   7 -12 3.69842 4.36867   2
  -5   7  12 3.17089 4.56193   1
   5   7 -12 -0.4174  3.2727   1
   4  -7 -12 8.66937 4.65374   5
  -4  -7  12 -5.8324  4.9796   1
   4  -7 -12 -2.1656  2.8059   2
  -4   7  12 1.90461 4.69593   1
   4   7 -12 0.72473 3.64307   1
   4   7 -12 0.19764 3.73505   2
   3  -7 -12 49.0557  7.1856   5
   3  -7 -12 46.3057  6.9461   2
   3  -7 -12 38.2345  7.1571   1
   3   7 -12 43.6926  6.7144   2
  -3   7  12 46.9715  7.3209   1
   3   7 -12 42.0241  6.7239   1
  -2  -7  12 236.601  15.121   1
   2  -7 -12 245.717  15.879   1
   2  -7 -12 225.587  12.907   5
   2  -7 -12 222.503  13.444   2
  -2   7  12 234.285  15.495   1
   2   7 -12 229.222  14.973   1
   2   7 -12 223.120  12.737   2
   1  -7 -12 45.0154  6.7872   2
   1  -7 -12 29.1948  6.2813   1
  -1  -7  12 36.1025  6.8716   1
   1  -7 -12 38.2218  5.7045   5
   1   7 -12 26.6893  4.3774   2
   1   7 -12 22.0229  5.3019   1
  -1   7  12 31.1410  6.7763   1
   0  -7 -12 159.928  12.704   1
   0  -7  12 177.191  13.374   1
   0  -7 -12 173.197  10.452   5
   0   7 -12 162.537  12.594   1
   0   7  12 165.151  13.078   1
   0   7 -12 167.705   9.848   2
  -1  -7 -12 127.221  11.613   1
  -1  -7 -12 117.218   8.214   5
   1  -7  12 116.725  11.168   1
  -1   7 -12 122.035   7.866   2
  -1   7 -12 125.704  11.356   1
   1   7  12 123.885  11.369   1
  -2  -7 -12 19.3510  6.0427   1
  -2  -7 -12 21.0295  3.9732   5
   2   7  12 23.5832  5.9482   1
  -2   7 -12 26.7897  5.8039   1
  -2   7 -12 25.8103  3.7043   2
  -2   7 -12 29.7730  4.9482   3
  -3  -7 -12 287.722  16.970   1
   3  -7  12 293.046  16.925   1
  -3   7 -12 283.807  17.063   1
  -3   7 -12 283.834  14.611   3
   3   7  12 296.617  16.951   1
  -4  -7 -12 11.0550  4.7209   1
   4  -7  12 10.0476  4.6759   1
   4   7  12 18.5848  5.3379   1
  -4   7 -12 3.49292 3.62183   3
   5  -7  12 50.5948  7.7196   1
  -5  -7 -12 44.9127  7.3349   1
  -5   7 -12 45.8711  7.7804   1
  -5   7 -12 42.2263  6.5914   3
   5   7  12 30.0790  5.9354   1
   6  -7  12 11.7471  4.7566   1
  -6  -7 -12 4.33489 4.07537   1
  -6   7 -12 2.92828 4.39798   1
  -6   7 -12 13.1685  5.0218   3
  -7  -7 -12 67.8104  8.6573   1
  -7   7 -12 75.2347  8.8993   1
  -7   7 -12 65.1480  9.2218   3
  -8   7 -12 1.60727 4.26442   3
  -9  -7 -12 79.6958  8.6207   1
  -9  -7 -12 81.0825 11.9043   4
  -9   7 -12 76.7179 10.2566   3
  -9   7 -12 80.5665  9.3119   1
 -10  -7 -12 -1.5234  3.1603   1
 -10  -7 -12 5.56840 5.94862   4
 -10   7 -12 5.72663 4.06570   1
  10  -8 -12 10.4875  5.0898   5
 -10  -8  12 0.04371 3.69322   1
  10   8 -12 7.35489 4.85087   2
 -10   8  12 -4.8649  4.4413   1
 -10   8  12 1.87411 4.54199   3
   9  -8 -12 -1.5827  4.9646   5
  -9  -8  12 4.42664 4.16300   1
  -9   8  12 -2.8772  3.4408   1
   9   8 -12 2.83812 5.27042   2
  -9   8  12 -4.5960  4.5412   3
  -8  -8  12 30.7277  6.6703   1
   8  -8 -12 22.1183  4.7422   2
  -8   8  12 21.8842  6.1011   3
   8   8 -12 22.1228  7.1778   2
  -8   8  12 37.0724  7.3770   1
  -7  -8  12 4.80573 4.19695   1
   7  -8 -12 10.7772  4.2631   2
   7  -8 -12 6.83338 5.31578   5
   7  -8 -12 16.6782  5.4674   1
  -7   8  12 13.6203  5.0918   3
  -7   8  12 19.8435  6.1295   1
  -6  -8  12 27.3508  6.5281   1
   6  -8 -12 35.2334  6.1791   2
   6  -8 -12 32.4548  7.0743   1
   6  -8 -12 28.7461  6.5841   5
   6   8 -12 22.6257  5.6560   1
  -6   8  12 26.5149  6.2238   1
  -6   8  12 28.6669  6.0699   3
   6   8 -12 23.9077  5.9522   2
   5  -8 -12 2.52879 3.90949   1
  -5  -8  12 4.28202 4.62152   1
   5  -8 -12 11.1775  5.1617   5
  -5   8  12 -4.2253  4.1088   1
   5   8 -12 -6.2095  4.4783   1
   4  -8 -12 7.61172 3.60311   2
  -4   8  12 6.35368 5.35133   1
   3  -8 -12 3.11443 4.38641   2
  -3  -8  12 5.12175 4.99709   1
   3  -8 -12 6.93166 5.27362   1
   3  -8 -12 0.84952 3.73509   5
   3   8 -12 1.77445 4.12443   1
   3   8 -12 5.91585 4.30605   2
  -3   8  12 -7.8428  5.1064   1
  -2  -8  12 2.85477 3.25841   1
   2  -8 -12 -3.3697  4.2033   2
   2  -8 -12 1.41548 3.06535   5
   2  -8 -12 -3.0848  4.1791   1
   2   8 -12 3.80441 4.72081   1
   2   8 -12 5.23731 3.14261   2
  -2   8  12 0.10565 4.30490   1
  -1  -8  12 66.6340  9.2260   1
   1  -8 -12 67.1784  8.9353   1
   1  -8 -12 67.7744  7.3929   5
   1   8 -12 58.1579  8.5129   1
   1   8 -12 65.7219  6.7232   2
  -1   8  12 63.7332  9.1550   1
   0  -8  12 104.113  11.176   1
   0  -8 -12 120.239   9.097   5
   0  -8 -12 113.979  11.482   1
   0   8 -12 108.161  11.210   1
   0   8 -12 110.617   8.308   2
   0   8  12 113.358  11.422   1
   1  -8  12 88.4478 10.2217   1
  -1  -8 -12 69.2111  8.9842   1
  -1  -8 -12 83.5666  7.4897   5
  -1   8 -12 86.8807 10.3501   1
   1   8  12 93.5340 10.5577   1
  -1   8 -12 85.1225  6.6811   2
  -2  -8 -12 35.0354  7.5060   1
   2  -8  12 41.8789  7.6936   1
  -2   8 -12 36.3669  7.4540   1
   2   8  12 40.5176  7.6379   1
  -2   8 -12 38.3722  6.0006   3
   3  -8  12 -1.8078  3.1567   1
  -3  -8 -12 0.06493 3.13686   1
  -3   8 -12 -7.7155  3.9105   3
  -4  -8 -12 -6.5167  4.9898   1
   4  -8  12 -2.2032  4.1100   1
  -4   8 -12 8.15268 3.63390   3
   4   8  12 5.57234 3.60888   1
   5  -8  12 59.4420  8.5131   1
  -5  -8 -12 55.9526  8.5753   1
  -5   8 -12 46.6312  8.1265   1
  -5   8 -12 52.2950  7.8962   3
   5   8  12 44.6060  7.2113   1
  -6  -8 -12 28.9002  6.3182   1
   6  -8  12 25.4858  6.1060   1
  -6   8 -12 22.9551  6.0732   3
  -6   8 -12 26.6734  6.7982   1
  -7  -8 -12 41.4273  7.4140   1
  -7   8 -12 39.7016  7.6055   1
  -7   8 -12 41.0613  7.8694   3
  -8  -8 -12 176.197  13.305   1
  -8   8 -12 178.208  14.147   1
  -8   8 -12 163.988  15.166   3
  -9  -8 -12 72.5862 11.4767   4
  -9  -8 -12 80.5946  9.1610   1
  -9   8 -12 66.8925  9.0175   1
  -9   8 -12 70.5928 10.6711   3
  -9  -9  12 4.80978 3.72238   1
   9  -9 -12 5.98558 5.68502   5
  -9   9  12 -2.5061  4.2045   3
  -9   9  12 -1.4907  3.8471   1
   8  -9 -12 -9.2230  5.4513   5
  -8  -9  12 0.89737 4.00356   1
  -8   9  12 4.81452 4.71146   3
   8   9 -12 -3.5588  5.3978   2
  -8   9  12 1.62657 4.26826   1
   7  -9 -12 4.41744 4.81052   5
  -7  -9  12 6.44044 5.10208   1
   7  -9 -12 11.2423  4.2709   2
   7   9 -12 8.04404 5.60520   2
  -6  -9  12 91.3390 10.6130   1
   6  -9 -12 74.2528  8.3002   2
   6  -9 -12 87.4998 10.7834   1
   6  -9 -12 87.7506 10.3745   5
   6   9 -12 71.0973  9.5132   1
   6   9 -12 90.2769 10.8641   2
  -6   9  12 84.6484 10.9546   1
   5  -9 -12 17.4640  6.2143   5
   5  -9 -12 22.2757  6.5138   1
  -5  -9  12 28.5730  7.0141   1
   5  -9 -12 18.2206  4.9991   2
   5   9 -12 16.3607  5.7257   2
  -5   9  12 21.8452  6.9732   1
   4  -9 -12 175.941  14.759   1
  -4  -9  12 167.852  14.116   1
   4  -9 -12 165.403  12.346   2
   4  -9 -12 154.862  12.139   5
   4   9 -12 139.575  11.606   2
  -4   9  12 210.062  16.105   1
   4   9 -12 166.155  13.812   1
  -3  -9  12 -0.8207  4.5092   1
   3  -9 -12 3.02500 3.91914   1
   3   9 -12 3.66067 3.10000   2
   2  -9 -12 1.52952 4.93070   1
  -2  -9  12 2.53706 3.46542   1
   2   9 -12 1.41207 4.48352   1
  -2   9  12 -2.5856  3.7393   1
   1  -9 -12 78.3352  8.4794   5
  -1  -9  12 87.0136 10.5093   1
   1  -9 -12 77.0541 10.4945   1
   1   9 -12 73.7865  7.5908   2
  -1   9  12 58.9167  9.3353   1
   1   9 -12 60.3843  8.6438   1
   0  -9 -12 22.7422  4.8579   5
   0  -9  12 30.8234  7.2152   1
   0  -9 -12 28.2060  7.4620   1
   0   9  12 22.4530  6.6423   1
   0   9 -12 29.8606  7.1640   1
  -1  -9 -12 18.9713  4.6456   5
  -1  -9 -12 27.7642  7.2253   1
   1   9  12 16.6076  5.2216   1
  -1   9 -12 28.7874  7.1880   1
  -2  -9 -12 63.1642  9.0302   1
   2   9  12 58.7932  8.8752   1
  -2   9 -12 70.7881  9.4852   1
  -3  -9 -12 58.0474  9.0990   1
   3  -9  12 47.7450  7.8428   1
  -3   9 -12 57.7831  9.1331   1
  -3   9 -12 55.0060  7.7352   3
   3   9  12 47.2470  8.1092   1
  -4  -9 -12 39.8849  8.0132   1
   4  -9  12 36.6035  7.5715   1
  -4   9 -12 42.4661  8.2301   1
  -4   9 -12 40.4840  7.2217   3
   4   9  12 38.4168  7.5162   1
   5  -9  12 27.5506  6.7370   1
  -5  -9 -12 26.1309  6.9327   1
  -5   9 -12 23.4485  6.2229   3
   6  -9  12 34.3479  6.9424   1
  -6  -9 -12 44.9344  8.1360   1
  -6   9 -12 24.2215  7.0255   1
  -6   9 -12 35.2935  7.6488   3
  -7  -9 -12 32.5309  7.2655   1
  -7   9 -12 33.5990  7.7510   1
  -8  -9 -12 15.6716  5.3195   1
  -8   9 -12 15.6492  6.7249   3
   8 -10 -12 14.2806  6.6789   5
  -8 -10  12 -5.9357  4.6795   1
  -8  10  12 3.81665 4.93757   1
   8  10 -12 2.13697 5.00365   2
  -7 -10  12 15.1675  5.9231   1
   7 -10 -12 25.1014  7.1972   5
  -7  10  12 25.1649  7.2582   1
  -7  10  12 16.0101  5.7009   3
   7  10 -12 17.2480  6.4012   2
  -6 -10  12 -0.1945  4.5364   1
   6 -10 -12 2.74285 4.29766   5
   6 -10 -12 6.52811 5.08882   1
   6  10 -12 10.8638  5.8571   2
  -6  10  12 -3.1472  5.0417   1
   5 -10 -12 -1.8951  4.8090   1
   5  10 -12 1.60824 4.67359   1
  -5  10  12 12.3089  5.8730   1
   5  10 -12 10.5682  4.6488   2
  -4 -10  12 3.85777 5.20604   1
   4 -10 -12 1.81056 4.53726   5
   4  10 -12 5.57421 4.77774   1
   4  10 -12 -1.2139  4.1660   2
  -4  10  12 8.49658 5.65271   1
   3 -10 -12 68.1069  8.3362   5
  -3 -10  12 65.4611  9.3530   1
   3 -10 -12 53.2941  9.3792   1
   3  10 -12 73.3841  8.9021   2
   3  10 -12 52.6735  8.8291   1
   2 -10 -12 44.3920  7.3580   5
   2 -10 -12 38.2924  8.1545   1
  -2 -10  12 47.6127  8.6673   1
   2  10 -12 64.6494  9.8745   1
   2  10 -12 54.2891  7.1671   2
   1 -10 -12 3.07850 3.98274   1
   1 -10 -12 4.38155 4.01164   5
  -1 -10  12 4.88104 4.08111   1
   1  10 -12 -5.2953  5.2928   1
  -1  10  12 3.72315 4.61878   1
   0 -10 -12 11.1418  5.1185   1
   0 -10  12 14.5627  5.5856   1
   0  10 -12 5.07704 4.83634   1
   0  10  12 20.2998  6.6164   1
  -1 -10 -12 79.6812 10.7835   1
   1 -10  12 63.8372  9.5800   1
   1  10  12 59.2358  9.4142   1
  -1  10 -12 55.3396  9.2290   1
   2 -10  12 37.6870  7.3857   1
  -2  10 -12 33.2958  7.9920   1
   2  10  12 39.8944  8.1392   1
  -3 -10 -12 -3.7867  4.1534   1
   3 -10  12 3.74092 5.13976   1
  -3  10 -12 -1.1578  3.7784   3
   3  10  12 4.59671 4.70073   1
  -3  10 -12 15.9065  6.6828   1
   4 -10  12 17.6276  6.1907   1
  -4 -10 -12 21.3875  6.9181   1
  -4  10 -12 17.8026  6.3581   1
   4  10  12 9.15435 4.37472   1
  -4  10 -12 31.6286  6.4279   3
  -5 -10 -12 18.3149  6.5404   1
   5 -10  12 21.9092  6.6120   1
  -5  10 -12 17.5542  6.1465   3
  -6 -10 -12 14.4410  6.2274   1
  -6  10 -12 -3.6609  5.5223   1
  -6  10 -12 14.4355  6.1821   3
  -7 -10 -12 27.3778  6.3307   1
  -7 -10 -12 22.2946  7.0847   4
  -7  10 -12 21.3386  7.0702   1
   6 -11 -12 39.5486  8.3026   5
  -6 -11  12 30.6790  7.2257   1
   6  11 -12 35.7228  8.1294   2
  -5 -11  12 59.5854  9.3390   1
   5 -11 -12 41.4849  8.9366   1
   5 -11 -12 44.3225  8.3188   5
   5  11 -12 47.4333  7.8391   2
  -5  11  12 39.7915  8.1671   1
   5  11 -12 47.5201  8.6758   1
  -4 -11  12 41.6389  8.3600   1
   4 -11 -12 46.5218  9.1120   1
   4 -11 -12 27.3164  7.1978   5
   4  11 -12 30.5744  7.6267   1
   4  11 -12 42.7072  7.5722   2
   3 -11 -12 -10.049   6.071   1
  -3 -11  12 -13.420   6.707   1
   3 -11 -12 2.34192 4.59310   5
   3  11 -12 -6.0727  5.5886   1
   3  11 -12 5.79878 4.41517   2
  -2 -11  12 -4.4791  4.4317   1
   2 -11 -12 6.83895 5.99578   1
  -2  11  12 2.65908 5.00615   1
   1 -11 -12 21.5860  5.7798   5
  -1 -11  12 19.3249  7.0462   1
  -1  11  12 28.2868  7.8394   1
   1  11 -12 18.0663  5.8828   1
   0 -11  12 2.59391 5.36628   1
   0  11 -12 -3.8654  5.4221   1
   0  11  12 5.02959 5.44348   1
   1 -11  12 -3.2809  5.7107   1
  -1 -11 -12 22.1327  7.4261   1
  -1  11 -12 5.91056 5.75230   1
   1  11  12 3.39970 5.59856   1
  -2 -11 -12 6.63502 5.75514   1
   2 -11  12 23.9802  7.3287   1
  -2  11 -12 20.0119  6.3673   1
   2  11  12 12.6390  5.2686   1
  -3 -11 -12 36.9679  8.7080   1
   3 -11  12 51.5307  8.8510   1
  -3  11 -12 45.2494  8.0743   3
   3  11  12 62.0679  9.9495   1
  -3  11 -12 53.4618  9.9359   1
   4 -11  12 19.6250  6.6247   1
  -4 -11 -12 6.66816 4.53530   1
  -4  11 -12 1.17347 5.06048   1
   4  11  12 3.93909 4.71675   1
  -5 -11 -12 18.2572  6.3561   1
   5 -11  12 11.7482  4.8416   1
  -5  11 -12 14.8996  6.5353   1
  -6 -11 -12 10.4895  5.1794   1
  -6 -11 -12 -1.2820  3.4911   4
  -6  11 -12 -7.8467  5.6412   3
  -6  11 -12 0.94581 4.25567   1
  -4 -12  12 144.131  14.890   1
   4 -12 -12 113.950  12.154   5
   4  12 -12 115.433  13.236   1
   3 -12 -12 19.4160  7.2461   1
  -3 -12  12 14.0826  6.8359   1
  -3  12  12 14.0447  6.3793   1
   2 -12 -12 65.7678  9.1706   5
   2  12 -12 55.1496  9.4035   1
  -2  12  12 41.3568  9.1933   1
   1 -12 -12 93.6285 10.6681   5
  -1 -12  12 102.156  12.993   1
  -1  12  12 64.5986 11.0134   1
   1  12 -12 80.2981 11.9230   1
   0 -12 -12 7.53447 6.30403   1
   0 -12  12 8.26032 6.07144   1
   1 -12  12 46.6747  9.4548   1
  -1  12 -12 34.4405  8.6681   1
   1  12  12 24.8455  7.2372   1
   2 -12  12 22.5210  7.2666   1
  -2 -12 -12 20.9797  6.5020   1
   2  12  12 26.2422  7.3861   1
   3 -12  12 2.19699 4.83993   1
  -3 -12 -12 8.15472 6.22367   1
  -3  12 -12 -4.3830  4.4421   1
  -3  12 -12 7.87112 4.83737   3
   3  12  12 -8.5970  5.5840   1
  13   0 -13 41.8539  8.6574   5
  13   0 -13 51.8400  8.5459   2
  12   0 -13 2.13155 3.81033   5
  12   0 -13 2.60514 4.70016   2
  11   0 -13 5.09589 4.91474   2
 -11   0  13 1.99017 2.92517   1
  11   0 -13 1.32888 3.52559   5
  10   0 -13 -2.2734  4.9330   5
  10   0 -13 5.13880 4.75334   2
 -10   0  13 3.89598 3.21587   1
   9   0 -13 31.8395  6.6934   2
  -9   0  13 29.8794  5.4648   1
   9   0 -13 30.9187  7.1146   5
   8   0 -13 -0.6464  4.0098   5
   8   0 -13 1.19665 4.34079   2
  -8   0  13 -6.3621  3.8488   1
   8   0 -13 -7.3291  3.1728   1
  -8   0  13 -1.1880  3.2100   1
   7   0 -13 146.746  10.336   1
   7   0 -13 133.904  11.690   5
  -7   0  13 149.194  10.795   1
   7   0 -13 138.383  10.789   2
   6   0 -13 -5.6834  3.3776   1
   6   0 -13 10.2052  4.7546   2
   6   0 -13 -2.4426  3.6416   5
   5   0 -13 -2.0584  3.3326   5
   5   0 -13 4.68529 2.67448   1
  -5   0  13 -0.1529  3.2680   1
   5   0 -13 -0.0190  2.4945   2
  -4   0  13 -1.7597  3.4787   1
   4   0 -13 4.17431 3.37335   5
   4   0 -13 -4.7850  3.4103   1
   3   0 -13 116.209   8.808   2
  -3   0  13 112.838   9.433   1
   3   0 -13 116.953   8.848   5
   3   0 -13 104.578   9.017   1
   2   0 -13 4.95806 3.57909   1
   2   0 -13 -3.1210  2.8443   5
  -2   0  13 4.60443 3.06745   1
   1   0 -13 22.5690  4.1345   2
   1   0 -13 17.0626  4.6910   1
   1   0 -13 22.5069  3.8948   5
   0   0 -13 3.36467 3.04727   2
   0   0 -13 1.73324 3.24543   1
   0   0 -13 -1.9906  2.0013   5
   0   0  13 1.92939 3.26646   1
  -1   0 -13 5.24388 3.49768   1
  -1   0 -13 6.66765 2.78616   2
   1   0  13 5.29588 3.56526   1
  -2   0 -13 2.55081 3.08523   2
  -2   0 -13 1.01050 0.92729   5
   2   0  13 7.02329 3.77901   1
  -2   0 -13 4.34442 3.50969   1
  -3   0 -13 960.635  24.890   2
   3   0  13 942.868  26.945   1
  -3   0 -13 984.708  27.690   1
  -4   0 -13 0.61932 2.01679   2
  -4   0 -13 -1.1285  2.9675   1
   5   0  13 412.029  17.409   1
  -5   0 -13 419.719  17.592   1
   6   0  13 -1.5835  2.5864   1
  -6   0 -13 -0.2734  3.0785   1
  -7   0 -13 256.610  13.591   1
  -8   0 -13 2.76112 3.02514   1
  -9   0 -13 38.3632  5.5464   1
 -10   0 -13 1.08882 4.24986   4
 -10   0 -13 3.95040 2.67690   1
 -11   0 -13 418.056  22.188   4
 -12   0 -13 0.66584 4.40844   4
  13  -1 -13 0.96076 4.15781   5
  13  -1 -13 21.2879  5.5836   2
  13   1 -13 17.3069  5.4567   2
  13   1 -13 3.71370 5.44489   5
  12  -1 -13 34.2441  8.0479   5
  12  -1 -13 46.7858  7.8731   2
  12   1 -13 43.1325  9.0684   5
  12   1 -13 51.8931  8.6965   2
 -11  -1  13 23.3016  4.5429   1
  11  -1 -13 30.4910  6.7041   2
  11  -1 -13 19.6836  6.7441   5
 -11   1  13 24.1582  4.6985   1
  11   1 -13 21.8856  7.1047   5
  11   1 -13 42.0854  7.9849   2
  10  -1 -13 114.128  10.913   2
  10  -1 -13 125.470  12.895   5
 -10  -1  13 106.335   8.969   1
 -10   1  13 110.245   9.323   1
  10   1 -13 90.7349 10.3125   2
  10   1 -13 104.821  11.954   5
   9  -1 -13 -5.7443  4.9484   5
   9  -1 -13 2.23929 3.09603   2
  -9  -1  13 -1.5574  3.1625   1
   9   1 -13 -8.7842  5.3541   2
  -9   1  13 -4.5991  3.4227   1
  -8  -1  13 13.5831  4.3489   1
   8  -1 -13 12.6584  4.9279   2
   8  -1 -13 11.6461  5.1939   5
   8  -1 -13 23.3686  4.9460   1
   8   1 -13 4.44438 3.54043   5
   8   1 -13 9.02734 3.55376   1
  -8   1  13 10.9736  3.6211   1
   8   1 -13 14.5591  4.6116   2
   7  -1 -13 4.13081 4.24682   2
   7  -1 -13 8.08390 4.63187   5
  -7  -1  13 19.7899  4.7963   1
   7   1 -13 10.4217  5.0375   5
  -7   1  13 17.9034  4.2373   1
   7   1 -13 12.2919  5.1881   2
   6  -1 -13 43.2538  6.0301   1
   6  -1 -13 38.8318  6.5899   5
   6  -1 -13 53.6094  7.0726   2
  -6  -1  13 42.3114  6.1897   1
  -6   1  13 45.7300  6.5771   1
  -6   1  13 44.4048  6.3169   1
  -6   1  13 44.2417  3.8486   3
   6   1 -13 52.5822  7.1958   2
   6   1 -13 52.4359  6.4983   1
   5  -1 -13 36.3809  5.9739   5
   5  -1 -13 31.1700  5.7332   2
   5  -1 -13 33.4967  5.6540   1
  -5  -1  13 34.3961  5.3177   1
  -5   1  13 36.0312  2.8437   3
   5   1 -13 37.3998  6.1140   2
  -5   1  13 35.3237  6.1640   1
   4  -1 -13 48.1076  6.1448   2
   4  -1 -13 37.7407  5.8130   5
   4  -1 -13 39.5064  6.0335   1
  -4  -1  13 43.7476  6.3192   1
   4   1 -13 41.2523  5.7268   2
  -4   1  13 49.9957  6.7892   1
   4   1 -13 40.1629  5.8874   1
   3  -1 -13 15.1720  3.7684   2
   3  -1 -13 15.1220  4.6447   1
  -3  -1  13 8.72232 3.66538   1
   3   1 -13 13.9374  4.4419   2
  -3   1  13 5.68551 3.97312   1
   3   1 -13 12.5942  4.2155   1
   2  -1 -13 -1.2467  3.2810   2
   2  -1 -13 2.54035 2.70448   1
   2  -1 -13 2.50212 2.77604   5
  -2  -1  13 0.63783 3.58034   1
  -2   1  13 6.18610 4.05367   1
   2   1 -13 9.40275 4.03514   1
   1  -1 -13 655.961  20.321   2
   1  -1 -13 687.859  18.719   5
  -1  -1  13 639.878  22.348   1
   1  -1 -13 654.095  22.359   1
   1   1 -13 642.637  21.738   1
  -1   1  13 680.238  22.930   1
   1   1 -13 688.277  20.238   2
   0  -1 -13 70.5064  6.9888   2
   0  -1 -13 80.0639  8.1688   1
   0  -1  13 74.2860  7.8693   1
   0  -1 -13 75.6841  5.5274   5
   0   1  13 71.0352  7.3579   1
   0   1 -13 74.9854  7.7763   1
   0   1 -13 88.3292  7.3362   2
  -1  -1 -13 37.5481  5.5920   2
  -1  -1 -13 37.3991  6.0774   1
  -1  -1 -13 47.0678  3.8369   5
   1  -1  13 41.8370  6.2162   1
   1   1  13 39.1650  2.9207   3
  -1   1 -13 38.3177  5.1108   2
  -1   1 -13 42.4895  3.9554   5
   1   1  13 40.2852  6.0021   1
  -2  -1 -13 3.31685 3.44530   2
   2  -1  13 4.91088 3.55075   1
  -2  -1 -13 -0.3973  3.6197   1
  -2   1 -13 3.16255 2.82332   2
   2   1  13 -0.1724  3.2769   1
  -2   1 -13 10.2828  3.5098   1
  -3  -1 -13 3.60268 3.77769   1
  -3  -1 -13 11.4741  3.5982   2
  -3   1 -13 11.7012  3.6473   2
   3   1  13 12.5747  3.6871   1
  -3   1 -13 15.0209  4.6813   1
  -4  -1 -13 7.68655 3.20096   1
  -4  -1 -13 1.40269 3.33436   2
   4  -1  13 5.65674 2.88368   1
  -4   1 -13 7.15967 2.45386   3
  -4   1 -13 10.5069  4.2540   1
  -4   1 -13 6.72831 3.13525   2
  -5  -1 -13 45.6095  6.3842   1
   5  -1  13 43.9454  5.7402   1
  -5   1 -13 54.1015  6.9244   1
  -5   1 -13 54.0636  5.8633   2
   5   1  13 49.4883  6.2673   1
  -5   1 -13 49.7492  5.5528   3
   6  -1  13 59.4194  6.6831   1
  -6  -1 -13 70.2560  7.5603   1
   6   1  13 61.2034  6.8248   1
  -6   1 -13 70.6470  7.0577   3
  -6   1 -13 54.7065  6.7721   1
  -7  -1 -13 37.8814  5.7326   1
  -7   1 -13 27.6893  5.1726   1
  -7   1 -13 37.6763  6.0223   3
  -8   1 -13 11.4782  4.4154   3
  -8   1 -13 -1.1102  2.7679   1
  -9  -1 -13 -4.7510  3.0320   1
  -9   1 -13 5.85918 3.86722   3
  -9   1 -13 -6.0979  3.4035   1
 -10  -1 -13 -5.3609  3.7146   4
 -10  -1 -13 3.59446 2.63198   1
 -10   1 -13 0.53691 2.36266   1
 -10   1 -13 -6.4523  4.9313   3
 -10   1 -13 -4.2071  3.5719   4
 -11  -1 -13 14.5731  5.9565   4
 -11   1 -13 5.76393 4.69666   4
 -12  -1 -13 62.2405  9.5377   4
  13  -2 -13 -10.312   6.490   5
  13   2 -13 -0.7268  5.2921   5
  13   2 -13 7.98292 5.48676   2
  12  -2 -13 69.3320  8.8003   2
  12  -2 -13 73.6516 10.9980   5
  12   2 -13 73.2577  9.6625   2
  12   2 -13 76.4947 11.3283   5
  11  -2 -13 53.1519  7.5876   2
 -11  -2  13 43.4177  5.8712   1
  11  -2 -13 42.7327  7.9780   5
  11   2 -13 56.3301  9.8114   5
  11   2 -13 46.4202  8.1297   2
 -11   2  13 46.5782  6.2334   1
 -10  -2  13 37.9232  5.7819   1
  10  -2 -13 30.2630  7.5003   5
 -10   2  13 33.8018  5.5200   1
  10   2 -13 53.3268  8.4513   2
   9  -2 -13 99.7198  9.7541   2
   9  -2 -13 101.406  10.726   5
  -9  -2  13 96.2711  8.6559   1
   9   2 -13 100.887  10.575   2
  -9   2  13 108.596   9.441   1
   8  -2 -13 22.4984  4.8461   1
   8  -2 -13 21.2134  5.4138   2
   8  -2 -13 24.1467  6.1130   5
  -8  -2  13 29.6181  5.4689   1
  -8   2  13 12.5107  4.3615   1
   8   2 -13 23.0013  5.2840   2
   7  -2 -13 16.2101  5.5220   5
   7  -2 -13 6.41662 3.34851   2
   7  -2 -13 7.46469 3.76879   1
  -7  -2  13 6.52159 3.67251   1
   7   2 -13 4.77400 2.68203   1
  -7   2  13 5.89470 2.41580   3
   6  -2 -13 0.94545 3.21005   1
   6  -2 -13 -4.8257  3.8847   5
   6  -2 -13 1.63909 2.74954   2
  -6   2  13 4.20923 1.89727   3
   6   2 -13 4.02057 3.29198   1
   6   2 -13 -0.8490  3.7650   2
   5  -2 -13 7.43568 3.70702   1
   5  -2 -13 5.73138 3.03627   5
   5  -2 -13 4.46189 3.69863   2
   5   2 -13 12.4774  3.9014   1
  -5   2  13 5.14432 3.97598   1
   5   2 -13 1.41993 3.66911   2
   4  -2 -13 34.5909  5.9453   1
   4  -2 -13 29.0814  4.8739   2
   4  -2 -13 27.0698  5.2930   5
  -4  -2  13 39.0314  6.2648   1
  -4   2  13 32.3497  2.8763   3
   4   2 -13 35.6372  5.9264   1
   4   2 -13 30.4120  5.7873   2
  -4   2  13 32.1709  5.8847   1
   3  -2 -13 48.9811  6.1688   2
   3  -2 -13 53.4958  6.2854   5
   3  -2 -13 58.9379  7.3990   1
  -3  -2  13 44.6086  6.6151   1
   3   2 -13 58.9032  7.1695   1
  -3   2  13 63.2393  7.6812   1
   3   2 -13 51.1709  6.4667   2
   2  -2 -13 7.03417 3.11713   2
  -2  -2  13 8.38509 4.43804   1
   2   2 -13 1.60233 2.53577   1
   2   2 -13 16.6299  4.5287   2
  -2   2  13 1.18558 3.07453   1
  -2   2  13 11.5129  4.7207   1
   1  -2 -13 19.1707  5.2993   1
   1  -2 -13 19.7766  3.7924   5
   1   2 -13 11.1263  3.3033   2
  -1   2  13 19.4928  5.1774   1
   1   2 -13 16.9579  4.8403   1
   0  -2 -13 52.8927  7.1237   1
   0  -2 -13 55.6899  4.9217   5
   0  -2 -13 55.9247  6.0872   2
   0  -2  13 52.4250  6.5305   1
   0   2  13 53.3497  6.6518   1
   0   2 -13 54.5613  5.7336   2
   0   2 -13 50.6839  6.8452   1
   0   2  13 52.4660  3.4101   3
  -1  -2 -13 54.7695  7.0516   1
  -1  -2 -13 63.8224  6.8026   2
  -1  -2 -13 57.4192  4.3966   5
   1  -2  13 51.2100  6.3839   1
  -1   2 -13 52.3976  6.8588   1
   1   2  13 59.7906  6.8986   1
  -1   2 -13 65.9846  6.1930   2
  -2  -2 -13 1.98744 3.66596   1
   2  -2  13 -1.7018  3.3588   1
  -2  -2 -13 0.47346 1.07236   5
  -2  -2 -13 5.53403 3.74036   2
  -2   2 -13 -1.7680  2.5366   2
   2   2  13 3.68514 2.79789   1
  -2   2 -13 0.36788 3.51348   1
   2   2  13 -3.6683  3.6498   1
   3  -2  13 2.53097 3.34418   1
  -3  -2 -13 -1.4318  2.6446   2
  -3  -2 -13 0.17357 3.36191   1
  -3   2 -13 -0.7281  1.7272   3
   3   2  13 -1.2647  2.4329   1
   3   2  13 -0.2908  3.1804   1
  -3   2 -13 3.41583 2.79269   1
  -4  -2 -13 384.102  17.076   1
   4  -2  13 392.356  17.234   1
   4   2  13 379.139  16.752   1
  -4   2 -13 382.163  14.022   3
  -4   2 -13 391.045  14.309   2
  -4   2 -13 388.380  17.210   1
  -5  -2 -13 46.6412  6.2457   1
   5  -2  13 39.4892  5.9212   1
  -5   2 -13 43.0919  5.2720   3
   5   2  13 42.9762  6.0245   1
  -5   2 -13 44.5350  6.4972   1
  -5   2 -13 46.3247  5.0886   2
  -6  -2 -13 273.736  14.473   1
   6  -2  13 252.601  13.691   1
  -6   2 -13 241.498  13.337   1
   6   2  13 274.351  13.957   1
  -6   2 -13 273.712  14.004   3
  -7  -2 -13 7.58989 3.56188   1
  -7   2 -13 2.00323 3.17392   3
  -7   2 -13 -3.4022  3.5158   1
  -8  -2 -13 55.5811  6.5663   1
  -8   2 -13 64.1546  7.2056   1
  -8   2 -13 71.3185  8.4398   3
  -9   2 -13 13.9263  4.9202   3
  -9   2 -13 13.7476  3.9844   1
 -10  -2 -13 178.170  10.762   1
 -10   2 -13 165.124  12.576   4
 -10   2 -13 163.448  13.884   3
 -10   2 -13 163.700  10.622   1
 -11   2 -13 24.7715  6.9132   3
 -12  -2 -13 0.60162 4.69601   4
 -12   2 -13 5.70944 4.94667   3
  13  -3 -13 17.2703  5.1827   2
  13   3 -13 5.09573 5.17424   2
  12  -3 -13 34.0080  6.4393   2
  12  -3 -13 37.8745  7.8246   5
  12   3 -13 45.9800  9.4965   5
 -12   3  13 33.9117  5.4953   1
  12   3 -13 42.6355  8.6414   2
  11  -3 -13 57.6759  7.9863   2
  11  -3 -13 56.6895  9.5079   5
 -11  -3  13 61.4268  6.9988   1
 -11   3  13 53.8811  6.8351   1
  11   3 -13 64.9294  9.2870   2
  10  -3 -13 7.82208 4.54486   5
 -10  -3  13 1.90317 2.96837   1
  10   3 -13 5.35076 4.03864   2
 -10   3  13 1.73485 3.08029   1
   9  -3 -13 -1.1288  3.9161   2
  -9  -3  13 2.96851 3.47869   1
   9  -3 -13 1.71552 4.47705   5
  -9   3  13 -5.8207  3.8535   1
   9   3 -13 -0.8555  3.5968   2
   8  -3 -13 108.951  11.317   5
   8  -3 -13 113.772   9.615   2
   8  -3 -13 110.395   9.728   1
  -8  -3  13 119.874  10.081   1
  -8   3  13 119.323  10.305   1
   8   3 -13 115.335  11.090   2
  -7  -3  13 87.2018  8.8518   1
   7  -3 -13 89.4646  8.6408   2
   7  -3 -13 87.0036  8.7392   1
   7  -3 -13 81.9570  9.6657   5
  -7   3  13 89.0449  8.8270   1
  -7   3  13 80.6652  6.8852   3
   7   3 -13 94.6943  8.5648   1
   7   3 -13 80.6768  9.3584   2
   6  -3 -13 54.5404  7.3345   5
   6  -3 -13 59.8983  7.4950   1
   6  -3 -13 43.2364  5.9996   2
  -6  -3  13 64.9206  7.6812   1
  -6   3  13 57.0938  7.5137   1
  -6   3  13 52.5577  5.2030   3
   6   3 -13 58.1635  7.7357   2
   6   3 -13 59.0535  6.7553   1
  -5  -3  13 15.0850  4.8181   1
   5  -3 -13 14.0847  4.7225   5
   5  -3 -13 22.1051  4.5792   1
   5  -3 -13 15.1896  4.3849   2
  -5   3  13 14.7593  2.8216   3
   5   3 -13 12.4907  4.7136   2
   5   3 -13 19.0265  4.6892   1
   4  -3 -13 112.292   9.334   5
  -4  -3  13 131.079  10.452   1
   4  -3 -13 98.8827  8.4458   2
   4  -3 -13 111.699   9.462   1
  -4   3  13 104.257   6.061   3
   4   3 -13 110.566   9.462   1
   4   3 -13 117.024   9.518   2
  -4   3  13 133.138  10.645   1
   3  -3 -13 4.41602 3.59839   5
   3  -3 -13 5.27924 3.84482   2
  -3   3  13 2.46041 4.06037   1
   3   3 -13 5.86813 4.11244   1
   3   3 -13 4.14933 3.97614   2
   2  -3 -13 20.1309  4.2685   5
  -2  -3  13 5.77307 4.30584   1
   2   3 -13 13.5427  4.4026   1
   2   3 -13 13.0917  4.5493   2
  -2   3  13 4.48100 3.68689   1
  -1  -3  13 147.335  10.931   1
   1  -3 -13 148.936   8.696   5
   1  -3 -13 172.098  11.989   1
   1  -3 -13 154.234   9.971   2
   1   3 -13 152.353  11.190   1
  -1   3  13 152.890  11.340   1
   1   3 -13 154.724   9.764   2
   0  -3 -13 40.7106  6.2328   2
   0  -3 -13 47.0329  6.5535   1
   0  -3 -13 48.1748  4.9034   5
   0  -3  13 44.3370  6.2407   1
   0   3 -13 45.1642  6.6790   1
   0   3  13 48.9469  6.9246   1
   0   3 -13 55.0612  6.0537   2
  -1  -3 -13 16.9342  2.8219   5
  -1  -3 -13 12.9915  4.4721   1
   1  -3  13 24.0117  5.0425   1
  -1  -3 -13 18.3345  4.9522   2
   1   3  13 28.1802  5.7181   1
  -1   3 -13 13.0743  4.5644   1
  -1   3 -13 18.3872  3.8537   2
  -1   3 -13 19.2846  2.3132   3
   2  -3  13 299.944  15.389   1
  -2  -3 -13 315.214   9.629   5
  -2  -3 -13 313.867  14.875   2
  -2  -3 -13 305.575  15.832   1
   2   3  13 318.438  15.774   1
  -2   3 -13 309.495  12.378   2
  -2   3 -13 323.575  16.121   1
  -2   3 -13 302.564  10.452   3
  -3  -3 -13 -6.9631  4.1706   2
  -3  -3 -13 0.59774 2.69072   1
  -3  -3 -13 0.58752 0.96671   5
   3  -3  13 3.40703 3.65446   1
  -3   3 -13 -0.8207  1.8533   3
   3   3  13 3.79307 3.70091   1
  -3   3 -13 -0.2069  2.1753   2
   4  -3  13 38.3949  6.1254   1
  -4  -3 -13 44.6831  6.4689   1
  -4   3 -13 43.4985  4.7014   2
  -4   3 -13 36.5219  4.6406   3
   4   3  13 36.1952  5.7054   1
  -4   3 -13 37.1856  6.3280   1
  -5  -3 -13 257.529  14.050   1
   5  -3  13 264.592  14.299   1
  -5   3 -13 238.635  10.588   2
   5   3  13 245.533  13.626   1
  -5   3 -13 241.411  12.534   3
  -5   3 -13 248.287  14.128   1
   6  -3  13 9.95677 3.79196   1
  -6  -3 -13 -6.4344  3.7677   1
   6   3  13 1.29085 2.87911   1
  -6   3 -13 -1.0270  2.8483   3
  -6   3 -13 1.33856 3.28375   1
  -7  -3 -13 4.79616 3.03370   1
  -7   3 -13 2.77164 3.27012   1
  -7   3 -13 -2.1811  3.4696   3
  -8  -3 -13 6.92392 3.30782   1
  -8   3 -13 3.71853 3.08704   1
  -8   3 -13 4.10509 3.74542   3
  -9  -3 -13 45.2422  6.2374   1
  -9   3 -13 50.7125  8.1340   3
  -9   3 -13 62.4860  7.1328   1
 -10   3 -13 13.1336  3.8897   1
 -11  -3 -13 11.3981  6.1430   4
 -11   3 -13 23.7977  7.4532   3
 -12  -3 -13 -0.0238  4.8609   4
 -12   3 -13 13.7433  6.2400   3
  12  -4 -13 -2.9802  3.8939   2
  12  -4 -13 5.80760 5.57956   5
  12   4 -13 14.0479  6.1072   2
 -11  -4  13 68.9486  7.5726   1
  11  -4 -13 57.3582  7.9199   2
  11  -4 -13 59.8215  9.1780   5
 -11   4  13 62.0338  7.6567   1
  11   4 -13 73.9469 10.3540   2
  10  -4 -13 20.7279  5.3915   2
 -10  -4  13 12.5470  4.0060   1
  10   4 -13 14.0025  6.5821   2
 -10   4  13 24.2512  5.3207   1
  -9  -4  13 114.684  10.003   1
   9  -4 -13 112.477  11.920   5
   9  -4 -13 88.0248  9.1821   2
   9   4 -13 94.6727 11.0759   2
  -9   4  13 116.630  10.283   1
   8  -4 -13 106.212  11.277   5
   8  -4 -13 69.6279  7.6950   2
   8  -4 -13 85.7293  8.8673   1
  -8  -4  13 83.1373  8.8008   1
  -8   4  13 90.9378  9.0765   1
   8   4 -13 94.1545 10.7643   2
  -8   4  13 87.6017  8.2091   3
   7  -4 -13 4.26467 3.12526   1
  -7  -4  13 5.63836 4.15618   1
   7  -4 -13 9.13284 4.06945   2
  -7   4  13 3.88785 2.71705   3
   7   4 -13 4.15361 3.23212   1
  -7   4  13 2.18491 3.98357   1
   7   4 -13 9.61745 5.32871   2
  -6  -4  13 39.6363  6.5445   1
   6  -4 -13 34.5635  5.4391   2
   6  -4 -13 30.5236  6.1323   1
   6  -4 -13 35.3224  6.7348   5
  -6   4  13 35.4379  4.6972   3
   6   4 -13 32.9688  6.5902   2
   6   4 -13 30.8516  5.4233   1
  -6   4  13 32.0195  6.0014   1
   5  -4 -13 17.6085  4.7523   2
   5  -4 -13 16.8074  4.7579   5
  -5  -4  13 18.6586  5.2402   1
  -5   4  13 21.1079  3.5729   3
   5   4 -13 25.3999  5.9421   2
   5   4 -13 12.4383  4.3050   1
  -5   4  13 13.5755  5.1128   1
   4  -4 -13 -2.4061  3.4553   2
   4  -4 -13 -4.5746  4.1946   1
   4  -4 -13 0.38076 3.26374   5
   4   4 -13 5.33213 4.12166   2
  -4   4  13 2.11226 4.01855   1
  -4   4  13 -0.8957  1.8045   3
   4   4 -13 5.96835 4.06961   1
   3  -4 -13 430.740  19.205   1
  -3  -4  13 445.859  19.311   1
   3  -4 -13 415.756  17.012   5
   3  -4 -13 395.448  16.769   2
   3   4 -13 443.664  17.729   2
  -3   4  13 410.094  18.692   1
   3   4 -13 405.963  18.181   1
   2  -4 -13 -3.7916  4.0988   2
   2  -4 -13 -1.0592  2.9966   5
  -2  -4  13 4.71266 3.96828   1
   2   4 -13 -8.4506  4.0606   2
   2   4 -13 6.57014 3.43549   1
  -2   4  13 -0.0815  3.8498   1
  -1  -4  13 4.62969 4.15370   1
   1  -4 -13 3.17466 3.68778   2
  -1   4  13 10.1472  4.0886   1
   1   4 -13 6.46718 4.27751   1
   1   4 -13 3.83337 1.24616   3
   1   4 -13 1.56067 3.28846   2
   0  -4  13 14.2994  4.7750   1
   0  -4 -13 15.7930  4.0739   2
   0  -4 -13 11.4424  3.1478   5
   0   4 -13 17.5584  2.2999   3
   0   4  13 12.3214  3.9279   1
   0   4 -13 7.52095 3.51388   2
   0   4 -13 6.43195 4.44550   1
  -1  -4 -13 481.616  20.043   1
  -1  -4 -13 486.922  19.258   2
  -1  -4 -13 472.365  14.216   5
   1  -4  13 480.345  19.983   1
   1   4  13 458.936  19.369   1
  -1   4 -13 470.701  13.242   3
  -1   4 -13 460.184  15.486   2
  -1   4 -13 482.990  20.289   1
  -2  -4 -13 16.2844  4.9864   1
  -2  -4 -13 13.7417  2.5134   5
  -2  -4 -13 8.57465 3.71018   2
  -2   4 -13 9.66501 2.91374   2
   2   4  13 11.9697  4.5724   1
  -2   4 -13 3.76881 4.00880   1
  -2   4 -13 10.4175  2.6113   3
  -3   4 -13 12.8654  4.0573   1
  -3   4 -13 7.99551 2.68635   3
  -3   4 -13 11.9282  2.7723   2
   4  -4  13 74.7883  8.3368   1
  -4  -4 -13 87.7294  9.1147   1
  -4   4 -13 72.1034  6.8974   3
  -4   4 -13 74.6325  5.7368   2
   4   4  13 63.7663  7.6531   1
  -4   4 -13 71.8832  8.4121   1
   5  -4  13 13.3419  4.4693   1
   5   4  13 1.57351 2.94863   1
  -5   4 -13 6.49719 3.03796   3
  -5   4 -13 8.73259 4.55262   1
   6  -4  13 58.1486  7.1882   1
  -6  -4 -13 62.9624  7.5924   1
  -6   4 -13 48.9782  7.0421   1
  -6   4 -13 55.2097  7.0686   3
   6   4  13 43.9127  6.3874   1
  -7  -4 -13 26.7705  5.4913   1
  -7   4 -13 31.3855  5.7716   1
  -7   4 -13 21.6587  5.4278   3
  -8  -4 -13 19.3143  4.8044   1
  -8   4 -13 16.8494  4.7134   1
  -9  -4 -13 7.73334 3.61367   1
  -9   4 -13 16.6808  5.1441   3
 -10  -4 -13 21.6848  7.1322   4
 -10  -4 -13 16.1012  4.0195   1
 -10   4 -13 11.7875  5.3771   3
 -11  -4 -13 15.4688  6.8561   4
 -11   4 -13 7.27988 5.50107   3
  12  -5 -13 7.62627 5.57801   5
 -12   5  13 3.17263 3.11462   1
  12   5 -13 -0.3823  4.0101   2
  11  -5 -13 29.4365  7.6642   5
  11  -5 -13 47.7856  7.0478   2
 -11  -5  13 40.7180  6.0663   1
  11   5 -13 24.5938  7.6430   2
 -11   5  13 39.7898  6.5960   1
  10  -5 -13 5.90355 3.58529   2
 -10  -5  13 0.84082 3.29863   1
  10  -5 -13 -1.4199  4.8200   5
 -10   5  13 -8.4722  4.2858   1
  -9  -5  13 46.4900  7.0248   1
   9  -5 -13 53.8683  9.0129   5
   9  -5 -13 56.9828  7.5902   2
  -9   5  13 65.0392  8.4335   1
   9   5 -13 75.8354 10.2774   2
  -8  -5  13 5.00281 4.10841   1
   8  -5 -13 -0.4551  2.9046   2
   8   5 -13 0.15869 5.23923   2
  -8   5  13 5.04378 4.10248   1
  -7  -5  13 19.7018  5.2466   1
   7  -5 -13 7.64307 3.37286   2
   7  -5 -13 14.0707  4.2921   1
   7  -5 -13 9.36639 4.36335   5
   7   5 -13 15.5928  4.4770   1
   7   5 -13 12.1359  4.8026   2
  -7   5  13 16.7801  4.2115   3
   6  -5 -13 -2.7774  4.3691   5
   6  -5 -13 2.76579 2.59865   2
   6  -5 -13 1.59384 3.73352   1
   6   5 -13 6.93525 5.45696   2
  -6   5  13 3.32247 2.79387   3
  -6   5  13 4.02823 3.30875   1
   5  -5 -13 89.2143  9.6416   1
  -5  -5  13 89.2548  8.9526   1
   5  -5 -13 70.2566  8.6324   5
   5  -5 -13 92.8648  8.6907   2
   5   5 -13 89.6171  9.5476   2
   5   5 -13 81.1842  8.7108   1
  -5   5  13 84.1241  8.9841   1
  -5   5  13 86.4440  7.1764   3
   4  -5 -13 58.1600  8.1523   1
   4  -5 -13 62.5080  7.5644   5
  -4  -5  13 58.5986  7.3938   1
   4  -5 -13 51.6683  6.7452   2
   4   5 -13 54.3644  7.5099   2
  -4   5  13 54.9111  7.5273   1
   4   5 -13 59.9607  7.7382   1
  -3  -5  13 44.4302  6.6455   1
   3  -5 -13 34.2710  6.1251   1
   3  -5 -13 32.7506  5.6526   5
   3  -5 -13 46.7615  6.7165   2
  -3   5  13 47.7847  7.6288   1
   3   5 -13 23.9698  5.4909   2
   3   5 -13 30.3687  6.2027   1
   2  -5 -13 10.7111  4.9969   1
  -2  -5  13 20.6312  5.5650   1
   2  -5 -13 17.3411  4.9909   2
   2  -5 -13 20.7177  4.5748   5
   2   5 -13 20.8731  4.7890   2
  -2   5  13 18.8352  5.1827   1
   2   5 -13 14.7762  5.0348   1
   1  -5 -13 60.9277  6.2118   5
   1  -5 -13 49.6266  7.4793   1
   1  -5 -13 52.2533  7.0566   2
  -1  -5  13 52.8207  7.0774   1
  -1   5  13 48.4734  7.4136   1
   1   5 -13 61.7438  6.5749   2
   1   5 -13 69.8089  8.2445   1
   0  -5 -13 0.35504 2.05445   5
   0  -5 -13 -0.8633  3.9524   2
   0  -5 -13 9.95656 4.65912   1
   0   5 -13 0.20099 1.53030   3
   0   5 -13 3.26650 3.02382   2
   0   5  13 -7.3245  4.5252   1
   0   5 -13 -3.8697  3.1396   1
  -1  -5 -13 570.934  21.690   2
  -1  -5 -13 568.710  22.997   1
  -1  -5 -13 591.336  16.975   5
   1  -5  13 580.592  22.676   1
   1   5  13 585.850  23.046   1
  -1   5 -13 558.636  16.197   3
  -1   5 -13 569.183  22.517   1
  -1   5 -13 576.922  17.682   2
  -2  -5 -13 -1.5455  1.8629   5
  -2  -5 -13 1.12537 3.80852   1
   2   5  13 0.97852 2.87461   1
  -2   5 -13 1.09795 2.17142   2
  -2   5 -13 -0.0628  1.8874   3
  -2   5 -13 10.5367  4.6011   1
   3  -5  13 12.8697  4.9181   1
  -3   5 -13 3.02562 2.04096   2
  -3   5 -13 1.10862 2.33805   3
   3   5  13 5.45714 4.03786   1
  -3   5 -13 5.69322 4.23949   1
   4  -5  13 109.110   9.813   1
  -4  -5 -13 117.638  10.291   1
  -4   5 -13 105.491   8.655   3
   4   5  13 105.672   9.865   1
  -4   5 -13 108.502  10.344   1
  -5  -5 -13 57.8055  7.2981   1
   5  -5  13 51.5100  7.1833   1
   5   5  13 58.8621  7.4851   1
  -5   5 -13 58.0627  7.9287   1
  -5   5 -13 60.6040  7.1722   3
  -6  -5 -13 5.67031 4.14213   1
   6  -5  13 12.1471  3.8649   1
  -6   5 -13 13.9970  5.0323   1
  -6   5 -13 9.34617 4.28184   3
   6   5  13 12.3346  4.4019   1
  -7  -5 -13 2.58963 3.67984   1
  -7   5 -13 8.86895 4.29096   1
  -8  -5 -13 43.1824  6.5930   1
  -8   5 -13 38.9059  6.4679   1
  -8   5 -13 42.1750  7.4009   3
  -9  -5 -13 18.1448  4.6229   1
  -9   5 -13 23.3851  6.2724   3
  -9   5 -13 19.5289  4.8232   1
 -10  -5 -13 9.89412 6.29475   4
 -10  -5 -13 4.47182 3.03595   1
 -10   5 -13 5.82942 4.90202   3
 -10   5 -13 0.53313 3.07179   1
 -11  -5 -13 119.745  14.137   4
 -11   5 -13 117.745  13.455   3
 -11  -6  13 -3.4577  3.3121   1
  11  -6 -13 -0.6151  3.6415   5
  11   6 -13 -3.1535  5.3976   2
 -10  -6  13 0.35345 3.43995   1
  10  -6 -13 0.17857 2.95182   2
  10  -6 -13 9.07982 4.82313   5
  10   6 -13 -0.8810  5.1781   2
   9   6 -13 16.5480  6.6489   2
  -8  -6  13 24.1803  5.8300   1
   8  -6 -13 33.0741  7.4600   5
   8  -6 -13 39.0793  6.3827   2
  -8   6  13 21.9265  5.2708   3
  -8   6  13 31.6420  6.8722   1
   8   6 -13 40.2368  8.1204   2
   7  -6 -13 7.66223 5.02258   5
   7  -6 -13 4.50269 4.02207   1
  -7  -6  13 14.3829  5.1368   1
   7  -6 -13 17.3495  4.7334   2
   7   6 -13 4.14490 3.36963   1
  -7   6  13 8.66614 3.75902   3
  -6  -6  13 56.2819  7.8243   1
   6  -6 -13 40.8768  7.4574   5
   6  -6 -13 29.3987  5.7659   2
   6  -6 -13 47.2371  7.7060   1
   6   6 -13 44.3145  7.8858   2
   6   6 -13 44.6632  7.0000   1
  -6   6  13 42.6936  6.9512   1
  -6   6  13 35.9296  5.7105   3
   5  -6 -13 3.71248 3.93089   2
   5  -6 -13 -2.8912  4.4993   5
   5  -6 -13 0.85875 4.17914   1
  -5  -6  13 -7.5329  4.0830   1
  -5   6  13 -1.8304  3.6470   1
   5   6 -13 1.71955 3.40824   2
  -5   6  13 2.54344 2.66088   3
   5   6 -13 4.79324 3.80894   1
   4  -6 -13 156.581  12.979   1
   4  -6 -13 209.274  13.182   5
   4  -6 -13 177.432  11.974   2
  -4  -6  13 187.204  13.304   1
   4   6 -13 181.120  12.509   2
   4   6 -13 190.332  13.318   1
  -4   6  13 175.925  13.309   1
   3  -6 -13 20.2285  5.2698   2
  -3  -6  13 19.7118  4.9580   1
   3  -6 -13 19.1939  5.5642   1
   3  -6 -13 21.7979  5.1712   5
   3   6 -13 31.5056  6.4282   1
   3   6 -13 23.0399  5.4198   2
  -3   6  13 21.8626  5.9603   1
   2  -6 -13 11.7103  3.9510   5
  -2  -6  13 2.23886 4.10905   1
   2  -6 -13 6.83093 4.46592   1
   2  -6 -13 4.04696 3.59940   2
  -2   6  13 8.17583 3.83950   1
   2   6 -13 6.81314 4.45011   1
  -1  -6  13 128.796  11.039   1
   1  -6 -13 128.026  11.498   1
   1  -6 -13 132.152   8.999   5
   1  -6 -13 125.007  10.144   2
   1   6 -13 122.100  11.133   1
  -1   6  13 133.738  11.697   1
   1   6 -13 121.260   8.964   2
   0  -6 -13 120.110   8.265   5
   0  -6  13 121.849  10.929   1
   0  -6 -13 115.878  10.931   1
   0  -6 -13 125.943  10.305   2
   0   6 -13 118.059  10.914   1
   0   6 -13 128.647   8.637   2
   0   6  13 116.106  10.771   1
   0   6 -13 105.926   6.900   3
  -1  -6 -13 32.5955  6.7407   1
  -1  -6 -13 45.9156  6.8149   2
  -1  -6 -13 48.8109  5.3914   5
   1  -6  13 54.9605  7.8480   1
  -1   6 -13 51.7990  5.2692   3
   1   6  13 51.6806  7.6286   1
  -1   6 -13 46.8347  7.4476   1
  -1   6 -13 51.2769  5.5337   2
  -2  -6 -13 26.4192  3.8816   5
   2  -6  13 33.5819  6.1377   1
  -2  -6 -13 32.4328  6.5072   1
  -2   6 -13 27.2958  4.3641   3
  -2   6 -13 31.3470  4.1160   2
   2   6  13 23.4639  5.7382   1
  -3  -6 -13 55.8224  8.2183   1
   3  -6  13 36.3089  6.8697   1
  -3   6 -13 42.3268  5.6219   3
  -3   6 -13 47.6826  7.7633   1
   3   6  13 51.7441  7.6855   1
   4  -6  13 6.47722 3.41376   1
  -4   6 -13 7.81024 3.51455   3
  -4   6 -13 3.80575 4.48924   1
  -5  -6 -13 40.1249  7.0783   1
   5  -6  13 29.2193  5.9506   1
  -5   6 -13 47.0611  7.3828   1
  -5   6 -13 34.8443  5.7924   3
   5   6  13 35.6312  6.3325   1
   6  -6  13 -0.7129  3.2775   1
  -6  -6 -13 8.04850 4.62521   1
  -6   6 -13 9.24936 4.53506   1
  -6   6 -13 4.80733 3.59776   3
  -7  -6 -13 93.4393  9.5888   1
  -7   6 -13 94.1771 10.0903   1
  -7   6 -13 97.3145 10.2700   3
  -8  -6 -13 19.0562  5.0799   1
  -8   6 -13 17.9686  5.2813   1
  -8   6 -13 15.9552  5.7808   3
  -9  -6 -13 16.1168  4.5998   1
  -9   6 -13 19.9607  5.5529   1
  -9   6 -13 20.8660  6.3558   3
 -10  -6 -13 145.097  15.453   4
 -10  -6 -13 133.975  10.646   1
 -10   6 -13 137.933  11.385   1
 -10   6 -13 121.084  13.305   3
 -11  -7  13 -0.5841  3.2274   1
 -11   7  13 -4.6659  3.9809   1
  10  -7 -13 38.4479  8.3479   5
  10  -7 -13 40.2028  6.5789   2
 -10  -7  13 32.5474  6.2989   1
  10   7 -13 27.0819  7.2573   2
 -10   7  13 34.6221  7.0880   1
   9  -7 -13 14.0323  4.4203   2
  -9  -7  13 26.1829  6.2362   1
   9  -7 -13 18.1356  6.4964   5
   9   7 -13 20.9695  7.0688   2
  -9   7  13 5.96672 4.80617   1
   8  -7 -13 96.3450  9.4354   2
  -8  -7  13 98.6214 10.3147   1
   8  -7 -13 101.909  11.074   5
  -8   7  13 122.799  11.271   3
   8   7 -13 102.520  11.714   2
  -8   7  13 117.933  11.631   1
   7  -7 -13 -11.848   5.017   1
   7  -7 -13 -0.7792  3.4671   2
   7  -7 -13 -1.2991  4.5880   5
  -7  -7  13 9.54561 5.08644   1
   7   7 -13 -0.5035  3.5374   2
  -7   7  13 -5.4223  3.4988   3
   6  -7 -13 -2.1378  3.7486   2
   6  -7 -13 4.12400 4.67507   5
  -6  -7  13 0.63640 4.19227   1
   6  -7 -13 4.63468 4.68790   1
   6   7 -13 -12.152   5.639   2
  -6   7  13 4.50466 4.82788   1
  -6   7  13 4.54405 3.43000   3
   6   7 -13 -2.4620  3.7961   1
   5  -7 -13 53.6525  8.3834   1
   5  -7 -13 40.4870  7.3264   5
  -5  -7  13 45.5104  7.5582   1
  -5   7  13 30.2628  7.1422   1
   5   7 -13 41.7868  7.1859   2
   5   7 -13 42.7903  7.2967   1
  -4  -7  13 -2.2953  4.7750   1
   4  -7 -13 -0.9366  4.3028   1
   4  -7 -13 -7.5145  4.9154   5
  -4   7  13 -6.9550  4.2199   1
   4   7 -13 -4.6493  3.8297   2
   3  -7 -13 11.7390  4.6508   1
  -3  -7  13 -4.5155  4.6727   1
   3   7 -13 14.9471  5.5748   1
   3   7 -13 2.30059 4.15313   2
   2  -7 -13 -2.9511  4.8290   1
  -2  -7  13 -6.2600  4.1924   1
   2  -7 -13 0.92492 3.70319   2
   2   7 -13 1.00086 2.61076   2
   2   7 -13 4.67328 4.61718   1
  -2   7  13 -0.6147  3.3611   1
  -1  -7  13 6.10352 4.71497   1
   1  -7 -13 1.11131 4.25227   1
   1  -7 -13 6.74864 4.60061   2
  -1   7  13 -6.2869  4.9249   1
   1   7 -13 -1.1916  4.4195   1
   0  -7 -13 0.17374 2.77715   5
   0  -7 -13 -2.5333  4.4845   1
   0  -7  13 2.77857 4.58833   1
   0   7 -13 -0.4458  2.6185   2
   0   7 -13 6.32348 4.89772   1
   0   7  13 14.1028  5.6036   1
   1  -7  13 36.8264  7.2394   1
  -1  -7 -13 39.7026  7.6181   1
  -1  -7 -13 42.8005  5.3921   5
   1   7  13 45.1386  7.7140   1
  -1   7 -13 44.6718  5.4404   3
  -1   7 -13 40.2411  4.9446   2
  -1   7 -13 43.0274  7.8520   1
  -2  -7 -13 46.8339  7.9100   1
  -2  -7 -13 50.4919  5.6251   5
   2  -7  13 50.8186  8.0610   1
  -2   7 -13 46.5346  5.9671   3
   2   7  13 36.9062  7.1280   1
  -2   7 -13 49.0124  8.2571   1
   3  -7  13 42.9161  7.4082   1
  -3  -7 -13 43.2621  7.9992   1
  -3   7 -13 31.2325  6.9273   1
  -3   7 -13 42.4337  5.9915   3
   3   7  13 42.8116  7.6707   1
  -4  -7 -13 78.9504  9.5748   1
   4  -7  13 92.1870 10.1391   1
  -4   7 -13 90.7064  8.9713   3
  -4   7 -13 99.1127 10.8234   1
   4   7  13 71.2013  8.9786   1
  -5  -7 -13 12.7904  4.9832   1
  -5   7 -13 9.98059 5.21586   1
   5   7  13 2.50389 3.82339   1
   6  -7  13 170.153  13.178   1
  -6  -7 -13 163.502  13.149   1
  -6   7 -13 177.146  14.057   1
  -6   7 -13 175.696  13.467   3
  -7  -7 -13 22.3373  5.7545   1
  -7   7 -13 21.4743  6.0826   3
  -7   7 -13 24.5178  6.3594   1
  -8  -7 -13 57.1493  8.0340   1
  -8   7 -13 47.4774  8.5044   3
  -8   7 -13 47.5053  7.3940   1
  -9  -7 -13 6.74812 4.20041   1
  -9  -7 -13 6.63092 4.64868   4
  -9   7 -13 -0.9386  4.2747   3
  -9   7 -13 0.91347 3.95311   1
 -10   7 -13 9.57414 4.81924   1
 -10   7 -13 0.86878 4.48795   3
 -10  -8  13 16.9553  5.1872   1
  10  -8 -13 7.56723 4.68293   5
  10   8 -13 5.66603 5.98411   2
 -10   8  13 10.8728  5.2975   1
   9  -8 -13 6.70951 5.57170   5
  -9  -8  13 3.05082 4.27571   1
  -9   8  13 5.33927 3.75152   1
  -8  -8  13 3.14977 4.07090   1
   8  -8 -13 13.0188  5.9385   5
  -8   8  13 7.82859 4.62042   3
   8   8 -13 4.20938 5.63954   2
  -8   8  13 7.45611 5.19604   1
   7  -8 -13 11.4672  4.5252   1
   7  -8 -13 8.61286 4.18139   2
   7  -8 -13 0.63467 4.83756   5
  -7  -8  13 2.27684 4.17713   1
  -7   8  13 0.91944 3.68767   3
  -7   8  13 7.92016 5.09170   1
  -6  -8  13 77.8629  9.4721   1
   6  -8 -13 67.0086  8.7804   5
   6  -8 -13 70.8341  9.4255   1
   6  -8 -13 84.8369  9.1716   2
   6   8 -13 86.6661 10.3231   2
  -6   8  13 76.0381  8.8094   3
   6   8 -13 61.5404  8.6492   1
  -6   8  13 94.5755 11.1496   1
  -5  -8  13 3.07112 4.69607   1
   5  -8 -13 0.30816 2.96163   1
   5  -8 -13 -3.5433  3.9505   2
   5   8 -13 6.41998 5.00899   2
   5   8 -13 2.29402 3.46390   1
  -5   8  13 -5.0468  5.0996   1
   4  -8 -13 185.003  13.172   2
   4  -8 -13 168.904  12.874   5
   4  -8 -13 200.180  15.504   1
  -4  -8  13 202.069  14.912   1
   4   8 -13 182.483  13.389   2
   4   8 -13 194.221  14.658   1
  -4   8  13 214.482  16.088   1
   3  -8 -13 40.4944  6.2860   5
  -3  -8  13 30.8360  6.9870   1
   3  -8 -13 38.4304  6.4664   2
   3  -8 -13 40.0062  7.9938   1
   3   8 -13 36.5239  7.4369   1
   3   8 -13 41.4093  6.9229   2
  -3   8  13 45.4301  7.7398   1
   2  -8 -13 67.3451  8.6557   2
   2  -8 -13 51.3622  6.6838   5
  -2  -8  13 60.7231  9.0159   1
   2  -8 -13 48.4261  8.4730   1
  -2   8  13 68.2242  9.6370   1
   2   8 -13 63.1243  8.8457   1
   2   8 -13 50.4343  6.6952   2
   1  -8 -13 13.8003  4.3236   5
  -1  -8  13 28.1819  6.8263   1
  -1   8  13 16.0751  6.1706   1
   1   8 -13 20.6517  6.4779   1
   1   8 -13 15.4515  4.2393   2
   0  -8 -13 44.8109  8.1355   1
   0  -8 -13 34.8215  5.5500   5
   0  -8  13 40.8920  7.1873   1
   0   8 -13 38.8015  5.4753   2
   0   8 -13 37.5030  7.5702   1
   0   8  13 36.1766  7.3629   1
  -1  -8 -13 73.1837  7.2461   5
  -1  -8 -13 69.2382  9.9365   1
   1  -8  13 79.8763  9.5679   1
  -1   8 -13 70.1690  9.7263   1
   1   8  13 91.3515 10.7021   1
  -2  -8 -13 117.427  12.345   1
   2  -8  13 113.241  11.636   1
   2   8  13 108.411  11.007   1
  -2   8 -13 131.293  12.732   1
  -2   8 -13 115.065   9.479   3
  -3  -8 -13 35.5129  7.4452   1
   3  -8  13 41.2655  7.7087   1
  -3   8 -13 41.2873  6.4278   3
   3   8  13 49.1516  8.1099   1
  -3   8 -13 28.0404  6.7201   1
  -4  -8 -13 41.2645  7.4550   1
   4  -8  13 26.4737  6.3129   1
  -4   8 -13 28.9423  6.0123   3
   4   8  13 33.8319  6.9741   1
  -4   8 -13 30.9421  7.3061   1
  -5  -8 -13 30.0660  6.9727   1
   5  -8  13 43.6900  7.5984   1
  -5   8 -13 44.1432  7.9818   1
  -5   8 -13 37.3652  6.5246   3
   5   8  13 48.5889  7.7052   1
   6  -8  13 39.1784  7.4806   1
  -6  -8 -13 58.6057  8.2903   1
  -6   8 -13 46.7326  7.8050   3
  -6   8 -13 55.4406  8.4313   1
  -7  -8 -13 2.51313 4.36491   1
  -7   8 -13 5.57427 4.47029   3
  -7   8 -13 0.91478 4.33776   1
  -8  -8 -13 17.5866  5.4213   1
  -8   8 -13 1.70369 4.52329   1
  -9  -8 -13 38.9955  7.1303   1
  -9  -8 -13 37.9138  9.2913   4
  -9   8 -13 62.5672  8.6983   1
  -9   8 -13 50.9763  9.3929   3
   9  -9 -13 11.6789  6.3549   5
  -9  -9  13 6.37276 4.75020   1
  -9   9  13 18.6271  6.3213   1
   9   9 -13 6.64826 5.27600   2
   8  -9 -13 3.18664 3.83905   5
  -8   9  13 -5.8427  5.1000   1
   8   9 -13 3.17337 4.62165   2
   7  -9 -13 26.6219  5.7404   2
  -7  -9  13 25.0532  6.2147   1
   7  -9 -13 26.3844  6.9975   1
   7  -9 -13 43.5246  8.3401   5
   7   9 -13 30.9213  6.8602   2
  -7   9  13 39.1029  8.3100   1
  -7   9  13 35.9949  7.1499   3
   6  -9 -13 -9.4073  5.1703   1
   6  -9 -13 0.83246 3.84050   2
  -6  -9  13 1.18185 4.70746   1
   6   9 -13 -0.9050  4.9391   2
  -6   9  13 3.67820 5.24487   1
  -6   9  13 2.14888 4.13302   3
   6   9 -13 -3.2171  3.5448   1
   5  -9 -13 26.3944  6.1875   2
  -5  -9  13 21.8115  6.7085   1
   5  -9 -13 25.7415  6.7630   5
   5  -9 -13 25.6180  7.0217   1
   5   9 -13 22.3137  5.6021   2
   5   9 -13 15.7863  5.1209   1
   4  -9 -13 60.9531  9.7569   1
   4  -9 -13 50.5831  7.4098   5
   4  -9 -13 47.5409  7.5487   2
  -4  -9  13 51.3233  8.4861   1
   4   9 -13 48.5943  8.2690   1
  -4   9  13 59.9071  9.2186   1
   4   9 -13 45.6286  7.6116   2
   3  -9 -13 20.7857  6.7087   1
   3  -9 -13 27.4322  6.2860   5
  -3  -9  13 34.2529  7.3740   1
  -3   9  13 26.7657  7.5454   1
   3   9 -13 22.8452  5.1339   2
   3   9 -13 29.6523  7.1692   1
   2  -9 -13 53.9358  7.5635   5
   2  -9 -13 51.5338  8.4694   1
  -2  -9  13 47.4155  8.6950   1
   2   9 -13 54.8743  8.3572   1
   2   9 -13 62.7127  7.8448   2
  -2   9  13 59.7581  9.4561   1
   1  -9 -13 126.031  13.085   1
  -1  -9  13 135.167  13.215   1
   1  -9 -13 143.615  11.150   5
  -1   9  13 141.485  13.222   1
   1   9 -13 125.171  12.822   1
   1   9 -13 134.279   9.930   2
   0  -9  13 5.96860 4.83801   1
   0  -9 -13 15.3637  4.3316   5
   0  -9 -13 24.0098  6.8932   1
   0   9  13 11.5222  4.9094   1
   0   9 -13 9.21431 5.67939   1
  -1  -9 -13 38.9790  7.4342   1
  -1  -9 -13 52.3260  6.8552   5
   1  -9  13 48.4920  8.4390   1
   1   9  13 31.3415  7.2592   1
  -2  -9 -13 27.8825  7.4922   1
   2  -9  13 23.6848  6.6106   1
  -2   9 -13 22.8145  6.8974   1
  -2   9 -13 18.9874  4.8778   3
   2   9  13 25.2944  6.9578   1
  -3  -9 -13 -9.7289  5.5664   1
   3  -9  13 -0.8506  4.2930   1
   3   9  13 0.57133 2.93343   1
  -3   9 -13 0.50617 3.41121   1
  -3   9 -13 -0.8351  2.8433   3
   4  -9  13 144.905  13.464   1
  -4  -9 -13 156.620  14.110   1
  -4   9 -13 156.230  12.804   3
   4   9  13 149.638  13.542   1
  -4   9 -13 147.055  14.071   1
  -5  -9 -13 51.0283  9.0371   1
   5  -9  13 75.9218  9.8863   1
  -5   9 -13 67.7490  9.2173   3
  -5   9 -13 52.0686  8.9080   1
  -6  -9 -13 81.2067 10.7323   1
  -6   9 -13 105.789  11.537   3
  -6   9 -13 94.3417 11.1750   1
  -7  -9 -13 3.37829 4.38472   1
  -7   9 -13 1.42291 4.49546   3
  -7   9 -13 3.65828 3.93557   1
  -8  -9 -13 42.3733  8.7041   4
  -8   9 -13 49.2068  9.4748   3
  -8   9 -13 42.8733  8.6167   1
   7 -10 -13 0.47678 4.01545   5
  -7 -10  13 3.48085 4.59675   1
  -7  10  13 0.10196 4.07387   3
  -7  10  13 4.59811 5.31761   1
   6 -10 -13 -1.3903  3.4292   5
   6 -10 -13 5.64611 5.25950   1
  -6  10  13 10.4716  5.9317   1
   6  10 -13 2.09080 4.69921   2
  -5 -10  13 57.0026  8.7626   1
   5 -10 -13 52.9222  8.1597   5
   5 -10 -13 55.0646  9.7429   1
  -5  10  13 50.8185  8.7441   1
   5  10 -13 63.6121  9.5515   1
   5  10 -13 64.5693  9.4537   2
   4 -10 -13 15.9709  6.3151   1
   4 -10 -13 20.2575  6.1064   5
   4  10 -13 23.6316  6.8280   1
  -4  10  13 7.03139 6.17032   1
   3 -10 -13 56.9907  8.2637   5
  -3 -10  13 63.6736  9.9126   1
   3 -10 -13 62.1180 10.1221   1
   3  10 -13 70.7668  8.8815   2
   3  10 -13 53.5958  9.1753   1
  -3  10  13 76.4988 10.5065   1
   2 -10 -13 -1.3031  3.9661   5
  -2 -10  13 9.93092 4.74060   1
   2 -10 -13 13.4993  6.6050   1
  -2  10  13 -7.3250  5.5186   1
   2  10 -13 -0.6109  3.2248   2
   1 -10 -13 21.3432  6.9925   1
   1 -10 -13 30.8550  6.2322   5
  -1  10  13 24.6762  7.0734   1
   1  10 -13 19.4718  6.0427   1
   0 -10  13 1.93922 4.91413   1
   0 -10 -13 6.67368 5.23555   1
   0  10 -13 6.43476 5.32620   1
   0  10  13 11.4267  6.0710   1
   1 -10  13 12.7291  6.1844   1
  -1 -10 -13 -1.2189  5.0260   1
  -1  10 -13 -1.3916  5.0419   1
   1  10  13 6.12463 5.53110   1
   2 -10  13 -7.5650  5.5028   1
  -2 -10 -13 11.3030  6.3050   1
  -2  10 -13 2.56369 4.31024   1
   2  10  13 -7.0372  4.5003   1
  -2  10 -13 13.2222  4.8776   3
  -3 -10 -13 69.0899 10.5625   1
   3 -10  13 43.9256  8.0654   1
   3  10  13 49.5582  8.9358   1
  -3  10 -13 72.0273  9.1001   3
  -3  10 -13 54.5644  9.6703   1
   4 -10  13 5.39693 5.21036   1
  -4 -10 -13 -5.3764  4.5191   1
  -4  10 -13 7.87512 5.94458   1
   4  10  13 -2.1146  4.1429   1
  -4  10 -13 2.16317 4.30937   3
  -5 -10 -13 -4.7427  4.9198   1
   5 -10  13 -4.5182  4.2436   1
  -5  10 -13 0.80706 3.99026   3
  -6 -10 -13 34.7741  7.8083   1
  -6  10 -13 55.6747  9.6159   1
  -6  10 -13 35.2826  7.7243   3
   6 -11 -13 -3.0852  5.0941   1
  -6 -11  13 7.29032 5.46671   1
  -6  11  13 3.66570 4.25588   1
   6  11 -13 5.32971 5.12363   2
   5 -11 -13 5.17872 4.61907   1
   5 -11 -13 10.1413  6.2263   5
  -5 -11  13 13.8255  6.5890   1
   5  11 -13 4.38381 5.04742   2
  -5  11  13 12.2153  6.5577   1
   5  11 -13 5.06932 5.46129   1
  -4 -11  13 32.0618  8.2075   1
   4 -11 -13 28.0231  7.2171   5
   4 -11 -13 27.5999  7.8527   1
  -4  11  13 20.3605  7.8014   1
   4  11 -13 42.3528  7.7310   2
   4  11 -13 39.1975  8.3973   1
   3 -11 -13 -8.0679  4.8373   1
   3 -11 -13 1.40781 3.28029   5
  -3 -11  13 5.34319 4.41133   1
   3  11 -13 -6.7144  5.4218   1
  -3  11  13 -1.4545  5.4705   1
  -2 -11  13 7.88016 5.74426   1
   2 -11 -13 0.07236 4.00577   5
   2 -11 -13 21.4603  7.3897   1
  -2  11  13 18.5353  6.1356   1
   1 -11 -13 -12.286   6.563   1
  -1 -11  13 -7.1019  5.5669   1
   1 -11 -13 -0.8947  4.1593   5
   1  11 -13 1.92363 5.00617   1
  -1  11  13 8.37515 5.89258   1
   0 -11 -13 1.87841 4.60233   5
   0 -11  13 -7.6847  4.5962   1
   0 -11 -13 4.75650 5.79878   1
   0  11  13 -6.2452  5.4930   1
   0  11 -13 19.1186  6.8763   1
   1 -11  13 25.1761  6.7227   1
   1  11  13 31.9434  7.3638   1
  -1  11 -13 35.8532  8.4575   1
   2 -11  13 22.0032  7.0537   1
  -2 -11 -13 21.5930  6.5985   1
   2  11  13 20.4474  6.9006   1
  -2  11 -13 22.0689  7.5323   1
   3 -11  13 30.0837  8.1410   1
  -3  11 -13 21.8530  7.6209   1
   3  11  13 13.5967  6.1652   1
  -3  11 -13 24.0380  6.3223   3
  -4 -11 -13 23.3461  7.3543   1
   4 -11  13 11.3805  5.2429   1
  -4  11 -13 15.4137  6.6311   1
   5 -11  13 5.16595 5.42686   1
  -5  11 -13 -12.463   6.178   1
  -5  11 -13 3.42115 3.82213   3
  -2 -12  13 5.99304 5.89695   1
   2 -12 -13 -0.8249  5.0836   1
   2  12 -13 -0.4919  5.2007   1
  -2  12  13 0.88654 4.97586   1
  -1 -12  13 28.9015  7.3808   1
   1  12 -13 41.5052  9.1766   1
  -1  12  13 38.3122  8.1896   1
   0 -12 -13 4.84296 5.84233   1
   0 -12  13 4.16074 5.09916   1
   0  12  13 2.08441 4.09586   1
  -1 -12 -13 12.3683  5.6494   1
   1 -12  13 -0.1310  4.7440   1
  -1  12 -13 4.58231 4.44042   1
  13   0 -14 2.67347 3.91140   2
  12   0 -14 78.8249 10.0972   2
  12   0 -14 90.6871 11.9964   5
  11   0 -14 -7.5752  5.6077   5
  11   0 -14 4.06993 4.82444   2
 -11   0  14 -4.0677  3.0158   1
  10   0 -14 148.405  12.621   2
 -10   0  14 155.270  11.089   1
  10   0 -14 152.826  14.259   5
  -9   0  14 -2.6139  3.5033   1
   9   0 -14 -0.0590  3.1573   5
   9   0 -14 2.77697 3.43078   2
  -8   0  14 153.608  11.593   1
   8   0 -14 144.602  12.952   5
   8   0 -14 153.120  11.036   1
  -8   0  14 148.465  11.244   1
   8   0 -14 145.859  11.893   2
   7   0 -14 6.97403 3.94832   2
   7   0 -14 -1.8117  3.3364   5
   7   0 -14 3.04357 3.36189   1
  -7   0  14 -1.6638  2.6976   1
   6   0 -14 7.27606 3.60379   2
  -6   0  14 4.71469 3.84518   1
   6   0 -14 12.0660  4.6806   5
  -5   0  14 -1.3951  2.6493   1
   5   0 -14 1.49784 3.17741   1
   5   0 -14 -1.6981  3.7887   2
   4   0 -14 258.064  14.100   5
  -4   0  14 239.124  14.002   1
   4   0 -14 251.201  14.120   1
   4   0 -14 249.821  13.479   2
  -3   0  14 1.03591 2.86017   1
   3   0 -14 -5.2066  3.8213   2
   3   0 -14 -5.6311  3.8400   1
   3   0 -14 7.66351 3.65637   5
  -2   0  14 156.214  11.358   1
   2   0 -14 152.201   9.717   5
   2   0 -14 143.638   9.947   2
   2   0 -14 155.647  11.328   1
   1   0 -14 -4.1290  2.6362   5
  -1   0  14 1.93171 2.66721   1
   1   0 -14 -3.3565  3.3412   2
   1   0 -14 0.21151 3.49775   1
   0   0 -14 625.176  22.446   1
   0   0  14 670.183  23.310   1
   0   0 -14 634.362  20.241   2
   0   0 -14 629.199  17.179   5
   1   0  14 -3.8194  2.8600   1
  -1   0 -14 -6.6404  3.9670   1
  -1   0 -14 4.58344 3.66410   2
  -2   0 -14 254.703  14.340   1
   2   0  14 265.781  14.481   1
  -2   0 -14 264.598  12.825   2
  -2   0 -14 248.887   7.511   5
  -3   0 -14 -0.8838  3.1509   2
   3   0  14 1.81652 3.42131   1
  -3   0 -14 -3.6372  2.9430   1
   4   0  14 -2.7052  3.5910   1
  -4   0 -14 7.35200 3.41893   2
  -4   0 -14 1.86097 3.56341   1
   5   0  14 -2.8759  3.3674   1
  -5   0 -14 3.04511 3.65763   1
   6   0  14 86.9679  8.3357   1
  -6   0 -14 91.4360  8.5879   1
  -7   0 -14 3.41164 3.35374   1
  -8   0 -14 116.910   9.745   1
  -9   0 -14 -2.5305  3.0563   1
 -10   0 -14 -1.1803  2.7060   1
 -11   0 -14 8.90026 5.37306   4
 -12   0 -14 67.9443  9.9764   4
  13  -1 -14 5.57615 3.97260   2
  13   1 -14 4.44145 4.46467   2
  12  -1 -14 47.4970  9.4021   5
  12   1 -14 42.5490  8.9482   5
  12   1 -14 48.4195  8.7451   2
  11  -1 -14 28.3266  7.6526   5
  11  -1 -14 40.8969  7.6774   2
 -11  -1  14 27.2997  5.1405   1
  11   1 -14 26.3710  6.7927   2
  11   1 -14 33.4265  8.2772   5
 -11   1  14 31.7905  5.5129   1
  10  -1 -14 4.30784 4.54144   2
  10  -1 -14 6.56331 4.95991   5
 -10   1  14 11.8405  4.1535   1
  10   1 -14 -0.9863  4.8354   5
   9  -1 -14 5.29856 5.00861   5
  -9  -1  14 13.7409  4.4698   1
   9   1 -14 6.98206 5.37207   5
   9   1 -14 2.39489 3.36677   2
  -9   1  14 5.08469 3.66764   1
   8  -1 -14 58.5968  7.3968   1
   8  -1 -14 71.2040  8.7850   2
   8  -1 -14 66.2057  9.0966   5
  -8  -1  14 50.6445  6.9844   1
  -8   1  14 57.0057  7.4943   1
   8   1 -14 45.2840  8.1037   5
   8   1 -14 70.2262  8.9068   2
   7  -1 -14 -2.8112  3.2598   1
  -7  -1  14 3.09657 3.75296   1
   7  -1 -14 2.51569 2.99184   5
   7  -1 -14 -3.9738  4.4060   2
   7   1 -14 0.12693 2.83798   1
  -7   1  14 0.34852 2.54993   1
   7   1 -14 1.71721 3.05189   5
   7   1 -14 -1.2200  3.0910   2
   6  -1 -14 33.5917  5.6581   1
  -6  -1  14 35.6049  5.7181   1
   6  -1 -14 29.0770  5.9561   2
   6  -1 -14 34.2777  6.3536   5
  -6   1  14 27.4914  5.3627   1
   6   1 -14 32.5196  6.1831   2
  -6   1  14 40.4334  6.4401   1
   6   1 -14 26.6719  5.3350   1
   6   1 -14 19.8452  5.3763   5
   5  -1 -14 10.1551  4.1251   1
   5  -1 -14 5.51705 3.14825   5
  -5   1  14 11.5200  4.4205   1
   5   1 -14 2.47536 2.43383   1
   5   1 -14 3.24239 2.99128   2
   4  -1 -14 0.11997 3.30549   1
  -4  -1  14 6.63056 3.82032   1
   4  -1 -14 6.14344 3.61616   5
   4  -1 -14 6.37481 3.90316   2
   4   1 -14 6.79274 4.23143   2
  -3  -1  14 39.3805  6.4519   1
   3  -1 -14 33.5843  5.5018   1
   3  -1 -14 28.6926  4.8937   2
   3  -1 -14 41.9502  5.5049   5
   3   1 -14 30.8146  5.0675   2
  -3   1  14 38.4424  6.2829   1
   3   1 -14 40.5332  5.9397   1
   2  -1 -14 13.8133  4.7491   1
  -2  -1  14 24.2949  5.0603   1
   2  -1 -14 26.0612  4.6246   2
   2  -1 -14 17.3001  3.9228   5
  -2   1  14 22.0648  4.7662   1
   2   1 -14 25.4268  4.5684   2
   2   1 -14 29.8525  5.7223   1
   1  -1 -14 73.5365  7.4322   2
   1  -1 -14 62.4120  7.2824   1
  -1  -1  14 58.9222  7.6437   1
   1  -1 -14 60.8948  5.6856   5
  -1   1  14 62.7602  7.8618   1
   1   1 -14 70.1953  7.7006   1
   1   1 -14 66.0407  7.1171   2
   1   1 -14 61.3027  6.0575   5
   0  -1 -14 4.51299 2.23812   5
   0  -1 -14 0.09584 3.62577   1
   0  -1 -14 7.30690 3.12824   2
   0  -1  14 4.36390 4.18989   1
   0   1 -14 1.61173 3.89048   1
   0   1  14 12.4975  4.6681   1
   0   1 -14 -0.7291  3.2241   2
   0   1 -14 1.88967 2.09074   5
   1  -1  14 69.5732  7.9886   1
  -1  -1 -14 71.2354  8.0263   1
  -1  -1 -14 55.0613  4.2809   5
  -1  -1 -14 67.6619  7.1307   2
   1   1  14 64.7820  7.7278   1
  -1   1 -14 66.1319  4.9715   5
  -1   1 -14 55.3659  6.3175   2
  -1   1 -14 62.4967  7.6913   1
   2  -1  14 64.5263  7.6509   1
  -2  -1 -14 59.1656  7.0988   1
  -2  -1 -14 55.8045  3.4779   5
  -2  -1 -14 66.3884  7.0868   2
  -2   1 -14 53.3278  6.7669   1
  -2   1 -14 58.6438  3.8101   5
  -2   1 -14 63.1854  6.3750   2
   2   1  14 58.9646  7.3165   1
  -3  -1 -14 127.986   9.341   2
   3  -1  14 126.779  10.264   1
  -3  -1 -14 150.522  11.201   1
  -3   1 -14 139.119  10.954   1
   3   1  14 148.884  10.875   1
  -3   1 -14 133.299   9.059   2
   4  -1  14 480.335  19.556   1
  -4  -1 -14 490.505  18.946   2
  -4  -1 -14 463.989  19.564   1
  -4   1 -14 486.412  17.482   2
  -4   1 -14 466.743  19.503   1
   4   1  14 477.080  19.268   1
  -5  -1 -14 26.8462  5.6946   1
   5  -1  14 29.9469  5.2865   1
  -5   1 -14 22.6828  5.1044   1
   5   1  14 30.6894  5.3853   1
  -5   1 -14 24.6111  4.5943   2
  -6  -1 -14 32.1816  5.8879   1
   6  -1  14 40.5576  5.8435   1
  -6   1 -14 45.4225  5.8028   3
  -6   1 -14 41.1175  6.3513   1
   6   1  14 34.3425  5.6926   1
  -7  -1 -14 95.2467  8.8502   1
  -7   1 -14 99.7390  9.0872   1
  -7   1 -14 98.8997  9.0734   3
  -8  -1 -14 13.6141  4.0961   1
  -9  -1 -14 213.289  12.633   1
  -9   1 -14 196.051  12.225   1
 -10  -1 -14 79.8295  7.8257   1
 -10   1 -14 81.8265  8.0090   1
 -10   1 -14 101.636  10.808   4
 -11  -1 -14 42.0665  8.0289   4
 -11   1 -14 25.4434  6.1564   4
  12  -2 -14 9.53651 4.18867   2
  12  -2 -14 19.9079  6.9015   5
  12   2 -14 7.40426 5.47132   5
 -11  -2  14 19.9226  4.6629   1
  11  -2 -14 -1.4283  4.9368   5
  11   2 -14 17.6029  5.6276   2
 -11   2  14 8.10703 3.60108   1
  11   2 -14 10.8298  5.0756   5
  10  -2 -14 -1.9813  4.8769   5
 -10  -2  14 13.8253  4.3867   1
  10   2 -14 8.76960 4.42004   2
  10   2 -14 3.51412 3.84073   5
  -9  -2  14 7.26849 3.88955   1
   9  -2 -14 5.00534 4.39453   2
   9  -2 -14 -0.1501  4.2548   5
   9   2 -14 1.72616 3.77960   5
   9   2 -14 -4.6672  4.3658   2
  -9   2  14 1.33004 2.93523   1
   8  -2 -14 5.90475 3.90483   5
  -8   2  14 11.2216  4.1095   1
   8   2 -14 -2.6119  4.8745   2
   7  -2 -14 2.37886 3.08843   5
  -7  -2  14 -9.2787  4.3261   1
   7  -2 -14 0.06642 2.74758   2
   7  -2 -14 -3.4670  3.1195   1
  -7   2  14 -4.9529  4.1591   1
   7   2 -14 10.0381  4.2434   2
   7   2 -14 -1.9283  3.1608   1
   6  -2 -14 4.63719 3.66430   5
   6  -2 -14 1.88506 2.89804   2
  -6  -2  14 6.05514 4.01045   1
  -6   2  14 0.37817 3.44395   1
   6   2 -14 8.47500 3.28822   1
   5  -2 -14 66.1742  7.8593   5
  -5  -2  14 67.6818  8.1013   1
   5  -2 -14 67.7627  7.8164   2
   5  -2 -14 60.0022  7.5067   1
  -5   2  14 73.6851  8.4291   1
   5   2 -14 68.5842  7.8317   1
   5   2 -14 57.9932  7.3992   2
   4  -2 -14 12.7048  4.1773   5
  -4  -2  14 12.1829  4.5345   1
   4  -2 -14 22.3124  5.2376   2
   4   2 -14 15.3850  4.8320   2
   4   2 -14 9.96281 4.08949   1
  -4   2  14 3.89219 3.79396   1
   3  -2 -14 127.342   9.381   5
   3  -2 -14 129.440   9.864   2
  -3  -2  14 122.279  10.403   1
   3  -2 -14 125.561  10.492   1
   3   2 -14 133.141   9.801   2
  -3   2  14 130.597  10.799   1
   3   2 -14 127.099  10.428   1
   2  -2 -14 211.703  13.123   1
  -2  -2  14 192.300  12.840   1
   2  -2 -14 194.344  11.716   2
   2  -2 -14 209.037  11.194   5
  -2   2  14 205.558  13.361   1
   2   2 -14 209.127  11.799   2
   2   2 -14 207.805  12.802   1
  -2   2  14 213.135  13.448   1
   1  -2 -14 813.180  26.658   1
   1  -2 -14 861.411  22.005   5
   1  -2 -14 879.347  25.019   2
  -1  -2  14 890.822  27.826   1
  -1   2  14 873.287  27.639   1
   1   2 -14 863.065  27.003   1
   1   2 -14 832.374  23.543   2
   0  -2  14 480.116  20.147   1
   0  -2 -14 472.922  18.093   2
   0  -2 -14 458.180  14.396   5
   0  -2 -14 472.955  20.058   1
   0   2 -14 455.539  19.342   1
   0   2 -14 472.595  16.905   2
   0   2  14 465.994  19.789   1
  -1  -2 -14 46.0265  5.9032   2
   1  -2  14 50.9514  7.2438   1
  -1  -2 -14 53.5734  4.3402   5
  -1  -2 -14 35.1290  6.3672   1
  -1   2 -14 55.4108  7.4095   1
   1   2  14 63.1833  7.7459   1
  -1   2 -14 44.1054  5.5915   2
  -2  -2 -14 10.5775  4.3314   1
  -2  -2 -14 13.9453  2.0416   5
  -2  -2 -14 9.38778 3.99161   2
   2   2  14 14.9129  4.0015   1
  -2   2 -14 17.0705  4.9731   1
  -2   2 -14 16.9437  3.8851   2
   2   2  14 22.5228  5.1637   1
  -2   2 -14 16.7386  2.2029   3
  -3  -2 -14 256.548  13.827   2
  -3  -2 -14 267.072  14.977   1
   3  -2  14 259.349  14.523   1
  -3   2 -14 254.519  14.609   1
  -3   2 -14 252.735  11.825   2
   3   2  14 263.894  14.188   1
   3   2  14 268.621  14.753   1
  -3   2 -14 259.976   9.873   3
  -4  -2 -14 0.40734 2.49041   1
   4  -2  14 -4.6768  3.6041   1
  -4  -2 -14 -1.4105  3.5641   2
   4   2  14 -3.3198  3.5444   1
  -4   2 -14 -1.3874  3.2204   1
  -4   2 -14 0.26855 1.94193   3
  -4   2 -14 -0.6058  2.2424   2
  -5  -2 -14 67.0509  7.5482   1
   5  -2  14 50.6307  6.8347   1
   5   2  14 63.2084  7.4022   1
  -5   2 -14 47.6365  6.8301   1
  -5   2 -14 62.8045  6.2280   3
  -5   2 -14 56.5626  5.9653   2
   6  -2  14 20.7020  4.8718   1
  -6  -2 -14 23.1173  5.3363   1
  -6   2 -14 12.5649  3.6210   3
   6   2  14 19.2618  4.6385   1
  -7  -2 -14 9.40363 3.48375   1
  -7   2 -14 5.68855 3.85817   1
  -8  -2 -14 9.47762 3.65668   1
  -8   2 -14 12.8724  4.6209   3
  -8   2 -14 4.96277 3.43721   1
  -9  -2 -14 150.667  10.841   1
  -9   2 -14 148.822  10.953   1
  -9   2 -14 146.927  12.547   3
 -10  -2 -14 5.60988 3.33681   1
 -10   2 -14 -2.5599  2.8960   1
 -10   2 -14 0.45191 3.78161   3
 -11   2 -14 12.3121  5.6876   3
  12  -3 -14 19.3457  6.9484   5
  12   3 -14 7.20449 6.17381   5
 -11  -3  14 61.1095  7.2625   1
  11  -3 -14 48.7270  9.3757   5
  11  -3 -14 66.7652  8.7052   2
  11   3 -14 65.1866  9.9106   2
 -11   3  14 63.1003  7.7301   1
  11   3 -14 54.3600  9.2411   5
  10  -3 -14 3.46118 4.19362   2
 -10   3  14 0.65044 3.29792   1
  10   3 -14 2.46466 5.02467   2
   9  -3 -14 79.0558 10.0499   5
  -9  -3  14 67.3294  7.9626   1
   9  -3 -14 70.4638  8.5303   2
   9   3 -14 72.3683  9.5923   2
  -9   3  14 61.2153  7.8933   1
   8  -3 -14 22.3065  5.5864   2
   8  -3 -14 27.6506  6.1970   5
  -8   3  14 21.2248  5.6190   1
  -7  -3  14 82.2952  9.0274   1
   7  -3 -14 95.5331 10.2079   5
   7  -3 -14 73.1292  8.4562   1
   7  -3 -14 84.2099  8.9267   2
   7   3 -14 84.9220  8.6423   1
  -7   3  14 78.2663  9.1348   1
   7   3 -14 84.0329  9.6901   2
  -6  -3  14 201.301  13.283   1
   6  -3 -14 196.495  12.706   2
   6  -3 -14 198.080  13.740   5
   6  -3 -14 185.051  12.484   1
   6   3 -14 181.098  12.658   2
  -6   3  14 189.346  13.086   1
   6   3 -14 183.750  12.181   1
   5  -3 -14 122.412  10.572   1
   5  -3 -14 115.745   9.866   5
   5  -3 -14 117.717   9.319   2
  -5  -3  14 117.798  10.486   1
  -5   3  14 125.810  10.641   1
   5   3 -14 105.883   9.523   1
   5   3 -14 107.600   9.493   2
   4  -3 -14 12.5759  4.1391   5
  -4  -3  14 12.8554  4.8017   1
   4  -3 -14 8.82425 4.40684   2
   4   3 -14 20.6764  5.3989   2
  -4   3  14 8.57402 3.65997   1
   4   3 -14 12.6460  4.5449   1
   3  -3 -14 505.438  19.208   2
   3  -3 -14 487.088  18.464   5
   3  -3 -14 495.184  20.740   1
  -3  -3  14 516.529  21.106   1
   3   3 -14 495.387  20.330   1
   3   3 -14 476.520  18.461   2
  -3   3  14 509.354  21.141   1
  -3   3  14 478.041  12.198   3
  -2  -3  14 42.6008  6.8104   1
   2  -3 -14 41.2329  6.9386   1
   2  -3 -14 38.1198  5.1295   5
   2  -3 -14 38.8633  5.9856   2
   2   3 -14 45.4397  6.8389   1
  -2   3  14 43.8258  7.0406   1
   2   3 -14 41.2072  6.0903   2
   1  -3 -14 210.632  13.479   1
   1  -3 -14 210.740  10.611   5
  -1  -3  14 217.164  13.811   1
   1  -3 -14 225.140  12.755   2
   1   3 -14 195.454  11.234   2
   1   3 -14 194.079  12.835   1
  -1   3  14 218.424  13.894   1
   0  -3 -14 337.856  17.014   1
   0  -3  14 341.331  17.192   1
   0  -3 -14 340.459  15.761   2
   0  -3 -14 327.327  12.343   5
   0   3 -14 303.526  13.295   2
   0   3  14 319.631  16.631   1
   0   3 -14 329.683  16.751   1
  -1  -3 -14 91.3246  5.9038   5
   1  -3  14 79.8685  8.7994   1
  -1  -3 -14 95.5503  9.2349   1
  -1  -3 -14 88.9560  8.6893   2
   1   3  14 89.0954  9.1021   1
  -1   3 -14 92.1910  4.3762   3
  -1   3 -14 96.0080  7.5764   2
  -1   3 -14 89.3627  9.2221   1
   2  -3  14 17.0177  5.0505   1
  -2  -3 -14 20.7284  5.0695   2
  -2  -3 -14 29.3178  5.8862   1
  -2   3 -14 17.3235  3.3838   2
  -2   3 -14 9.65104 4.50206   1
  -2   3 -14 16.9631  2.5402   3
   2   3  14 28.1628  5.7769   1
  -3  -3 -14 6.50744 3.88632   2
   3  -3  14 10.0096  3.8692   1
  -3  -3 -14 4.65297 3.21123   1
  -3   3 -14 7.11685 2.22802   3
  -3   3 -14 10.3066  3.1313   2
   3   3  14 3.59588 3.64299   1
  -3   3 -14 14.8220  4.9176   1
  -4  -3 -14 2.07448 3.51581   1
   4  -3  14 12.2616  4.5384   1
  -4   3 -14 3.52163 2.36466   2
   4   3  14 5.23751 3.01797   1
  -4   3 -14 -0.5899  1.8712   3
  -4   3 -14 3.72625 3.82920   1
  -5  -3 -14 95.0566  9.4033   1
   5  -3  14 104.623   9.711   1
  -5   3 -14 116.348  10.185   1
  -5   3 -14 106.683   7.424   2
   5   3  14 100.588   9.065   1
  -5   3 -14 103.935   8.295   3
   6  -3  14 37.0956  6.1089   1
  -6  -3 -14 38.6302  5.9204   1
  -6   3 -14 33.2131  6.0296   1
  -6   3 -14 37.7549  5.8034   3
  -7  -3 -14 76.4237  8.5172   1
  -7   3 -14 71.9789  8.1833   1
  -7   3 -14 73.8692  8.2056   3
  -8  -3 -14 13.5110  4.4564   1
  -8   3 -14 17.5445  5.2085   3
  -8   3 -14 15.9239  4.4629   1
  -9  -3 -14 5.36829 3.52069   1
  -9   3 -14 -6.4423  4.5066   3
  -9   3 -14 1.64302 2.82757   1
 -10  -3 -14 2.87430 2.92260   1
 -10   3 -14 -3.7422  4.5219   3
 -10   3 -14 5.58555 3.44716   1
 -11  -3 -14 24.1265  7.4536   4
 -11   3 -14 40.1938  8.2117   3
  12  -4 -14 -4.7873  5.4690   5
  12   4 -14 -3.8430  5.8161   2
  11  -4 -14 11.2909  4.8223   2
 -11  -4  14 2.67592 3.20348   1
  11  -4 -14 -10.919   5.703   5
  11   4 -14 -4.1746  5.2951   2
 -11   4  14 3.49685 3.71897   1
  10  -4 -14 21.8306  6.1352   5
 -10  -4  14 27.6909  5.6842   1
  10  -4 -14 25.8647  5.9209   2
 -10   4  14 17.7102  5.0529   1
  10   4 -14 24.1060  6.0891   2
   9  -4 -14 7.67573 5.19606   5
  -9  -4  14 -0.5521  3.4310   1
   9   4 -14 0.08720 4.43869   2
  -9   4  14 4.69890 3.94947   1
   8  -4 -14 146.181  13.002   5
  -8  -4  14 167.594  12.504   1
   8  -4 -14 158.853  11.780   2
  -8   4  14 163.215  12.651   1
   8   4 -14 141.947  12.751   2
   7  -4 -14 73.9503  8.2842   2
   7  -4 -14 65.3118  8.3436   1
  -7  -4  14 86.3496  9.3550   1
   7  -4 -14 71.1912  9.1296   5
   7   4 -14 64.3467  8.9541   2
  -7   4  14 77.2730  9.2571   1
   7   4 -14 73.8634  8.2191   1
   6  -4 -14 83.4886  8.6816   2
  -6  -4  14 69.4838  8.0708   1
   6  -4 -14 69.7277  8.4310   1
   6  -4 -14 83.3106  9.5160   5
  -6   4  14 95.2213 10.0299   1
   6   4 -14 87.0829  9.5479   2
   6   4 -14 69.3827  8.1441   1
   5  -4 -14 14.5286  4.4791   1
   5  -4 -14 15.3070  4.8813   2
   5  -4 -14 21.9286  5.7654   5
  -5  -4  14 26.8355  6.1696   1
   5   4 -14 6.60339 4.83938   2
   5   4 -14 15.3899  4.2557   1
  -5   4  14 9.30694 5.09858   1
   4  -4 -14 5.99731 4.17260   2
  -4   4  14 4.90782 2.12130   3
   4   4 -14 7.55157 3.47900   1
  -4   4  14 16.2989  5.3165   1
   3  -4 -14 274.866  14.288   2
  -3  -4  14 305.555  16.665   1
   3  -4 -14 293.490  14.538   5
   3  -4 -14 298.339  16.461   1
   3   4 -14 280.086  14.316   2
  -3   4  14 287.288  16.373   1
   3   4 -14 280.634  15.672   1
   2  -4 -14 -5.2591  3.7111   1
  -2  -4  14 6.32829 4.25393   1
   2  -4 -14 3.01433 3.80612   2
   2  -4 -14 -2.8271  3.0595   5
  -2   4  14 3.72776 3.48142   1
   2   4 -14 0.12709 4.02526   1
   2   4 -14 -2.5268  2.6407   2
  -1  -4  14 64.0240  8.0955   1
   1  -4 -14 62.5006  6.1429   5
   1  -4 -14 59.5972  6.9313   2
   1  -4 -14 63.6756  8.0770   1
   1   4 -14 60.3472  6.7892   2
   1   4 -14 58.1525  7.3774   1
  -1   4  14 57.5503  7.6694   1
   0  -4  14 66.6682  8.2876   1
   0  -4 -14 68.3100  7.4306   2
   0  -4 -14 61.6213  8.0436   1
   0  -4 -14 66.2925  5.8966   5
   0   4 -14 65.2900  7.8294   1
   0   4 -14 63.7391  6.2514   2
   0   4  14 61.4806  7.8683   1
   0   4 -14 65.4695  3.8648   3
  -1  -4 -14 15.9349  3.0336   5
  -1  -4 -14 15.9150  5.2705   1
   1  -4  14 22.2111  5.7864   1
  -1  -4 -14 23.5685  5.6338   2
  -1   4 -14 13.9930  4.3956   1
  -1   4 -14 15.2953  3.9734   2
  -1   4 -14 15.9456  2.4198   3
   1   4  14 19.2131  5.3161   1
  -2  -4 -14 209.567  13.187   2
  -2  -4 -14 218.293   8.836   5
   2  -4  14 207.464  13.665   1
  -2  -4 -14 214.738  13.732   1
  -2   4 -14 213.323  13.825   1
  -2   4 -14 209.820   9.439   3
  -2   4 -14 215.583  10.675   2
   2   4  14 223.407  13.900   1
  -3   4 -14 5.47395 2.45374   3
   3   4  14 4.11860 3.91189   1
   4  -4  14 63.5877  7.9719   1
  -4  -4 -14 60.1496  8.1241   1
  -4   4 -14 59.4133  5.5247   2
   4   4  14 65.3007  8.0773   1
  -4   4 -14 55.9912  5.9693   3
  -4   4 -14 67.7520  8.4239   1
  -5  -4 -14 41.8258  6.7972   1
   5  -4  14 33.6287  6.1181   1
   5   4  14 26.1697  5.6629   1
  -5   4 -14 31.9415  5.0230   3
  -5   4 -14 37.5908  6.2238   1
   6  -4  14 35.8688  6.1466   1
  -6  -4 -14 40.1362  6.8568   1
  -6   4 -14 32.9792  6.1400   1
  -6   4 -14 26.9042  5.1506   3
   6   4  14 32.5900  5.8404   1
  -7  -4 -14 48.5582  6.7795   1
  -7   4 -14 47.5087  6.9602   3
  -7   4 -14 46.0703  7.0325   1
  -8  -4 -14 99.2587  9.3146   1
  -8   4 -14 94.9605 10.2211   3
  -8   4 -14 97.9781  9.4714   1
  -9  -4 -14 6.94809 3.54609   1
  -9   4 -14 16.7633  5.5355   3
 -10  -4 -14 -1.7204  2.7771   1
 -10   4 -14 15.5969  5.6039   3
 -10   4 -14 2.77924 3.21652   1
 -11  -4 -14 17.3602  6.7433   4
 -11   4 -14 6.49027 5.26788   3
  11  -5 -14 -3.0119  3.5923   2
  11  -5 -14 5.66679 5.53107   5
 -11   5  14 -0.1761  3.0072   1
  11   5 -14 -5.5396  5.3615   2
  10  -5 -14 55.4647  7.8186   2
 -10  -5  14 60.9499  7.9579   1
  10  -5 -14 55.2244  9.6444   5
  10   5 -14 61.3900  9.2913   2
 -10   5  14 44.9642  7.2650   1
   9  -5 -14 1.83591 4.85553   5
   9  -5 -14 14.4848  4.6098   2
   9   5 -14 12.1035  5.2359   2
  -9   5  14 23.8010  5.8545   1
   8  -5 -14 29.2929  7.0881   5
   8  -5 -14 35.1420  6.5075   2
  -8  -5  14 31.9256  6.5204   1
   8   5 -14 26.9490  7.3382   2
  -8   5  14 42.3660  7.4144   1
  -7  -5  14 2.96759 3.13162   1
   7  -5 -14 -2.7997  4.1107   1
   7  -5 -14 -4.6009  3.6080   5
   7  -5 -14 3.10255 3.76701   2
   7   5 -14 9.42628 4.30309   1
   7   5 -14 1.95388 5.07821   2
  -6  -5  14 9.46314 5.01887   1
   6  -5 -14 11.8526  4.5839   2
  -6   5  14 11.8444  5.2638   1
   6   5 -14 12.4226  5.1520   2
   5  -5 -14 0.40152 3.60030   1
  -5  -5  14 -6.8164  4.6535   1
   5   5 -14 -0.6928  2.9896   2
  -5   5  14 1.62164 2.14710   3
  -5   5  14 -0.8076  4.3561   1
   5   5 -14 -2.4115  4.1568   1
   4  -5 -14 27.8101  6.5545   1
   4  -5 -14 20.8688  5.1229   5
  -4  -5  14 29.8972  6.5284   1
   4  -5 -14 30.6854  5.7482   2
  -4   5  14 24.4782  3.9001   3
   4   5 -14 29.3082  5.4383   2
  -4   5  14 16.8308  5.7662   1
   3  -5 -14 56.6468  7.1663   5
   3  -5 -14 53.8892  8.0692   1
  -3  -5  14 71.5641  8.8518   1
   3  -5 -14 56.3777  7.4921   2
  -3   5  14 62.1024  8.4561   1
   3   5 -14 56.2805  7.9760   1
   3   5 -14 67.2478  7.8868   2
   2  -5 -14 125.053  10.325   2
   2  -5 -14 140.029  11.825   1
   2  -5 -14 134.796   9.579   5
  -2  -5  14 138.918  11.346   1
  -2   5  14 126.652  11.446   1
   2   5 -14 116.016   9.423   2
   2   5 -14 136.676  11.475   1
   1  -5 -14 -3.0817  4.0406   2
   1  -5 -14 9.19710 3.39721   5
  -1  -5  14 -0.6962  4.1776   1
  -1   5  14 13.3567  4.3911   1
   1   5 -14 9.65957 3.98593   2
   0  -5 -14 25.3343  4.0677   5
   0  -5 -14 11.1929  4.9290   1
   0  -5 -14 25.8575  5.9429   2
   0  -5  14 23.5448  5.9998   1
   0   5  14 21.7031  5.0906   1
   0   5 -14 24.2454  4.7894   2
   0   5 -14 25.1493  6.1256   1
   0   5 -14 17.4339  2.7665   3
   1  -5  14 293.994  16.761   1
  -1  -5 -14 298.960  16.235   2
  -1  -5 -14 279.011  16.353   1
  -1  -5 -14 291.850  11.833   5
  -1   5 -14 292.610  11.062   3
   1   5  14 286.408  16.535   1
  -1   5 -14 291.535  12.806   2
  -1   5 -14 313.147  17.224   1
  -2  -5 -14 43.5780  7.4786   1
   2  -5  14 32.8625  6.6225   1
  -2  -5 -14 38.2201  6.6568   2
  -2  -5 -14 30.2638  3.7776   5
   2   5  14 35.9932  6.8385   1
  -2   5 -14 40.8014  4.8625   2
  -2   5 -14 39.7962  6.8989   1
  -2   5 -14 38.8769  4.5972   3
  -3  -5 -14 117.696  11.136   1
   3  -5  14 110.190  10.184   1
  -3   5 -14 98.8372  6.9380   2
  -3   5 -14 117.923  11.120   1
   3   5  14 114.099  10.353   1
  -3   5 -14 102.435   7.840   3
  -4  -5 -14 -6.9592  4.8136   1
   4  -5  14 -4.8865  4.2478   1
   4   5  14 -0.5767  3.7363   1
  -4   5 -14 1.08600 2.30586   3
  -4   5 -14 -1.9581  4.0624   1
   5  -5  14 6.13591 4.12624   1
  -5  -5 -14 6.33528 4.40799   1
  -5   5 -14 1.99096 3.06149   3
  -5   5 -14 4.15461 4.65295   1
   5   5  14 2.67209 3.60237   1
   6  -5  14 0.37134 3.45956   1
  -6   5 -14 9.21637 4.78054   1
  -6   5 -14 8.54823 3.71618   3
  -7   5 -14 13.6487  4.7424   3
  -7   5 -14 15.1547  4.4979   1
  -8  -5 -14 47.1065  6.8943   1
  -8   5 -14 40.4313  6.9911   1
  -8   5 -14 44.0452  7.6206   3
  -9  -5 -14 3.49488 3.28332   1
  -9   5 -14 -0.9712  3.5197   1
  -9   5 -14 -2.0803  4.0811   3
 -10  -5 -14 7.96631 3.73272   1
 -10  -5 -14 7.33114 5.76034   4
 -10   5 -14 21.6022  6.6392   3
  11  -6 -14 2.25628 3.77941   5
  11  -6 -14 1.42893 3.39037   2
 -11  -6  14 -1.8080  3.3923   1
 -11   6  14 3.40256 4.18341   1
  11   6 -14 15.9082  7.1124   2
  10  -6 -14 1.30360 3.56045   5
 -10  -6  14 -1.3797  3.6318   1
  10  -6 -14 -0.5158  3.2408   2
  10   6 -14 -0.6403  3.8473   2
  -9  -6  14 26.2441  6.0390   1
   9  -6 -14 8.70254 5.35173   5
   9  -6 -14 17.5942  4.6248   2
  -9   6  14 21.1957  6.1720   1
   9   6 -14 13.7878  5.4865   2
   8  -6 -14 -1.8446  4.6680   5
   8  -6 -14 -9.2091  4.4012   2
  -8  -6  14 -0.9014  3.8849   1
   8   6 -14 5.14035 5.64616   2
  -8   6  14 0.82727 3.93504   1
   7  -6 -14 25.3797  6.1250   1
   7  -6 -14 14.9660  4.9131   2
   7  -6 -14 18.3671  5.4139   5
  -7  -6  14 19.7008  5.5037   1
  -7   6  14 32.1272  7.0531   1
   7   6 -14 23.3729  6.8293   2
   6  -6 -14 38.0877  6.6903   2
   6  -6 -14 44.0628  7.1136   1
   6  -6 -14 47.4429  7.9525   5
  -6  -6  14 39.4538  7.3533   1
   6   6 -14 44.9549  7.2805   2
   6   6 -14 45.3164  7.2310   1
  -6   6  14 34.1424  7.2039   1
   5  -6 -14 9.90300 4.19009   1
   5  -6 -14 6.17109 4.24924   2
  -5  -6  14 3.40384 4.55054   1
  -5   6  14 9.48742 3.27989   3
  -5   6  14 8.64352 5.27849   1
   5   6 -14 18.1440  5.6677   1
   4  -6 -14 70.1744  8.1924   5
   4  -6 -14 68.3699  9.2270   1
   4  -6 -14 59.8512  7.3223   2
  -4  -6  14 72.5835  9.4451   1
   4   6 -14 72.4875  8.5818   2
  -4   6  14 79.0354  9.8670   1
   4   6 -14 53.6315  7.8896   1
  -3  -6  14 78.9895  9.5512   1
   3  -6 -14 71.0057  8.0007   5
   3  -6 -14 81.9722  9.7853   1
   3  -6 -14 78.7422  8.6854   2
  -3   6  14 74.5442  9.3513   1
   3   6 -14 73.4144  8.1305   2
   3   6 -14 65.9369  8.4390   1
   2  -6 -14 4.11752 3.57873   5
  -2  -6  14 -0.0139  2.9964   1
   2  -6 -14 -9.2376  4.9669   1
   2  -6 -14 9.21677 4.11797   2
   2   6 -14 -7.4602  3.2776   2
  -2   6  14 11.5635  5.2273   1
   2   6 -14 1.37113 4.15953   1
   1  -6 -14 9.82228 3.34851   5
   1  -6 -14 15.2183  5.0789   2
  -1  -6  14 5.39978 4.59255   1
   1  -6 -14 12.9153  4.5734   1
  -1   6  14 5.84128 4.50239   1
   1   6 -14 13.2105  4.5822   1
   0  -6 -14 65.4683  6.3472   5
   0  -6  14 76.4707  9.2806   1
   0  -6 -14 78.2653  8.9157   2
   0  -6 -14 82.9329  9.5762   1
   0   6 -14 54.8549  6.1130   2
   0   6 -14 79.7924  9.5789   1
   0   6  14 77.6725  9.3072   1
   0   6 -14 57.5773  5.1377   3
   1  -6  14 8.68653 5.09257   1
  -1  -6 -14 3.33534 3.59050   1
  -1  -6 -14 8.01645 5.04753   2
  -1   6 -14 1.35115 4.49042   1
  -1   6 -14 4.27807 2.90317   2
   1   6  14 -1.0381  4.1219   1
  -2  -6 -14 407.434  20.545   1
  -2  -6 -14 372.765  13.716   5
   2  -6  14 379.300  19.564   1
  -2   6 -14 366.638  14.728   3
  -2   6 -14 389.268  14.344   2
   2   6  14 394.205  19.823   1
  -2   6 -14 354.234  18.974   1
  -3  -6 -14 96.4223 10.3114   1
   3  -6  14 91.6845  9.6828   1
  -3   6 -14 107.933  11.023   1
   3   6  14 99.6203 10.2051   1
  -3   6 -14 85.6658  7.6241   3
   4  -6  14 26.1987  6.2352   1
  -4  -6 -14 26.0777  6.4687   1
  -4   6 -14 36.3690  6.7509   1
   4   6  14 22.5521  5.7523   1
  -4   6 -14 31.4797  5.2639   3
   5  -6  14 17.7994  5.3438   1
  -5  -6 -14 12.9984  5.3300   1
  -5   6 -14 7.50322 3.58693   3
   5   6  14 3.94080 3.85775   1
   6  -6  14 18.4676  5.4474   1
  -6  -6 -14 16.6106  5.6365   1
  -6   6 -14 14.1593  5.5608   1
  -6   6 -14 28.1943  5.7227   3
  -7   6 -14 28.5102  6.2668   3
  -7   6 -14 21.3552  5.8909   1
  -8  -6 -14 33.1738  6.3710   1
  -8   6 -14 35.9101  6.9271   1
  -8   6 -14 28.6782  6.7025   3
  -9  -6 -14 121.972  10.863   1
  -9   6 -14 129.947  11.539   1
  -9   6 -14 137.528  13.269   3
 -10  -6 -14 9.35549 4.17276   1
 -10   6 -14 -0.4676  2.9318   1
  10  -7 -14 16.0682  4.9751   2
 -10  -7  14 4.51489 4.12156   1
  10   7 -14 0.23447 5.05676   2
   9  -7 -14 35.3500  8.1929   5
  -9  -7  14 31.3906  6.6517   1
  -8  -7  14 -5.1773  4.7214   1
   8  -7 -14 4.74314 3.92667   5
   8  -7 -14 0.05141 3.39209   2
   8   7 -14 13.3882  6.1267   2
  -7  -7  14 59.4350  8.5454   1
   7  -7 -14 60.2419  8.9647   1
   7  -7 -14 56.1245  7.7512   2
   7  -7 -14 61.6855  9.1699   5
  -7   7  14 74.5842  9.5615   1
   7   7 -14 77.7119 10.2612   2
   6  -7 -14 26.7167  6.6874   5
  -6  -7  14 29.7027  6.6911   1
   6  -7 -14 26.9316  6.0388   2
   6  -7 -14 24.1580  6.5687   1
  -6   7  14 31.9034  6.6854   1
   6   7 -14 27.7394  6.8802   2
   6   7 -14 27.3014  5.8020   1
  -5  -7  14 29.4075  6.8981   1
   5  -7 -14 21.4995  5.7161   2
   5  -7 -14 15.9136  5.8141   5
   5  -7 -14 26.9912  6.7980   1
  -5   7  14 30.6526  5.3934   3
   5   7 -14 26.5403  6.2176   2
  -5   7  14 18.9964  5.5838   1
   5   7 -14 19.8061  5.2127   1
   4  -7 -14 327.497  17.500   2
   4  -7 -14 314.744  18.844   1
   4  -7 -14 340.173  17.691   5
  -4  -7  14 342.646  19.133   1
   4   7 -14 340.081  18.601   1
   4   7 -14 309.785  16.909   2
  -4   7  14 342.672  19.899   1
   3  -7 -14 280.188  16.097   2
  -3  -7  14 254.485  16.428   1
   3  -7 -14 266.434  15.161   5
   3  -7 -14 297.179  18.450   1
   3   7 -14 262.216  14.825   2
  -3   7  14 302.697  18.691   1
   3   7 -14 284.805  17.405   1
  -2  -7  14 105.651  11.227   1
   2  -7 -14 104.100  10.204   2
   2  -7 -14 87.4700  8.5093   5
   2  -7 -14 92.1825 10.2744   1
  -2   7  14 89.9348 10.6536   1
   2   7 -14 99.6745 10.8795   1
   2   7 -14 91.8569  8.6973   2
  -1  -7  14 17.5387  5.3585   1
   1  -7 -14 7.01609 4.92453   2
   1   7 -14 21.5347  6.4840   1
   1   7 -14 11.8820  3.5125   2
   0  -7 -14 24.1711  5.5747   2
   0  -7 -14 19.8555  4.3544   5
   0  -7 -14 12.3845  5.7026   1
   0  -7  14 26.2661  5.8776   1
   0   7  14 15.1320  4.9921   1
   0   7 -14 13.9833  5.6732   1
   0   7 -14 16.1856  4.0799   2
  -1  -7 -14 56.8341  6.1041   5
   1  -7  14 41.9245  7.2092   1
  -1  -7 -14 50.9344  7.9826   1
  -1   7 -14 47.8107  5.5634   3
  -1   7 -14 42.2024  7.9755   1
  -1   7 -14 47.6247  5.4098   2
   1   7  14 58.6432  8.7874   1
  -2  -7 -14 0.95745 2.35998   5
  -2   7 -14 -3.1895  5.2187   1
  -2   7 -14 10.5751  3.5458   3
   3  -7  14 32.3272  7.0985   1
  -3  -7 -14 18.3525  6.2649   1
  -3   7 -14 34.1738  5.5212   3
   3   7  14 46.9024  7.4210   1
  -3   7 -14 52.0450  8.6838   1
  -4  -7 -14 7.96069 5.26418   1
   4  -7  14 13.7268  4.6583   1
  -4   7 -14 17.1553  4.5937   3
   4   7  14 21.4649  5.7316   1
  -5  -7 -14 12.1610  5.5002   1
   5  -7  14 18.8706  5.7415   1
  -5   7 -14 17.5882  5.2919   1
   5   7  14 14.9161  5.2569   1
   6  -7  14 -0.0421  3.8197   1
  -6  -7 -14 12.4369  5.4381   1
  -6   7 -14 -1.7400  3.3211   1
  -6   7 -14 -5.2330  4.2741   3
  -7  -7 -14 3.38066 3.36834   1
  -7   7 -14 11.4290  5.1913   1
  -7   7 -14 2.40152 3.87659   3
  -8  -7 -14 9.87631 4.86954   1
  -8   7 -14 4.24204 4.42729   3
  -8   7 -14 -0.1489  4.2395   1
  -9   7 -14 39.5186  7.2491   1
  -9   7 -14 55.4048  9.5687   3
  -9  -8  14 6.07260 4.22948   1
   9  -8 -14 8.85212 4.24836   2
   9  -8 -14 -3.0210  4.8473   5
   9   8 -14 6.90151 5.91782   2
   8  -8 -14 5.15413 3.73466   2
  -8  -8  14 6.17698 4.59064   1
   8  -8 -14 -0.8572  4.7912   5
   8   8 -14 1.36133 4.98665   2
  -8   8  14 -0.6078  4.2301   1
   7  -8 -14 32.1023  7.2302   1
   7  -8 -14 26.7951  6.9485   5
  -7  -8  14 21.0816  6.3952   1
   7  -8 -14 19.8162  5.5130   2
  -7   8  14 42.6032  8.3965   1
   7   8 -14 23.1054  6.3642   2
   6  -8 -14 6.58206 4.05032   5
   6  -8 -14 8.13193 4.49702   2
   6  -8 -14 -5.0664  4.6337   1
   6   8 -14 -1.2943  3.9819   1
   6   8 -14 3.77709 4.97627   2
  -6   8  14 10.8669  6.3601   1
  -5  -8  14 15.7540  5.9926   1
   5  -8 -14 -2.8820  3.8745   5
   5  -8 -14 16.6072  6.3777   1
   5   8 -14 0.05419 4.60952   2
  -5   8  14 10.3310  5.8500   1
   5   8 -14 -6.1153  4.7994   1
   4  -8 -14 109.851  10.731   2
   4  -8 -14 151.028  14.075   1
   4  -8 -14 127.528  11.341   5
  -4  -8  14 121.107  12.428   1
   4   8 -14 130.756  12.461   1
   4   8 -14 139.305  12.056   2
  -4   8  14 136.681  12.988   1
   3  -8 -14 -3.0292  4.0855   1
   3  -8 -14 -4.1317  4.3724   2
   3  -8 -14 0.54391 2.76942   5
  -3  -8  14 -3.2984  4.9523   1
   3   8 -14 -2.4006  4.1812   2
  -3   8  14 15.4764  6.3310   1
   3   8 -14 6.90118 4.08671   1
   2  -8 -14 69.5190  9.1690   2
   2  -8 -14 79.5691  8.3288   5
  -2  -8  14 81.6505 10.3384   1
   2  -8 -14 75.8438 10.3809   1
  -2   8  14 75.9000  9.7875   1
   2   8 -14 72.2487  7.8261   2
   2   8 -14 74.7976 10.0307   1
   1  -8 -14 5.48410 5.05468   1
  -1  -8  14 -3.8563  4.5132   1
   1  -8 -14 4.01956 3.38781   5
  -1   8  14 -2.5891  4.4611   1
   1   8 -14 -3.5800  3.2288   2
   1   8 -14 -5.0581  4.6046   1
   0  -8 -14 47.6969  8.7023   1
   0  -8  14 58.1364  9.0870   1
   0  -8 -14 54.3292  6.6890   5
   0   8 -14 44.8149  7.7022   1
   0   8  14 61.3253  9.2472   1
   0   8 -14 55.0923  6.2726   2
  -1  -8 -14 38.5209  8.0227   1
  -1  -8 -14 33.6757  5.4037   5
   1  -8  14 29.0562  7.1347   1
  -1   8 -14 25.5706  6.3286   1
   1   8  14 41.3481  7.4707   1
   2  -8  14 22.0745  6.3734   1
  -2  -8 -14 10.5772  4.7300   1
  -2   8 -14 17.5057  4.5336   3
  -2   8 -14 10.5367  5.3225   1
   2   8  14 20.1578  6.4319   1
   3  -8  14 35.7122  7.3927   1
  -3  -8 -14 32.1553  7.5402   1
  -3   8 -14 25.0613  6.9734   1
  -3   8 -14 30.2887  5.6984   3
   3   8  14 38.2917  7.5161   1
  -4  -8 -14 20.6077  6.3699   1
   4  -8  14 14.4634  5.7039   1
  -4   8 -14 13.0833  5.0657   1
   5  -8  14 41.7962  7.7624   1
  -5  -8 -14 50.9227  8.3880   1
  -5   8 -14 34.7936  6.7919   3
  -5   8 -14 28.2192  7.4424   1
   5   8  14 51.2516  8.2783   1
  -6  -8 -14 -7.5709  5.1661   1
  -6   8 -14 -6.1296  5.1887   1
  -6   8 -14 6.70623 4.39677   3
  -7  -8 -14 -7.1862  4.9033   1
  -7   8 -14 -14.085   5.982   1
  -8   8 -14 3.30051 3.80621   1
   8  -9 -14 3.31273 3.26485   2
   8  -9 -14 3.22820 3.90988   5
  -8  -9  14 -1.7970  3.9390   1
  -8   9  14 3.50998 3.89220   1
  -7  -9  14 -1.9202  4.8331   1
   7  -9 -14 15.6739  5.3040   2
   7  -9 -14 4.97693 5.24425   5
  -7   9  14 -0.1245  4.4896   1
   6  -9 -14 25.1795  6.7855   5
  -6  -9  14 30.9872  7.1971   1
   6  -9 -14 16.9163  5.4873   2
   6  -9 -14 21.1977  6.5415   1
   6   9 -14 20.2599  6.2800   2
  -6   9  14 23.8811  6.9628   1
   5  -9 -14 2.39565 4.30643   2
   5  -9 -14 7.28315 5.05803   5
   5  -9 -14 12.1796  5.9236   1
   5   9 -14 -4.5843  5.1130   1
  -5   9  14 -3.5438  4.0232   1
   5   9 -14 -3.7877  5.0444   2
  -4  -9  14 3.04278 5.27838   1
   4  -9 -14 -4.1266  4.5148   1
   4  -9 -14 -1.2782  3.5814   5
   4   9 -14 -0.1355  4.3969   2
   4   9 -14 3.80222 4.87571   1
  -4   9  14 -1.1909  5.2759   1
  -3  -9  14 22.4017  6.7108   1
   3  -9 -14 31.7573  7.7844   1
   3  -9 -14 45.3148  7.3605   5
   3   9 -14 37.8031  7.3923   1
  -3   9  14 43.7377  8.3929   1
   3   9 -14 39.7965  6.8358   2
   2  -9 -14 2.26847 3.95573   5
   2  -9 -14 2.71452 5.09390   1
  -2  -9  14 1.26840 4.77593   1
   2   9 -14 -6.4815  5.5731   1
   1  -9 -14 28.5669  7.2097   1
  -1  -9  14 41.9165  8.0312   1
   1  -9 -14 24.7933  5.7563   5
   1   9 -14 39.3633  6.0101   2
  -1   9  14 29.6582  7.4076   1
   1   9 -14 27.8118  7.0111   1
   0  -9  14 28.6272  7.3623   1
   0  -9 -14 19.8724  4.8505   5
   0  -9 -14 22.9152  6.7376   1
   0   9 -14 32.1865  6.9861   1
   0   9  14 16.3835  6.4066   1
  -1  -9 -14 39.2738  6.0790   5
  -1  -9 -14 31.3502  7.5060   1
   1  -9  14 32.0007  7.6588   1
  -1   9 -14 30.0017  6.9871   1
   1   9  14 25.8533  7.0517   1
  -2  -9 -14 -0.0716  4.5062   1
   2  -9  14 15.2506  5.6510   1
   2   9  14 6.70716 4.81548   1
  -2   9 -14 5.57012 4.99299   1
  -3  -9 -14 -3.1848  4.6598   1
   3  -9  14 10.0382  5.3515   1
   3   9  14 -3.1779  4.6266   1
  -3   9 -14 -0.5808  4.9343   1
   4  -9  14 129.965  13.141   1
  -4  -9 -14 113.915  12.771   1
  -4   9 -14 122.475  11.443   3
  -4   9 -14 119.363  12.677   1
   4   9  14 115.081  12.121   1
  -5  -9 -14 68.5906 10.1403   1
   5  -9  14 60.4002  9.3543   1
  -5   9 -14 60.6442  9.8166   1
  -5   9 -14 60.5408  8.6654   3
  -6   9 -14 23.4171  7.3194   1
  -7  -9 -14 86.0726 10.7494   1
  -7   9 -14 66.4665  9.8649   3
  -7   9 -14 81.2421 11.0982   1
  -7 -10  14 29.4820  7.3440   1
   7 -10 -14 36.8615  7.4506   5
  -7  10  14 52.9697  9.0807   1
   7  10 -14 28.6164  7.7690   2
   6 -10 -14 19.2732  5.6163   5
   6 -10 -14 33.2957  7.8657   1
  -6 -10  14 34.4730  8.0861   1
  -6  10  14 17.7413  6.3990   1
   6  10 -14 23.3349  6.7124   2
  -5 -10  14 21.5129  7.1009   1
   5 -10 -14 12.7987  4.9198   5
   5 -10 -14 5.01773 4.43897   1
  -5  10  14 3.66506 5.43612   1
   5  10 -14 26.5221  7.1659   1
   4 -10 -14 36.3782  7.4049   5
   4 -10 -14 35.8951  8.7158   1
  -4 -10  14 44.0723  8.9201   1
  -4  10  14 53.0004  9.9961   1
   4  10 -14 43.6448  8.5109   1
   4  10 -14 33.9741  7.2916   2
   3 -10 -14 4.74606 4.57424   5
  -3 -10  14 5.07002 4.30354   1
  -3  10  14 -2.7346  5.5123   1
   3  10 -14 16.1972  6.5033   1
   2 -10 -14 78.2033  9.2785   5
   2 -10 -14 69.2695 10.6558   1
  -2 -10  14 58.7992  9.9324   1
  -2  10  14 64.0942  9.8394   1
   2  10 -14 65.2606 10.2225   1
  -1 -10  14 21.7048  6.6671   1
   1 -10 -14 1.56557 4.91388   1
   1 -10 -14 -2.4343  4.1714   5
   0 -10  14 23.8949  6.4135   1
   0 -10 -14 20.8213  5.1484   5
   0 -10 -14 21.2798  7.1777   1
   0  10 -14 34.5901  8.1274   1
   1 -10  14 44.1719  8.2517   1
  -1 -10 -14 62.7220 10.3095   1
   1  10  14 57.1746  9.2623   1
  -1  10 -14 60.2459 10.2156   1
  -2 -10 -14 52.4966  9.0252   1
   2 -10  14 44.1143  8.7328   1
  -2  10 -14 56.8312  9.9923   1
   2  10  14 36.0875  8.3426   1
  -3 -10 -14 6.54901 6.04634   1
   3 -10  14 22.4495  7.0478   1
   3  10  14 15.6344  6.1344   1
  -3  10 -14 17.1737  7.0171   1
   4 -10  14 50.1563  8.5751   1
  -4 -10 -14 50.1685  9.5062   1
   4  10  14 63.6913  9.6826   1
  -4  10 -14 64.8019 10.4876   1
  -5 -10 -14 -7.6555  5.2150   1
   5 -10  14 1.30100 4.56115   1
  -5  10 -14 4.15064 5.13767   1
  -6 -10 -14 14.7991  6.2289   1
  -6  10 -14 7.68968 6.05667   1
  -5 -11  14 64.1386 10.4250   1
   5 -11 -14 62.7227  9.8770   5
   5 -11 -14 78.4760 11.9113   1
   5  11 -14 67.5245  9.8627   2
   4 -11 -14 60.6242 10.5852   1
  -4 -11  14 49.5158  8.9141   1
   4 -11 -14 37.2775  7.9314   5
   4  11 -14 52.7837  9.8907   1
   4  11 -14 40.6030  7.8345   2
  -4  11  14 64.8789 10.3332   1
   3 -11 -14 2.82754 3.32022   5
   3 -11 -14 3.62986 5.65111   1
  -3 -11  14 -10.099   6.264   1
  -3  11  14 -4.6936  5.9421   1
   3  11 -14 1.03102 4.95385   1
  -2 -11  14 20.6237  6.3760   1
   2 -11 -14 2.02165 4.08054   1
   2 -11 -14 0.13128 4.05327   5
  -2  11  14 19.9616  7.1172   1
   2  11 -14 0.97236 4.78718   1
   1 -11 -14 37.1905  7.1995   5
  -1 -11  14 36.8480  8.7569   1
   1 -11 -14 29.2384  7.9239   1
  -1  11  14 23.7223  7.3397   1
   1  11 -14 33.2081  7.6412   1
   0 -11  14 26.2125  7.6664   1
   0 -11 -14 10.9823  5.5355   1
   0  11  14 5.45053 5.19799   1
   0  11 -14 0.62472 5.11677   1
   1 -11  14 31.7100  8.3045   1
  -1 -11 -14 27.0056  7.2389   1
   1  11  14 28.7450  7.9546   1
  -1  11 -14 22.9574  7.6308   1
  -2 -11 -14 5.43870 5.60718   1
   2 -11  14 14.9173  6.6490   1
  -2  11 -14 6.62143 4.72954   1
  -3 -11 -14 130.741  14.362   1
   3 -11  14 113.608  13.020   1
   3  11  14 104.259  12.615   1
  -3  11 -14 121.494  14.049   1
   4 -11  14 -9.1511  5.7435   1
  12   0 -15 -1.2898  4.9896   5
  11   0 -15 73.1963 10.4038   5
  11   0 -15 59.5136  9.2336   2
 -11   0  15 53.2981  7.1723   1
  10   0 -15 13.5758  6.1669   5
  10   0 -15 13.3969  5.6763   2
  -9   0  15 101.513   9.915   1
   9   0 -15 120.269  12.711   5
   9   0 -15 117.519  11.421   2
   8   0 -15 6.07109 4.06685   5
  -8   0  15 -8.5800  4.4091   1
  -8   0  15 0.93710 3.04593   1
   8   0 -15 -6.6909  5.0526   2
  -7   0  15 24.5559  5.9734   1
   7   0 -15 21.1505  5.1091   1
   7   0 -15 26.7689  6.5383   5
   7   0 -15 25.1797  6.1312   2
  -6   0  15 -2.5253  3.7451   1
   6   0 -15 -4.1657  2.9752   1
   6   0 -15 0.65666 3.56263   5
   5   0 -15 57.1823  7.5835   2
   5   0 -15 62.1935  7.8602   5
  -5   0  15 55.4996  7.5984   1
   5   0 -15 67.8924  7.9761   1
   4   0 -15 2.96593 3.52599   1
   4   0 -15 6.92304 3.84038   5
  -4   0  15 -0.8865  3.5519   1
   3   0 -15 165.135  11.070   5
   3   0 -15 151.340  10.705   2
   3   0 -15 161.673  11.580   1
  -3   0  15 171.739  12.585   1
  -2   0  15 2.49188 2.80913   1
   2   0 -15 -5.3606  3.1760   5
   2   0 -15 0.91905 3.20367   1
  -1   0  15 120.929  10.396   1
   1   0 -15 122.464   8.154   5
   1   0 -15 116.524  10.027   1
   1   0 -15 111.526   9.155   2
   0   0 -15 3.02697 2.07753   5
   0   0 -15 4.79483 4.02798   1
   0   0 -15 -1.1881  3.5492   2
  -1   0 -15 1088.54   31.69   1
  -1   0 -15 1061.69   27.77   2
  -1   0 -15 1052.53   21.55   5
   1   0  15 1068.21   31.22   1
  -2   0 -15 -2.7156  3.1069   2
  -2   0 -15 -4.3039  3.6187   1
   2   0  15 -2.9319  3.3422   1
  -3   0 -15 17.8169  5.1330   1
   3   0  15 24.3623  5.4969   1
  -3   0 -15 25.9578  5.0234   2
  -4   0 -15 1.86306 3.77037   1
   4   0  15 5.09078 3.15773   1
  -4   0 -15 -2.4230  3.2606   2
  -5   0 -15 820.785  27.224   1
   5   0  15 812.946  26.617   1
  -6   0 -15 3.74490 3.67966   1
   6   0  15 3.68796 3.28667   1
  -7   0 -15 36.3989  6.1482   1
  -8   0 -15 2.77154 3.45699   1
  -9   0 -15 12.8395  4.1781   1
 -10   0 -15 5.68924 3.50387   1
 -11   0 -15 23.0133  6.6813   4
  12  -1 -15 1.83665 4.26370   5
  12  -1 -15 2.98690 4.52713   2
  12   1 -15 4.81429 4.03600   2
  12   1 -15 -5.6475  5.7483   5
 -11  -1  15 18.3749  4.8494   1
  11  -1 -15 21.9998  7.0666   5
  11  -1 -15 26.9158  6.9314   2
 -11   1  15 30.0355  5.7260   1
  11   1 -15 37.8207  7.6432   2
  10  -1 -15 1.82801 3.50083   2
  10  -1 -15 6.49548 5.44910   5
  10   1 -15 -3.1973  5.1604   5
  10   1 -15 0.36122 3.29423   2
 -10   1  15 -1.3962  3.2879   1
   9  -1 -15 -3.4988  4.5404   5
   9  -1 -15 6.21353 4.95116   2
  -9  -1  15 0.97380 3.40250   1
   9   1 -15 -7.0680  5.1748   2
   9   1 -15 1.23530 3.55076   5
   8  -1 -15 8.88221 5.23789   5
   8  -1 -15 10.5701  5.1089   2
  -8  -1  15 22.2058  5.3020   1
   8   1 -15 3.59055 4.99034   2
  -8   1  15 11.9480  4.9246   1
   8   1 -15 1.16958 4.71636   5
   7  -1 -15 64.6619  7.7946   1
  -7  -1  15 71.4121  8.1494   1
   7  -1 -15 70.7579  9.2375   5
   7  -1 -15 61.4493  8.3641   2
   7   1 -15 50.8558  7.9902   2
   7   1 -15 55.6505  7.3350   1
   7   1 -15 49.8909  8.1174   5
  -7   1  15 52.8248  7.1778   1
   6  -1 -15 11.7779  4.8702   5
   6  -1 -15 15.2013  5.2196   2
   6  -1 -15 19.9660  5.1123   1
   6   1 -15 16.3871  5.3732   5
  -6   1  15 17.3970  4.5092   1
   6   1 -15 9.14454 3.94810   1
  -6   1  15 18.8124  5.5240   1
   6   1 -15 17.9298  5.3230   2
   5  -1 -15 100.175   9.379   1
   5  -1 -15 81.5970  8.8564   5
   5  -1 -15 84.8295  8.7822   2
  -5  -1  15 90.3721  9.2984   1
   5   1 -15 101.563   9.556   1
  -5   1  15 88.3874  9.4230   1
   5   1 -15 84.0035  8.9004   5
   5   1 -15 83.8943  8.8859   2
  -4  -1  15 4.77294 4.04531   1
   4  -1 -15 -2.4827  2.5921   5
   4  -1 -15 0.90148 2.54296   1
   4   1 -15 -2.2880  4.0403   2
   4   1 -15 6.86975 3.93349   1
   4   1 -15 -1.0557  3.0856   5
  -4   1  15 -4.3091  4.0348   1
   3  -1 -15 43.5452  6.7601   1
  -3  -1  15 49.0499  7.1348   1
   3  -1 -15 47.6525  6.2153   5
   3  -1 -15 37.5890  6.0762   2
  -3   1  15 46.5065  6.6022   1
   3   1 -15 50.0456  6.5277   5
   3   1 -15 42.0992  6.3012   2
   3   1 -15 45.5646  6.7283   1
   2  -1 -15 6.42561 4.17149   1
   2  -1 -15 11.9509  3.2329   5
   2  -1 -15 5.61501 3.91593   2
  -2  -1  15 9.21534 4.20723   1
   2   1 -15 16.2333  4.8451   1
   2   1 -15 12.2509  4.4471   2
   1  -1 -15 10.1258  3.5776   2
   1  -1 -15 -1.8209  3.7472   1
   1   1 -15 6.41149 2.87871   5
  -1   1  15 6.15688 3.26347   1
   1   1 -15 3.65512 3.85389   2
   0  -1  15 458.274  20.183   1
   0  -1 -15 461.107  17.969   2
   0  -1 -15 434.662  14.061   5
   0  -1 -15 443.045  19.701   1
   0   1 -15 439.306  14.804   5
   0   1 -15 447.315  19.935   1
   0   1  15 428.443  19.334   1
   0   1 -15 463.054  17.423   2
  -1  -1 -15 -2.0189  1.6608   5
  -1  -1 -15 -0.6989  3.6164   1
  -1  -1 -15 -0.5481  3.2232   2
   1  -1  15 -4.5000  4.0630   1
   1   1  15 -4.2539  3.2981   1
  -1   1 -15 0.38328 4.10969   1
  -1   1 -15 1.75143 2.46273   2
  -2  -1 -15 64.0880  7.9853   1
  -2  -1 -15 55.4643  6.5373   2
   2  -1  15 66.0954  8.0884   1
  -2   1 -15 69.1436  6.9308   2
   2   1  15 78.3470  8.4785   1
  -2   1 -15 67.2316  7.9341   1
   3  -1  15 -2.7421  2.7817   1
  -3  -1 -15 -4.1323  3.0945   1
  -3  -1 -15 3.08003 2.62199   2
  -3   1 -15 3.39267 3.09686   2
   3   1  15 5.22258 3.63656   1
  -3   1 -15 -8.7908  4.4337   1
  -4  -1 -15 -0.9309  3.9295   1
  -4   1 -15 7.70183 3.49950   1
   4   1  15 1.93885 3.45037   1
  -4   1 -15 -2.0474  3.0771   2
   5  -1  15 67.9966  8.0956   1
  -5  -1 -15 74.6199  8.6636   1
  -5   1 -15 66.2687  7.7236   1
   5   1  15 77.8643  8.5560   1
  -5   1 -15 78.1671  7.6168   2
  -6  -1 -15 16.6510  4.7048   1
   6  -1  15 14.1804  4.3436   1
   6   1  15 14.4270  4.3419   1
  -6   1 -15 18.4951  4.9088   1
   6   1  15 25.0153  5.2341   1
  -7   1 -15 2.52234 3.49060   1
  -8  -1 -15 -6.6403  3.9206   1
  -8   1 -15 3.35659 3.50445   1
  -9  -1 -15 -6.6173  3.7707   1
  -9   1 -15 1.14818 3.32756   1
 -10  -1 -15 19.6371  4.6448   1
 -10   1 -15 16.7735  4.4582   1
  12  -2 -15 37.2576  8.5116   5
  12  -2 -15 40.1208  7.0930   2
 -12   2  15 37.3187  6.0272   1
  12   2 -15 56.6658  9.5602   2
  12   2 -15 35.6091  8.8130   5
  11  -2 -15 -4.6565  5.3265   5
  11   2 -15 18.0643  6.8861   5
  11   2 -15 6.39931 5.53598   2
 -11   2  15 -0.4792  3.2180   1
  10  -2 -15 3.89609 4.42934   2
  10  -2 -15 4.76661 4.51141   5
 -10  -2  15 12.2651  4.1936   1
  10   2 -15 -0.1309  4.6685   5
  10   2 -15 18.7011  6.5614   2
 -10   2  15 7.74646 4.00714   1
   9  -2 -15 -6.0264  5.1318   5
   9   2 -15 8.97894 5.77506   5
   9   2 -15 1.34601 4.91617   2
   8  -2 -15 107.869  11.575   5
   8  -2 -15 111.770  10.528   2
  -8  -2  15 100.495  10.055   1
  -8   2  15 123.157  10.890   1
   8   2 -15 129.301  12.042   2
   7  -2 -15 45.9051  6.8228   1
   7  -2 -15 51.4456  7.0175   2
   7  -2 -15 53.7524  8.3654   5
  -7  -2  15 43.9330  6.6713   1
  -7   2  15 49.9686  7.3993   1
   7   2 -15 45.0294  6.7442   1
   7   2 -15 57.7655  8.4898   2
   6  -2 -15 16.7518  5.2748   5
   6  -2 -15 10.5289  4.0978   2
   6  -2 -15 26.8273  5.7828   1
  -6  -2  15 19.7893  5.3293   1
  -6   2  15 20.7591  5.6349   1
   6   2 -15 23.1398  5.1507   1
   6   2 -15 12.0247  5.3939   2
   5  -2 -15 66.2041  7.7468   5
   5  -2 -15 70.8813  8.2134   2
   5  -2 -15 65.8048  8.1663   1
  -5  -2  15 70.2380  8.4910   1
   5   2 -15 72.8842  8.3977   1
   5   2 -15 76.1181  8.6575   2
  -5   2  15 66.5566  8.4583   1
   4  -2 -15 45.6165  6.5733   5
   4  -2 -15 42.2983  6.4919   2
  -4  -2  15 56.8921  7.7996   1
   4  -2 -15 48.2960  7.2276   1
   4   2 -15 51.7055  7.2503   2
  -4   2  15 54.0880  7.8494   1
   4   2 -15 55.5793  7.5642   1
  -3  -2  15 11.4537  4.7112   1
   3  -2 -15 11.3326  4.0405   5
   3  -2 -15 0.80370 3.60238   1
  -3   2  15 7.76022 3.87825   1
   3   2 -15 6.86978 4.18633   2
   2  -2 -15 246.655  13.505   2
  -2  -2  15 247.563  14.907   1
   2  -2 -15 256.061  14.954   1
   2  -2 -15 240.050  12.254   5
  -2   2  15 236.393  14.560   1
   2   2 -15 249.231  14.732   1
  -2   2  15 234.199  14.808   1
   2   2 -15 258.589  13.462   2
   1  -2 -15 223.919  11.010   5
   1  -2 -15 242.577  13.353   2
   1  -2 -15 229.573  14.487   1
  -1  -2  15 205.116  13.747   1
   1   2 -15 230.525  14.472   1
   1   2 -15 232.898  12.527   2
  -1   2  15 221.689  14.022   1
  -1   2  15 229.384  14.449   1
   0  -2 -15 220.373  14.240   1
   0  -2  15 234.579  14.594   1
   0  -2 -15 228.353  10.145   5
   0  -2 -15 226.271  12.995   2
   0   2  15 217.385  14.060   1
   0   2 -15 219.962  14.122   1
   0   2 -15 218.367  11.803   2
   1  -2  15 89.0611  9.2850   1
  -1  -2 -15 83.3166  5.4352   5
  -1  -2 -15 83.5252  9.1275   1
  -1  -2 -15 74.8923  7.9734   2
   1   2  15 82.5416  8.6201   1
  -1   2 -15 88.4038  9.4202   1
  -1   2 -15 97.7738  7.9540   2
   1   2  15 81.7731  8.9235   1
  -2  -2 -15 27.3048  5.0398   2
   2  -2  15 34.6965  6.2965   1
  -2  -2 -15 40.3061  6.2838   1
  -2   2 -15 41.9801  6.8317   1
  -2   2 -15 25.6952  4.6243   2
   2   2  15 44.2189  6.8240   1
   2   2  15 42.2946  6.8320   1
   3  -2  15 77.3499  8.3398   1
  -3  -2 -15 76.3647  8.7688   1
  -3  -2 -15 81.8454  8.5428   2
  -3   2 -15 67.8594  6.6970   2
   3   2  15 77.9688  8.6169   1
  -3   2 -15 79.8829  8.9044   1
  -4  -2 -15 -1.7117  3.6469   2
   4  -2  15 9.04491 4.38341   1
  -4  -2 -15 -7.1525  4.2292   1
  -4   2 -15 3.71304 3.04517   1
   4   2  15 -3.6089  3.5397   1
  -4   2 -15 0.84296 1.77630   3
  -4   2 -15 -5.5455  3.0011   2
   5  -2  15 5.29431 3.67424   1
  -5  -2 -15 -3.6273  3.9516   1
  -5   2 -15 0.09726 2.23949   2
   5   2  15 -1.0338  3.2053   1
  -5   2 -15 0.59031 1.97014   3
  -5   2 -15 4.78647 4.00070   1
  -6  -2 -15 -0.9516  3.7513   1
   6  -2  15 2.06348 3.16651   1
   6   2  15 1.09714 3.11040   1
  -7  -2 -15 27.0034  5.4728   1
  -7   2 -15 17.7547  4.9992   1
  -7   2 -15 27.8549  5.0616   3
  -8  -2 -15 31.0296  5.7459   1
  -8   2 -15 26.5659  5.2024   1
  -8   2 -15 27.1216  5.7900   3
  -9  -2 -15 36.4861  6.1569   1
  -9   2 -15 51.0144  7.8775   3
  -9   2 -15 41.0501  6.4371   1
 -10  -2 -15 95.1504  8.9418   1
 -10   2 -15 78.3661 10.0833   3
 -10   2 -15 88.2099  8.7452   1
 -11  -2 -15 3.33216 4.95275   4
 -11   2 -15 4.02486 3.55381   3
  12  -3 -15 14.8563  5.2970   2
 -12   3  15 10.0815  4.0250   1
 -11  -3  15 40.5327  6.4825   1
  11  -3 -15 36.7487  7.1360   2
  11  -3 -15 29.0873  7.0006   5
  11   3 -15 43.5554  9.4671   5
  11   3 -15 34.7826  8.1719   2
 -11   3  15 46.1882  6.9588   1
  10  -3 -15 54.4626  9.2618   5
  10  -3 -15 39.8436  7.3427   2
 -10  -3  15 50.1266  7.1029   1
 -10   3  15 50.4611  7.5045   1
  10   3 -15 47.2445  8.6259   2
  -9  -3  15 14.7861  4.7436   1
   9  -3 -15 17.5415  6.2857   5
  -9   3  15 17.8823  5.4174   1
   9   3 -15 13.2934  5.1403   2
   8  -3 -15 85.2142 10.5479   5
   8  -3 -15 85.4647  9.4611   2
  -8  -3  15 73.2419  8.5874   1
  -8   3  15 89.1465  9.6794   1
   8   3 -15 80.3558  9.9415   2
  -7  -3  15 37.8417  6.8483   1
   7  -3 -15 32.1709  5.8546   1
   7  -3 -15 27.9708  6.7440   5
   7  -3 -15 32.9410  6.4269   2
   7   3 -15 30.0627  7.0980   2
  -7   3  15 31.1455  6.5148   1
   7   3 -15 44.6551  6.9311   1
   6  -3 -15 41.0004  6.9300   2
  -6  -3  15 47.9702  7.5576   1
   6  -3 -15 48.7322  7.6569   5
   6  -3 -15 48.8440  7.3764   1
  -6   3  15 42.4006  6.7855   1
   6   3 -15 48.7316  6.6612   1
   6   3 -15 52.3956  8.0907   2
   5  -3 -15 6.62903 4.42344   1
   5  -3 -15 4.60440 4.02790   5
   5  -3 -15 -0.5394  3.8888   2
   5   3 -15 10.9968  5.2572   2
   5   3 -15 -3.7597  4.0264   1
  -4  -3  15 217.090  14.364   1
   4  -3 -15 182.019  12.056   2
   4  -3 -15 214.760  14.172   1
   4  -3 -15 189.170  12.423   5
   4   3 -15 186.550  12.461   2
  -4   3  15 198.600  13.604   1
   4   3 -15 205.159  13.538   1
   3  -3 -15 40.7153  6.4724   2
  -3  -3  15 48.8624  7.6663   1
   3  -3 -15 30.4290  5.6316   5
   3  -3 -15 34.2356  6.0918   1
   3   3 -15 44.0432  6.8692   2
   3   3 -15 27.9823  5.5158   1
  -3   3  15 30.6004  6.4067   1
   2  -3 -15 28.6312  6.1395   1
   2  -3 -15 36.1527  6.1747   2
  -2  -3  15 39.2048  6.4624   1
   2  -3 -15 35.2233  5.3110   5
   2   3 -15 43.3593  7.1019   1
   2   3 -15 42.4644  6.3148   2
  -2   3  15 40.2888  6.9951   1
   1  -3 -15 22.6866  5.1729   1
   1  -3 -15 18.1210  5.0610   2
   1  -3 -15 19.6639  3.9480   5
   1   3 -15 13.8452  4.5514   2
  -1   3  15 18.6047  5.4643   1
   1   3 -15 15.9548  4.5575   1
   0  -3  15 148.694  11.936   1
   0  -3 -15 136.306  10.224   2
   0  -3 -15 128.817  10.972   1
   0  -3 -15 128.162   7.821   5
   0   3 -15 131.652   9.351   2
   0   3 -15 141.016  11.641   1
   0   3  15 143.453  11.749   1
  -1  -3 -15 5.67195 4.39177   2
  -1  -3 -15 11.0948  4.0912   1
  -1   3 -15 3.38348 4.32193   1
   1   3  15 8.47230 4.45010   1
  -2  -3 -15 4.91656 4.07309   2
   2  -3  15 -4.5465  4.0250   1
  -2  -3 -15 2.87442 4.03942   1
   2   3  15 -6.2565  4.2405   1
  -2   3 -15 12.4662  4.2169   1
   3  -3  15 48.8924  7.2302   1
  -3  -3 -15 44.9211  6.9693   2
  -3  -3 -15 47.8808  6.9944   1
   3   3  15 49.2823  7.1401   1
  -3   3 -15 37.0012  4.0979   3
  -3   3 -15 55.3297  7.7233   1
   4  -3  15 3.58311 3.81685   1
  -4  -3 -15 -0.1590  3.8470   1
  -4   3 -15 -0.1296  2.0587   2
  -4   3 -15 -1.1059  1.8959   3
  -4   3 -15 -5.4018  3.7605   1
   4   3  15 -0.1727  2.9256   1
  -5  -3 -15 5.37429 4.34098   1
   5  -3  15 13.0000  4.7243   1
  -5   3 -15 1.48723 2.10466   2
   5   3  15 6.91661 3.81700   1
   6  -3  15 82.3832  8.8627   1
  -6  -3 -15 97.0671  9.6145   1
   6   3  15 92.4776  8.9087   1
  -6   3 -15 90.7054  8.3899   3
  -6   3 -15 94.0030  9.3957   1
  -7  -3 -15 -8.7157  4.4228   1
  -7   3 -15 2.69218 3.17453   3
  -8  -3 -15 56.3253  7.4095   1
  -8   3 -15 48.1323  6.8781   1
  -8   3 -15 49.9341  7.5095   3
  -9  -3 -15 28.8279  5.9361   1
  -9   3 -15 36.7146  7.0133   3
  -9   3 -15 29.3404  5.7244   1
 -10   3 -15 2.70952 3.16363   1
 -10   3 -15 1.56203 3.36953   3
 -11  -3 -15 22.4875  7.1297   4
 -11   3 -15 5.20458 4.64120   3
 -11  -4  15 24.4337  5.3999   1
  11  -4 -15 11.0979  4.2010   2
  11  -4 -15 14.2036  6.4578   5
 -11   4  15 19.0302  5.2893   1
  11   4 -15 18.4941  6.7987   2
 -10  -4  15 29.3093  6.1856   1
  10  -4 -15 33.1846  7.8035   5
  10  -4 -15 34.0251  6.7637   2
  10   4 -15 28.7380  7.4416   2
 -10   4  15 28.2736  6.2272   1
  -9  -4  15 20.9066  5.4455   1
   9  -4 -15 27.5667  6.4654   5
  -9   4  15 25.8206  6.2976   1
   9   4 -15 37.0340  7.8562   2
   8  -4 -15 32.4184  7.3334   5
   8  -4 -15 37.8900  6.7808   2
  -8  -4  15 44.7504  7.5080   1
  -8   4  15 50.1637  7.9916   1
   8   4 -15 35.7447  7.3321   2
   7  -4 -15 8.93096 4.44939   2
   7  -4 -15 3.18285 3.21710   1
   7   4 -15 3.07307 5.20979   2
  -7   4  15 2.84098 4.42253   1
   7   4 -15 16.5201  4.9451   1
   6  -4 -15 149.083  12.269   5
  -6  -4  15 153.310  12.387   1
   6  -4 -15 142.392  11.282   2
   6  -4 -15 163.851  12.948   1
   6   4 -15 158.221  12.179   1
  -6   4  15 142.362  12.002   1
   6   4 -15 158.722  12.429   2
  -5  -4  15 444.656  20.607   1
   5  -4 -15 453.650  21.444   1
   5  -4 -15 433.343  19.129   2
   5  -4 -15 446.777  20.233   5
  -5   4  15 431.486  20.912   1
   5   4 -15 459.419  20.540   1
   5   4 -15 442.406  19.902   2
   4  -4 -15 45.2451  7.4959   1
   4  -4 -15 38.2862  6.5223   5
   4  -4 -15 37.5980  6.5129   2
  -4  -4  15 38.7910  6.5644   1
  -4   4  15 51.9744  7.5335   1
   4   4 -15 48.8317  7.3587   2
   4   4 -15 39.4099  6.7845   1
   3  -4 -15 244.930  14.137   2
  -3  -4  15 223.157  14.763   1
   3  -4 -15 222.816  14.686   1
   3  -4 -15 221.867  12.905   5
   3   4 -15 206.733  14.071   1
  -3   4  15 206.319  14.446   1
   3   4 -15 229.096  13.498   2
   2  -4 -15 5.12002 3.14899   5
  -2  -4  15 -1.9728  4.1023   1
   2  -4 -15 3.74189 4.23774   1
   2  -4 -15 0.19900 3.56094   2
   2   4 -15 -1.9176  3.7909   1
  -2   4  15 0.67596 2.77934   1
   2   4 -15 -0.7817  3.5623   2
  -1  -4  15 -7.0015  4.5523   1
   1  -4 -15 -6.3767  4.5071   1
   1  -4 -15 -1.0830  2.5334   5
   1  -4 -15 -1.3843  2.6775   2
   1   4 -15 -6.6726  3.6798   2
   1   4 -15 2.12421 3.97656   1
   0  -4 -15 54.4298  5.4400   5
   0  -4 -15 46.2388  7.4390   1
   0  -4  15 62.5360  8.0365   1
   0  -4 -15 58.4386  7.6773   2
   0   4 -15 53.9638  6.3868   2
   0   4 -15 54.0088  8.0928   1
   0   4  15 66.5782  8.4734   1
  -1  -4 -15 112.693   7.002   5
  -1  -4 -15 109.123  10.125   2
   1  -4  15 110.787  10.363   1
  -1  -4 -15 123.755  11.175   1
  -1   4 -15 104.849  10.693   1
  -1   4 -15 109.789   8.335   2
   1   4  15 107.796  10.501   1
  -2  -4 -15 89.6653  9.5494   2
  -2  -4 -15 93.6826 10.0248   1
   2  -4  15 101.353  10.375   1
  -2   4 -15 95.9836  7.5641   2
  -2   4 -15 92.1102 10.1930   1
   2   4  15 104.768   9.890   1
  -3  -4 -15 18.8296  5.6662   1
   3  -4  15 13.3465  4.9753   1
  -3   4 -15 21.1324  5.2137   1
  -3   4 -15 12.7137  3.3839   2
   3   4  15 9.87275 4.55302   1
   4  -4  15 115.117  10.819   1
  -4  -4 -15 123.153  11.002   1
  -4   4 -15 125.460  11.392   1
  -4   4 -15 122.541   8.524   3
   4   4  15 120.595  10.869   1
  -4   4 -15 127.013   8.199   2
   5  -4  15 19.3144  4.9936   1
  -5  -4 -15 17.8000  5.1234   1
  -5   4 -15 33.3832  6.7420   1
   5   4  15 34.5193  6.3347   1
  -5   4 -15 24.9956  4.5962   3
  -6  -4 -15 1.25365 3.41149   1
   6  -4  15 8.03784 3.87244   1
  -6   4 -15 5.83794 4.44765   1
  -7  -4 -15 22.4639  5.7753   1
  -7   4 -15 12.6170  4.2868   3
  -7   4 -15 16.4004  5.1978   1
  -8  -4 -15 2.66779 3.66804   1
  -8   4 -15 5.25023 4.01991   3
  -8   4 -15 6.14120 4.33611   1
  -9  -4 -15 16.3031  4.8289   1
  -9   4 -15 -0.3565  3.7866   3
 -10  -4 -15 3.84132 3.36204   1
 -10   4 -15 -0.7617  2.8613   1
 -10   4 -15 -1.3130  4.3036   3
  11  -5 -15 36.6224  6.8431   2
  11  -5 -15 28.7803  7.7458   5
 -11  -5  15 39.6331  6.6650   1
  11   5 -15 29.2491  8.1300   2
 -11   5  15 33.0677  6.6328   1
  10  -5 -15 49.6773  9.4840   5
 -10  -5  15 48.1489  7.3708   1
  10  -5 -15 43.7104  6.9104   2
 -10   5  15 39.0205  7.0876   1
  -9  -5  15 1.21084 4.01619   1
   9  -5 -15 5.49762 4.25076   2
   9   5 -15 -2.5181  5.2509   2
  -9   5  15 6.19011 4.67265   1
  -8  -5  15 117.732  11.297   1
   8  -5 -15 98.8844 11.3628   5
   8  -5 -15 91.1057  9.5295   2
  -8   5  15 122.711  11.797   1
   8   5 -15 113.754  11.931   2
   7  -5 -15 12.6138  4.5775   2
   7  -5 -15 5.79575 4.15071   1
   7  -5 -15 6.59764 5.02063   5
  -7  -5  15 6.19541 4.45465   1
   7   5 -15 13.4994  5.5203   2
   7   5 -15 15.8675  5.0531   1
  -7   5  15 15.1015  5.4102   1
   6  -5 -15 34.3132  6.1727   2
   6  -5 -15 40.4015  7.1218   5
   6  -5 -15 53.6456  8.1655   1
  -6  -5  15 33.2748  6.9331   1
   6   5 -15 47.7431  7.9238   2
   6   5 -15 41.0396  6.8099   1
  -6   5  15 49.2215  7.6147   1
   5  -5 -15 11.1898  4.1465   2
   5  -5 -15 12.6340  5.1344   5
   5  -5 -15 17.1853  5.7379   1
  -5  -5  15 6.73604 5.13932   1
  -5   5  15 9.68106 4.28356   1
   5   5 -15 11.1578  4.1128   1
   5   5 -15 19.7561  5.9814   2
   4  -5 -15 76.9567  9.5829   1
  -4  -5  15 88.0500 10.1038   1
   4  -5 -15 95.5021  9.5388   2
   4  -5 -15 97.1015  9.1098   5
  -4   5  15 89.1843 10.0590   1
   4   5 -15 94.6004  9.6807   1
   4   5 -15 91.5997  9.5046   2
   3  -5 -15 18.7687  4.7132   2
  -3  -5  15 8.19812 4.13274   1
   3  -5 -15 19.9992  6.0819   1
   3  -5 -15 14.3392  4.5788   5
  -3   5  15 8.64621 5.33072   1
   3   5 -15 4.59535 4.05844   2
   3   5 -15 14.6767  5.4799   1
   2  -5 -15 42.6568  7.6472   1
   2  -5 -15 49.1909  7.4333   2
  -2  -5  15 39.1135  7.4135   1
   2   5 -15 50.7893  6.3257   2
  -2   5  15 39.1663  6.7969   1
   2   5 -15 39.6277  7.2212   1
   1  -5 -15 20.2506  3.9301   5
  -1  -5  15 24.2948  5.5342   1
   1  -5 -15 28.4871  6.6850   1
   1  -5 -15 21.7688  5.6790   2
   1   5 -15 22.8989  4.9245   2
  -1   5  15 20.7328  5.6697   1
   1   5 -15 33.9802  6.9982   1
   0  -5 -15 28.3742  6.3292   2
   0  -5 -15 26.3635  4.3110   5
   0  -5 -15 17.1416  5.8962   1
   0  -5  15 35.0666  6.8129   1
   0   5 -15 26.7936  6.1704   1
   0   5  15 28.0392  6.4672   1
   0   5 -15 21.1785  4.6373   2
  -1  -5 -15 2.81857 2.40633   5
  -1  -5 -15 4.86155 4.72825   2
   1  -5  15 6.20523 4.53815   1
  -1  -5 -15 7.54688 5.30661   1
  -1   5 -15 8.91111 3.41109   2
   1   5  15 5.45800 4.67680   1
  -1   5 -15 0.29116 3.98619   1
  -2  -5 -15 233.536  15.417   1
  -2  -5 -15 243.300  15.475   2
   2  -5  15 238.276  15.383   1
   2   5  15 235.387  15.395   1
  -2   5 -15 253.781  11.985   2
  -2   5 -15 233.399  15.808   1
  -3  -5 -15 66.3144  9.1729   1
   3  -5  15 53.4471  8.0506   1
   3   5  15 54.6078  8.2499   1
  -3   5 -15 53.4721  5.6875   3
  -3   5 -15 53.5951  5.4828   2
  -3   5 -15 55.7226  8.4422   1
   4  -5  15 15.4859  4.6695   1
  -4  -5 -15 15.0038  5.4972   1
  -4   5 -15 18.9409  4.1004   3
  -4   5 -15 14.8786  5.6665   1
   4   5  15 13.8154  5.1262   1
  -5  -5 -15 34.7008  6.7850   1
   5  -5  15 45.4318  7.3330   1
   5   5  15 35.0313  6.6403   1
  -5   5 -15 38.6711  5.8057   3
  -5   5 -15 44.1409  7.3998   1
   6  -5  15 0.85643 3.35391   1
  -6  -5 -15 -4.8262  4.3708   1
  -6   5 -15 2.50284 4.02434   1
  -6   5 -15 -1.2684  2.7790   3
  -7  -5 -15 54.5721  8.2084   1
  -7   5 -15 35.7904  6.4611   3
  -7   5 -15 41.4950  7.4181   1
  -8  -5 -15 123.352  11.303   1
  -8   5 -15 128.795  11.627   1
  -8   5 -15 119.058  11.548   3
  -9  -5 -15 -4.8571  4.1534   1
  -9   5 -15 6.86294 4.59471   3
  -9   5 -15 5.78517 4.38202   1
 -10  -5 -15 5.00085 3.54666   1
 -10   5 -15 3.37419 4.51699   3
  10  -6 -15 33.8038  8.3234   5
  10  -6 -15 41.9777  6.8960   2
 -10  -6  15 42.2105  7.2379   1
 -10   6  15 41.4522  7.7970   1
  10   6 -15 35.6009  8.8324   2
   9  -6 -15 13.6997  5.0380   2
  -9  -6  15 10.8692  5.1600   1
   9  -6 -15 -0.1767  4.8007   5
  -9   6  15 5.95714 4.74024   1
   9   6 -15 -4.1366  5.8351   2
   8  -6 -15 26.6886  5.4629   2
   8  -6 -15 17.6414  6.4017   5
  -8  -6  15 26.2851  6.4809   1
   8   6 -15 28.7676  7.8909   2
  -8   6  15 38.3419  7.4173   1
   7  -6 -15 11.2258  5.2093   1
   7  -6 -15 12.7247  4.8580   2
   7  -6 -15 15.7418  5.1390   5
  -7  -6  15 9.39186 5.05687   1
   7   6 -15 15.7191  5.4861   2
  -6  -6  15 39.9018  7.5122   1
   6  -6 -15 37.1724  7.5770   5
   6  -6 -15 54.9538  8.5523   1
   6  -6 -15 37.3701  6.7591   2
   6   6 -15 40.2638  7.6999   2
   6   6 -15 43.6398  7.3160   1
  -6   6  15 38.5656  7.6337   1
   5  -6 -15 52.3438  8.0695   5
   5  -6 -15 48.7322  7.4375   2
  -5  -6  15 61.2597  9.0054   1
   5  -6 -15 54.8452  8.6613   1
  -5   6  15 57.5602  9.1277   1
   5   6 -15 54.2787  7.6527   1
   5   6 -15 61.4912  8.4704   2
   4  -6 -15 9.09325 3.82947   5
  -4  -6  15 1.37596 4.50129   1
   4  -6 -15 -0.0116  4.3376   1
   4  -6 -15 5.69450 4.16739   2
  -4   6  15 8.09652 4.22377   1
   4   6 -15 4.97940 4.76060   2
   4   6 -15 8.25678 4.00801   1
   3  -6 -15 26.2735  6.0107   2
  -3  -6  15 33.8126  6.5434   1
   3  -6 -15 23.2443  6.2486   1
   3  -6 -15 20.9161  5.2995   5
   3   6 -15 28.6513  5.5218   2
  -3   6  15 30.2396  7.1356   1
   3   6 -15 25.5087  6.5556   1
  -2  -6  15 6.19442 4.99981   1
   2  -6 -15 15.3373  5.7239   1
   2  -6 -15 15.6968  5.0546   2
  -2   6  15 8.14589 4.18344   1
   2   6 -15 14.7488  4.8623   2
   2   6 -15 26.5640  6.3383   1
  -1  -6  15 52.8983  8.3100   1
   1  -6 -15 55.3005  6.2062   5
   1  -6 -15 56.1423  7.9196   2
   1  -6 -15 46.2928  8.0088   1
   1   6 -15 47.9379  6.2151   2
   1   6 -15 55.6154  8.4401   1
  -1   6  15 66.7069  9.0857   1
   0  -6 -15 24.4907  6.1630   2
   0  -6 -15 17.9758  6.2031   1
   0  -6  15 19.7181  5.3267   1
   0  -6 -15 32.3194  4.8079   5
   0   6 -15 11.7172  5.6234   1
   0   6 -15 25.9407  4.9421   2
   0   6  15 24.6253  6.5744   1
  -1  -6 -15 74.7169  9.4266   2
  -1  -6 -15 86.4762 10.4539   1
  -1  -6 -15 87.3340  7.1317   5
   1  -6  15 81.4402  9.5277   1
   1   6  15 75.4622  9.5299   1
  -1   6 -15 99.6902  7.8768   2
  -1   6 -15 93.5136 10.6791   1
   2  -6  15 63.1892  9.1152   1
  -2  -6 -15 46.3189  7.5442   1
  -2   6 -15 49.8588  5.4735   2
   2   6  15 41.9382  7.6676   1
  -2   6 -15 62.3673  9.3175   1
  -3  -6 -15 -2.9739  4.8632   1
   3  -6  15 4.47965 4.69924   1
  -3   6 -15 19.7239  6.0391   1
   3   6  15 8.96603 4.92688   1
  -4  -6 -15 31.4936  6.7832   1
  -4   6 -15 17.9697  6.4515   1
   4   6  15 27.9678  6.4700   1
  -5  -6 -15 16.5618  5.0908   1
   5  -6  15 21.2710  5.6376   1
   5   6  15 14.9249  5.1932   1
  -5   6 -15 16.6067  5.8167   1
  -5   6 -15 19.7754  4.6432   3
   6  -6  15 4.06301 4.17205   1
  -6   6 -15 7.31036 4.60602   1
  -7  -6 -15 36.5552  7.1978   1
  -7   6 -15 28.4397  6.8643   1
  -8  -6 -15 0.11320 3.93862   1
  -8   6 -15 2.88256 4.00210   1
  -8   6 -15 -3.5717  4.4455   3
  -9  -6 -15 33.5042  6.5832   1
  -9   6 -15 36.4034  7.1174   1
  -9   6 -15 19.2998  6.1582   3
  10  -7 -15 3.74205 3.34853   2
   9  -7 -15 38.9577  8.4037   5
  -9  -7  15 28.6421  6.6665   1
   9  -7 -15 24.2497  5.9907   2
  -9   7  15 20.5739  6.3292   1
   9   7 -15 37.0571  8.8357   2
  -8  -7  15 -2.0461  3.6594   1
   8  -7 -15 -6.0498  5.1761   5
  -8   7  15 11.0438  5.5296   1
   8   7 -15 -8.1308  4.8287   2
   7  -7 -15 24.7268  6.4790   1
  -7  -7  15 26.4138  6.7507   1
  -7   7  15 17.9222  6.4775   1
   7   7 -15 25.0797  7.0489   2
  -6  -7  15 19.0960  6.1739   1
   6  -7 -15 28.9336  6.3841   2
   6  -7 -15 23.3526  6.5563   5
   6  -7 -15 25.6612  6.1167   1
   6   7 -15 33.2290  6.9937   1
  -6   7  15 32.5386  7.6182   1
   6   7 -15 33.6824  7.2880   2
   5  -7 -15 43.3504  7.6746   5
  -5  -7  15 30.0341  6.4318   1
   5  -7 -15 25.1774  6.0927   2
   5  -7 -15 23.3975  6.5831   1
   5   7 -15 16.0090  5.7261   1
   5   7 -15 33.9929  7.2372   2
  -5   7  15 40.7306  8.2305   1
   4  -7 -15 11.6892  4.9748   5
  -4  -7  15 8.59508 5.67732   1
   4   7 -15 9.79810 5.36724   1
  -4   7  15 6.03428 5.32922   1
   4   7 -15 5.55735 4.67621   2
   3  -7 -15 7.20984 4.58924   1
  -3  -7  15 -1.2094  4.5751   1
   3  -7 -15 13.4952  4.8674   5
  -3   7  15 7.50497 5.41631   1
   3   7 -15 0.21954 4.33909   1
   2  -7 -15 14.6906  4.5099   5
   2  -7 -15 31.3573  7.3181   1
   2  -7 -15 16.3298  5.7845   2
  -2  -7  15 23.4971  5.8324   1
   2   7 -15 25.1190  6.6080   1
   2   7 -15 14.3962  4.9499   2
  -2   7  15 6.87423 4.97891   1
  -1  -7  15 10.9563  5.6825   1
   1   7 -15 15.9108  4.3762   2
   0  -7 -15 76.5879  9.4181   2
   0  -7 -15 92.4528  8.0678   5
   0  -7  15 81.7056 10.2793   1
   0  -7 -15 92.0222 11.2286   1
   0   7  15 86.7280 10.5006   1
   0   7 -15 88.7766  8.0742   2
   0   7 -15 89.0163 10.7698   1
  -1  -7 -15 13.4522  3.5920   5
   1  -7  15 16.7884  6.1721   1
  -1  -7 -15 19.1552  6.3200   1
  -1   7 -15 15.4987  6.3487   1
  -1   7 -15 11.8337  3.6425   2
   2  -7  15 92.7706 10.7585   1
  -2  -7 -15 61.3149  9.4337   1
  -2   7 -15 69.6548  9.2938   1
   2   7  15 81.7540  9.7940   1
   3  -7  15 68.1101  8.9510   1
  -3  -7 -15 69.1612  9.8660   1
  -3   7 -15 74.5091  9.9754   1
   3   7  15 71.0935  9.6061   1
  -4  -7 -15 -1.4384  3.4181   1
   4  -7  15 15.5269  5.6802   1
  -4   7 -15 17.1121  5.9316   1
  -5  -7 -15 3.07944 4.24944   1
   5  -7  15 1.56774 4.07164   1
   5   7  15 -5.0002  4.1763   1
  -5   7 -15 -2.7735  4.7672   1
  -6  -7 -15 172.400  14.063   1
  -6   7 -15 156.766  13.992   1
  -7  -7 -15 4.97802 4.69429   1
  -7   7 -15 -6.1205  4.9670   1
  -8  -7 -15 7.19540 4.12271   1
  -8   7 -15 -1.1623  4.0117   1
   9  -8 -15 3.46569 3.92417   2
  -9  -8  15 -1.4865  3.9775   1
  -9   8  15 -5.5932  5.4937   1
   8  -8 -15 6.31672 3.92148   2
  -8  -8  15 3.82713 4.59278   1
  -8   8  15 10.9937  5.0938   1
   8   8 -15 -1.3834  5.4316   2
   7  -8 -15 1.83018 4.70425   5
   7  -8 -15 2.13389 4.27657   2
  -7  -8  15 11.5418  4.7248   1
   7   8 -15 -0.8218  4.9643   2
   6  -8 -15 27.1488  6.4848   2
   6  -8 -15 34.7180  7.6320   1
  -6  -8  15 25.7902  6.9366   1
   6  -8 -15 33.3256  6.9959   5
   6   8 -15 40.4300  7.1124   1
   6   8 -15 38.8702  8.1666   2
  -6   8  15 27.4900  7.2326   1
   5  -8 -15 42.9946  7.5462   2
  -5  -8  15 28.2210  7.3139   1
   5  -8 -15 48.4028  8.9771   1
   5  -8 -15 36.8876  7.2207   5
   5   8 -15 35.9030  6.8950   1
   5   8 -15 28.6585  6.2124   2
   4  -8 -15 1.89579 3.67543   1
   4  -8 -15 5.60258 4.43117   5
   4  -8 -15 2.84069 4.59177   2
  -4  -8  15 -6.4965  5.0572   1
   4   8 -15 -2.7385  3.4363   2
   4   8 -15 5.17810 4.75973   1
   3  -8 -15 3.04976 5.03567   1
   3  -8 -15 -0.1328  2.7725   5
  -3  -8  15 6.54558 5.11628   1
   3  -8 -15 1.74665 4.14759   2
   3   8 -15 -6.6747  4.3886   2
   3   8 -15 0.43204 4.57447   1
  -3   8  15 6.75403 5.37427   1
  -2  -8  15 59.4885  9.4721   1
   2  -8 -15 56.2182  7.0815   5
   2  -8 -15 57.7374  8.2052   2
   2  -8 -15 60.2147  9.5451   1
   2   8 -15 50.4297  8.1405   1
   2   8 -15 53.4211  7.1732   2
  -2   8  15 57.1654  9.4487   1
   1  -8 -15 25.3618  6.4519   1
   1  -8 -15 30.5968  5.7152   5
  -1  -8  15 21.3313  6.8706   1
   1   8 -15 37.7257  5.6895   2
   1   8 -15 17.5487  6.3682   1
  -1   8  15 26.2239  7.2965   1
   0  -8 -15 22.3541  4.8069   5
   0  -8  15 13.9489  6.0179   1
   0  -8 -15 30.0964  6.7441   1
   0   8 -15 20.6161  6.8308   1
   1  -8  15 71.3560 10.1088   1
  -1  -8 -15 88.7492  8.0305   5
  -1  -8 -15 82.3346 10.6780   1
  -1   8 -15 80.9904 10.8739   1
   1   8  15 78.8548 10.5338   1
  -2  -8 -15 42.1712  8.5235   1
   2  -8  15 25.7584  7.0305   1
   2   8  15 29.8518  7.2359   1
  -2   8 -15 41.9056  8.4401   1
   3  -8  15 1.73397 4.42694   1
   3   8  15 12.3625  5.5553   1
  -3   8 -15 15.6298  5.4998   1
  -4  -8 -15 -0.0543  4.9485   1
   4  -8  15 3.74455 4.51964   1
   4   8  15 1.12759 3.29742   1
  -4   8 -15 3.42175 5.35194   1
   5  -8  15 40.3078  7.3237   1
  -5  -8 -15 32.8662  7.7435   1
  -5   8 -15 30.3750  7.5445   1
  -6  -8 -15 50.2435  8.9049   1
  -6   8 -15 45.5197  8.2404   1
  -7  -8 -15 29.7979  6.7059   1
  -7   8 -15 35.3908  7.7662   1
  -7  -9  15 -3.8412  4.7355   1
   7  -9 -15 -4.9042  4.4643   2
   7  -9 -15 5.52624 5.23979   5
   7   9 -15 2.47513 5.50682   2
  -7   9  15 -3.9489  5.2105   1
   6  -9 -15 35.3031  7.5810   1
   6  -9 -15 26.8307  7.1211   5
   6  -9 -15 15.3498  5.4339   2
  -6   9  15 26.4747  7.7869   1
   6   9 -15 27.2559  7.3321   2
   5  -9 -15 74.9695 10.0529   5
   5  -9 -15 105.943  12.601   1
   5  -9 -15 100.230  10.842   2
  -5  -9  15 99.1527 11.7988   1
   5   9 -15 94.5242 11.0436   2
   5   9 -15 75.7430 10.1556   1
  -5   9  15 103.103  12.721   1
   4  -9 -15 106.592  10.501   5
  -4  -9  15 112.902  12.608   1
   4  -9 -15 120.492  13.388   1
   4  -9 -15 110.689  11.484   2
   4   9 -15 118.539  11.458   2
   4   9 -15 118.163  12.559   1
  -4   9  15 121.776  13.545   1
  -3  -9  15 -4.4318  5.0690   1
   3  -9 -15 -4.1692  4.4256   5
   3  -9 -15 -1.2228  3.5729   1
   3   9 -15 -6.1679  5.1836   1
  -3   9  15 8.42493 5.99369   1
   3   9 -15 2.55833 3.94375   2
   2  -9 -15 -1.1946  5.4663   1
   2  -9 -15 -6.0387  4.3088   5
  -2  -9  15 -0.9924  4.9320   1
   2   9 -15 -2.4331  3.7765   1
   2   9 -15 -10.425   4.425   2
  -2   9  15 -2.5666  3.9104   1
   1  -9 -15 8.13566 4.30697   5
   1  -9 -15 13.6460  6.3690   1
  -1  -9  15 25.5663  7.2897   1
   1   9 -15 11.5366  5.8713   1
   0  -9 -15 -8.5259  5.7046   1
   0  -9 -15 1.54832 2.84486   5
   0  -9  15 14.2427  6.0060   1
   0   9 -15 -6.9556  5.4749   1
   0   9  15 -0.4836  4.4447   1
   1  -9  15 6.37098 5.16377   1
  -1  -9 -15 1.51002 5.01649   1
   1   9  15 3.19543 3.81793   1
  -1   9 -15 6.21689 5.45150   1
  -2  -9 -15 73.5131 10.2129   1
   2  -9  15 68.2617 10.2712   1
  -2   9 -15 78.2317 11.2231   1
   2   9  15 63.5771  9.9055   1
   3  -9  15 -6.8072  5.3219   1
   3   9  15 12.7356  5.7058   1
  -3   9 -15 0.34520 3.56023   1
  -4  -9 -15 -9.6556  6.1136   1
   4  -9  15 -0.7813  4.7215   1
   4   9  15 1.57332 4.43507   1
  -4   9 -15 -4.5354  5.4483   1
  -5  -9 -15 9.06415 5.27405   1
   5  -9  15 -4.3627  4.2563   1
  -5   9 -15 -4.7839  5.1950   1
  -6  -9 -15 8.51033 5.31241   1
  -6   9 -15 10.6422  5.0800   1
  -6 -10  15 -10.674   6.025   1
   6 -10 -15 0.15668 3.46345   5
   6 -10 -15 4.41637 4.97528   1
  -6  10  15 -11.439   6.521   1
   6  10 -15 5.14476 5.36749   2
  -5 -10  15 43.0561  8.7869   1
   5 -10 -15 24.1028  5.9545   5
   5 -10 -15 25.8206  7.5843   1
   5  10 -15 43.6456  8.2865   1
  -5  10  15 33.4017  8.8281   1
   5  10 -15 33.7746  7.4954   2
  -4 -10  15 -3.2161  4.0487   1
   4 -10 -15 1.74457 4.57485   5
   4 -10 -15 5.66600 5.10707   1
   4  10 -15 0.42698 4.09331   2
   4  10 -15 -9.7118  5.7908   1
  -4  10  15 -5.5707  5.6707   1
   3 -10 -15 17.2743  5.6096   5
   3 -10 -15 29.6071  8.1009   1
  -3  10  15 31.1323  8.4075   1
   3  10 -15 6.18977 5.40541   1
   2 -10 -15 3.57240 4.96290   1
   2 -10 -15 2.45985 4.33946   5
  -2 -10  15 12.7360  5.2784   1
   2  10 -15 16.4778  6.7972   1
  -2  10  15 -0.4240  5.0759   1
   1 -10 -15 5.04750 4.40396   1
  -1 -10  15 4.48106 5.29005   1
  -1  10  15 0.66369 4.70079   1
   1  10 -15 7.08952 4.70059   1
   0 -10 -15 2.03308 3.89022   1
   0 -10  15 14.1243  6.3625   1
   0 -10 -15 0.82479 3.14054   5
   0  10 -15 -0.6067  5.2885   1
   0  10  15 10.4974  5.9958   1
  -1 -10 -15 61.5086 10.4473   1
   1 -10  15 45.2950  9.1388   1
   1  10  15 60.2831 10.4075   1
  -1  10 -15 65.2792 10.8136   1
  -2 -10 -15 24.1825  7.6934   1
  -2  10 -15 15.1880  5.8776   1
   2  10  15 28.0039  7.5324   1
  -3 -10 -15 -0.7168  3.6715   1
   3 -10  15 0.74268 3.55287   1
   3  10  15 11.6679  5.9579   1
  -3  10 -15 -3.9061  5.7816   1
   4 -10  15 24.6192  7.4892   1
  -4  10 -15 26.0469  7.8075   1
  -5 -10 -15 19.5442  6.7836   1
  -5  10 -15 7.67228 5.93046   1
   3 -11 -15 6.95196 4.07773   5
  -3 -11  15 6.91118 5.57951   1
   3 -11 -15 14.6312  6.7835   1
   3  11 -15 -0.4516  4.6264   1
  -3  11  15 3.62548 4.61354   1
  -2 -11  15 9.53326 6.29912   1
   2  11 -15 5.79635 5.82989   1
   1 -11 -15 1.42012 5.10026   1
  -1 -11  15 -4.6512  5.2506   1
   1 -11 -15 4.36016 4.53873   5
  -1  11  15 -1.6869  5.1087   1
   1  11 -15 6.97228 6.05273   1
   0 -11 -15 47.3466 10.0237   1
   0 -11  15 39.0385  8.2117   1
   0 -11 -15 50.7293  7.7169   5
   0  11 -15 51.7885 10.1884   1
   0  11  15 63.4066 10.7073   1
  -1 -11 -15 26.9948  8.4758   1
   1 -11  15 30.2180  7.3377   1
  -1  11 -15 42.5390  9.4693   1
   1  11  15 28.0607  7.6610   1
  -2 -11 -15 30.8181  8.1612   1
  -2  11 -15 3.60494 5.66287   1
  12   0 -16 49.3957  8.5970   2
  11   0 -16 -5.7867  5.2447   2
  11   0 -16 9.70990 6.02895   5
 -11   0  16 -6.9210  3.6792   1
  10   0 -16 8.76205 4.47212   2
  10   0 -16 8.21573 5.63969   5
 -10   0  16 3.67010 3.86256   1
   9   0 -16 7.49360 5.46511   2
   9   0 -16 7.31186 5.29507   5
  -9   0  16 5.79155 4.03011   1
  -8   0  16 295.152  17.006   1
   8   0 -16 295.620  17.475   2
   8   0 -16 276.539  18.258   5
   7   0 -16 4.03832 4.60916   5
   7   0 -16 13.6482  4.6295   1
  -7   0  16 9.98939 4.91301   1
   7   0 -16 -1.0137  4.3969   2
   6   0 -16 4.30185 3.56880   5
   6   0 -16 5.14155 3.85810   1
  -6   0  16 1.58517 3.68308   1
   5   0 -16 5.41006 4.23837   2
  -5   0  16 4.50956 3.24552   1
   5   0 -16 4.44486 3.70857   1
  -4   0  16 128.886  11.109   1
   4   0 -16 149.085  11.309   5
   4   0 -16 142.809  11.665   1
   4   0 -16 129.026  10.286   2
   3   0 -16 0.48701 3.06102   5
  -3   0  16 5.81233 4.23292   1
   3   0 -16 3.12116 3.81308   2
  -2   0  16 71.2403  8.8188   1
   2   0 -16 65.4881  7.9060   1
   2   0 -16 47.6349  6.7163   2
   2   0 -16 51.5611  6.1582   5
   1   0 -16 1.50076 2.23428   5
  -1   0  16 3.58378 4.05302   1
   1   0 -16 1.33858 3.72562   2
   1   0 -16 4.80700 4.07829   1
   0   0 -16 14.4750  5.0876   1
   0   0 -16 12.3586  2.9495   5
   0   0 -16 8.32998 3.41447   2
  -1   0 -16 3.88232 3.98654   2
  -1   0 -16 18.0761  5.4756   1
  -1   0 -16 9.89908 2.46430   5
  -2   0 -16 151.968  10.646   2
  -2   0 -16 131.760  11.359   1
   2   0  16 146.567  11.988   1
   3   0  16 6.76109 3.36511   1
  -3   0 -16 -3.6824  3.5883   2
  -3   0 -16 -3.0505  3.9399   1
  -4   0 -16 256.553  14.113   2
  -4   0 -16 234.468  14.753   1
   4   0  16 243.711  15.026   1
  -5   0 -16 -0.6099  3.5707   1
   5   0  16 -2.5762  3.7149   1
  -6   0 -16 305.230  16.702   1
   6   0  16 283.369  15.776   1
  -7   0 -16 -5.1761  4.2223   1
  -8   0 -16 21.4383  5.0789   1
  -9   0 -16 1.90766 3.13412   1
 -10   0 -16 -4.6205  3.7277   1
  12   1 -16 -2.1978  4.6324   2
 -12   1  16 14.7559  4.3900   1
  11  -1 -16 7.71343 5.64419   5
 -11   1  16 14.3419  4.4865   1
  11   1 -16 5.37126 5.94532   5
  11   1 -16 9.52579 4.61248   2
 -10  -1  16 8.74162 4.37958   1
  10  -1 -16 14.4365  5.4805   5
  10   1 -16 4.40357 5.15236   5
  10   1 -16 -4.1315  5.2234   2
 -10   1  16 -1.6733  3.7075   1
  -9  -1  16 6.68379 3.89020   1
   9   1 -16 3.90547 5.23276   5
   9   1 -16 5.78036 5.36250   2
  -9   1  16 13.8407  4.8900   1
   8  -1 -16 48.3287  8.4543   5
   8  -1 -16 54.2122  8.2370   2
  -8  -1  16 53.8922  7.7929   1
   8   1 -16 52.3947  7.9248   2
   8   1 -16 41.8902  7.7359   5
  -8   1  16 52.9930  8.0060   1
   7  -1 -16 9.95214 4.34236   1
   7  -1 -16 4.04136 4.21715   5
  -7  -1  16 17.0958  5.5153   1
   7  -1 -16 11.1397  5.3847   2
   7   1 -16 6.96450 5.11799   2
   7   1 -16 3.93290 3.46801   1
   7   1 -16 -2.0461  4.5413   5
   6  -1 -16 -5.7735  4.1613   5
  -6  -1  16 -2.7112  4.0597   1
   6  -1 -16 0.66199 4.24652   2
  -6   1  16 1.46609 3.73253   1
   6   1 -16 5.31809 4.68919   2
   6   1 -16 -1.7449  3.9217   5
   5  -1 -16 11.7631  4.7882   5
   5  -1 -16 19.8704  5.2617   1
  -5  -1  16 14.1585  4.3997   1
   5  -1 -16 11.0997  4.7939   2
   5   1 -16 24.2220  5.7023   1
  -5   1  16 12.4952  4.2317   1
   5   1 -16 13.1176  4.7929   5
  -4  -1  16 -0.7248  2.8469   1
   4  -1 -16 -1.9280  3.0477   2
   4  -1 -16 5.51834 3.73391   5
   4  -1 -16 0.19002 3.69853   1
   4   1 -16 -3.5718  3.9557   1
  -4   1  16 2.03509 3.58396   1
   4   1 -16 -2.5454  3.3628   5
   4   1 -16 -7.1636  4.4130   2
  -3  -1  16 12.5408  4.7949   1
   3  -1 -16 20.9487  4.7398   5
   3  -1 -16 22.0877  5.3550   2
   3   1 -16 12.9898  3.7151   5
   3   1 -16 4.47944 4.02760   2
  -3   1  16 7.65699 4.54158   1
   3   1 -16 3.79549 3.90255   1
  -2  -1  16 191.500  13.527   1
   2  -1 -16 204.012  12.617   2
   2  -1 -16 199.723  13.683   1
   2  -1 -16 179.334  10.872   5
  -2   1  16 203.062  13.717   1
   2   1 -16 196.028  11.607   5
   2   1 -16 182.418  12.771   1
   2   1 -16 196.238  12.282   2
   1  -1 -16 8.03347 4.56260   1
   1  -1 -16 9.85821 3.17088   5
   1  -1 -16 20.4379  5.3107   2
  -1  -1  16 12.7169  4.9015   1
  -1   1  16 20.3873  5.3757   1
   1   1 -16 19.0198  3.9860   5
   1   1 -16 11.2857  4.8261   1
   1   1 -16 15.1605  4.7656   2
   0  -1 -16 228.311  12.944   2
   0  -1  16 240.016  15.040   1
   0  -1 -16 222.283  10.096   5
   0  -1 -16 217.487  14.432   1
   0   1 -16 241.092  12.865   2
   0   1 -16 227.007  14.630   1
   0   1 -16 223.023  10.676   5
   0   1  16 234.621  14.881   1
  -1  -1 -16 16.6954  5.1672   1
  -1  -1 -16 9.25732 2.22537   5
  -1  -1 -16 7.92698 4.21026   2
   1  -1  16 14.6470  4.9030   1
  -1   1 -16 10.4924  4.9350   1
  -1   1 -16 8.25494 2.22701   5
   1   1  16 17.2321  5.1438   1
  -2  -1 -16 1.47423 3.44279   2
  -2  -1 -16 4.84903 3.34398   1
   2  -1  16 1.41395 3.59464   1
  -2   1 -16 3.24479 3.36341   2
  -2   1 -16 -2.7490  3.9470   1
   3  -1  16 41.2861  6.4344   1
  -3  -1 -16 40.4674  6.3903   2
  -3  -1 -16 34.9147  6.6786   1
  -3   1 -16 40.6183  5.7375   2
   3   1  16 32.0148  6.2580   1
  -3   1 -16 35.6859  6.5063   1
  -4  -1 -16 15.9622  4.8060   2
   4  -1  16 17.6433  5.2092   1
  -4  -1 -16 19.4865  5.4705   1
  -4   1 -16 22.1374  5.4891   1
   4   1  16 16.8377  4.7849   1
  -4   1 -16 18.8404  4.6484   2
   5  -1  16 9.19166 4.30349   1
  -5   1 -16 -1.7531  3.0221   2
  -5   1 -16 9.42965 4.83261   1
   5   1  16 -2.9501  3.3836   1
   6  -1  16 -6.1392  3.9882   1
   6   1  16 -2.8680  3.4019   1
  -6   1 -16 3.40042 3.86878   1
   6   1  16 7.59514 3.22974   1
  -7  -1 -16 42.5102  6.9286   1
  -7   1 -16 41.5276  6.8862   1
  -8  -1 -16 3.12248 3.79710   1
  -9  -1 -16 71.4613  8.2718   1
  -9   1 -16 58.0565  7.6417   1
 -10  -1 -16 131.798  10.689   1
 -10   1 -16 152.206  11.495   1
 -11  -2  16 31.5450  6.2035   1
  11  -2 -16 28.0919  6.2965   2
  11  -2 -16 37.3183  7.8688   5
  11   2 -16 32.6068  8.0793   2
  11   2 -16 38.1579  8.9963   5
 -11   2  16 28.7412  5.9463   1
  10  -2 -16 12.7253  5.4343   2
 -10  -2  16 9.62266 4.46195   1
  10   2 -16 10.4639  6.2001   5
  10   2 -16 7.74685 5.69074   2
 -10   2  16 10.5393  4.9718   1
   9  -2 -16 47.9528  8.7813   5
  -9  -2  16 49.5033  7.5074   1
   9  -2 -16 50.5949  8.0742   2
   9   2 -16 44.7999  8.6173   5
  -9   2  16 47.4180  7.6795   1
   9   2 -16 48.7556  8.7149   2
   8  -2 -16 27.5025  6.3149   5
  -8  -2  16 20.6260  5.7829   1
   8  -2 -16 25.2857  5.9097   2
   8   2 -16 28.4684  7.1167   2
  -8   2  16 16.7379  5.6599   1
   8   2 -16 29.2085  7.4937   5
   7  -2 -16 91.3504  9.6557   2
   7  -2 -16 80.8998  9.5512   5
   7  -2 -16 91.7553  9.6946   1
  -7  -2  16 84.9059  9.5723   1
  -7   2  16 87.0507  9.5727   1
   7   2 -16 98.2619  9.6375   1
   7   2 -16 91.9314 10.2643   2
   7   2 -16 92.7481 10.5121   5
   6  -2 -16 2.47741 3.91179   1
  -6  -2  16 6.78846 4.72631   1
   6  -2 -16 -3.8490  4.4486   2
  -6   2  16 10.1455  4.8053   1
   6   2 -16 2.22310 3.51131   1
  -5  -2  16 19.3108  5.4359   1
   5  -2 -16 14.6544  4.3191   2
   5  -2 -16 15.7535  5.1043   5
   5  -2 -16 16.8233  5.4686   1
   5   2 -16 12.3249  4.7982   1
  -5   2  16 18.5582  5.8159   1
   4  -2 -16 -3.4921  3.7324   5
   4  -2 -16 4.26753 4.14500   1
   4  -2 -16 -7.1178  4.5457   2
  -4  -2  16 -4.2004  4.3765   1
  -4   2  16 3.65902 4.14626   1
   4   2 -16 -2.6427  3.8703   1
   4   2 -16 0.80498 2.91825   2
   3  -2 -16 32.7841  6.5334   1
   3  -2 -16 49.4793  6.5314   5
   3  -2 -16 46.2191  6.3990   2
   3   2 -16 33.6395  6.3220   2
  -3   2  16 44.1060  6.9193   1
   3   2 -16 45.5152  7.3009   1
  -2  -2  16 14.3717  5.3102   1
   2  -2 -16 21.3507  5.3547   2
   2  -2 -16 15.9261  3.6105   5
   2   2 -16 21.6865  5.1323   2
  -2   2  16 14.3172  5.3415   1
  -2   2  16 15.1926  4.5475   1
   2   2 -16 9.44240 4.45387   1
   1  -2 -16 6.46559 2.85752   5
   1  -2 -16 -0.6575  2.9491   1
  -1  -2  16 4.06445 4.35391   1
   1  -2 -16 5.31670 3.65523   2
  -1   2  16 11.2302  4.9016   1
   1   2 -16 -4.1093  4.1843   1
   1   2 -16 -1.9904  3.6081   2
  -1   2  16 2.89528 3.84367   1
   0  -2  16 160.198  12.730   1
   0  -2 -16 135.902  11.661   1
   0  -2 -16 145.630  10.759   2
   0  -2 -16 151.133   8.414   5
   0   2 -16 156.907  10.398   2
   0   2  16 143.125  11.887   1
   0   2  16 142.954  11.864   1
   0   2 -16 156.184  12.413   1
   1  -2  16 53.2410  7.7138   1
  -1  -2 -16 46.4059  4.2328   5
  -1  -2 -16 49.8080  7.0935   2
  -1  -2 -16 46.7285  6.8954   1
   1   2  16 50.6086  7.5476   1
  -1   2 -16 62.8077  8.3569   1
  -1   2 -16 52.4765  4.9301   5
  -1   2 -16 47.5835  5.8500   2
   1   2  16 56.4530  7.7904   1
  -2  -2 -16 30.0932  6.3284   1
   2  -2  16 32.8294  6.5261   1
  -2  -2 -16 24.0047  5.0566   2
  -2   2 -16 31.4006  6.0707   1
  -2   2 -16 28.0123  5.0574   2
   2   2  16 32.3321  6.4534   1
   2   2  16 30.0908  5.6089   1
  -3  -2 -16 72.1963  8.3577   2
   3  -2  16 70.1605  8.3815   1
  -3  -2 -16 66.7485  8.7756   1
  -3   2 -16 62.4021  6.7731   2
   3   2  16 56.6095  7.4838   1
  -3   2 -16 81.2233  9.4383   1
  -4  -2 -16 15.5464  5.1794   1
  -4  -2 -16 6.51300 4.15184   2
   4  -2  16 17.9302  5.2775   1
  -4   2 -16 9.64226 4.10858   1
  -4   2 -16 7.96000 3.39241   2
   4   2  16 16.5910  5.0254   1
  -5  -2 -16 90.8335  9.8140   1
   5  -2  16 86.1432  9.3336   1
  -5   2 -16 81.4132  9.4214   1
  -5   2 -16 88.5566  7.9726   2
   5   2  16 78.1043  8.7996   1
  -6  -2 -16 9.89975 4.52728   1
  -6   2 -16 12.5954  4.7153   1
  -7  -2 -16 -5.2321  3.4822   1
  -7   2 -16 0.74304 2.84260   3
  -8  -2 -16 0.27220 3.26297   1
  -8   2 -16 1.73597 3.38718   1
  -8   2 -16 -4.7278  3.5284   3
  -9  -2 -16 44.2321  7.0355   1
  -9   2 -16 44.3003  6.9342   1
 -10  -2 -16 11.6577  4.3540   1
 -10   2 -16 24.7731  5.4437   1
  11  -3 -16 34.9097  8.2612   5
 -11  -3  16 13.5333  4.6589   1
  11  -3 -16 32.6434  7.0529   2
  11   3 -16 39.4454  9.2505   5
 -11   3  16 20.5152  5.6211   1
  11   3 -16 24.0653  6.5882   2
  10  -3 -16 14.9850  5.5811   2
 -10   3  16 5.60439 4.21088   1
  10   3 -16 5.80492 6.09528   5
  10   3 -16 0.84841 4.06453   2
   9  -3 -16 24.2825  7.0981   5
  -9  -3  16 23.0039  5.9449   1
  -9   3  16 12.2244  5.1070   1
   9   3 -16 39.8636  8.1445   2
  -8  -3  16 9.10393 4.81524   1
  -8   3  16 12.7662  5.2635   1
   8   3 -16 7.23335 5.55395   2
  -7  -3  16 -0.0203  2.8055   1
   7  -3 -16 1.54903 4.32149   2
   7  -3 -16 1.26853 3.56564   5
   7  -3 -16 -1.1908  3.5596   1
   7   3 -16 -3.8326  3.9112   1
  -7   3  16 7.03338 3.85317   1
   7   3 -16 -6.3986  5.5829   2
   6  -3 -16 34.0206  6.7748   1
  -6  -3  16 40.7366  7.5754   1
   6  -3 -16 28.4419  6.2511   2
   6  -3 -16 38.5691  7.1602   5
   6   3 -16 42.9946  6.8855   1
  -6   3  16 34.5760  6.8044   1
   6   3 -16 22.5805  5.5687   2
   5  -3 -16 35.7131  7.1013   1
   5  -3 -16 42.6764  6.9657   2
  -5  -3  16 23.8014  6.5751   1
   5  -3 -16 30.4319  6.0949   5
   5   3 -16 25.7807  5.6063   2
  -5   3  16 26.8511  6.6465   1
   5   3 -16 21.2303  5.6594   1
   4  -3 -16 0.93763 3.70890   5
   4  -3 -16 7.95733 4.47383   2
   4  -3 -16 7.02803 4.70116   1
  -4   3  16 -3.1861  3.9885   1
   4   3 -16 -3.1062  4.3194   2
   4   3 -16 10.0141  4.6499   1
   3  -3 -16 59.2228  7.7239   2
   3  -3 -16 56.0654  6.8164   5
  -3  -3  16 43.4895  7.4638   1
   3  -3 -16 43.2948  6.9271   1
   3   3 -16 47.6155  7.1609   2
  -3   3  16 61.9209  8.5578   1
   3   3 -16 57.1918  7.6819   1
   2  -3 -16 37.1755  6.4530   2
   2  -3 -16 25.7493  6.1601   1
   2  -3 -16 37.1491  5.4629   5
  -2  -3  16 26.8968  6.5152   1
  -2   3  16 27.5399  6.4446   1
   2   3 -16 30.5022  5.7661   2
   2   3 -16 20.6210  5.7066   1
   1  -3 -16 68.2440  7.7229   2
   1  -3 -16 57.7848  6.0504   5
  -1  -3  16 68.6321  8.7825   1
   1  -3 -16 68.1638  8.7149   1
   1   3 -16 65.9675  7.3085   2
   1   3 -16 53.5017  7.8604   1
  -1   3  16 74.5655  9.1699   1
   0  -3 -16 68.7859  5.9071   5
   0  -3 -16 62.3435  8.1356   1
   0  -3 -16 76.2330  8.5550   2
   0  -3  16 52.0386  8.0881   1
   0   3 -16 67.1192  8.2546   1
   0   3  16 58.6411  8.2711   1
   0   3 -16 81.9206  7.9030   2
   1  -3  16 36.9200  6.9593   1
  -1  -3 -16 30.8093  3.7803   5
  -1  -3 -16 30.5602  6.4201   1
  -1  -3 -16 42.7029  7.0138   2
  -1   3 -16 27.2815  5.2408   2
   1   3  16 32.4862  6.4719   1
  -1   3 -16 29.9784  5.9761   1
   2  -3  16 82.7165  9.1925   1
  -2  -3 -16 68.2617  8.0520   2
  -2  -3 -16 82.9642  9.7234   1
  -2   3 -16 69.8534  7.0378   2
   2   3  16 65.1038  8.5265   1
  -2   3 -16 80.4081  9.4585   1
  -3  -3 -16 3.27745 3.43119   1
   3  -3  16 -5.6240  4.3421   1
  -3   3 -16 13.2065  5.2269   1
  -3   3 -16 4.04438 3.03248   2
   4  -3  16 3.23617 3.00625   1
  -4   3 -16 7.53861 3.20211   2
  -4   3 -16 16.6551  5.5278   1
  -5  -3 -16 55.9064  8.0871   1
   5  -3  16 53.7957  7.6154   1
   5   3  16 54.8264  7.6322   1
  -5   3 -16 44.1449  7.2044   1
  -6  -3 -16 3.08449 3.93183   1
  -6   3 -16 1.73634 3.65052   1
  -7  -3 -16 15.8883  4.9421   1
  -7   3 -16 11.4567  4.8439   1
  -8   3 -16 17.2770  4.8299   1
  -9  -3 -16 62.3098  7.9146   1
  -9   3 -16 65.5093  8.3315   1
 -10  -3 -16 3.77207 3.46171   1
 -10   3 -16 -0.8998  3.1938   1
  11  -4 -16 8.80809 5.92026   5
 -11   4  16 5.36028 3.74228   1
  10  -4 -16 -0.8490  3.0712   2
  10  -4 -16 -6.2966  5.6740   5
 -10  -4  16 -2.7197  3.5168   1
 -10   4  16 -5.6436  4.2495   1
  10   4 -16 0.69482 5.18599   2
  -9  -4  16 -1.5021  3.4613   1
   9  -4 -16 -7.2454  4.7701   2
   9  -4 -16 1.25015 4.93224   5
   9   4 -16 -9.0626  4.6905   2
  -9   4  16 -2.0838  3.2086   1
   8  -4 -16 24.8736  6.7101   5
  -8  -4  16 32.9574  6.8044   1
   8  -4 -16 23.7192  5.3723   2
   8   4 -16 23.5182  7.0759   2
  -8   4  16 23.3611  6.2495   1
  -7  -4  16 89.6486 10.2452   1
   7  -4 -16 79.2109  9.2158   2
   7  -4 -16 87.5820 10.4262   5
   7  -4 -16 96.3741 10.5041   1
  -7   4  16 80.7288  9.6290   1
   7   4 -16 89.6197 10.6321   2
   7   4 -16 97.6153  9.9997   1
   6  -4 -16 111.539  11.039   5
   6  -4 -16 90.2524  9.6932   2
  -6  -4  16 88.6055 10.1205   1
   6  -4 -16 101.892  10.745   1
   6   4 -16 92.4840 10.5046   2
  -6   4  16 108.864  11.252   1
   6   4 -16 119.903  11.131   1
   5  -4 -16 112.366  10.294   5
   5  -4 -16 104.753   9.744   2
  -5  -4  16 111.306  10.866   1
   5  -4 -16 112.383  11.417   1
   5   4 -16 109.913  10.847   2
   5   4 -16 99.2391 10.2611   1
  -5   4  16 118.425  11.967   1
   4  -4 -16 138.016  12.519   1
  -4  -4  16 127.016  11.679   1
   4  -4 -16 141.888  11.420   2
   4  -4 -16 129.751  10.765   5
   4   4 -16 137.042  11.270   2
   4   4 -16 134.429  11.781   1
  -4   4  16 158.149  13.114   1
  -3  -4  16 6.98705 5.05385   1
   3  -4 -16 -9.8645  4.7506   2
   3  -4 -16 -4.4055  3.7924   5
   3  -4 -16 2.38728 3.27656   1
   3   4 -16 4.46589 4.62227   1
  -3   4  16 -3.3864  4.3729   1
   2  -4 -16 40.0833  7.3687   1
   2  -4 -16 40.2849  5.8972   5
  -2  -4  16 41.6032  7.4619   1
   2   4 -16 25.8292  6.1385   1
   2   4 -16 40.5097  6.0194   2
  -2   4  16 40.1402  7.3057   1
   1  -4 -16 12.2678  5.1121   2
   1  -4 -16 9.41469 2.86333   5
   1   4 -16 14.5059  4.6228   2
   1   4 -16 7.16403 4.92849   1
  -1   4  16 2.18426 4.12509   1
   0  -4  16 354.590  19.298   1
   0  -4 -16 332.965  18.613   1
   0  -4 -16 344.451  17.654   2
   0  -4 -16 338.613  13.479   5
   0   4  16 349.274  18.889   1
   0   4 -16 354.797  19.122   1
   0   4 -16 331.053  15.152   2
  -1  -4 -16 199.447  14.634   1
   1  -4  16 202.285  14.719   1
  -1  -4 -16 199.577  13.798   2
  -1   4 -16 202.462  14.517   1
  -1   4 -16 186.706  11.051   2
   1   4  16 212.171  14.818   1
  -2  -4 -16 76.8965  9.2435   2
  -2  -4 -16 49.7773  8.0264   1
  -2   4 -16 49.1830  5.8991   2
  -2   4 -16 57.2621  8.1807   1
   2   4  16 70.4454  8.6612   1
   3  -4  16 183.731  13.671   1
  -3  -4 -16 177.112  13.624   1
  -3   4 -16 183.117  14.005   1
   3   4  16 182.675  13.664   1
  -3   4 -16 184.305  10.497   2
   4  -4  16 129.533  11.786   1
  -4  -4 -16 122.005  11.539   1
  -4   4 -16 116.756  11.416   1
   4   4  16 118.619  10.997   1
  -5  -4 -16 46.3377  7.9174   1
   5  -4  16 30.1686  6.3383   1
  -5   4 -16 40.2981  7.4387   1
   5   4  16 28.2347  5.6580   1
   6  -4  16 20.3346  5.7046   1
  -6  -4 -16 17.7311  5.4485   1
  -6   4 -16 19.7735  5.8714   1
  -7  -4 -16 70.3542  9.0901   1
  -7   4 -16 83.4493  9.6943   1
  -8  -4 -16 29.8845  5.9622   1
  -8   4 -16 30.7102  6.4996   1
  -9  -4 -16 0.88300 3.06228   1
  -9   4 -16 -0.8349  3.3306   1
 -10  -4 -16 51.7537  7.3582   1
 -10   4 -16 37.0674  6.6223   1
  10  -5 -16 17.5635  5.7302   2
 -10  -5  16 15.9534  5.1677   1
 -10   5  16 14.5498  5.5918   1
  10   5 -16 23.2889  7.3316   2
  -9  -5  16 17.6883  5.7643   1
   9  -5 -16 27.8973  5.8192   2
   9  -5 -16 25.5647  6.4913   5
  -9   5  16 25.2503  6.8207   1
   9   5 -16 17.9611  6.2341   2
   8  -5 -16 22.7829  6.7951   5
  -8  -5  16 27.6933  6.5685   1
   8  -5 -16 14.4785  5.3066   2
  -8   5  16 29.6847  6.3782   1
   8   5 -16 29.6181  7.5689   2
   7  -5 -16 6.44778 4.52041   1
   7  -5 -16 7.86060 4.69426   2
   7  -5 -16 8.78201 5.32221   5
  -7  -5  16 5.11619 4.75001   1
   7   5 -16 6.48685 5.75663   2
  -7   5  16 20.6752  6.3712   1
  -6  -5  16 5.25989 3.80852   1
   6  -5 -16 4.52902 4.40309   5
   6  -5 -16 1.13886 3.91741   2
   6  -5 -16 2.45724 4.15865   1
   6   5 -16 -6.5360  5.3809   2
   6   5 -16 3.83098 3.97834   1
   5  -5 -16 48.9107  7.1256   5
  -5  -5  16 53.8596  8.1730   1
   5  -5 -16 56.0251  7.9944   2
   5  -5 -16 46.2680  8.1145   1
   5   5 -16 49.9328  8.0602   2
  -5   5  16 61.3291  9.3414   1
   5   5 -16 41.1925  7.2497   1
  -4  -5  16 66.6085  8.7089   1
   4  -5 -16 68.9493  9.5903   1
   4  -5 -16 70.6731  8.3880   5
   4  -5 -16 49.8192  7.6991   2
   4   5 -16 67.6856  8.6606   2
   4   5 -16 66.4911  8.9380   1
  -4   5  16 65.1863  9.3096   1
   3  -5 -16 2.97913 3.70606   5
  -3  -5  16 14.6152  5.7867   1
   3   5 -16 7.10014 4.85177   1
  -3   5  16 4.70507 4.88938   1
   3   5 -16 13.1038  4.7837   2
   2  -5 -16 170.086  12.679   2
   2  -5 -16 158.697  13.575   1
  -2  -5  16 150.289  13.145   1
   2  -5 -16 158.284  10.813   5
  -2   5  16 153.746  13.345   1
   2   5 -16 145.347  12.479   1
   2   5 -16 161.697  11.478   2
  -1  -5  16 21.1291  6.1759   1
   1  -5 -16 6.62832 4.87297   2
   1  -5 -16 10.2132  3.6162   5
   1   5 -16 17.9453  4.8002   2
  -1   5  16 5.45525 4.66413   1
   1   5 -16 10.6797  5.1884   1
   0  -5  16 3.38760 4.94314   1
   0  -5 -16 -0.8458  4.2022   2
   0  -5 -16 -3.5867  2.7961   5
   0  -5 -16 -11.415   5.657   1
   0   5  16 1.89353 4.76299   1
   0   5 -16 -6.9684  5.3795   1
   1  -5  16 89.4802 10.5024   1
  -1  -5 -16 90.8720 10.7663   1
  -1  -5 -16 93.4419 10.1265   2
   1   5  16 96.6002 10.7995   1
  -1   5 -16 90.2349 10.6386   1
  -1   5 -16 82.8687  7.7507   2
  -2  -5 -16 14.7185  5.9668   1
  -2  -5 -16 0.82064 4.22919   2
   2   5  16 8.32270 3.98772   1
  -2   5 -16 5.98541 2.87054   2
   3  -5  16 58.8305  8.5993   1
  -3  -5 -16 67.4035  9.4036   1
  -3   5 -16 52.9430  8.3410   1
   3   5  16 75.3267  9.4348   1
   4  -5  16 -0.5049  3.9885   1
  -4  -5 -16 -7.0514  4.6423   1
  -4   5 -16 -0.6053  4.4756   1
  -5  -5 -16 2.77614 4.24492   1
  -5   5 -16 -3.7904  4.4649   1
  -6  -5 -16 50.8003  7.8154   1
  -6   5 -16 39.6672  7.6245   1
  -7  -5 -16 2.88671 4.23667   1
  -7   5 -16 5.08667 4.91724   1
  -8  -5 -16 103.959  10.588   1
  -8   5 -16 91.7871 10.1546   1
  -9  -5 -16 37.2963  6.7435   1
  -9   5 -16 32.1621  6.5681   1
 -10  -6  16 42.3468  7.7132   1
  10  -6 -16 40.7195  8.7583   5
  10  -6 -16 42.3370  7.5499   2
 -10   6  16 43.7563  7.7997   1
   9  -6 -16 40.7637  7.2924   2
   9  -6 -16 51.1285  9.3207   5
  -9  -6  16 33.3425  7.0900   1
   9   6 -16 40.5676  7.8621   2
  -9   6  16 42.9836  8.0597   1
  -8  -6  16 6.50073 4.69280   1
   8  -6 -16 -1.1673  4.5435   5
   8  -6 -16 2.30491 4.26413   2
   8   6 -16 8.10760 5.82977   2
  -8   6  16 7.47437 5.15122   1
  -7  -6  16 107.476  11.492   1
   7  -6 -16 92.6368  9.8305   2
   7  -6 -16 92.1403 10.6961   1
   7  -6 -16 117.393  12.233   5
   7   6 -16 94.4401 11.1708   2
  -7   6  16 93.5540 11.3445   1
   6  -6 -16 62.6237  8.4681   5
   6  -6 -16 57.3502  7.7840   2
   6  -6 -16 61.0836  8.7133   1
  -6   6  16 52.8053  8.8766   1
   6   6 -16 73.5686  9.3987   1
   6   6 -16 58.7544  8.9379   2
  -5  -6  16 12.9788  4.8580   1
   5  -6 -16 -1.5625  3.7722   1
   5  -6 -16 -1.1364  3.1194   5
   5   6 -16 3.85890 4.55215   1
  -5   6  16 1.38761 4.69275   1
   4  -6 -16 -2.3400  4.3488   2
  -4  -6  16 -5.1789  4.8596   1
   4  -6 -16 -5.9830  4.3871   5
   4   6 -16 -0.2475  4.3918   2
  -4   6  16 -5.8123  5.2731   1
   4   6 -16 -5.8023  4.8280   1
   3  -6 -16 18.5573  6.2617   1
   3  -6 -16 8.87068 5.09770   2
   3  -6 -16 5.31176 3.98064   5
  -3  -6  16 17.1724  6.1991   1
   3   6 -16 1.27228 4.41226   1
   3   6 -16 4.45064 4.46272   2
  -3   6  16 3.80287 3.72728   1
   2  -6 -16 4.78299 4.56250   2
   2  -6 -16 9.89327 4.01431   5
   2  -6 -16 19.3816  6.3145   1
  -2  -6  16 12.3380  4.7453   1
   2   6 -16 3.80990 3.98082   2
   1  -6 -16 14.9156  4.1802   5
   1  -6 -16 15.4381  6.0436   1
   1  -6 -16 5.30470 4.30359   2
   1   6 -16 9.69373 5.05536   1
  -1   6  16 24.8457  6.7478   1
   0  -6  16 59.1168  9.0876   1
   0  -6 -16 55.5198  8.4879   2
   0  -6 -16 52.0471  6.0727   5
   0  -6 -16 82.4662 10.3657   1
   0   6  16 50.5589  8.5390   1
   0   6 -16 64.6379  7.1595   2
  -1  -6 -16 1.31336 4.62356   2
   1  -6  16 2.18102 4.64354   1
  -1   6 -16 5.06149 5.40815   1
  -1   6 -16 2.52481 2.95997   2
   1   6  16 3.99636 4.78815   1
  -2  -6 -16 123.415  12.498   1
   2  -6  16 129.749  12.603   1
  -2   6 -16 122.328  12.098   1
   2   6  16 136.092  12.563   1
   3  -6  16 169.623  13.796   1
  -3  -6 -16 158.719  13.847   1
  -3   6 -16 182.209  14.955   1
   3   6  16 174.066  14.094   1
  -4  -6 -16 1.44931 4.14017   1
   4  -6  16 3.47691 4.37237   1
   4   6  16 3.03399 3.34777   1
  -5  -6 -16 3.27795 4.67958   1
  -5   6 -16 15.8796  6.2229   1
   5   6  16 -1.1521  2.8201   1
  -6  -6 -16 94.2214 10.7518   1
  -6   6 -16 76.2608 10.0970   1
  -7  -6 -16 21.4737  6.0422   1
  -7   6 -16 4.65527 4.84717   1
  -8  -6 -16 -10.968   5.357   1
  -8   6 -16 1.39120 3.48501   1
   9  -7 -16 16.7999  5.7732   5
  -9  -7  16 22.7997  6.5476   1
   9   7 -16 5.20954 5.78033   2
   8  -7 -16 26.4381  6.2361   2
   8  -7 -16 17.5034  6.6161   5
   8   7 -16 18.2014  6.8976   2
  -8   7  16 6.68941 4.90918   1
  -7  -7  16 8.82018 5.31867   1
   7  -7 -16 13.1819  5.1507   2
   7  -7 -16 8.19087 5.03660   5
  -7   7  16 20.5753  6.4414   1
   7   7 -16 6.45151 5.06845   2
   6  -7 -16 0.75292 4.29805   2
   6  -7 -16 14.0561  5.6607   5
   6   7 -16 12.5795  5.3060   1
   6   7 -16 1.30759 4.96065   2
  -6   7  16 -2.9727  4.4779   1
   5  -7 -16 45.2935  7.7301   2
  -5  -7  16 51.5472  8.7596   1
   5  -7 -16 41.9910  7.6033   5
   5  -7 -16 44.1612  8.5733   1
   5   7 -16 49.3263  8.1082   2
   5   7 -16 59.1001  8.9693   1
  -5   7  16 37.2248  7.5038   1
   4  -7 -16 63.7751  7.9875   5
   4  -7 -16 61.9966  9.2433   1
   4  -7 -16 60.1818  8.4164   2
  -4  -7  16 66.1861  9.7561   1
   4   7 -16 62.8171  8.6528   2
   4   7 -16 43.2425  8.1944   1
  -4   7  16 66.0893 10.1208   1
  -3  -7  16 4.44822 3.87424   1
   3  -7 -16 -7.3290  5.0322   2
   3  -7 -16 1.35559 3.54293   5
   3   7 -16 0.18935 4.13770   1
   3   7 -16 3.72680 4.26352   2
  -3   7  16 -5.1175  5.1730   1
   2  -7 -16 1.27004 4.65698   2
  -2  -7  16 -0.3974  4.8113   1
   2   7 -16 8.58763 5.47528   1
  -2   7  16 7.53939 5.30267   1
   2   7 -16 12.0060  4.5914   2
  -1  -7  16 24.4351  6.4542   1
   1  -7 -16 11.9628  5.1994   2
   1  -7 -16 21.4319  4.6210   5
   1  -7 -16 23.0586  6.0878   1
   1   7 -16 25.0494  5.3562   2
   1   7 -16 13.7645  5.7993   1
  -1   7  16 23.4051  7.0379   1
   0  -7 -16 4.72016 5.10422   2
   0  -7 -16 0.56540 2.82740   5
   0  -7 -16 -1.3409  3.2843   1
   0  -7  16 -0.4321  3.3224   1
   0   7  16 -8.4240  5.1806   1
   0   7 -16 5.19762 5.21626   1
  -1  -7 -16 11.9289  4.8999   1
   1  -7  16 18.5812  5.6449   1
  -1   7 -16 19.2261  6.5489   1
   1   7  16 6.66599 5.30583   1
   2  -7  16 15.8509  5.8579   1
  -2  -7 -16 28.7896  7.5416   1
   2   7  16 25.1557  6.6263   1
  -2   7 -16 15.9659  6.1170   1
   3  -7  16 58.7718  9.2493   1
  -3  -7 -16 59.5378  9.2292   1
  -3   7 -16 43.9262  8.4119   1
   3   7  16 63.4797  9.3120   1
   4  -7  16 8.03499 4.15018   1
  -4  -7 -16 4.15804 5.31029   1
   4   7  16 17.5533  5.7657   1
  -5  -7 -16 144.459  13.692   1
   5  -7  16 145.847  13.524   1
  -5   7 -16 144.474  13.536   1
  -6  -7 -16 6.60720 5.39087   1
  -6   7 -16 14.3838  5.8285   1
  -7  -7 -16 46.0723  8.3015   1
  -7   7 -16 35.4819  7.1288   1
  -8   7 -16 18.3142  6.2943   1
  -8  -8  16 12.3784  5.8288   1
   8  -8 -16 27.5735  7.6058   5
   8   8 -16 3.08615 5.01711   2
  -8   8  16 1.65106 5.24298   1
   7  -8 -16 22.9535  6.9295   5
   7  -8 -16 36.7566  7.3062   2
  -7  -8  16 40.5785  8.3062   1
  -7   8  16 31.8665  8.0347   1
   7   8 -16 51.3514  9.1759   2
   6  -8 -16 6.52851 4.86525   2
   6  -8 -16 -0.5606  3.3160   1
   6  -8 -16 -6.5975  5.4383   5
  -6  -8  16 -7.4640  4.9634   1
   5  -8 -16 -5.4691  5.4292   1
   5  -8 -16 7.87002 5.12058   5
   5  -8 -16 16.5207  6.1546   2
   5   8 -16 17.7013  6.2485   1
  -5   8  16 5.53353 5.83583   1
   4  -8 -16 16.9198  5.5715   5
   4  -8 -16 3.82025 5.19852   1
  -4  -8  16 6.68099 5.60972   1
   4  -8 -16 5.33896 4.93016   2
   4   8 -16 1.02210 4.74311   1
   4   8 -16 6.07954 5.00010   2
  -4   8  16 9.32436 5.72936   1
   3  -8 -16 35.8814  7.3966   2
  -3  -8  16 29.8070  7.7000   1
   3  -8 -16 22.1268  5.7609   5
   3  -8 -16 37.2231  7.6709   1
  -3   8  16 38.5710  8.4736   1
   3   8 -16 30.6026  6.8078   1
   3   8 -16 32.2532  5.9807   2
   2  -8 -16 31.7058  5.8202   5
  -2  -8  16 28.4901  7.2090   1
   2  -8 -16 28.3812  7.6502   1
   2  -8 -16 24.0073  5.9657   2
   2   8 -16 37.1781  7.9479   1
   2   8 -16 35.9699  6.4739   2
  -2   8  16 23.2369  6.3560   1
   1  -8 -16 74.9070 10.8350   1
  -1  -8  16 56.8360  9.1910   1
   1  -8 -16 56.0054  7.1992   5
  -1   8  16 56.8591  9.2492   1
   1   8 -16 53.7944  8.9910   1
   1   8 -16 59.7155  7.4561   2
   0  -8 -16 6.70681 3.08772   5
   0  -8  16 9.50961 5.65663   1
   0   8  16 7.45205 5.05197   1
   0   8 -16 4.08163 3.97933   1
   1  -8  16 57.6301  9.3641   1
  -1  -8 -16 49.1367  9.2163   1
   1   8  16 65.8297  9.4784   1
  -1   8 -16 60.9926  9.2748   1
   2  -8  16 25.2080  6.4413   1
  -2  -8 -16 19.3378  5.9197   1
  -2   8 -16 19.3245  6.7169   1
  -3  -8 -16 165.877  15.316   1
   3  -8  16 162.827  14.729   1
   3   8  16 170.119  14.951   1
  -3   8 -16 199.059  16.333   1
  -4  -8 -16 19.1319  6.6854   1
   4  -8  16 29.0388  7.3367   1
  -4   8 -16 26.4155  6.6316   1
   4   8  16 15.4588  6.1485   1
  -5  -8 -16 15.0651  5.5819   1
  -5   8 -16 14.6238  6.3656   1
  -6  -8 -16 -0.3233  4.0470   1
  -6   8 -16 17.5565  6.8530   1
  -7  -8 -16 64.7076  9.7773   1
  -7   8 -16 66.3933 10.1898   1
  -7  -9  16 19.9470  6.3984   1
   7  -9 -16 31.8017  7.6900   5
   7  -9 -16 23.6091  6.1865   2
   7   9 -16 21.5858  7.0860   2
  -7   9  16 15.8509  6.7189   1
   6  -9 -16 1.49536 3.99300   2
   6  -9 -16 10.9071  6.3143   1
   6  -9 -16 -0.5478  4.5217   5
  -6  -9  16 1.45513 3.80040   1
   6   9 -16 -8.9371  5.5911   2
   5  -9 -16 36.0291  6.9553   2
   5  -9 -16 37.1824  8.5263   1
   5  -9 -16 48.2239  8.5189   5
  -5  -9  16 46.0793  8.3504   1
  -5   9  16 42.2453  8.6824   1
   5   9 -16 47.8006  8.7556   1
   5   9 -16 53.1758  8.6825   2
  -4  -9  16 40.7337  8.6921   1
   4  -9 -16 32.9041  6.6371   5
   4  -9 -16 43.0284  8.3037   1
   4  -9 -16 47.3812  7.9980   2
  -4   9  16 51.4531  9.8264   1
   4   9 -16 45.4885  7.8571   2
   4   9 -16 34.9517  8.2378   1
  -3  -9  16 -4.3164  5.5359   1
   3  -9 -16 5.71188 4.64891   5
   3   9 -16 8.52621 5.31557   1
   3   9 -16 15.8933  5.1759   2
  -3   9  16 -4.5455  5.3297   1
   2  -9 -16 42.9169  9.0391   1
   2  -9 -16 32.4802  7.1740   5
  -2  -9  16 47.3408  9.0619   1
   2   9 -16 54.2502  7.6214   2
   2   9 -16 51.8580  9.2438   1
  -2   9  16 54.2453  9.8779   1
   1  -9 -16 16.4582  4.9747   5
   0  -9  16 7.62489 5.63613   1
   0  -9 -16 -0.8382  2.8007   5
   0  -9 -16 2.21257 4.35244   1
   0   9 -16 2.59911 3.90558   1
   0   9  16 -2.8724  5.3767   1
  -1  -9 -16 20.1462  7.1951   1
  -1   9 -16 7.38394 4.85164   1
   1   9  16 12.2904  6.1880   1
   2  -9  16 22.5024  6.6028   1
  -2  -9 -16 32.7604  8.3215   1
  -3  -9 -16 20.4819  6.3110   1
   3  -9  16 16.3870  6.4724   1
  -3   9 -16 10.1827  6.5724   1
   3   9  16 37.2519  8.2132   1
  -4  -9 -16 11.0345  6.2178   1
   4  -9  16 -4.7961  5.1618   1
  -4   9 -16 5.19619 4.53641   1
   4   9  16 -0.2299  3.0487   1
  -5  -9 -16 17.7594  6.7178   1
   5  -9  16 -0.7730  4.5166   1
  -5   9 -16 5.18668 5.70111   1
   5 -10 -16 11.4191  5.4048   5
   5 -10 -16 7.78214 5.15338   1
   5  10 -16 2.70863 5.33616   1
   5  10 -16 -8.3523  5.0131   2
   4 -10 -16 12.9116  5.7160   5
  -4 -10  16 7.52372 6.07238   1
   4  10 -16 13.1988  5.0248   2
   4  10 -16 7.46721 5.66833   1
  -4  10  16 19.8688  7.5522   1
   3 -10 -16 6.23432 4.73204   1
  -3 -10  16 -1.8834  4.9016   1
   3  10 -16 7.02570 4.91195   1
  -3  10  16 6.38749 5.64160   1
  -2 -10  16 22.9610  7.2982   1
   2  10 -16 9.51981 5.97029   1
  -2  10  16 6.03461 4.57725   1
   1 -10 -16 7.14879 5.95021   1
  -1 -10  16 4.03170 4.60097   1
  -1  10  16 3.50966 5.20088   1
   1  10 -16 7.13011 5.69310   1
   0 -10  16 3.50771 4.09781   1
   0  10  16 3.62643 5.10915   1
   0  10 -16 10.1796  6.3680   1
   1 -10  16 -5.5368  4.4951   1
  -1 -10 -16 -11.020   6.621   1
   1  10  16 -3.1730  4.1226   1
  -1  10 -16 -10.360   6.492   1
   2 -10  16 50.0284  9.4383   1
  -2 -10 -16 44.3007  8.8074   1
   2  10  16 69.3602 10.7533   1
  -2  10 -16 62.1544 10.5939   1
  -3 -10 -16 -1.0391  5.5448   1
   3 -10  16 1.05733 4.98191   1
  -3  10 -16 17.2038  7.1885   1
   3  10  16 -8.7693  5.6500   1
  11   0 -17 -5.2876  4.1671   2
  11   0 -17 -1.3705  3.7324   5
 -11   0  17 -1.9449  3.3040   1
  10   0 -17 -8.5531  5.7333   5
 -10   0  17 1.04061 3.63674   1
  10   0 -17 -3.9766  4.6396   2
   9   0 -17 69.8807 10.3109   5
   9   0 -17 70.1651  9.9245   2
  -9   0  17 68.9059  9.1094   1
   8   0 -17 9.35480 5.64002   5
   8   0 -17 -2.8398  3.7290   2
  -8   0  17 -5.6588  4.1307   1
   7   0 -17 -3.4872  3.5397   1
   7   0 -17 -6.5636  3.8737   5
   6   0 -17 -2.5546  3.6285   1
   6   0 -17 6.64757 5.04048   2
  -6   0  17 -4.7368  4.5131   1
   6   0 -17 3.88202 3.79185   5
  -5   0  17 -7.3613  4.5639   1
   5   0 -17 5.01546 4.69594   2
   5   0 -17 6.24068 4.35432   1
   4   0 -17 -5.2269  4.1486   1
   4   0 -17 0.90634 2.98153   2
   4   0 -17 6.53168 3.88662   5
  -3   0  17 -7.2326  4.2527   1
   3   0 -17 -5.5553  4.1800   1
   3   0 -17 -5.8160  4.6925   2
   2   0 -17 0.90633 3.82727   2
   2   0 -17 1.98470 2.81492   5
  -2   0  17 -0.4826  4.0261   1
   2   0 -17 -2.4006  4.1448   1
   1   0 -17 38.8948  6.5738   2
   1   0 -17 33.7582  4.8815   5
   1   0 -17 28.2425  6.5449   1
  -1   0  17 32.2573  6.2441   1
   0   0 -17 -1.8239  4.0271   2
   0   0 -17 2.15811 2.01260   5
   0   0 -17 1.35322 3.92350   1
   0   0  17 1.29562 3.46918   1
  -1   0 -17 -1.3152  3.8202   2
  -1   0 -17 5.78749 4.29455   1
   1   0  17 -1.4056  2.9212   1
  -2   0 -17 5.78933 4.32692   1
   2   0  17 -5.5863  4.2027   1
  -2   0 -17 -2.1799  2.6192   2
  -3   0 -17 14.0897  4.4639   1
  -3   0 -17 12.2427  4.3532   2
   3   0  17 12.6140  5.0331   1
   4   0  17 1.82127 3.98299   1
   5   0  17 270.851  16.269   1
  -5   0 -17 252.129  16.214   1
  -6   0 -17 4.63730 4.10533   1
  -8   0 -17 1.45076 3.44758   1
  -9   0 -17 112.813  10.638   1
 -10   0 -17 0.76990 3.03441   1
 -11  -1  17 5.45445 4.04482   1
  11  -1 -17 5.42871 5.36800   2
  11  -1 -17 7.54085 5.41965   5
  11   1 -17 6.03240 5.66512   5
 -11   1  17 3.28132 3.87453   1
  10  -1 -17 6.46075 5.40216   5
 -10  -1  17 -1.0695  3.3159   1
  10  -1 -17 -7.8600  4.5181   2
  10   1 -17 -2.6810  4.5267   5
  10   1 -17 -0.0358  5.1814   2
 -10   1  17 -8.0463  4.9333   1
   9  -1 -17 8.39382 5.42452   2
  -9  -1  17 3.97097 4.43565   1
   9  -1 -17 0.27523 4.36959   5
  -9   1  17 -1.1726  4.1508   1
   9   1 -17 13.1103  6.2596   5
  -8  -1  17 5.88030 4.52241   1
   8  -1 -17 3.16863 3.78248   5
   8  -1 -17 0.07332 3.41619   2
  -8   1  17 7.68323 4.57756   1
   8   1 -17 8.98567 5.46198   5
   7  -1 -17 -10.625   5.471   2
   7  -1 -17 -0.6322  2.7258   1
   7  -1 -17 0.92211 4.03422   5
  -7  -1  17 -0.8304  2.7705   1
   7   1 -17 -5.3254  4.8762   5
   7   1 -17 4.76614 5.19474   2
   7   1 -17 2.50416 3.68662   1
  -7   1  17 -1.1779  4.1018   1
  -6  -1  17 21.0134  6.0853   1
   6  -1 -17 12.9807  5.6809   2
   6  -1 -17 15.0166  5.2185   5
   6  -1 -17 30.3034  6.4993   1
   6   1 -17 19.3255  5.1295   5
   6   1 -17 18.7457  6.0289   2
   6   1 -17 21.6733  5.0800   1
  -6   1  17 23.4912  5.5382   1
  -5  -1  17 21.9344  6.0683   1
   5  -1 -17 22.8125  6.2266   2
   5  -1 -17 35.4493  6.9648   1
   5  -1 -17 29.4700  5.9580   5
  -5   1  17 21.3357  6.0601   1
   5   1 -17 26.5092  6.3622   2
   5   1 -17 28.9869  6.0522   1
   5   1 -17 17.7611  5.2333   5
   4  -1 -17 -4.7011  3.7714   5
   4  -1 -17 -10.669   4.906   1
   4   1 -17 -2.0129  3.0411   1
   4   1 -17 2.46956 3.32334   5
  -4   1  17 -3.2303  4.4979   1
   4   1 -17 -9.0616  3.9759   2
   3  -1 -17 22.3741  5.8803   2
  -3  -1  17 21.7446  5.4073   1
   3  -1 -17 15.8310  4.6536   1
   3  -1 -17 30.7052  5.4809   5
  -3   1  17 11.0568  5.0620   1
   3   1 -17 18.0166  4.6839   5
   3   1 -17 28.6556  6.4738   1
   3   1 -17 23.9819  5.9285   2
  -2  -1  17 8.75539 4.94003   1
   2  -1 -17 2.13308 4.05985   1
   2  -1 -17 -4.6890  3.0994   5
   2   1 -17 3.87295 4.16984   1
   2   1 -17 2.47284 4.12419   2
   2   1 -17 1.74132 2.85991   5
   1  -1 -17 207.752  14.649   1
  -1  -1  17 222.015  15.038   1
   1  -1 -17 215.750  13.391   2
   1  -1 -17 192.589  10.619   5
   1   1 -17 205.541  12.827   2
  -1   1  17 205.580  14.243   1
   1   1 -17 212.278  11.602   5
   1   1 -17 217.252  14.819   1
   0  -1 -17 2.27102 4.08518   2
   0  -1 -17 0.52068 1.92871   5
   0  -1  17 -2.2175  3.0224   1
   0  -1 -17 -4.3054  4.0372   1
   0   1  17 0.46312 3.22068   1
   0   1 -17 5.72923 4.50705   1
  -1  -1 -17 168.493  11.590   2
  -1  -1 -17 182.848  13.736   1
   1  -1  17 172.359  13.030   1
  -1   1 -17 194.815  14.067   1
   1   1  17 169.112  12.848   1
  -1   1 -17 171.162  11.506   2
  -2  -1 -17 0.22621 3.42470   2
  -2  -1 -17 -0.6534  3.8289   1
   2  -1  17 -2.1521  3.7549   1
   2   1  17 9.18007 4.69585   1
  -2   1 -17 -0.1133  3.7649   1
  -2   1 -17 1.18418 3.13334   2
  -3  -1 -17 50.4584  7.3275   2
   3  -1  17 48.2990  7.7419   1
  -3  -1 -17 47.3693  7.2229   1
  -3   1 -17 55.2507  7.6773   1
   3   1  17 52.8792  7.9567   1
  -3   1 -17 48.0413  6.5600   2
  -4  -1 -17 168.199  12.386   2
  -4  -1 -17 192.477  14.210   1
   4  -1  17 163.086  12.930   1
  -4   1 -17 165.099  11.474   2
   4   1  17 178.921  13.600   1
  -4   1 -17 168.234  13.456   1
   5  -1  17 0.16617 3.57893   1
  -5  -1 -17 -4.0054  4.4436   1
  -5   1 -17 -0.4584  4.5108   1
  -5   1 -17 -1.5631  3.0481   2
   5   1  17 0.35768 3.69248   1
  -6  -1 -17 13.7025  5.1880   1
  -6   1 -17 12.4138  4.8791   1
  -7  -1 -17 50.1186  7.3828   1
  -7   1 -17 61.0739  8.2179   1
  -8  -1 -17 43.1553  7.2555   1
  -8   1 -17 30.3972  6.3434   1
  -9  -1 -17 53.7924  7.7791   1
  -9   1 -17 47.3349  7.2945   1
 -10  -1 -17 114.876  10.361   1
 -10   1 -17 97.0305  9.6935   1
  11  -2 -17 27.7658  6.6560   2
  11  -2 -17 14.2913  6.8313   5
 -11  -2  17 20.0304  5.5266   1
 -11   2  17 18.1648  5.5220   1
 -10  -2  17 -2.2801  4.1260   1
  10  -2 -17 -4.7092  4.1762   5
  10  -2 -17 0.28590 3.62041   2
  10   2 -17 -3.5826  5.5728   2
  10   2 -17 -2.6883  4.0108   5
 -10   2  17 -2.1097  3.8740   1
  -9  -2  17 21.8952  5.8852   1
   9  -2 -17 16.3877  6.0291   2
  -9   2  17 14.4609  5.4897   1
   9   2 -17 19.2059  5.6515   2
   9   2 -17 23.5147  6.9110   5
  -8  -2  17 39.6847  7.2449   1
   8  -2 -17 44.8231  7.1851   2
   8  -2 -17 27.3647  7.1329   5
  -8   2  17 39.4125  7.2777   1
   8   2 -17 30.4027  7.4947   2
  -7  -2  17 21.6425  6.0928   1
   7  -2 -17 23.2833  5.7679   1
   7  -2 -17 28.1800  6.7739   2
   7  -2 -17 38.5499  7.6678   5
   7   2 -17 12.6963  5.1738   2
   7   2 -17 20.5643  5.5736   1
  -7   2  17 27.4911  6.2526   1
   6  -2 -17 2.01576 4.10690   5
   6  -2 -17 10.9706  5.1919   1
  -6  -2  17 -3.5935  3.4916   1
   6  -2 -17 0.14388 4.45272   2
   6   2 -17 0.32178 3.62449   1
  -6   2  17 6.32694 4.33342   1
   6   2 -17 6.47262 3.83280   2
   6   2 -17 2.80835 4.12951   5
   5  -2 -17 18.1142  5.8912   1
   5  -2 -17 12.5516  4.9056   2
  -5  -2  17 22.3024  5.3743   1
   5   2 -17 28.3725  6.2008   1
   5   2 -17 21.7906  5.2305   2
   5   2 -17 11.0131  4.1345   5
   4  -2 -17 152.535  12.610   1
   4  -2 -17 137.922  11.515   2
  -4  -2  17 127.796  11.565   1
   4  -2 -17 143.015  11.068   5
   4   2 -17 149.499  12.401   1
  -4   2  17 152.406  12.649   1
   4   2 -17 155.772  12.044   2
  -3  -2  17 -0.8144  4.2388   1
   3  -2 -17 -0.6372  2.9174   1
   3  -2 -17 -9.0344  4.8581   2
   3   2 -17 -9.7016  5.0741   1
  -2  -2  17 61.7007  8.7371   1
   2  -2 -17 72.2226  8.5814   2
   2  -2 -17 81.9681  7.5801   5
   2  -2 -17 69.6557  9.0118   1
  -2   2  17 84.0894  9.7555   1
   2   2 -17 63.8861  8.4665   1
   2   2 -17 77.3117  8.4283   2
   1  -2 -17 23.3375  5.7942   2
   1  -2 -17 17.0617  3.6177   5
  -1  -2  17 10.5241  5.3313   1
  -1   2  17 20.8721  5.2497   1
   1   2 -17 18.4674  5.9234   1
   1   2 -17 17.8230  4.2570   5
  -1   2  17 15.2731  5.6013   1
   1   2 -17 19.9771  5.2953   2
   0  -2 -17 9.32658 4.87622   2
   0  -2 -17 19.3976  5.6844   1
   0  -2 -17 20.4675  3.4690   5
   0  -2  17 24.1091  6.3702   1
   0   2 -17 14.7595  3.3913   5
   0   2  17 19.4533  5.6265   1
   0   2  17 23.3641  5.3330   1
   0   2 -17 23.9818  5.0584   2
   1  -2  17 -2.3627  4.4678   1
  -1  -2 -17 -6.1892  4.5314   1
  -1  -2 -17 -2.0992  3.7703   2
  -1   2 -17 -8.7434  5.0695   1
  -1   2 -17 -6.8763  3.6043   2
   1   2  17 0.34486 3.70722   1
   1   2  17 2.83939 2.98432   1
   2  -2  17 58.4737  8.5064   1
  -2  -2 -17 54.3922  8.2513   1
  -2  -2 -17 59.4824  7.8226   2
  -2   2 -17 59.1098  6.8642   2
   2   2  17 70.4829  8.8542   1
  -2   2 -17 58.5986  8.1395   1
   3  -2  17 18.7331  5.0779   1
  -3  -2 -17 21.4506  5.4554   2
  -3  -2 -17 14.0474  4.7037   1
  -3   2 -17 21.2678  4.5971   2
   3   2  17 27.1426  6.0903   1
  -3   2 -17 22.8727  6.1530   1
  -4  -2 -17 -2.2182  3.9178   1
   4  -2  17 -0.6579  4.0568   1
  -4  -2 -17 -4.8768  4.3313   2
  -4   2 -17 3.94491 3.46138   1
   4   2  17 -0.1746  2.5187   1
  -4   2 -17 3.67101 3.12372   2
  -5  -2 -17 54.4163  8.3155   1
   5  -2  17 48.4805  7.4685   1
  -5   2 -17 48.1808  7.8466   1
   5   2  17 57.9950  7.9803   1
  -5   2 -17 55.8714  6.7478   2
  -6  -2 -17 63.3199  8.8098   1
  -6   2 -17 72.0824  8.9560   1
  -7  -2 -17 3.03212 3.61165   1
  -7   2 -17 1.68533 3.31438   1
  -8  -2 -17 -2.5768  3.6961   1
  -8   2 -17 7.60906 4.42608   1
  -9  -2 -17 5.26482 3.96820   1
  -9   2 -17 -10.706   4.656   1
 -10  -2 -17 -3.4516  3.4291   1
 -10   2 -17 -7.0887  4.2585   1
 -11   3  17 24.8345  5.9360   1
  10  -3 -17 0.69965 4.62258   2
  10  -3 -17 8.13743 5.95657   5
 -10  -3  17 6.41674 4.31213   1
  10   3 -17 4.47628 4.46992   5
  10   3 -17 8.72374 6.06490   2
 -10   3  17 11.2538  4.9398   1
   9  -3 -17 54.6666  8.5311   2
   9  -3 -17 48.9920  8.9109   5
  -9  -3  17 44.6731  7.7615   1
   9   3 -17 50.6457  9.1570   2
  -9   3  17 53.9069  8.1180   1
   9   3 -17 42.4052  8.5486   5
   8  -3 -17 6.04163 4.74199   5
  -8  -3  17 -0.7180  4.0847   1
   8  -3 -17 1.15766 4.10094   2
   8   3 -17 5.53202 4.28973   2
   7  -3 -17 6.46466 4.77543   5
   7  -3 -17 9.11159 4.06637   2
  -7  -3  17 6.99536 4.83259   1
   7   3 -17 0.65118 3.30790   1
  -7   3  17 4.90618 4.26219   1
   7   3 -17 10.4461  5.9164   2
   6  -3 -17 -2.4944  4.1163   1
   6  -3 -17 12.9266  4.5338   2
  -6   3  17 3.73973 4.70552   1
   6   3 -17 16.4095  5.3214   1
   6   3 -17 -0.1403  4.6870   2
  -5  -3  17 7.21407 5.10400   1
   5  -3 -17 4.50782 4.40136   2
   5  -3 -17 3.44740 4.06599   5
   5   3 -17 -3.0400  4.7487   2
   5   3 -17 -12.088   5.206   1
   4  -3 -17 10.9519  5.3602   1
  -4  -3  17 -3.1516  4.6775   1
  -4   3  17 -2.7311  3.5825   1
   4   3 -17 4.72984 4.46444   2
   3  -3 -17 2.27315 3.19380   2
   3  -3 -17 -4.0623  3.6133   1
  -3  -3  17 2.86523 4.57350   1
   3  -3 -17 2.29128 3.49906   5
  -3   3  17 -0.9025  4.2050   1
   3   3 -17 1.81677 4.01046   2
   3   3 -17 -7.4706  4.4360   1
   2  -3 -17 -7.4106  4.6689   2
  -2  -3  17 -4.9703  4.6978   1
   2  -3 -17 7.66217 3.51672   5
   2  -3 -17 -5.3179  4.6332   1
  -2   3  17 3.29260 4.21042   1
   2   3 -17 -3.0170  4.4743   1
   2   3 -17 -2.3551  2.9864   2
   1  -3 -17 2.58948 4.41358   1
  -1  -3  17 -4.1471  3.6771   1
   1  -3 -17 2.34570 2.55525   5
  -1   3  17 2.49589 4.31930   1
   1   3 -17 7.02774 3.32609   2
   0  -3 -17 117.559   7.713   5
   0  -3 -17 119.188  11.692   1
   0  -3 -17 131.746  11.182   2
   0  -3  17 99.3436 10.8027   1
   0   3 -17 113.053  11.266   1
   0   3  17 116.857  11.452   1
   0   3 -17 127.279   9.849   2
   1  -3  17 123.548  11.692   1
  -1  -3 -17 131.216  11.358   2
  -1  -3 -17 136.829  12.538   1
   1   3  17 132.692  12.088   1
  -1   3 -17 123.563  11.796   1
  -1   3 -17 135.571  10.047   2
  -2  -3 -17 7.19964 4.90079   1
   2  -3  17 12.4330  4.8560   1
  -2  -3 -17 7.36956 3.79040   2
  -2   3 -17 4.46573 3.33594   2
   3  -3  17 17.9462  5.6561   1
  -3   3 -17 9.04466 3.34680   2
   3   3  17 11.4809  5.0044   1
  -4  -3 -17 36.4521  7.0035   1
   4  -3  17 32.0221  6.5380   1
  -4   3 -17 35.3367  5.3725   2
  -4   3 -17 25.8293  6.4382   1
   4   3  17 25.0371  5.4581   1
   5  -3  17 3.76586 3.58028   1
  -5  -3 -17 -3.1150  4.3485   1
  -5   3 -17 -0.6980  4.3371   1
   5   3  17 -8.5024  4.0989   1
  -6  -3 -17 10.8509  4.9441   1
  -6   3 -17 13.1728  5.3106   1
  -7  -3 -17 2.18025 3.64644   1
  -7   3 -17 2.11647 4.00173   1
  -8  -3 -17 40.5626  7.2088   1
  -8   3 -17 59.1692  8.1712   1
  10  -4 -17 31.3981  7.0520   2
 -10  -4  17 21.0372  5.8813   1
  10   4 -17 23.8300  7.6125   2
 -10   4  17 31.4785  7.1141   1
   9  -4 -17 7.28874 4.69708   2
  -9  -4  17 11.4041  5.2564   1
   9  -4 -17 24.9120  7.5003   5
  -9   4  17 14.2504  5.8621   1
   9   4 -17 1.10034 5.56070   2
   8  -4 -17 19.4392  5.9679   2
   8  -4 -17 8.36399 5.02987   5
  -8  -4  17 10.6968  4.4200   1
  -8   4  17 10.8777  4.7355   1
   7  -4 -17 15.2069  5.6323   5
   7  -4 -17 15.3069  5.7416   1
   7  -4 -17 22.1846  6.0786   2
  -7   4  17 31.3160  7.3103   1
   7   4 -17 16.6067  6.4947   2
   6  -4 -17 0.60039 4.18664   1
   6  -4 -17 -3.4866  4.6134   2
   6  -4 -17 -4.7601  4.5867   5
  -6  -4  17 -2.2994  4.6264   1
   6   4 -17 6.25135 4.18146   2
   6   4 -17 -6.3185  4.4639   1
   5  -4 -17 124.716  11.408   5
   5  -4 -17 134.345  12.555   1
  -5  -4  17 107.715  11.344   1
   5  -4 -17 121.271  11.220   2
   5   4 -17 138.288  12.552   1
   5   4 -17 130.781  11.399   2
  -5   4  17 131.184  12.821   1
   4  -4 -17 2.47739 4.30155   2
  -4  -4  17 3.51800 4.86910   1
   4  -4 -17 -3.2859  3.9271   5
  -4   4  17 -0.1405  4.2936   1
   4   4 -17 6.49138 4.74228   1
   4   4 -17 14.8580  5.2885   2
   3  -4 -17 3.56377 2.76257   5
   3  -4 -17 -3.3885  4.0761   2
  -3  -4  17 -6.3780  5.2114   1
   3   4 -17 -11.226   5.037   2
  -2  -4  17 99.8322 10.6331   1
   2  -4 -17 101.253   8.566   5
   2  -4 -17 89.1032  9.3863   2
   2  -4 -17 112.784  11.560   1
   2   4 -17 109.759  11.316   1
  -2   4  17 99.1207 10.9070   1
   2   4 -17 98.6541  9.4426   2
   1  -4 -17 -3.6397  4.4884   1
  -1  -4  17 10.7174  5.4435   1
  -1   4  17 -6.1875  5.0076   1
   1   4 -17 3.17001 3.33623   1
   1   4 -17 -0.9386  4.0521   2
   0  -4 -17 123.034   8.320   5
   0  -4  17 151.542  13.338   1
   0  -4 -17 146.785  13.103   1
   0  -4 -17 142.505  12.090   2
   0   4 -17 143.496  12.691   1
   0   4  17 144.371  12.875   1
   0   4 -17 134.437  10.044   2
  -1  -4 -17 79.0168 10.0442   1
   1  -4  17 78.0713  9.8502   1
  -1  -4 -17 64.6775  8.8112   2
  -1   4 -17 51.8120  7.9798   1
   1   4  17 81.2007  9.9683   1
  -1   4 -17 68.9601  7.2850   2
  -2  -4 -17 15.2572  5.6850   1
   2  -4  17 20.2410  5.9643   1
  -2  -4 -17 18.7461  5.8768   2
  -2   4 -17 15.6154  5.4562   1
  -3  -4 -17 13.5280  4.8602   2
  -3  -4 -17 14.5365  5.2805   1
   3   4  17 21.7206  6.0258   1
  -3   4 -17 13.4308  5.6075   1
  -3   4 -17 19.1732  4.1704   2
  -4  -4 -17 5.50855 4.69649   1
   4  -4  17 3.47066 4.07061   1
   4   4  17 1.75029 2.72456   1
  -5  -4 -17 112.072  11.607   1
   5  -4  17 110.149  11.270   1
  -5   4 -17 120.486  11.883   1
   5   4  17 110.782  10.989   1
  -6  -4 -17 5.09299 4.53304   1
  -6   4 -17 22.4910  6.2066   1
  -7  -4 -17 -2.1260  3.8622   1
  -7   4 -17 1.43521 3.24043   1
  -8  -4 -17 4.67692 4.51529   1
  -8   4 -17 -4.7599  4.4154   1
  -9  -4 -17 -6.0568  4.1208   1
  -9   4 -17 -7.1921  4.3611   1
  10  -5 -17 18.0731  5.8166   2
  10  -5 -17 18.9741  6.7720   5
 -10  -5  17 31.2477  6.9527   1
 -10   5  17 34.9447  7.1138   1
  -9  -5  17 56.4729  8.7230   1
   9  -5 -17 61.7975  8.8763   2
   9  -5 -17 45.0959  8.9461   5
   9   5 -17 58.7625 10.1323   2
  -9   5  17 61.8451  9.3628   1
  -8  -5  17 33.7704  7.2135   1
   8  -5 -17 41.8072  8.4141   5
   8  -5 -17 46.3828  7.9150   2
  -8   5  17 35.0481  7.8329   1
   8   5 -17 30.6661  7.7633   2
   7  -5 -17 18.6430  5.0867   2
   7  -5 -17 14.0445  5.4489   5
  -7   5  17 16.1803  6.0934   1
  -6  -5  17 5.38345 4.83343   1
   6  -5 -17 4.21535 4.32784   5
   6  -5 -17 5.15714 3.85228   1
   6   5 -17 -3.9460  4.2705   1
   6   5 -17 6.47906 5.33793   2
   5  -5 -17 8.11685 4.02181   2
   5  -5 -17 2.19467 4.17729   5
   5  -5 -17 13.6761  5.3323   1
  -5  -5  17 2.61035 3.89501   1
   5   5 -17 13.0851  5.3716   1
  -5   5  17 2.57399 4.79399   1
   4  -5 -17 23.4746  5.7319   5
   4  -5 -17 16.6283  6.1125   1
  -4   5  17 14.7270  6.2375   1
   4   5 -17 7.19832 4.70127   1
   4   5 -17 19.8424  5.1141   2
  -3  -5  17 16.0076  6.0482   1
   3  -5 -17 24.8299  5.3725   5
   3  -5 -17 22.2407  6.4380   1
   3   5 -17 19.7876  5.7561   2
   3   5 -17 29.4879  6.7660   1
   2  -5 -17 18.1790  4.5329   5
   2  -5 -17 16.2931  5.4217   2
   2  -5 -17 17.6064  6.3142   1
  -2  -5  17 14.9793  5.1394   1
  -2   5  17 24.6450  6.8421   1
   2   5 -17 5.84330 5.23197   1
   2   5 -17 20.6845  5.3010   2
   1  -5 -17 15.4599  4.0632   5
   1  -5 -17 5.53415 4.96860   1
  -1  -5  17 11.2799  5.6205   1
   1   5 -17 19.4593  5.0305   2
   0  -5 -17 14.9642  5.8451   2
   0  -5 -17 10.3887  5.2103   1
   0  -5  17 22.9328  6.6824   1
   0  -5 -17 21.0829  4.0466   5
   0   5 -17 19.6852  4.7600   2
   0   5 -17 29.1738  6.8851   1
  -1  -5 -17 146.866  12.718   2
  -1  -5 -17 150.229  13.686   1
   1  -5  17 141.394  13.204   1
   1   5  17 132.402  12.780   1
  -1   5 -17 133.285   9.798   2
  -1   5 -17 154.566  13.409   1
  -2  -5 -17 4.82953 5.06115   1
  -2  -5 -17 3.02452 4.78073   2
   2  -5  17 -0.6484  4.3731   1
  -2   5 -17 3.12803 4.41697   1
  -2   5 -17 -0.4251  2.3183   2
  -3  -5 -17 12.6802  4.7456   1
  -3   5 -17 11.3657  5.4434   1
   3   5  17 2.45732 4.24028   1
   4  -5  17 26.4113  6.6848   1
  -4  -5 -17 24.2757  6.8384   1
   4   5  17 32.2181  6.3721   1
  -5  -5 -17 9.90675 5.30831   1
   5  -5  17 -6.9444  4.7256   1
   5   5  17 2.56441 3.88146   1
  -5   5 -17 0.82434 4.41017   1
  -6  -5 -17 15.8336  5.9339   1
  -7  -5 -17 79.8941  9.6982   1
  -7   5 -17 78.9806 10.0764   1
  -8  -5 -17 15.1640  5.7532   1
  -8   5 -17 26.3162  6.6857   1
   9  -6 -17 56.3043  9.6822   5
  -9  -6  17 73.1748 10.0978   1
   9   6 -17 65.6839 10.5294   2
  -9   6  17 69.8449 10.1807   1
   8  -6 -17 -3.8746  4.0570   5
  -8  -6  17 4.10598 3.86785   1
  -8   6  17 1.86698 4.83873   1
   7  -6 -17 16.4213  6.4060   5
  -7  -6  17 25.4460  6.9070   1
   7  -6 -17 16.3823  5.7192   2
   7  -6 -17 27.7412  7.1399   1
  -7   6  17 19.8803  5.8431   1
   7   6 -17 12.8747  6.1458   2
   6  -6 -17 -4.4499  4.6047   2
   6  -6 -17 10.3995  5.1965   5
   6  -6 -17 -1.7184  4.4543   1
  -6   6  17 -5.7515  4.2209   1
   6   6 -17 6.37210 4.65828   1
   5  -6 -17 18.7302  5.7513   5
  -5  -6  17 20.3180  6.4460   1
   5  -6 -17 20.9128  6.5297   1
   5  -6 -17 18.2623  5.9853   2
  -5   6  17 14.0917  5.1273   1
   5   6 -17 14.6377  5.7964   1
   4  -6 -17 108.634  11.141   2
   4  -6 -17 129.735  11.334   5
  -4  -6  17 92.3920 11.1094   1
   4  -6 -17 104.746  11.747   1
   4   6 -17 135.120  11.729   2
  -4   6  17 112.033  12.490   1
   4   6 -17 109.874  11.829   1
   3  -6 -17 -2.5260  4.6061   1
  -3  -6  17 3.78588 4.95217   1
   3  -6 -17 4.22716 3.51164   2
   3  -6 -17 1.96122 3.22057   5
  -3   6  17 7.90039 5.32986   1
   3   6 -17 4.04763 4.48834   2
   2  -6 -17 9.47852 5.25417   2
   2  -6 -17 6.34364 3.25858   5
  -2  -6  17 5.69034 5.33324   1
   2   6 -17 1.96241 2.90872   2
  -2   6  17 4.90616 4.97979   1
   1  -6 -17 103.809  10.545   2
   1  -6 -17 87.1312 10.6385   1
   1  -6 -17 106.492   8.848   5
  -1  -6  17 116.101  11.931   1
   1   6 -17 98.3293  9.2016   2
  -1   6  17 112.243  12.207   1
   1   6 -17 113.176  12.128   1
   0  -6 -17 52.4108  8.5135   2
   0  -6  17 49.9747  8.5912   1
   0  -6 -17 73.8077  9.7763   1
   0   6 -17 45.2098  8.2227   1
   0   6  17 52.6378  8.9324   1
   0   6 -17 57.0191  7.0201   2
  -1  -6 -17 74.3534  9.9382   2
   1  -6  17 81.8038 10.3594   1
  -1  -6 -17 67.6466  9.5875   1
  -1   6 -17 71.7856  7.4315   2
  -1   6 -17 78.2419 10.5158   1
   1   6  17 87.4814 10.9060   1
   2  -6  17 17.7472  5.3976   1
  -2  -6 -17 18.4720  6.6190   1
   2   6  17 31.3862  7.2692   1
  -2   6 -17 9.94022 5.53571   1
   3  -6  17 -0.4965  4.2675   1
  -3  -6 -17 -3.3906  4.5204   1
  -3   6 -17 6.44170 5.46608   1
   3   6  17 -4.6608  4.4278   1
  -4  -6 -17 11.3812  5.6860   1
   4  -6  17 2.09140 3.36226   1
  -4   6 -17 9.06406 5.57073   1
  -5  -6 -17 5.19849 5.17994   1
   5  -6  17 -3.5368  4.7254   1
  -5   6 -17 2.37009 3.59006   1
  -6   6 -17 39.8115  7.8448   1
  -7  -6 -17 14.8610  5.9068   1
  -7   6 -17 28.0126  6.4192   1
  -8  -6 -17 96.2800 11.0628   1
  -8   6 -17 106.757  11.739   1
   8  -7 -17 6.56144 5.43596   5
   8  -7 -17 6.27171 4.61442   2
  -8  -7  17 5.65634 5.08178   1
   8   7 -17 5.52474 4.42714   2
   7  -7 -17 31.7981  7.2752   5
   7  -7 -17 15.5124  5.6388   2
  -7   7  17 16.0387  6.7150   1
   6  -7 -17 7.10516 5.22690   1
  -6  -7  17 8.35847 5.66320   1
   6  -7 -17 15.3730  4.8904   2
   6  -7 -17 10.9698  5.1605   5
  -6   7  17 11.5165  6.0370   1
   6   7 -17 5.74486 3.83267   1
   6   7 -17 4.63525 4.08436   2
   5  -7 -17 24.6945  5.9618   5
   5  -7 -17 27.1657  6.0498   2
   5  -7 -17 21.1505  6.9176   1
   5   7 -17 27.6798  6.5575   2
  -4  -7  17 97.8311 11.3178   1
   4  -7 -17 109.108  12.547   1
   4  -7 -17 108.380  10.972   2
   4  -7 -17 116.574  11.056   5
   4   7 -17 110.066  12.104   1
  -4   7  17 105.736  11.992   1
   4   7 -17 106.435  10.490   2
   3  -7 -17 7.63558 5.39606   1
   3  -7 -17 -3.6827  3.7877   5
   3  -7 -17 1.67325 4.50736   2
  -3  -7  17 -10.916   6.125   1
  -3   7  17 1.86666 4.64697   1
   3   7 -17 -1.9660  4.9216   1
   3   7 -17 -3.7503  4.3748   2
   2  -7 -17 5.30260 4.97673   1
   2  -7 -17 -2.5343  4.6633   2
   2  -7 -17 1.41497 3.45200   5
   2   7 -17 7.09791 4.14271   2
  -2   7  17 14.9925  5.9754   1
   1  -7 -17 22.5161  6.9970   1
   1  -7 -17 24.4731  6.4655   2
   1  -7 -17 28.9232  5.2706   5
  -1   7  17 21.8936  6.1377   1
   1   7 -17 23.3209  5.4091   2
   0  -7  17 83.8466 10.8955   1
   0  -7 -17 71.5868 10.5728   1
   0  -7 -17 63.7359  9.4360   2
   0   7  17 68.8443  9.6804   1
   0   7 -17 67.5583 10.3177   1
   0   7 -17 63.8808  7.3262   2
   1  -7  17 -4.8521  5.2069   1
  -1  -7 -17 -3.1895  5.1217   1
   1   7  17 -3.5716  3.7252   1
  -1   7 -17 0.14409 5.01454   1
  -2  -7 -17 8.50845 4.94555   1
   2  -7  17 16.6547  6.3128   1
  -2   7 -17 21.9253  6.7310   1
   2   7  17 18.9874  6.4144   1
   3  -7  17 22.1028  6.0664   1
  -3   7 -17 12.2275  6.2529   1
  -4  -7 -17 44.9060  8.7031   1
   4  -7  17 57.8396  9.2561   1
   4   7  17 68.5543  9.8356   1
  -4   7 -17 38.7934  8.5394   1
   5  -7  17 15.8134  5.8035   1
  -5   7 -17 18.2902  6.7846   1
  -6  -7 -17 4.50682 4.57612   1
  -6   7 -17 8.13258 5.92252   1
  -7   7 -17 2.30616 4.77684   1
   7  -8 -17 18.6523  5.9299   2
  -7  -8  17 13.8835  6.4712   1
  -7   8  17 10.3776  5.8548   1
   7   8 -17 26.3871  7.3078   2
  -6  -8  17 4.86836 5.30740   1
   6  -8 -17 20.4029  6.3153   2
   6  -8 -17 12.8152  6.1538   1
   6   8 -17 15.7395  6.3762   2
  -5  -8  17 -1.8153  5.1669   1
   5  -8 -17 -8.0264  5.3801   5
   5  -8 -17 -8.8816  5.2887   2
   5   8 -17 1.39431 4.68644   2
  -5   8  17 -5.6852  5.2537   1
   5   8 -17 -3.6224  4.8714   1
   4  -8 -17 20.5787  5.7074   5
   4  -8 -17 12.2975  5.8999   1
   4  -8 -17 8.20470 5.46444   2
   4   8 -17 11.9242  5.1488   1
  -4   8  17 26.5539  7.7432   1
   3  -8 -17 -9.7508  5.4098   2
  -3  -8  17 -4.1769  4.1913   1
   3  -8 -17 4.01978 5.13507   1
   3  -8 -17 -1.0149  4.7131   5
   3   8 -17 -3.2809  5.2537   1
  -3   8  17 2.41183 3.95484   1
   3   8 -17 0.24387 4.25123   2
   2  -8 -17 31.2890  6.1535   5
  -2  -8  17 28.0395  7.5999   1
   2  -8 -17 27.0980  7.6882   1
   2  -8 -17 25.6084  6.3122   2
   2   8 -17 37.5672  6.7086   2
  -2   8  17 31.3484  8.0116   1
   2   8 -17 37.9075  8.0585   1
  -1  -8  17 46.3786  9.2544   1
   1  -8 -17 42.2055  6.4217   5
   1  -8 -17 53.0455  9.5425   1
   1   8 -17 28.5510  7.7242   1
  -1   8  17 28.5668  7.6086   1
   0  -8  17 10.7027  5.5361   1
   0  -8 -17 2.74981 5.05410   1
   0   8 -17 2.65707 4.85044   1
   0   8  17 3.33305 5.27661   1
  -1  -8 -17 -1.7945  5.1930   1
   1  -8  17 -0.3177  4.5563   1
   1   8  17 -4.4620  5.0139   1
  -1   8 -17 12.0738  6.1281   1
   2  -8  17 3.17830 4.98643   1
  -2  -8 -17 -2.6576  5.2164   1
   2   8  17 -6.1522  4.1020   1
  -2   8 -17 -0.7213  5.0760   1
   3  -8  17 27.2410  7.5978   1
  -3  -8 -17 33.7570  8.3241   1
  -3   8 -17 37.5781  7.7855   1
   3   8  17 49.7039  9.0762   1
  -4  -8 -17 98.7837 12.2769   1
   4  -8  17 91.0894 11.5138   1
  -4   8 -17 87.7749 11.9588   1
   4   8  17 100.442  11.859   1
   5  -8  17 11.5776  5.5959   1
  -5  -8 -17 -10.529   6.250   1
  -5   8 -17 -0.6572  4.6253   1
  -6  -8 -17 -1.1604  4.9869   1
  -6   8 -17 -0.9495  3.5788   1
   5  -9 -17 47.8400  8.0187   2
   5  -9 -17 52.7557  9.5702   1
  -5  -9  17 35.1673  8.5708   1
   5  -9 -17 58.5837  8.7681   5
   5   9 -17 48.5230  9.1968   1
  -5   9  17 46.7745  9.6670   1
   5   9 -17 54.8575  8.9002   2
  -4  -9  17 36.2449  8.3187   1
   4  -9 -17 29.0482  8.0673   1
   4  -9 -17 22.9936  6.0726   2
   4  -9 -17 33.0442  6.8916   5
   4   9 -17 31.5650  6.9365   2
  -4   9  17 20.1427  6.9880   1
   4   9 -17 34.6283  7.8685   1
   3  -9 -17 12.5085  4.9502   5
  -3  -9  17 6.15997 4.49725   1
   3  -9 -17 8.81263 5.87298   1
   3   9 -17 22.9135  7.0683   1
   3   9 -17 5.71158 4.44595   2
  -3   9  17 17.4439  6.8097   1
   2  -9 -17 -8.2395  4.4420   5
  -2  -9  17 1.61603 5.14900   1
   2   9 -17 -1.9529  4.8294   1
   1  -9 -17 28.2052  8.0382   1
  -1  -9  17 5.32331 5.50115   1
   1   9 -17 5.21157 5.60955   1
  -1   9  17 12.9847  5.3405   1
   0  -9  17 -2.7981  4.9359   1
   0  -9 -17 -2.5149  5.2349   1
   0   9 -17 -9.0975  5.9938   1
   0   9  17 10.7124  5.1303   1
   1  -9  17 69.6490 10.6934   1
  -1  -9 -17 49.1231  9.5209   1
  -1   9 -17 37.3746  8.8541   1
   1   9  17 53.0101  9.6790   1
   2  -9  17 6.71967 5.99217   1
  -2   9 -17 8.93830 6.19354   1
   2   9  17 9.24151 5.88526   1
   3  -9  17 123.530  13.860   1
  -3  -9 -17 125.002  14.200   1
  -3   9 -17 114.073  13.086   1
   3   9  17 123.464  13.225   1
  -4  -9 -17 -10.423   6.503   1
   4  -9  17 11.3263  5.8988   1
  -4   9 -17 13.2678  6.4268   1
   3 -10 -17 -1.4763  5.0767   1
   3  10 -17 12.7982  6.3179   1
  -3  10  17 -4.9219  5.6371   1
   2 -10 -17 5.10762 4.30601   5
   2 -10 -17 -4.0371  5.4929   1
  -2 -10  17 -7.5257  5.8986   1
  -2  10  17 -2.1326  5.5357   1
   2  10 -17 -0.0252  3.3122   1
  -1 -10  17 15.6152  6.6796   1
   1 -10 -17 6.69615 5.17854   1
   1  10 -17 4.12353 5.36362   1
  -1  10  17 -8.2152  6.0403   1
   0 -10 -17 31.2462  8.0751   1
   0 -10  17 23.5207  7.5644   1
   0  10  17 24.3617  7.5605   1
   0  10 -17 25.6296  7.9358   1
   1 -10  17 46.6101  9.4411   1
  -1 -10 -17 41.7258  9.6044   1
   1  10  17 50.3899  9.9430   1
  -1  10 -17 56.7094 10.4341   1
 -10   0  18 125.323  11.942   1
  10   0 -18 124.955  13.096   2
  10   0 -18 98.4099 12.1952   5
   9   0 -18 5.36221 5.28953   5
  -9   0  18 15.5636  5.5137   1
   9   0 -18 5.50476 5.52326   2
   8   0 -18 8.72315 4.43723   2
   8   0 -18 -1.8830  3.7393   5
   7   0 -18 2.91667 4.08600   1
  -7   0  18 3.43677 4.25692   1
   7   0 -18 3.18041 5.02645   2
   6   0 -18 22.1856  6.1368   2
   6   0 -18 17.6386  5.7293   1
   6   0 -18 13.7491  5.3877   5
  -6   0  18 13.9286  4.7962   1
   5   0 -18 -2.8833  4.5120   2
  -5   0  18 1.02712 3.02722   1
   4   0 -18 14.9430  5.4779   1
  -4   0  18 4.46762 3.86385   1
   3   0 -18 1.17484 4.07823   2
   3   0 -18 14.1117  5.5375   1
  -3   0  18 8.78706 5.00667   1
   2   0 -18 115.524   9.166   5
  -2   0  18 109.947  11.002   1
   2   0 -18 115.996  11.642   1
   2   0 -18 118.526  10.576   2
  -1   0  18 -8.9780  5.1733   1
   1   0 -18 -3.8277  3.6969   1
   1   0 -18 -3.8670  4.4137   2
   1   0 -18 0.34126 2.35366   5
   0   0  18 467.245  22.672   1
   0   0 -18 454.431  19.751   2
   0   0 -18 455.985  22.322   1
  -1   0 -18 2.05286 3.82706   2
  -1   0 -18 -0.3288  2.8258   1
   1   0  18 -5.4303  4.3733   1
  -2   0 -18 41.8948  6.9888   2
   2   0  18 43.4002  7.2473   1
  -3   0 -18 0.66335 4.55615   1
   3   0  18 -1.9219  4.2308   1
  -3   0 -18 -5.7290  3.9365   2
   4   0  18 223.818  15.265   1
  -4   0 -18 215.091  13.964   2
  -4   0 -18 211.427  15.497   1
  -5   0 -18 1.67589 3.47368   1
   5   0  18 -1.4602  3.3014   1
  -6   0 -18 73.8612  9.3492   1
  -7   0 -18 5.75003 4.45410   1
  -8   0 -18 3.60476 3.68231   1
  -9   0 -18 5.94104 4.15858   1
  10  -1 -18 121.840  12.082   2
  10  -1 -18 108.602  13.064   5
 -10  -1  18 102.442  11.049   1
  10   1 -18 122.633  13.072   2
 -10   1  18 112.754  11.420   1
  10   1 -18 102.550  12.998   5
   9  -1 -18 15.5227  6.1272   5
   9  -1 -18 6.51580 5.49734   2
   9   1 -18 11.7679  5.9138   2
   9   1 -18 6.63915 5.36419   5
   8  -1 -18 23.1142  6.8616   5
  -8  -1  18 27.2179  6.0929   1
   8  -1 -18 41.3347  7.2688   2
   8   1 -18 25.4909  7.3755   5
  -8   1  18 23.7094  6.2491   1
   8   1 -18 17.3161  6.6024   2
   7  -1 -18 10.1218  4.6243   1
   7  -1 -18 18.0176  6.0958   2
   7  -1 -18 2.37737 4.43500   5
  -7  -1  18 11.1690  5.1396   1
   7   1 -18 12.0973  4.7028   1
   7   1 -18 10.0867  5.3620   5
  -7   1  18 0.47357 4.26707   1
   7   1 -18 10.7818  4.6105   2
   6  -1 -18 20.7564  5.3177   1
   6  -1 -18 15.5790  5.6089   5
  -6  -1  18 19.1638  6.0576   1
   6   1 -18 15.5556  4.9261   5
   6   1 -18 27.9044  6.5146   1
  -6   1  18 16.0671  5.7453   1
   5  -1 -18 -2.5765  3.0931   1
   5  -1 -18 -0.6614  3.1694   5
  -5  -1  18 2.49673 4.78318   1
   5  -1 -18 5.25357 4.70698   2
   5   1 -18 1.24025 3.52795   5
   5   1 -18 2.65166 3.91220   2
   5   1 -18 -0.8065  3.8100   1
  -5   1  18 -3.9635  4.7718   1
  -5   1  18 5.09122 4.68013   1
   4  -1 -18 19.4898  5.1424   5
   4  -1 -18 6.56692 3.71936   2
  -4  -1  18 3.01697 4.68330   1
   4  -1 -18 1.10628 3.62386   1
   4   1 -18 13.8755  5.2288   2
   4   1 -18 7.96643 5.04493   1
  -4   1  18 13.5799  5.0348   1
   4   1 -18 9.85734 3.81281   5
   3  -1 -18 36.0956  6.7036   2
  -3  -1  18 28.4507  6.6872   1
  -3   1  18 32.3609  7.1823   1
   3   1 -18 27.9176  5.6158   5
   3   1 -18 24.1178  6.3495   2
   2  -1 -18 20.0588  5.4219   1
   2  -1 -18 20.5514  5.6487   2
   2  -1 -18 18.4892  4.3823   5
   2   1 -18 22.2106  5.8494   2
   2   1 -18 17.8315  4.5150   5
   2   1 -18 19.0039  6.3995   1
   1  -1 -18 291.685  13.297   5
   1  -1 -18 311.330  16.279   2
  -1  -1  18 330.517  18.884   1
   1  -1 -18 314.598  18.654   1
   1   1 -18 316.702  16.376   2
  -1   1  18 337.336  19.301   1
   1   1 -18 307.726  14.153   5
   1   1 -18 327.905  18.855   1
   0  -1 -18 36.9335  7.4875   1
   0  -1  18 59.1917  8.6627   1
   0   1 -18 50.8561  7.2657   2
   0   1  18 40.2196  7.6799   1
   0   1 -18 49.6815  8.1947   1
   1  -1  18 20.2549  5.3402   1
  -1  -1 -18 41.2459  6.8744   2
  -1  -1 -18 28.5123  6.5674   1
   1   1  18 32.3661  6.9465   1
  -1   1 -18 24.7849  6.4025   1
  -1   1 -18 24.9566  5.7096   2
   2  -1  18 8.68201 4.79588   1
  -2  -1 -18 18.1159  4.7161   2
  -2   1 -18 10.8267  3.7007   2
   2   1  18 13.4774  5.2186   1
  -2   1 -18 19.6199  6.1453   1
  -3  -1 -18 151.844  13.288   1
   3  -1  18 150.589  12.920   1
  -3  -1 -18 146.912  11.889   2
   3   1  18 141.884  12.627   1
  -3   1 -18 137.044  12.473   1
  -3   1 -18 152.585  11.261   2
   4  -1  18 10.3577  4.9289   1
  -4  -1 -18 19.7927  5.6670   1
  -4   1 -18 15.6038  4.2618   2
   4   1  18 16.0088  5.2568   1
  -5  -1 -18 26.9779  6.1322   1
   5  -1  18 21.4647  5.2837   1
   5   1  18 24.7640  5.9395   1
  -5   1 -18 28.3534  5.7893   2
   5   1  18 13.7476  4.9250   1
  -6  -1 -18 53.5920  7.8944   1
  -6   1 -18 40.8885  7.7222   1
  -7  -1 -18 -6.9789  4.6742   1
  -7   1 -18 -2.1072  3.9086   1
  -8  -1 -18 85.6189  9.8701   1
  -8   1 -18 85.0925  9.8281   1
 -10  -2  18 7.11567 4.70578   1
  10  -2 -18 0.16085 3.58157   2
  10  -2 -18 -4.1616  5.5959   5
  10   2 -18 1.96562 5.56335   5
  10   2 -18 -6.2018  4.6283   2
 -10   2  18 5.08355 3.78325   1
   9  -2 -18 22.6456  6.9431   5
   9  -2 -18 17.8708  6.5483   2
  -9  -2  18 17.8638  5.7727   1
   9   2 -18 20.5114  6.9615   2
   9   2 -18 28.1401  6.9273   5
  -9   2  18 13.9322  5.5290   1
  -8  -2  18 6.82295 4.78927   1
   8  -2 -18 11.5107  4.8082   2
   8   2 -18 7.73836 6.18797   2
  -8   2  18 2.49091 4.58537   1
   8   2 -18 7.43493 5.44625   5
   7  -2 -18 58.7504  8.3196   1
   7  -2 -18 75.3256 10.0117   5
  -7  -2  18 54.8152  8.2866   1
   7  -2 -18 60.4256  8.8925   2
   7   2 -18 61.2195  8.7014   1
  -7   2  18 53.6884  8.7492   1
   7   2 -18 42.5697  8.2019   5
   7   2 -18 60.3404  9.4751   2
   6  -2 -18 26.6473  6.4179   2
   6  -2 -18 36.1715  7.2523   1
  -6  -2  18 28.9436  6.7257   1
   6  -2 -18 19.2721  5.9495   5
   6   2 -18 21.4529  5.4782   1
  -6   2  18 25.6665  6.0899   1
   5  -2 -18 31.5429  6.8253   1
   5  -2 -18 30.4060  5.8738   5
  -5  -2  18 29.9596  7.2051   1
  -5   2  18 40.0283  7.1438   1
   5   2 -18 18.6542  5.4534   5
   5   2 -18 26.9447  5.7366   1
   5   2 -18 27.6382  6.5454   2
  -4  -2  18 15.6994  5.0985   1
   4  -2 -18 13.6803  4.5211   2
   4  -2 -18 23.0210  5.5033   5
   4   2 -18 21.0977  5.0612   5
   4   2 -18 6.77596 4.79576   1
  -4   2  18 13.5383  5.6393   1
   3  -2 -18 41.0003  6.0186   5
  -3  -2  18 36.7631  7.3294   1
   3  -2 -18 37.6999  7.4618   1
   3  -2 -18 50.6287  7.6942   2
   3   2 -18 43.2809  7.7263   1
   3   2 -18 44.9585  6.6613   5
   3   2 -18 41.6383  6.5270   2
  -3   2  18 44.2732  7.9624   1
   2  -2 -18 73.3310  9.5758   1
  -2  -2  18 64.6041  9.2907   1
   2  -2 -18 70.6984  7.3504   5
   2  -2 -18 73.8035  8.6608   2
   2   2 -18 64.8293  8.7053   1
   2   2 -18 82.9741  8.3052   5
   2   2 -18 77.1345  8.7514   2
  -2   2  18 74.6374  9.7097   1
   1  -2 -18 75.2851  9.9427   1
   1  -2 -18 87.3422  7.3799   5
  -1  -2  18 71.4892  9.8493   1
   1  -2 -18 78.6491  8.5146   2
  -1   2  18 77.7544  9.6124   1
   1   2 -18 79.4104  8.4435   2
   1   2 -18 67.3590  9.5537   1
   1   2 -18 81.9503  7.6796   5
   0  -2  18 -4.2923  4.6287   1
   0  -2 -18 5.02799 3.44643   2
   0  -2 -18 2.06164 4.53270   1
   0   2 -18 -2.0545  3.2956   2
   0   2 -18 -2.2724  4.8670   1
   0   2  18 6.68078 4.65621   1
   1  -2  18 55.2620  8.7807   1
  -1  -2 -18 54.9165  8.5574   1
  -1  -2 -18 55.8352  7.9645   2
  -1   2 -18 68.2411  7.8185   2
   1   2  18 58.9713  8.4382   1
  -1   2 -18 53.8491  8.5689   1
   2  -2  18 4.85322 4.40959   1
  -2  -2 -18 14.5380  5.1803   1
  -2  -2 -18 19.1015  5.6101   2
  -2   2 -18 11.8518  4.9893   1
   2   2  18 7.28597 4.44266   1
  -3  -2 -18 4.12983 3.35536   2
  -3  -2 -18 -2.4026  4.5028   1
   3  -2  18 0.53800 2.83431   1
   3   2  18 -4.0270  4.1329   1
  -3   2 -18 1.90084 3.11617   2
  -3   2 -18 -2.7096  4.6551   1
   4  -2  18 9.74793 4.84062   1
  -4  -2 -18 19.9786  5.8650   2
  -4   2 -18 11.7569  4.7114   1
   5  -2  18 14.4344  5.2235   1
  -5   2 -18 5.80820 3.32475   2
  -5   2 -18 2.00462 4.45555   1
   5   2  18 0.11939 3.15364   1
  -6  -2 -18 3.41276 3.27168   1
  -6   2 -18 3.90688 4.65858   1
  -7  -2 -18 11.9986  5.1930   1
  -8  -2 -18 33.4934  6.7289   1
  -8   2 -18 31.0145  6.7408   1
  -9  -2 -18 1.65239 3.78729   1
  -9   2 -18 4.34553 3.92884   1
  10  -3 -18 -3.2200  4.5245   2
 -10  -3  18 6.00044 4.42710   1
  10  -3 -18 0.24025 4.65443   5
  10   3 -18 -9.8574  6.3896   2
 -10   3  18 12.3569  5.5551   1
   9  -3 -18 5.83462 5.21417   2
  -9   3  18 11.3679  5.3993   1
   9   3 -18 4.60405 4.56024   2
   9   3 -18 3.89966 4.13825   5
  -8  -3  18 8.62003 4.83648   1
   8  -3 -18 14.8629  6.0654   5
   8   3 -18 19.7360  6.8128   5
   8   3 -18 12.2925  6.1612   2
  -7  -3  18 119.580  12.289   1
   7  -3 -18 129.305  11.924   2
   7  -3 -18 133.267  12.431   5
   7  -3 -18 147.645  13.379   1
  -7   3  18 131.408  12.697   1
   7   3 -18 111.090  11.439   2
   6  -3 -18 37.8668  7.3351   2
   6  -3 -18 39.9564  7.5598   5
   6  -3 -18 40.2592  7.7359   1
  -6  -3  18 36.8160  7.5970   1
   6   3 -18 53.8875  8.7264   2
  -6   3  18 37.8610  7.6964   1
   6   3 -18 39.3556  7.3040   1
   5  -3 -18 12.0940  5.5616   1
  -5  -3  18 10.7944  5.7892   1
   5  -3 -18 5.45498 3.29599   5
   5   3 -18 12.9126  5.4570   1
  -5   3  18 20.5212  6.2248   1
   4  -3 -18 11.5352  3.8529   5
   4  -3 -18 19.8769  5.6698   2
   4  -3 -18 22.5715  6.3166   1
  -4  -3  18 9.79656 5.69248   1
   4   3 -18 8.86774 4.16481   2
  -4   3  18 14.4772  5.0785   1
   4   3 -18 12.3963  5.2209   1
   3  -3 -18 11.7195  4.2645   5
   3  -3 -18 3.63578 4.24971   2
  -3   3  18 20.7164  6.4606   1
   3   3 -18 18.6382  5.6320   2
   3   3 -18 10.8976  5.1044   1
  -2  -3  18 33.1313  7.2590   1
   2  -3 -18 19.5198  6.1976   1
   2  -3 -18 33.8310  5.3213   5
   2  -3 -18 30.6493  6.4727   2
   2   3 -18 25.3080  6.5513   1
   2   3 -18 38.3415  6.6002   2
  -2   3  18 22.2374  5.7142   1
  -1  -3  18 71.7806  9.3282   1
   1  -3 -18 76.9943 10.1468   1
   1  -3 -18 78.5004  7.0944   5
   1  -3 -18 87.4134  9.1500   2
   1   3 -18 71.6006  8.4692   2
  -1   3  18 77.2533  9.9795   1
   1   3 -18 97.3956 10.9041   1
   0  -3 -18 22.9918  6.4503   1
   0  -3  18 16.3381  5.1146   1
   0  -3 -18 12.1305  4.3560   2
   0   3 -18 21.5068  6.3824   1
   0   3  18 22.6632  6.2480   1
   1  -3  18 24.8874  5.9341   1
  -1  -3 -18 43.9982  8.0031   1
  -1  -3 -18 34.0550  6.2421   2
  -1   3 -18 23.2039  5.2930   2
   1   3  18 30.5589  6.8756   1
  -1   3 -18 25.4619  6.8607   1
  -2  -3 -18 9.46279 5.20560   2
   2  -3  18 2.11807 4.25675   1
  -2  -3 -18 20.5860  6.0952   1
  -2   3 -18 2.96591 4.51264   1
   2   3  18 13.9795  4.6862   1
   3  -3  18 92.3605 10.6355   1
  -3  -3 -18 63.2520  8.8798   2
  -3  -3 -18 74.3112  9.8950   1
  -3   3 -18 76.8690  7.7886   2
  -3   3 -18 80.1756  9.6935   1
   3   3  18 68.7874  9.3515   1
  -4  -3 -18 8.18573 4.09883   1
   4  -3  18 5.29826 4.42617   1
  -4   3 -18 7.92139 5.20615   1
  -4   3 -18 5.36600 3.12533   2
   4   3  18 3.50406 3.94225   1
  -5  -3 -18 76.7463  9.7098   1
   5  -3  18 70.8340  9.0437   1
   5   3  18 73.1928  9.1172   1
  -5   3 -18 86.2725 10.6298   1
  -6  -3 -18 1.40334 3.77191   1
  -7  -3 -18 13.0226  5.1381   1
  -7   3 -18 2.46613 4.58576   1
  -8   3 -18 29.4762  6.5913   1
  -9  -3 -18 42.8134  7.3555   1
  -9   3 -18 44.8925  7.6671   1
   9  -4 -18 6.63075 5.61001   5
   9  -4 -18 11.2486  5.1611   2
  -9   4  18 9.35534 5.39218   1
   9   4 -18 2.11241 5.31451   2
   8  -4 -18 20.9543  6.8720   5
  -8  -4  18 34.5590  7.3427   1
   8  -4 -18 48.2994  8.2174   2
   8   4 -18 26.9564  6.8722   2
  -8   4  18 31.8745  7.4344   1
   7  -4 -18 5.32573 4.54040   2
  -7   4  18 6.71095 5.19681   1
   7   4 -18 2.92578 5.16719   2
  -6  -4  18 11.2901  5.7995   1
   6   4 -18 17.4201  6.3950   2
   6   4 -18 13.5960  5.5362   1
   5  -4 -18 4.28243 3.19950   5
  -5  -4  18 -4.8363  5.1865   1
   5  -4 -18 14.5112  5.3112   2
   5  -4 -18 7.25808 5.10413   1
   5   4 -18 8.03907 5.56787   2
  -5   4  18 6.41719 5.29912   1
   5   4 -18 3.79580 4.56412   1
   4  -4 -18 111.978  11.965   1
   4  -4 -18 104.592  10.687   2
   4  -4 -18 106.451   9.952   5
  -4  -4  18 101.512  11.533   1
  -4   4  18 123.003  12.531   1
   4   4 -18 93.2123 10.9060   1
   4   4 -18 86.3349  9.9040   2
  -3  -4  18 25.0137  6.7959   1
   3   4 -18 14.9206  4.8248   2
   3   4 -18 17.2741  5.2608   1
   2  -4 -18 2.12237 3.16704   5
  -2  -4  18 6.96273 5.04962   1
   2  -4 -18 1.49388 4.32160   2
   2  -4 -18 0.32249 4.37975   1
   2   4 -18 9.63358 4.76374   2
  -2   4  18 -1.1200  4.3590   1
   2   4 -18 7.47777 5.20343   1
  -1  -4  18 54.6309  8.4547   1
   1  -4 -18 43.2981  7.9408   1
   1  -4 -18 42.7230  5.4711   5
   1  -4 -18 62.6189  8.1619   2
  -1   4  18 62.3244  9.3170   1
   1   4 -18 47.8188  8.4793   1
   1   4 -18 52.2847  7.1689   2
   0  -4  18 7.36612 4.97967   1
   0  -4 -18 5.98004 5.00347   1
   0  -4 -18 3.50634 4.22675   2
   0   4 -18 3.21501 3.77536   1
   0   4  18 5.40273 4.78915   1
  -1  -4 -18 122.123  12.351   1
  -1  -4 -18 78.2972  9.7085   2
   1  -4  18 92.0392 10.9995   1
   1   4  18 102.691  11.317   1
  -1   4 -18 95.8271  8.5361   2
  -1   4 -18 84.2214 10.4071   1
   2  -4  18 13.5413  4.8684   1
  -2  -4 -18 11.1569  4.6254   2
  -2  -4 -18 17.2441  6.1556   1
  -2   4 -18 16.4066  4.2316   2
   2   4  18 12.0380  4.5873   1
  -2   4 -18 10.9516  5.6910   1
  -3  -4 -18 21.0830  6.4246   1
   3  -4  18 25.3716  6.5660   1
   3   4  18 16.3264  5.9598   1
  -3   4 -18 29.8816  7.0866   1
  -3   4 -18 26.7231  4.8452   2
  -4  -4 -18 76.4152 10.0325   1
   4  -4  18 86.4856 10.1327   1
  -4   4 -18 83.0867 10.6112   1
   4   4  18 87.8837 10.1724   1
  -5  -4 -18 18.0776  6.0556   1
   5  -4  18 18.6932  5.8948   1
  -5   4 -18 10.8066  4.7695   1
   5   4  18 14.8111  5.0885   1
  -6  -4 -18 29.1794  7.0497   1
  -6   4 -18 27.8352  6.2797   1
  -7  -4 -18 33.9052  7.0450   1
  -7   4 -18 47.6983  8.2758   1
  -8  -4 -18 37.5761  7.4923   1
  -8   4 -18 36.9575  7.4402   1
   9  -5 -18 17.8674  6.8661   5
   9  -5 -18 26.7705  6.5163   2
  -9  -5  18 33.3392  7.5655   1
   9   5 -18 39.8535  9.0668   2
   8  -5 -18 22.9056  6.4741   2
  -8  -5  18 43.0371  8.2227   1
   8  -5 -18 34.1140  7.7194   5
   8   5 -18 42.1039  8.1326   2
  -7  -5  18 -0.6327  4.6847   1
   7  -5 -18 -0.7175  4.7950   2
   7  -5 -18 -12.383   5.925   5
   7  -5 -18 -2.3231  3.7720   1
   7   5 -18 -10.529   6.082   2
  -7   5  18 10.6112  5.5711   1
   6  -5 -18 -2.0650  4.0151   1
   6  -5 -18 -3.6200  4.6980   2
   6  -5 -18 1.22280 3.40650   5
   6   5 -18 7.96348 4.95151   1
   6   5 -18 1.31525 4.91718   2
  -6   5  18 6.74966 4.86770   1
   5  -5 -18 11.5186  4.9699   5
   5  -5 -18 12.7740  4.9256   1
   5  -5 -18 2.20878 4.62795   2
   5   5 -18 16.1024  6.2288   2
  -5   5  18 1.93820 4.75842   1
  -4  -5  18 31.7870  7.5954   1
   4  -5 -18 25.2990  5.6219   5
   4   5 -18 20.5170  6.1250   2
  -4   5  18 33.0794  7.9187   1
   3  -5 -18 22.0490  6.6245   1
   3  -5 -18 21.6743  5.4572   2
  -3  -5  18 15.6068  6.1216   1
   3   5 -18 14.4565  5.1846   2
   3   5 -18 19.9924  5.5975   1
   2  -5 -18 1.04962 4.71321   1
   2  -5 -18 17.6669  5.7604   2
   2  -5 -18 7.25135 3.76124   5
  -2   5  18 8.72235 5.58604   1
   2   5 -18 1.57301 4.71259   1
   2   5 -18 18.1454  5.3790   2
  -1  -5  18 114.539  12.035   1
   1  -5 -18 115.204  11.128   2
   1  -5 -18 101.927   8.525   5
   1  -5 -18 117.914  12.551   1
   1   5 -18 113.618  10.086   2
   1   5 -18 110.508  12.261   1
  -1   5  18 109.194  12.024   1
   0  -5 -18 22.4809  6.4796   2
   0  -5 -18 -1.4708  3.9072   1
   0   5 -18 8.93844 5.26401   1
   0   5  18 5.20705 5.24176   1
  -1  -5 -18 22.3002  6.7795   2
  -1  -5 -18 31.5033  7.6768   1
   1  -5  18 20.4512  5.7559   1
  -1   5 -18 31.8740  5.4155   2
   1   5  18 26.9003  7.0789   1
  -1   5 -18 40.9407  8.1324   1
   2  -5  18 121.132  12.443   1
  -2  -5 -18 120.842  12.721   1
  -2  -5 -18 112.008  11.983   2
   2   5  18 118.802  12.318   1
  -2   5 -18 110.552  12.183   1
  -2   5 -18 114.995   9.105   2
  -3  -5 -18 -4.1118  4.0959   1
   3  -5  18 -1.5278  4.3638   1
   3   5  18 4.73284 4.67933   1
  -3   5 -18 7.04200 5.52189   1
   4  -5  18 13.0012  4.8493   1
  -4  -5 -18 2.17344 4.66629   1
   4   5  18 12.3085  5.0400   1
  -4   5 -18 18.6592  6.5438   1
  -5  -5 -18 108.768  12.097   1
   5  -5  18 91.0287 10.9380   1
  -5   5 -18 95.1278 10.9072   1
  -6   5 -18 28.9097  6.5185   1
  -7  -5 -18 0.12821 3.93092   1
  -7   5 -18 1.13923 4.03386   1
  -8  -5 -18 0.37548 4.06720   1
  -8   5 -18 2.43356 4.59040   1
   8  -6 -18 22.4375  7.0091   5
  -8  -6  18 18.0114  5.5832   1
   8  -6 -18 23.5636  6.3290   2
  -8   6  18 31.2765  7.8581   1
   7  -6 -18 15.8829  5.0440   2
   7  -6 -18 23.9235  6.6262   5
  -7  -6  18 17.4163  6.5862   1
  -7   6  18 27.2115  7.4483   1
   7   6 -18 21.4852  7.2694   2
  -6  -6  18 8.12084 5.70642   1
   6  -6 -18 3.03275 4.97016   1
   6  -6 -18 -7.9006  5.2582   2
  -6   6  18 16.8350  6.4110   1
   6   6 -18 5.28051 4.81555   1
   6   6 -18 4.67160 5.49770   2
   5  -6 -18 32.8163  7.6990   1
   5  -6 -18 29.2148  6.9698   2
   5  -6 -18 37.7723  7.2386   5
  -5  -6  18 39.5030  8.4021   1
   5   6 -18 36.0056  7.7764   1
   5   6 -18 49.2330  8.3582   2
  -5   6  18 46.9841  8.8221   1
   4  -6 -18 -5.3228  4.4980   1
  -4  -6  18 1.10376 4.74347   1
   4  -6 -18 -5.5553  4.0067   5
   4   6 -18 1.13713 3.47090   1
  -4   6  18 3.29171 4.94044   1
   4   6 -18 3.99223 4.85417   2
   3  -6 -18 25.6382  7.4032   1
  -3  -6  18 40.7636  7.7884   1
   3  -6 -18 36.2157  7.3175   2
   3  -6 -18 26.3911  5.7589   5
  -3   6  18 23.8216  6.8824   1
   3   6 -18 45.2907  8.4266   1
   3   6 -18 32.9716  6.6704   2
   2  -6 -18 5.40089 3.76959   5
   2  -6 -18 8.64974 5.23618   2
  -2  -6  18 -0.0811  4.8808   1
  -2   6  18 18.7388  6.5672   1
   2   6 -18 11.9872  5.0695   1
   2   6 -18 9.32903 4.76585   2
   1  -6 -18 49.9163  8.3576   2
  -1  -6  18 61.1963  9.9282   1
   1  -6 -18 62.0051  9.7126   1
   1   6 -18 56.1033  7.5426   2
   1   6 -18 42.2076  8.6407   1
  -1   6  18 64.4541  9.7355   1
   0  -6  18 -11.935   5.870   1
   0  -6 -18 -12.401   5.692   2
   0  -6 -18 0.00000 4.35452   1
   0   6  18 1.14148 3.33710   1
   0   6 -18 1.69838 2.82949   2
   0   6 -18 6.01652 5.51463   1
  -1  -6 -18 28.9922  6.8469   1
   1  -6  18 23.9185  6.9791   1
  -1  -6 -18 17.8972  6.7474   2
   1   6  18 12.0849  5.6325   1
  -1   6 -18 18.0080  6.8271   1
  -2  -6 -18 60.0798  9.9345   1
   2  -6  18 55.1031  9.2927   1
   2   6  18 47.5761  8.7960   1
  -2   6 -18 57.0773  9.4182   1
   3  -6  18 5.88022 5.08628   1
  -3  -6 -18 10.0185  5.7891   1
  -3   6 -18 10.0789  4.8827   1
   3   6  18 7.15090 4.23796   1
  -4  -6 -18 17.1612  6.5560   1
   4  -6  18 30.9795  7.3660   1
  -4   6 -18 23.1252  7.1858   1
   4   6  18 16.3461  5.8105   1
  -5  -6 -18 0.87752 4.57616   1
   5  -6  18 -0.4410  3.0232   1
  -5   6 -18 -2.6731  5.2650   1
  -6  -6 -18 11.6152  5.7507   1
  -6   6 -18 19.3937  6.4666   1
  -7  -6 -18 2.98299 4.86164   1
   7  -7 -18 10.9612  5.9407   5
  -7  -7  18 23.9016  6.8218   1
   7   7 -18 24.7935  7.2856   2
   6  -7 -18 37.6466  8.3193   1
   6  -7 -18 32.4803  7.2455   2
  -6  -7  18 28.8277  6.8856   1
   6  -7 -18 23.3939  6.7382   5
  -6   7  18 42.5946  8.8372   1
   6   7 -18 30.9671  7.7728   2
   5  -7 -18 14.5100  5.4638   1
   5  -7 -18 15.8438  5.9899   2
  -5  -7  18 20.1190  5.9539   1
   5  -7 -18 19.7321  6.1347   5
  -5   7  18 23.8907  7.4231   1
   5   7 -18 23.5414  6.9156   1
   4  -7 -18 12.6170  5.7681   2
   4  -7 -18 11.8003  6.3633   1
  -4  -7  18 -1.6778  5.1958   1
   4   7 -18 20.3622  7.0464   1
   4   7 -18 4.28321 4.89428   2
   3  -7 -18 21.1629  5.4415   5
   3  -7 -18 16.0036  6.0286   2
   3  -7 -18 23.7205  6.5900   1
   3   7 -18 15.5381  4.7231   2
   3   7 -18 19.8748  6.4332   1
  -3   7  18 28.6298  7.6088   1
  -2  -7  18 16.6875  6.5750   1
   2  -7 -18 22.0008  6.5649   2
   2  -7 -18 26.6293  7.6206   1
   2  -7 -18 23.3743  5.1528   5
   2   7 -18 25.1755  7.4990   1
  -2   7  18 28.3038  7.1721   1
   2   7 -18 28.5148  6.1442   2
  -1  -7  18 46.0347  8.6925   1
   1  -7 -18 40.0428  8.6235   1
   1  -7 -18 32.1544  7.5444   2
   1   7 -18 50.1987  9.1339   1
  -1   7  18 52.1089  9.3534   1
   1   7 -18 38.9705  6.5777   2
   0  -7 -18 -6.2490  5.5781   2
   0  -7 -18 12.6165  6.1193   1
   0  -7  18 0.43820 4.69658   1
   0   7 -18 4.73619 4.13921   1
  -1  -7 -18 7.84599 5.93372   1
   1  -7  18 18.1325  6.5310   1
  -1   7 -18 8.91705 4.86321   1
   1   7  18 17.8803  6.3719   1
  -2   7 -18 26.2632  7.5616   1
   2   7  18 16.4199  6.1604   1
   3  -7  18 12.4041  6.2458   1
  -3  -7 -18 -2.4981  5.3593   1
   3   7  18 -1.6362  4.6556   1
  -3   7 -18 -7.3874  5.7892   1
   4  -7  18 8.26998 5.47475   1
  -4  -7 -18 11.2551  5.0095   1
  -4   7 -18 3.60097 4.84576   1
  -5  -7 -18 39.4080  8.3875   1
  -5   7 -18 44.3630  9.0206   1
  -6   7 -18 1.56743 4.74712   1
   6  -8 -18 85.9775 12.0183   1
  -6  -8  18 124.842  13.769   1
   6  -8 -18 97.6889 11.6046   2
   6  -8 -18 97.4975 11.5125   5
  -6   8  18 112.863  13.507   1
   6   8 -18 86.2782 10.6198   2
   5  -8 -18 29.9411  7.1613   5
  -5  -8  18 16.7616  6.8575   1
   5  -8 -18 19.1408  6.4619   2
   5   8 -18 22.9766  6.3033   1
  -5   8  18 21.5394  7.4276   1
  -4  -8  18 3.39562 4.03560   1
   4  -8 -18 2.52712 3.64931   5
   4  -8 -18 10.3708  5.8303   1
   4  -8 -18 1.10794 4.58488   2
   4   8 -18 -1.6171  3.5914   2
   4   8 -18 2.44875 4.65161   1
  -3  -8  18 -6.1863  5.5246   1
   3  -8 -18 0.72225 5.00735   1
   3  -8 -18 0.79799 4.04212   5
   3   8 -18 0.97822 4.25937   2
   3   8 -18 -8.9416  5.9642   1
  -3   8  18 4.46081 5.32278   1
   2  -8 -18 14.1130  6.1452   1
   2  -8 -18 22.7234  6.2971   2
  -2  -8  18 32.1542  7.3167   1
   2  -8 -18 29.6282  5.9766   5
  -2   8  18 23.2494  7.5908   1
   2   8 -18 29.5694  7.8507   1
   2   8 -18 24.7833  5.5756   2
   1  -8 -18 5.19267 4.41479   1
  -1   8  18 6.88414 5.93231   1
   1   8 -18 1.96422 4.25882   1
   0  -8  18 14.9427  6.4875   1
   0   8  18 7.73465 5.71429   1
   0   8 -18 4.09159 5.49670   1
  -1  -8 -18 7.73291 5.53079   1
   1  -8  18 -7.0717  5.9251   1
   1   8  18 2.17806 5.17479   1
  -2  -8 -18 -5.9933  5.9155   1
   2  -8  18 -0.3404  4.8591   1
   2   8  18 6.32585 5.25018   1
  -2   8 -18 2.77643 4.27454   1
   3  -8  18 -3.6044  4.6489   1
  -3  -8 -18 6.74534 5.25812   1
  -3   8 -18 19.9603  7.6238   1
   3   8  18 18.1473  6.3395   1
   4  -8  18 106.884  12.922   1
  -4  -8 -18 113.238  13.631   1
  -4   8 -18 103.058  13.004   1
  -4  -9  18 -1.9299  4.0405   1
   4  -9 -18 10.4462  6.6125   1
   4  -9 -18 5.04971 4.12383   2
   4  -9 -18 4.27649 4.36171   5
   4   9 -18 -4.8304  4.8339   2
   4   9 -18 -4.1421  5.1378   1
  -4   9  18 9.38117 6.55919   1
   3  -9 -18 4.62148 5.29675   1
   3  -9 -18 6.29566 4.11337   5
  -3  -9  18 14.4036  6.7385   1
   3  -9 -18 12.8966  5.1316   2
   3   9 -18 1.69583 5.03006   1
  -3   9  18 11.1745  6.0809   1
   2   9 -18 22.4040  7.2378   1
  -2   9  18 6.01095 5.53440   1
   1  -9 -18 1.68705 5.23398   1
  -1  -9  18 -4.6285  5.4586   1
  -1   9  18 15.5296  6.6617   1
   1   9 -18 1.62292 3.81417   1
   0  -9 -18 56.6185 10.5476   1
   0  -9  18 60.0052 10.4656   1
   0   9 -18 55.1491  9.9703   1
   0   9  18 62.7642 10.4906   1
  -1  -9 -18 3.10054 5.50883   1
   1  -9  18 -10.184   6.050   1
  -1   9 -18 -0.3489  5.1067   1
   1   9  18 10.3570  5.5956   1
   2  -9  18 17.4339  7.1320   1
  -2  -9 -18 8.50577 5.83951   1
   2   9  18 34.6672  8.3634   1
 -10   0  19 -4.9647  4.0642   1
  10   0 -19 -1.6889  5.4911   2
  10   0 -19 -14.081   7.066   5
   9   0 -19 46.8929  8.8357   2
  -9   0  19 40.1425  7.7021   1
   9   0 -19 32.5303  7.9760   5
   8   0 -19 2.23602 4.55351   2
   8   0 -19 10.7149  5.6398   5
   7   0 -19 15.0005  5.1198   1
   7   0 -19 24.5486  6.7245   2
  -7   0  19 10.3303  5.3620   1
  -7   0  19 24.1125  6.6519   1
   7   0 -19 19.1991  6.2179   5
   6   0 -19 10.1917  5.0236   1
   6   0 -19 -4.8969  5.0464   2
   6   0 -19 2.10699 4.27984   5
  -6   0  19 3.73151 4.89357   1
  -5   0  19 20.8079  6.7358   1
   5   0 -19 9.55170 4.92627   5
   5   0 -19 12.4786  5.5179   1
   5   0 -19 20.2177  6.2601   2
   4   0 -19 7.05859 3.92749   2
   4   0 -19 -6.1656  4.0970   5
   4   0 -19 -4.6871  3.6119   1
  -4   0  19 -2.7004  4.5304   1
   3   0 -19 13.9246  3.9699   5
   3   0 -19 5.64775 4.97022   1
  -3   0  19 23.3763  5.9084   1
   3   0 -19 24.0880  6.4430   2
  -2   0  19 -11.837   5.750   1
   2   0 -19 2.58498 3.85446   1
   2   0 -19 -1.3040  4.2085   2
   1   0 -19 58.8841  9.0206   1
   1   0 -19 54.1932  7.3271   2
  -1   0  19 60.1188  9.3786   1
   0   0 -19 2.11705 3.90080   2
   0   0  19 4.84575 4.72143   1
  -1   0 -19 -5.0793  4.5458   2
   1   0  19 -2.8335  4.2353   1
  -1   0 -19 8.76528 5.09527   1
  -2   0 -19 12.9063  5.3304   1
  -2   0 -19 2.35735 2.94983   2
   2   0  19 -1.5402  4.2737   1
  -3   0 -19 14.2822  5.8510   1
  -4   0 -19 -4.0338  4.2027   1
   4   0  19 -12.027   5.203   1
  -4   0 -19 8.33436 4.41972   2
  -5   0 -19 24.8429  6.5592   1
  -6   0 -19 -7.9227  5.2617   1
  -7   0 -19 10.8786  4.4986   1
  -8   0 -19 -1.7868  4.1089   1
 -10  -1  19 7.32535 5.20064   1
  10  -1 -19 21.4941  6.2603   2
  10  -1 -19 15.4966  6.8411   5
   9  -1 -19 16.2920  6.4550   5
   9  -1 -19 21.9963  7.0330   2
  -9  -1  19 29.8074  7.0212   1
  -9   1  19 26.9947  6.9211   1
   9   1 -19 35.9700  7.7158   5
   9   1 -19 31.9668  7.1851   2
   8  -1 -19 -4.7967  3.9318   2
   8  -1 -19 7.59324 5.18024   5
  -8  -1  19 -3.3157  4.7408   1
  -8   1  19 -4.1185  4.4103   1
   8   1 -19 -5.9061  5.2977   5
   8   1 -19 -2.0013  5.1815   2
   7  -1 -19 29.9754  6.9111   1
  -7  -1  19 34.1340  7.2353   1
   7  -1 -19 31.6667  7.4081   2
   7  -1 -19 18.9926  6.1071   5
  -7   1  19 21.0662  6.4072   1
   7   1 -19 18.1454  6.2946   2
   7   1 -19 11.9247  5.6073   5
   6  -1 -19 8.03169 4.73442   5
   6  -1 -19 17.5805  5.7465   1
   6   1 -19 13.0108  4.8081   5
   6   1 -19 13.7979  5.5251   1
   6   1 -19 14.0604  4.9587   2
   5  -1 -19 171.094  13.473   5
  -5  -1  19 167.458  14.063   1
   5  -1 -19 148.878  13.411   1
   5  -1 -19 160.247  12.985   2
   5   1 -19 167.828  14.161   1
   5   1 -19 167.075  13.003   2
  -5   1  19 159.357  14.172   1
   5   1 -19 153.974  12.804   5
  -4  -1  19 17.9520  5.9913   1
   4  -1 -19 20.6562  5.3478   5
   4  -1 -19 12.9243  5.5699   1
   4   1 -19 13.1638  5.4449   1
   4   1 -19 19.4387  5.2794   5
  -4   1  19 20.3298  6.3991   1
   3  -1 -19 139.253  11.867   2
   3  -1 -19 121.008  10.277   5
  -3  -1  19 133.507  13.090   1
   3  -1 -19 140.287  12.790   1
   3   1 -19 134.405  12.711   1
  -3   1  19 144.334  13.556   1
   3   1 -19 136.123  11.083   5
   3   1 -19 123.747  11.241   2
   2  -1 -19 167.775  11.088   5
   2  -1 -19 181.944  14.857   1
  -2  -1  19 181.400  14.577   1
   2  -1 -19 186.037  13.139   2
   2   1 -19 173.040  11.625   5
   2   1 -19 198.120  15.334   1
   2   1 -19 174.503  12.906   2
  -2   1  19 175.399  14.777   1
   1  -1 -19 118.546  10.987   2
  -1  -1  19 126.430  12.622   1
   1  -1 -19 126.818  12.555   1
   1   1 -19 101.075  10.022   2
   1   1 -19 115.318  11.589   1
  -1   1  19 106.719  11.314   1
   0  -1  19 2.92754 4.51191   1
   0  -1 -19 11.9817  5.1719   2
   0  -1 -19 1.83287 4.15015   1
   0   1 -19 1.21681 3.49135   1
   0   1 -19 6.53494 4.49715   2
  -1  -1 -19 26.6704  5.4420   2
  -1  -1 -19 14.1269  5.6730   1
   1  -1  19 13.2466  5.3645   1
  -1   1 -19 20.7544  5.6000   1
  -1   1 -19 21.8041  4.9122   2
   1   1  19 23.4877  5.7672   1
  -2  -1 -19 4.22040 4.30676   2
   2  -1  19 10.2649  4.4052   1
   2   1  19 6.28693 4.90706   1
  -2   1 -19 13.9691  4.6716   2
  -3  -1 -19 1.83536 3.13440   2
  -3  -1 -19 3.99713 3.73585   1
  -3   1 -19 3.25854 3.68804   2
  -3   1 -19 6.66096 5.00780   1
   3   1  19 0.13539 3.66811   1
  -4  -1 -19 94.3762 10.2953   2
   4  -1  19 91.6521 10.4016   1
  -4  -1 -19 98.1248 11.2643   1
  -4   1 -19 106.475  11.642   1
  -4   1 -19 91.2875  9.4109   2
   4   1  19 82.1029 10.2694   1
  -5  -1 -19 21.3971  6.3110   1
   5  -1  19 22.5553  6.1590   1
   5   1  19 18.9906  5.9650   1
  -5   1 -19 16.6831  5.6018   1
  -6  -1 -19 79.7153 10.1522   1
  -6   1 -19 78.7383 10.0370   1
  -7   1 -19 24.7712  6.5030   1
  -8  -1 -19 3.62322 4.23246   1
  -8   1 -19 5.93907 4.67551   1
   9  -2 -19 21.6857  7.0030   5
   9  -2 -19 32.4539  7.8985   2
  -9   2  19 28.6342  7.1190   1
   9   2 -19 29.0080  7.7961   2
   9   2 -19 24.2846  7.5188   5
   8  -2 -19 50.7777  8.3798   2
  -8  -2  19 56.7705  8.8821   1
   8  -2 -19 41.5934  8.4733   5
   8   2 -19 49.8245  9.0429   5
  -8   2  19 60.1257  9.2990   1
   8   2 -19 56.6595  8.7836   2
  -7  -2  19 0.70768 4.44910   1
   7  -2 -19 -1.1751  4.0179   1
   7   2 -19 -3.8229  5.5147   2
   7   2 -19 7.12878 5.39625   5
  -6  -2  19 52.5015  8.9067   1
   6  -2 -19 48.9701  8.1559   5
   6  -2 -19 23.4692  6.5585   2
   6  -2 -19 28.9563  6.3968   1
   6   2 -19 43.0786  8.0673   5
  -6   2  19 39.3933  7.9413   1
   6   2 -19 31.4898  7.5423   2
   6   2 -19 38.1908  7.3836   1
   5  -2 -19 -5.3546  4.3914   5
   5  -2 -19 -6.3540  4.1996   1
  -5  -2  19 -1.4542  4.7709   1
   5  -2 -19 3.29718 4.92580   2
   5   2 -19 8.54114 4.91727   1
   5   2 -19 -1.8877  4.0427   5
  -5   2  19 5.03092 5.25598   1
   5   2 -19 -1.6443  5.1015   2
   4  -2 -19 3.00717 4.68449   2
  -4  -2  19 10.3436  5.4789   1
   4  -2 -19 0.43960 3.42925   5
   4  -2 -19 14.2632  5.7956   1
   4   2 -19 3.37254 4.93241   2
  -4   2  19 2.12485 4.63640   1
   4   2 -19 10.1914  4.5540   5
   4   2 -19 5.92565 3.79537   1
   3  -2 -19 56.4631  7.2086   5
   3  -2 -19 78.9580 10.0606   1
  -3  -2  19 78.8696 10.0219   1
   3   2 -19 72.5860  9.6909   1
   3   2 -19 78.3851  9.2286   2
   3   2 -19 77.7055  8.6520   5
  -3   2  19 56.6614  8.5301   1
   2  -2 -19 3.35424 4.68979   1
   2  -2 -19 4.45170 4.29103   2
  -2  -2  19 7.67414 5.34940   1
   2  -2 -19 3.15765 2.85817   5
   2   2 -19 1.39169 3.85895   2
   2   2 -19 7.70804 4.23429   1
   2   2 -19 11.5640  3.9444   5
  -2   2  19 -8.9671  5.4447   1
  -1  -2  19 -9.9142  5.4876   1
   1  -2 -19 8.64238 4.31662   1
   1  -2 -19 4.98534 4.70454   2
   1   2 -19 4.86887 4.31861   2
   1   2 -19 -0.3811  4.3733   1
   0  -2  19 15.7248  5.8644   1
   0  -2 -19 16.6599  5.2288   1
   0  -2 -19 10.8923  5.0573   2
   0   2  19 12.1169  5.6460   1
   0   2 -19 11.6357  5.4044   1
   0   2 -19 15.6342  4.3704   2
  -1  -2 -19 2.29442 3.38858   1
   1  -2  19 7.03711 4.77724   1
  -1  -2 -19 -2.4761  4.2444   2
  -1   2 -19 10.7456  5.2369   1
   1   2  19 2.66872 4.30751   1
  -1   2 -19 1.07619 3.37040   2
  -2  -2 -19 5.71375 4.94139   1
  -2  -2 -19 1.11318 3.09500   2
   2  -2  19 7.42246 4.71198   1
  -2   2 -19 0.21696 3.20879   2
  -2   2 -19 -0.9511  4.2207   1
   2   2  19 -1.1783  3.9084   1
  -3  -2 -19 9.82531 5.29301   1
  -3  -2 -19 6.64811 4.70757   2
   3  -2  19 3.25957 3.23271   1
   3   2  19 -2.0758  3.1607   1
  -3   2 -19 -4.0544  4.8615   1
  -3   2 -19 6.20453 3.69376   2
   4  -2  19 8.94233 5.04937   1
  -4  -2 -19 6.84815 5.01127   1
  -4  -2 -19 22.2195  6.1106   2
   4   2  19 7.08683 4.75898   1
  -4   2 -19 1.44377 3.14338   2
  -4   2 -19 -2.3331  4.6579   1
   5  -2  19 43.1137  7.8378   1
  -5  -2 -19 28.7235  6.8891   1
  -5   2 -19 40.1123  7.9375   1
   5   2  19 36.0063  7.2762   1
  -6  -2 -19 19.0086  6.2531   1
  -6   2 -19 19.5026  6.2946   1
  -7  -2 -19 28.2116  6.8375   1
  -7   2 -19 33.2773  7.2150   1
  -8  -2 -19 -4.2579  3.8080   1
  -8   2 -19 -3.5626  4.2040   1
   9  -3 -19 -3.7489  5.0500   5
   9  -3 -19 0.89555 4.54588   2
  -9  -3  19 3.52242 4.61645   1
  -9   3  19 10.0777  5.5461   1
   9   3 -19 -5.7239  5.8335   2
   8  -3 -19 5.39258 5.39674   5
  -8  -3  19 0.78493 4.39618   1
   8  -3 -19 0.15711 3.25422   2
   8   3 -19 -0.6615  4.3934   5
  -8   3  19 4.01637 4.76867   1
   7  -3 -19 44.7669  8.1946   5
   7  -3 -19 58.3091  9.1673   2
  -7  -3  19 54.8762  9.0427   1
  -7   3  19 53.8695  8.6347   1
   7   3 -19 46.2751  8.7568   5
   7   3 -19 39.6610  8.4949   2
   6  -3 -19 69.2468  9.6360   1
  -6  -3  19 62.6087  9.5070   1
   6  -3 -19 46.9481  7.5647   5
   6  -3 -19 56.3643  8.8650   2
  -6   3  19 62.3357  9.3780   1
   6   3 -19 63.4132  9.2070   1
   6   3 -19 58.6865  8.6953   2
   6   3 -19 69.2208  9.4715   5
  -5  -3  19 90.8919 11.1530   1
   5  -3 -19 73.5531  9.5397   2
   5  -3 -19 92.7300 10.1122   5
   5  -3 -19 88.7101 10.8623   1
   5   3 -19 86.2618 10.4973   1
  -5   3  19 90.3309 10.8550   1
   5   3 -19 93.8186 10.1582   2
  -4  -3  19 56.2843  9.2203   1
   4  -3 -19 43.0026  7.5720   2
   4  -3 -19 32.5532  6.9041   1
   4  -3 -19 30.5822  6.1959   5
   4   3 -19 41.1932  7.8759   1
  -4   3  19 44.9135  8.3538   1
   4   3 -19 37.4232  7.5022   2
   3  -3 -19 13.5859  5.7639   1
   3  -3 -19 -2.2794  2.9519   5
  -3  -3  19 4.83988 4.56372   1
   3   3 -19 1.41129 4.46832   1
   3   3 -19 11.0373  5.2354   2
  -3   3  19 4.08292 4.84053   1
   2  -3 -19 65.0297  9.1835   1
  -2  -3  19 60.2136  9.4375   1
   2  -3 -19 52.1404  8.1953   2
   2  -3 -19 48.4214  6.2373   5
   2   3 -19 55.1528  9.0264   1
   2   3 -19 55.5761  8.0301   2
  -2   3  19 63.4531  9.5164   1
   1  -3 -19 -4.5158  4.8972   2
   1  -3 -19 10.5389  5.4160   1
  -1  -3  19 -0.9502  4.5479   1
   1   3 -19 -9.5196  5.4379   1
  -1   3  19 8.66974 4.20825   1
   1   3 -19 -4.3531  4.0810   2
   0  -3 -19 69.4640 10.0360   1
   0  -3  19 66.6978  9.3235   1
   0  -3 -19 58.7617  8.6056   2
   0   3 -19 61.7780  7.8877   2
   0   3  19 73.4881  9.5482   1
   0   3 -19 69.0394  9.8441   1
  -1  -3 -19 14.1001  5.7947   1
  -1  -3 -19 6.67232 5.14707   2
  -1   3 -19 11.2683  5.7439   1
  -2  -3 -19 16.0838  5.5430   1
   2  -3  19 10.6711  5.3667   1
  -2  -3 -19 17.1950  5.8628   2
  -2   3 -19 26.9444  7.1532   1
  -2   3 -19 23.1016  5.0120   2
   2   3  19 20.7020  6.1746   1
  -3  -3 -19 16.2521  6.0036   2
   3  -3  19 3.50612 4.88266   1
   3   3  19 23.7869  6.3419   1
  -3   3 -19 2.71562 3.68843   1
  -4  -3 -19 85.9931 10.8273   1
   4  -3  19 86.7485 10.7530   1
  -4   3 -19 97.5820 11.4639   1
   4   3  19 80.7386 10.2162   1
  -5  -3 -19 23.4116  5.8509   1
   5  -3  19 13.8100  4.7635   1
  -5   3 -19 17.8740  6.3904   1
  -6   3 -19 23.0539  6.5326   1
  -7   3 -19 30.6700  7.1736   1
  -8   3 -19 14.8349  5.5830   1
  -9  -4  19 -3.5868  4.7983   1
   9  -4 -19 12.1409  5.8296   2
   9  -4 -19 20.9253  6.8618   5
  -9   4  19 0.16063 4.15591   1
   9   4 -19 0.25283 3.42185   5
  -8  -4  19 33.4332  7.7394   1
   8  -4 -19 25.2534  6.6171   2
   8  -4 -19 36.6998  8.1536   5
  -8   4  19 41.6443  8.4338   1
   8   4 -19 23.4921  7.3293   2
   7  -4 -19 34.3725  7.4096   2
  -7  -4  19 46.9840  8.8214   1
   7  -4 -19 41.6285  8.0644   5
   7   4 -19 40.1743  7.6066   2
  -7   4  19 29.1307  7.6223   1
  -6  -4  19 14.2986  6.1451   1
   6  -4 -19 0.40168 4.24937   5
   6  -4 -19 -6.3543  5.0865   2
   6  -4 -19 8.26184 5.34521   1
   6   4 -19 3.92324 4.31784   1
  -6   4  19 9.93223 5.80640   1
   6   4 -19 1.68174 5.23741   2
  -5  -4  19 59.1949  9.5503   1
   5  -4 -19 66.6324  9.3709   2
   5  -4 -19 45.8615  8.7112   1
   5  -4 -19 63.5189  8.7501   5
   5   4 -19 50.7644  8.6793   1
  -5   4  19 68.7901 10.4455   1
   5   4 -19 46.0700  8.2740   2
   4  -4 -19 0.16932 3.54324   5
  -4  -4  19 8.02082 5.54167   1
   4  -4 -19 -2.8424  3.4373   2
   4  -4 -19 -1.9994  4.5826   1
  -4   4  19 -6.8522  4.9499   1
   4   4 -19 -7.8754  5.3834   1
   4   4 -19 -3.7683  3.7011   2
   3  -4 -19 12.9661  5.1670   1
   3  -4 -19 15.1659  4.5442   5
  -3  -4  19 3.95108 4.97018   1
   3  -4 -19 22.7927  6.3026   2
  -3   4  19 8.15211 5.10234   1
   3   4 -19 1.50164 4.20176   2
   2  -4 -19 -8.2478  5.0790   2
   2  -4 -19 6.32494 5.25430   1
  -2  -4  19 4.39544 4.81687   1
   2  -4 -19 4.17212 3.20544   5
   2   4 -19 1.98806 4.74907   1
  -2   4  19 1.95286 3.55648   1
   2   4 -19 -8.1141  4.3718   2
  -1  -4  19 35.7731  7.4008   1
   1  -4 -19 29.7611  6.9235   2
   1  -4 -19 44.4665  8.4019   1
  -1   4  19 27.6841  7.0379   1
   1   4 -19 35.6265  6.4435   2
   1   4 -19 22.0222  6.9845   1
   0  -4  19 -5.1389  3.9525   1
   0  -4 -19 14.3105  5.6938   2
   0  -4 -19 2.31366 4.46815   1
   0   4  19 1.53888 4.41007   1
   0   4 -19 3.72332 4.00374   2
   0   4 -19 -7.4898  5.4822   1
   1  -4  19 10.7163  4.7738   1
  -1  -4 -19 -3.9335  5.0508   1
  -1  -4 -19 10.3299  4.7334   2
  -1   4 -19 4.26335 5.16688   1
   1   4  19 3.36765 4.58717   1
   2  -4  19 25.3552  6.7892   1
  -2  -4 -19 23.6207  6.5828   1
  -2  -4 -19 13.3067  5.2035   2
  -2   4 -19 26.1114  7.3321   1
   2   4  19 32.6077  6.8287   1
  -2   4 -19 15.3569  4.1759   2
   3  -4  19 18.0630  6.4234   1
  -3  -4 -19 6.45964 5.18540   1
  -3   4 -19 -1.1336  4.1320   1
   3   4  19 -2.7209  4.5029   1
   4  -4  19 -3.2328  4.4232   1
  -4  -4 -19 5.16033 4.06521   1
   4   4  19 1.11389 4.13535   1
  -4   4 -19 16.6036  6.1799   1
  -5  -4 -19 9.76172 5.51895   1
  -5   4 -19 7.21912 5.01187   1
  -6   4 -19 7.29074 5.19631   1
  -7  -4 -19 53.8501  8.7043   1
  -7   4 -19 56.9833  9.0441   1
  -8  -5  19 5.93071 5.11021   1
   8  -5 -19 4.39905 5.22928   2
  -8   5  19 10.7286  6.0799   1
   7  -5 -19 1.32468 3.83038   2
   7  -5 -19 4.34184 4.99135   5
  -7  -5  19 -5.8761  5.5606   1
  -7   5  19 2.46664 3.70954   1
   7   5 -19 6.48630 4.55273   2
   6  -5 -19 2.69298 4.72388   1
   6  -5 -19 3.50133 3.64646   2
  -6  -5  19 15.5478  6.2728   1
   6  -5 -19 3.65674 4.56966   5
   6   5 -19 -6.8781  5.0373   1
   6   5 -19 4.56357 5.44605   2
  -6   5  19 4.32640 3.92063   1
   5  -5 -19 17.4219  5.7287   5
   5  -5 -19 13.9526  5.4782   1
   5  -5 -19 21.0552  5.6022   2
  -5   5  19 8.13450 5.76826   1
   5   5 -19 18.4562  6.5515   2
  -4  -5  19 14.9792  6.5223   1
   4  -5 -19 30.1564  6.5540   2
   4  -5 -19 14.7397  5.0944   5
   4   5 -19 30.1545  7.2555   1
   4   5 -19 20.5576  6.1154   2
   3  -5 -19 0.51432 4.48350   1
   3  -5 -19 -7.2577  5.1428   2
  -3  -5  19 2.71417 3.83875   1
  -3   5  19 1.97652 3.36322   1
   3   5 -19 3.24490 4.30999   2
   3   5 -19 2.40668 4.50587   1
   2  -5 -19 59.2723  9.6873   1
   2  -5 -19 52.6914  8.5710   2
  -2  -5  19 49.6915  9.0167   1
  -2   5  19 46.2166  8.8064   1
   2   5 -19 39.0264  8.0236   1
   2   5 -19 41.9385  6.6139   2
  -1  -5  19 46.2266  8.9455   1
   1  -5 -19 54.2098  9.3037   1
   1  -5 -19 53.8566  8.8820   2
   1   5 -19 65.2957  7.8329   2
  -1   5  19 61.6534  9.8919   1
   1   5 -19 62.5035  9.8565   1
   0  -5 -19 0.49327 3.90524   1
   0  -5 -19 5.32201 4.11393   2
   0  -5  19 0.58662 4.16653   1
   0   5 -19 -5.9685  4.1326   2
   0   5  19 8.07970 5.16632   1
   0   5 -19 8.56323 5.66636   1
   1  -5  19 173.388  15.217   1
  -1  -5 -19 173.568  15.550   1
  -1  -5 -19 169.780  14.345   2
   1   5  19 163.033  14.826   1
  -1   5 -19 176.613  15.471   1
  -1   5 -19 150.545  11.016   2
   2  -5  19 1.38986 4.65531   1
  -2  -5 -19 2.91227 5.24704   1
  -2  -5 -19 1.97948 4.92113   2
  -2   5 -19 6.03697 5.62685   1
   2   5  19 -3.2265  4.6161   1
   3  -5  19 33.1194  8.0464   1
  -3  -5 -19 44.5443  8.2181   1
  -3   5 -19 42.6321  7.9464   1
   3   5  19 55.4130  9.1557   1
  -4  -5 -19 7.76325 5.39179   1
   4  -5  19 1.40486 4.64954   1
  -4   5 -19 -6.1600  5.7030   1
   4   5  19 8.25883 4.74982   1
  -5  -5 -19 11.0728  5.8715   1
  -5   5 -19 3.78575 5.27580   1
  -6  -5 -19 33.5187  7.9152   1
  -6   5 -19 26.2834  7.1763   1
  -7  -5 -19 -3.8202  4.7191   1
  -7   5 -19 -8.7315  5.2946   1
  -7  -6  19 1.90010 4.83570   1
   7  -6 -19 5.51706 5.31788   5
   7  -6 -19 5.49235 4.92094   2
   7   6 -19 7.10793 4.55796   2
   6  -6 -19 6.74315 4.93406   2
   6  -6 -19 4.94378 4.26471   5
  -6  -6  19 4.88993 5.59432   1
   6  -6 -19 0.14141 4.57924   1
  -6   6  19 -3.6248  5.6188   1
   6   6 -19 1.79583 4.91533   2
   5  -6 -19 1.00434 4.84349   1
   5  -6 -19 -4.8065  4.9952   2
   5  -6 -19 1.46714 3.20296   5
  -5  -6  19 0.41686 4.97178   1
  -5   6  19 8.28858 5.66315   1
   5   6 -19 8.30313 4.47013   1
   5   6 -19 -8.5306  5.6225   2
   4  -6 -19 55.4240  8.3025   5
   4  -6 -19 46.5377  8.4270   2
   4  -6 -19 43.3773  8.8704   1
  -4  -6  19 42.3028  8.1012   1
   4   6 -19 47.3338  7.9552   2
   4   6 -19 48.8331  9.1276   1
   3  -6 -19 11.4265  5.6943   2
  -3  -6  19 -8.9943  5.7837   1
   3  -6 -19 3.35755 5.35376   1
   3   6 -19 -7.9440  5.1740   2
   3   6 -19 -5.6437  5.4060   1
  -3   6  19 2.94721 5.16974   1
  -2  -6  19 7.77970 5.30136   1
   2  -6 -19 12.5812  5.3574   2
   2   6 -19 9.76107 5.80810   1
  -2   6  19 3.31739 5.09557   1
   2   6 -19 12.6520  4.2621   2
   1  -6 -19 -8.8265  5.9463   2
  -1  -6  19 0.53598 4.94093   1
   1  -6 -19 -9.2178  5.8288   1
   1   6 -19 4.61670 3.40850   2
  -1   6  19 -1.1766  3.6699   1
   1   6 -19 2.86272 3.90101   1
   0  -6 -19 31.8501  6.8692   2
   0  -6  19 38.2665  8.5830   1
   0  -6 -19 37.3388  8.2984   1
   0   6 -19 37.8358  6.4964   2
   0   6  19 32.0595  7.1944   1
   0   6 -19 32.6186  8.0246   1
   1  -6  19 -2.4900  5.2229   1
  -1  -6 -19 16.5790  6.1843   1
  -1  -6 -19 17.1583  6.6433   2
  -1   6 -19 1.50079 5.13442   1
   1   6  19 0.19294 4.44308   1
  -2  -6 -19 -3.1082  5.1605   1
   2  -6  19 4.30185 5.26890   1
   2   6  19 3.75497 5.03533   1
  -2   6 -19 -6.0309  4.3602   1
   3  -6  19 49.6207  8.9136   1
  -3  -6 -19 29.6715  7.9479   1
  -3   6 -19 39.5999  8.6820   1
   3   6  19 43.9558  8.1345   1
   4  -6  19 0.06468 4.68424   1
  -4  -6 -19 6.36208 5.72894   1
  -4   6 -19 -3.8119  4.7275   1
   4   6  19 11.8972  5.6992   1
  -5  -6 -19 -2.9995  4.5295   1
  -6  -6 -19 -1.8514  4.3452   1
  -6   6 -19 0.87672 4.69989   1
   6  -7 -19 -0.4273  5.0591   1
   6  -7 -19 -5.6020  5.1268   5
  -6  -7  19 -4.2155  5.1690   1
  -6   7  19 4.72892 4.49703   1
   6   7 -19 -3.9824  4.2472   2
  -5  -7  19 0.31890 4.86318   1
   5  -7 -19 -12.597   5.556   5
   5  -7 -19 -3.5448  4.9066   1
   5  -7 -19 -6.2161  5.3381   2
   5   7 -19 -6.3908  5.4563   1
  -5   7  19 5.43237 5.31701   1
   5   7 -19 -6.7613  4.1382   2
   4  -7 -19 3.52053 3.80625   5
   4  -7 -19 -3.6276  5.5183   1
  -4  -7  19 -8.9448  6.1226   1
  -4   7  19 16.4528  7.0016   1
   3  -7 -19 1.70038 5.00802   1
   3  -7 -19 2.74386 5.53709   2
   3   7 -19 11.7774  6.1340   1
   3   7 -19 10.9703  5.2483   2
  -3   7  19 13.7682  5.5875   1
   2  -7 -19 -6.7221  5.9706   1
   2  -7 -19 1.35308 3.61056   2
  -2   7  19 -1.0263  4.9908   1
   2   7 -19 8.63742 5.86704   1
   2   7 -19 0.83361 4.26074   2
   1  -7 -19 5.65123 5.64915   1
  -1  -7  19 5.54941 5.38864   1
   1  -7 -19 6.88302 5.41918   2
   1   7 -19 6.38531 5.91951   1
  -1   7  19 8.01602 5.98618   1
   0  -7 -19 -0.6504  4.9489   1
   0  -7  19 9.32171 5.11739   1
   0  -7 -19 6.49787 5.04237   2
   0   7  19 -1.3132  4.8399   1
   0   7 -19 5.71023 5.93061   1
   1  -7  19 -3.5246  4.8711   1
   1   7  19 15.7923  6.4817   1
  -1   7 -19 -11.019   6.448   1
   2  -7  19 65.9501 10.3563   1
  -2  -7 -19 65.9471 10.7928   1
   2   7  19 47.5995  8.5898   1
   3  -7  19 6.71833 6.04370   1
  -3  -7 -19 0.79165 4.74091   1
  -3   7 -19 -3.6986  4.2285   1
  -4  -7 -19 137.943  14.518   1
   4  -7  19 164.200  15.446   1
  -4   7 -19 140.202  15.011   1
  -5  -7 -19 16.2525  6.7063   1
  -5   7 -19 15.6567  6.3800   1
  -4  -8  19 13.5535  6.8690   1
   4  -8 -19 17.1082  6.1621   2
   4  -8 -19 7.89357 5.98119   1
   4   8 -19 11.2918  6.0784   1
  -4   8  19 15.1987  5.8441   1
   3  -8 -19 27.9413  8.0491   1
  -3  -8  19 37.9022  8.8820   1
   3  -8 -19 36.9020  7.8148   2
   3  -8 -19 36.4804  6.4659   5
  -3   8  19 30.5377  8.5831   1
   3   8 -19 27.2313  6.2137   2
   3   8 -19 26.0158  7.0492   1
   2  -8 -19 3.26202 4.23034   1
  -2  -8  19 16.6080  7.1775   1
   2  -8 -19 3.76805 4.66196   2
  -2   8  19 -4.8368  5.7980   1
   2   8 -19 -2.3076  5.8147   1
  -1  -8  19 52.7680  9.2105   1
   1  -8 -19 36.8830  8.7646   1
  -1   8  19 41.0742  8.3910   1
   1   8 -19 41.3933  9.2878   1
   0  -8  19 20.0517  6.7559   1
   0   8  19 23.0474  6.6473   1
  -1  -8 -19 -0.5913  3.6626   1
   1   8  19 2.43922 4.87229   1
  -1   8 -19 8.55094 6.04091   1
  -2  -8 -19 -0.3399  5.0913   1
   2  -8  19 15.8267  6.5605   1
  -2   8 -19 -2.5924  5.6749   1
   3  -8  19 47.9664  9.5638   1
  -3  -8 -19 37.9002  8.9956   1
  -3   8 -19 52.8116 10.0705   1
   3   8  19 45.8673  8.5778   1
   9   0 -20 -0.8782  4.4593   5
   9   0 -20 5.84803 5.57555   2
  -9   0  20 -3.2380  4.9844   1
   8   0 -20 2.56182 5.39512   2
  -8   0  20 7.71833 4.36628   1
   7   0 -20 4.24654 4.90569   2
   7   0 -20 3.18156 4.55463   5
   6   0 -20 -6.0430  4.9792   1
   6   0 -20 -1.6543  4.3489   5
   6   0 -20 -14.870   6.298   2
  -6   0  20 5.44841 4.16699   1
   5   0 -20 6.76303 5.19624   2
   5   0 -20 16.9485  5.9955   1
   4   0 -20 34.5958  6.5383   5
  -4   0  20 33.6639  7.6136   1
   4   0 -20 34.1378  6.5066   2
   4   0 -20 41.9866  8.2152   1
  -3   0  20 3.44089 4.56536   1
   3   0 -20 2.80685 4.61958   2
   3   0 -20 10.0779  4.5716   1
   3   0 -20 -3.7616  3.2285   5
   2   0 -20 15.8341  4.9481   2
  -2   0  20 26.9343  7.0847   1
   2   0 -20 18.3413  6.3755   1
   1   0 -20 5.93360 4.27640   2
   0   0 -20 112.213  12.180   1
   0   0 -20 117.469  10.751   2
   0   0  20 108.459  11.723   1
  -1   0 -20 -6.8044  3.9798   2
  -1   0 -20 -9.9861  5.5251   1
   1   0  20 -1.5929  3.2611   1
  -2   0 -20 109.600  10.631   2
  -2   0 -20 99.3641 11.5564   1
   2   0  20 109.917  11.994   1
  -3   0 -20 4.20235 3.77492   1
   3   0  20 -7.9223  5.1230   1
  -3   0 -20 6.49275 3.51233   2
  -4   0 -20 12.1536  4.7714   2
   4   0  20 9.50426 5.17407   1
  -4   0 -20 -5.5518  5.0272   1
  -5   0 -20 -7.1348  4.9896   1
  -6   0 -20 6.24818 5.45749   1
  -7   0 -20 2.83183 4.74322   1
   9  -1 -20 0.45130 5.41818   2
  -9  -1  20 -3.9198  4.5162   1
   9  -1 -20 -1.6819  5.1901   5
   9   1 -20 -6.5989  5.7378   5
  -9   1  20 -2.4910  4.5405   1
  -8  -1  20 0.08586 3.60520   1
   8  -1 -20 7.76538 4.56235   5
   8  -1 -20 -1.0158  3.9027   2
  -8   1  20 13.1747  5.9743   1
   8   1 -20 10.0625  5.8841   5
   8   1 -20 -7.9440  5.6170   2
   7  -1 -20 -1.8660  3.3867   5
   7  -1 -20 22.3969  6.9723   2
  -7  -1  20 10.3158  5.7529   1
  -7   1  20 5.86718 4.57002   1
   7   1 -20 -0.1839  4.7042   2
  -6  -1  20 18.8768  6.4431   1
   6  -1 -20 13.9367  5.7386   1
   6  -1 -20 21.7591  6.8343   2
   6  -1 -20 27.7532  6.7429   5
   6   1 -20 24.9951  6.0277   5
   6   1 -20 29.2118  6.9508   1
   6   1 -20 23.0506  6.5055   2
  -6   1  20 17.6850  5.5595   1
   5  -1 -20 1.22213 3.64295   5
  -5  -1  20 8.08794 5.29764   1
   5  -1 -20 -2.4334  5.0333   2
   5  -1 -20 13.4526  5.6424   1
   5   1 -20 -3.3389  3.5985   1
   5   1 -20 0.16448 2.96254   5
   5   1 -20 0.02730 4.60577   2
   4  -1 -20 9.80653 4.54149   1
  -4  -1  20 7.04752 4.71962   1
   4  -1 -20 15.8303  6.1610   2
   4  -1 -20 12.1900  4.8387   5
  -4   1  20 8.03312 5.33548   1
   4   1 -20 21.9498  5.5433   5
  -4   1  20 10.9940  5.5812   1
   3  -1 -20 6.31519 5.15842   1
   3  -1 -20 -1.5982  4.3584   2
  -3  -1  20 11.7483  5.8841   1
   3   1 -20 -4.3135  5.0358   2
  -3   1  20 -6.9984  5.0920   1
   3   1 -20 3.64540 5.02643   1
  -2  -1  20 -2.9787  4.5821   1
   2  -1 -20 3.80605 3.82078   1
  -2   1  20 -3.1350  4.4853   1
   2   1 -20 1.80969 4.37628   1
   2   1 -20 -3.7179  4.7726   2
  -1  -1  20 -0.5442  4.3825   1
   1  -1 -20 8.68685 5.09005   2
   1  -1 -20 -0.0288  4.3472   1
   1   1 -20 2.47428 3.86087   1
   0  -1 -20 -3.9989  4.6242   2
   0  -1 -20 7.67706 5.23651   1
   0  -1  20 -2.8623  4.9910   1
   0   1  20 -12.818   5.893   1
   0   1 -20 -12.329   5.630   1
   0   1 -20 -6.1429  4.7280   2
   1  -1  20 23.4803  6.6441   1
  -1  -1 -20 29.9959  6.5247   2
  -1  -1 -20 18.7294  6.1944   1
  -1   1 -20 35.2053  6.6573   2
   1   1  20 35.1464  7.6180   1
  -2  -1 -20 17.0262  5.4115   2
  -2  -1 -20 1.14404 3.47591   1
   2  -1  20 -3.2987  4.6653   1
   2   1  20 6.24841 4.68963   1
  -2   1 -20 18.3251  5.2419   2
   3  -1  20 40.1026  8.0010   1
  -3  -1 -20 49.1017  8.7722   1
  -3  -1 -20 49.0386  7.9960   2
   3   1  20 47.1362  8.4469   1
  -3   1 -20 52.4214  9.0053   1
  -3   1 -20 48.6137  7.2882   2
  -4  -1 -20 13.6018  5.3017   2
   4  -1  20 25.0902  6.5024   1
  -4  -1 -20 15.7078  5.8905   1
   4   1  20 29.0390  7.0081   1
  -4   1 -20 20.9376  5.3717   2
  -4   1 -20 33.1815  7.1775   1
   4   1  20 26.6925  6.4987   1
  -5   1 -20 27.5711  6.7420   1
  -5   1 -20 19.3967  5.2651   2
  -6  -1 -20 64.8083  9.3370   1
  -6   1 -20 55.2299  9.0857   1
  -7  -1 -20 62.5692  9.4478   1
  -7   1 -20 67.2674  9.3386   1
   8  -2 -20 20.9856  7.0297   5
  -8  -2  20 16.8194  6.3423   1
  -8   2  20 25.1643  6.8044   1
   8   2 -20 21.7851  7.1577   5
   7  -2 -20 13.9828  6.0510   2
   7  -2 -20 12.8591  5.8751   5
  -7   2  20 12.5048  6.1588   1
   7   2 -20 3.97608 5.05159   5
   6  -2 -20 10.6419  5.3803   1
   6  -2 -20 -1.0467  3.3428   5
  -6  -2  20 12.4978  6.2627   1
   6  -2 -20 1.02706 4.86788   2
   6   2 -20 8.48259 5.69240   2
  -6   2  20 4.07375 5.15905   1
   6   2 -20 2.89581 4.71756   1
  -5  -2  20 -11.282   6.238   1
   5  -2 -20 0.72452 3.73477   5
  -5   2  20 -6.1059  5.3957   1
   5   2 -20 -1.6119  4.1560   5
   4  -2 -20 2.56300 5.09219   1
  -4  -2  20 1.67143 4.74145   1
   4  -2 -20 -0.7388  4.5259   2
   4  -2 -20 10.0774  4.4138   5
   4   2 -20 -9.3762  4.8537   1
  -4   2  20 5.00833 4.77331   1
   4   2 -20 -2.5236  4.4294   2
   3  -2 -20 7.43651 3.86447   5
  -3  -2  20 13.7761  5.2113   1
   3  -2 -20 -0.5960  3.4693   2
   3  -2 -20 15.7579  5.2815   1
   3   2 -20 2.54206 4.54071   1
   3   2 -20 4.13762 5.13979   2
   3   2 -20 1.75929 3.44978   5
  -3   2  20 5.21290 4.99934   1
   2  -2 -20 -0.0963  4.0786   1
  -2  -2  20 5.08745 5.14512   1
   2  -2 -20 3.62980 5.00741   2
   2   2 -20 3.36538 3.41872   2
  -2   2  20 2.77062 3.51145   1
   2   2 -20 11.4661  5.2852   1
   1  -2 -20 62.0064  9.6555   1
   1  -2 -20 74.0682  9.6011   2
  -1  -2  20 78.2153 10.7575   1
   1   2 -20 74.7504  8.8906   2
  -1   2  20 86.1755 10.9394   1
   1   2 -20 82.6849 10.7178   1
   0  -2  20 7.78003 5.39557   1
   0  -2 -20 -2.6374  4.7513   1
   0  -2 -20 14.3335  5.3404   2
   0   2 -20 3.98923 3.29860   2
   0   2  20 -4.7711  4.6535   1
   0   2 -20 7.58523 5.19464   1
  -1  -2 -20 62.3535  8.7219   2
  -1  -2 -20 53.2195  9.1017   1
   1  -2  20 57.1317  9.1911   1
  -1   2 -20 51.5984  8.9455   1
   1   2  20 62.1422  9.5054   1
  -1   2 -20 61.3096  8.1129   2
  -2  -2 -20 -0.7910  4.2158   1
   2  -2  20 -0.6421  4.4225   1
  -2   2 -20 4.73255 4.79525   1
   2   2  20 2.10535 3.37962   1
   3  -2  20 7.57210 4.59324   1
  -3  -2 -20 1.26154 4.15276   1
  -3  -2 -20 4.59675 4.59014   2
  -3   2 -20 17.2334  6.1824   1
   4  -2  20 21.6641  6.5007   1
  -4  -2 -20 10.7405  5.6411   1
  -4  -2 -20 19.4198  5.4185   2
   4   2  20 16.1308  5.2122   1
  -4   2 -20 14.5113  4.4103   2
  -4   2 -20 18.7639  6.6170   1
  -5  -2 -20 17.4899  6.4273   1
  -5   2 -20 12.1183  5.9103   1
  -6  -2 -20 3.47766 4.91462   1
  -6   2 -20 0.41732 4.33945   1
  -7  -2 -20 0.63785 3.93414   1
  -7   2 -20 -5.4023  5.0347   1
  -8  -3  20 33.6188  7.8911   1
   8  -3 -20 45.1055  8.4751   5
   8  -3 -20 62.6905  9.4887   2
   8   3 -20 35.1168  8.1523   5
  -8   3  20 49.1265  9.1678   1
  -7  -3  20 49.8722  9.1985   1
   7  -3 -20 53.3623  9.0221   2
   7  -3 -20 34.7849  7.6683   5
  -7   3  20 33.5142  7.3451   1
   7   3 -20 42.8881  8.6973   5
   7   3 -20 44.5348  9.0903   2
   6  -3 -20 111.577  11.918   2
   6  -3 -20 146.058  13.361   5
   6  -3 -20 146.832  13.871   1
  -6  -3  20 119.189  12.946   1
  -6   3  20 127.697  12.905   1
   6   3 -20 123.249  12.794   1
   6   3 -20 136.183  13.453   5
   6   3 -20 143.980  13.600   2
   5  -3 -20 61.6808  8.6417   5
   5  -3 -20 61.5949  9.2355   2
   5  -3 -20 59.1568  9.2773   1
  -5  -3  20 72.9483 10.5961   1
   5   3 -20 71.7945  9.9089   2
   5   3 -20 83.4788 10.6649   1
   5   3 -20 79.8076 10.1198   5
  -5   3  20 74.6678 10.5950   1
   4  -3 -20 101.613  11.995   1
  -4  -3  20 112.590  12.529   1
   4  -3 -20 118.550  12.040   2
   4  -3 -20 103.355  10.283   5
   4   3 -20 111.555  11.372   2
  -4   3  20 108.730  12.542   1
   4   3 -20 119.184  12.561   1
   4   3 -20 111.483  11.325   5
  -3  -3  20 18.8518  6.2813   1
   3  -3 -20 2.53312 4.32182   2
   3  -3 -20 16.8500  6.3248   1
   3   3 -20 1.92609 4.13020   1
   3   3 -20 9.19142 4.25653   5
  -3   3  20 11.7584  5.0431   1
   2  -3 -20 4.63342 5.23482   2
  -2  -3  20 2.31707 5.11267   1
   2  -3 -20 7.21830 5.51934   1
   2   3 -20 -1.4076  4.1264   2
  -2   3  20 0.40640 4.41381   1
   2   3 -20 -4.1825  5.0050   1
  -1  -3  20 35.6287  8.2483   1
   1  -3 -20 42.3779  7.1335   2
   1  -3 -20 23.8569  6.2483   1
   1   3 -20 42.4838  8.6662   1
  -1   3  20 24.5711  7.0436   1
   1   3 -20 35.4146  6.6934   2
   0  -3  20 27.6091  6.7025   1
   0  -3 -20 17.4381  5.6716   1
   0  -3 -20 27.0574  6.8962   2
   0   3 -20 29.4358  6.4553   2
   0   3 -20 32.6693  7.7178   1
   0   3  20 16.1111  5.9896   1
  -1  -3 -20 71.5496  9.8250   2
   1  -3  20 75.9902 10.5355   1
  -1  -3 -20 83.5868 10.9285   1
   1   3  20 91.7036 11.2794   1
  -1   3 -20 86.6492  9.1127   2
  -1   3 -20 78.0032 10.8759   1
  -2  -3 -20 69.5788 10.2496   1
  -2  -3 -20 72.6316  9.6398   2
   2  -3  20 75.0140 10.5430   1
  -2   3 -20 72.3730 10.5303   1
   2   3  20 71.2134 10.0521   1
  -2   3 -20 59.2321  7.5486   2
  -3  -3 -20 -3.2677  4.4619   1
   3  -3  20 -4.6193  4.9659   1
  -3  -3 -20 -4.5438  3.7850   2
  -3   3 -20 1.16165 3.32917   1
  -3   3 -20 -0.8859  2.8382   2
   3   3  20 1.49252 3.67364   1
  -4  -3 -20 42.1492  8.4400   1
   4  -3  20 47.7006  8.6646   1
   4   3  20 49.5249  8.6585   1
  -4   3 -20 46.3163  8.7280   1
  -5  -3 -20 29.7497  7.5098   1
  -5   3 -20 51.1928  9.1464   1
  -6  -3 -20 11.2141  5.5476   1
  -6   3 -20 6.97772 5.31796   1
  -7  -3 -20 60.6011  9.6307   1
  -7   3 -20 42.7721  8.2900   1
  -8  -4  20 5.22059 5.41558   1
   8  -4 -20 3.62159 5.05146   5
   8   4 -20 6.18495 5.82414   5
  -8   4  20 5.06342 5.68285   1
   7  -4 -20 9.44496 5.56081   2
   7  -4 -20 0.99910 4.43839   5
  -7  -4  20 2.88822 4.67085   1
   7   4 -20 -4.9649  5.8013   2
   6  -4 -20 24.0098  6.9624   2
   6  -4 -20 21.5996  6.4003   5
   6  -4 -20 24.2252  7.2735   1
   6   4 -20 28.9274  7.3969   1
   6   4 -20 21.8613  6.5672   2
  -6   4  20 16.1900  6.6333   1
  -5  -4  20 7.02886 5.87664   1
   5  -4 -20 7.62055 5.56684   2
   5  -4 -20 19.6485  6.4362   5
   5  -4 -20 11.7994  6.1978   1
  -5   4  20 8.69304 6.32448   1
   5   4 -20 19.9948  6.6010   1
  -4  -4  20 -7.1096  5.6692   1
   4  -4 -20 7.90938 5.27035   2
   4  -4 -20 2.66742 3.90848   5
   4  -4 -20 -4.5705  5.1490   1
   4   4 -20 -7.6103  5.1977   2
  -4   4  20 1.27069 3.64355   1
   4   4 -20 -4.0141  4.9635   1
  -3  -4  20 -0.2492  3.8861   1
   3  -4 -20 2.68433 4.62123   1
   3  -4 -20 5.86592 3.66657   5
   3  -4 -20 2.68677 4.51832   2
   3   4 -20 7.65606 5.16264   1
   3   4 -20 1.88157 4.37478   2
  -3   4  20 16.3200  6.3485   1
  -2  -4  20 37.2173  8.3876   1
   2  -4 -20 33.7417  7.4751   1
   2  -4 -20 36.2879  7.4401   2
  -2   4  20 29.5846  7.3926   1
   2   4 -20 29.1903  7.3816   1
   2   4 -20 29.9374  6.5936   2
   1  -4 -20 16.0113  6.4658   1
  -1  -4  20 8.83374 5.84746   1
   1  -4 -20 22.2515  6.2744   2
   1   4 -20 26.3311  7.4309   1
  -1   4  20 20.3071  5.9072   1
   1   4 -20 30.8886  6.3587   2
   0  -4  20 13.8956  5.6891   1
   0  -4 -20 22.7323  6.7711   2
   0  -4 -20 13.2340  6.0089   1
   0   4 -20 21.4187  6.7994   1
   0   4 -20 5.35581 4.20746   2
  -1  -4 -20 25.5443  7.0270   2
  -1  -4 -20 21.9154  6.7751   1
   1  -4  20 12.8886  5.8141   1
   1   4  20 20.0118  5.8250   1
  -1   4 -20 25.8614  5.5020   2
  -1   4 -20 27.1509  7.6979   1
   2  -4  20 15.3629  6.3001   1
  -2  -4 -20 -3.3383  3.8880   1
  -2   4 -20 2.69408 2.87590   2
   2   4  20 -3.0338  4.3539   1
  -2   4 -20 -1.9837  4.9482   1
   3  -4  20 81.4981 11.2091   1
  -3  -4 -20 77.1326 10.8968   1
   3   4  20 64.6859  9.7571   1
  -3   4 -20 81.9943 10.5631   1
  -4  -4 -20 4.45810 4.80625   1
  -4   4 -20 11.1370  5.9175   1
   4   4  20 5.95209 5.10859   1
  -5  -4 -20 -4.4388  4.4215   1
  -5   4 -20 3.16839 5.00115   1
  -6   4 -20 15.8800  6.3755   1
  -7  -5  20 23.4344  7.0845   1
   7  -5 -20 5.29038 5.23992   2
  -7   5  20 11.0747  5.1462   1
   6  -5 -20 6.57898 3.94060   5
   6  -5 -20 11.7892  6.0291   1
  -6   5  20 15.6120  5.8173   1
  -5  -5  20 3.88470 5.43816   1
   5  -5 -20 2.20101 3.93154   1
   5  -5 -20 2.82586 5.01009   2
   5   5 -20 2.54156 3.96772   2
   5   5 -20 2.92725 4.90410   1
  -5   5  20 1.85755 4.89837   1
   4  -5 -20 23.3558  7.4090   1
   4  -5 -20 25.9727  6.8537   2
   4  -5 -20 39.1064  6.8101   5
   4   5 -20 34.2260  7.3912   2
   4   5 -20 22.9285  6.2437   1
  -4   5  20 42.3314  8.8775   1
   3  -5 -20 25.1014  6.6492   2
   3  -5 -20 26.6318  7.5871   1
   3   5 -20 27.2926  6.5706   2
  -3   5  20 16.8056  5.7778   1
   3   5 -20 25.7604  7.4295   1
   2  -5 -20 31.2397  8.0064   1
  -2  -5  20 30.1220  8.0468   1
   2  -5 -20 36.3048  7.8234   2
   2   5 -20 27.4499  6.8953   1
   2   5 -20 28.6357  6.5477   2
  -2   5  20 24.7650  7.3222   1
   1  -5 -20 100.792  11.635   2
   1  -5 -20 97.0318 12.3179   1
  -1  -5  20 106.249  12.679   1
  -1   5  20 103.217  12.497   1
   1   5 -20 112.436  12.866   1
   1   5 -20 94.2697  9.8694   2
   0  -5  20 55.4054  9.7544   1
   0  -5 -20 72.1719 10.7641   1
   0  -5 -20 72.4673 10.2017   2
   0   5  20 77.0244 10.9342   1
   0   5 -20 54.5174  7.6893   2
   0   5 -20 77.9188 11.0342   1
  -1  -5 -20 8.30678 4.74577   2
   1  -5  20 2.84336 5.16662   1
  -1   5 -20 4.68112 3.55626   2
  -1   5 -20 -0.5756  5.1165   1
  -2  -5 -20 58.4405  9.2268   2
   2  -5  20 57.2612  9.8929   1
  -2  -5 -20 65.7042 10.4260   1
   2   5  20 50.3610  8.9755   1
  -2   5 -20 78.0172 10.8877   1
  -3  -5 -20 45.3275  8.6781   1
   3  -5  20 33.2904  7.5206   1
   3   5  20 28.6434  7.4183   1
  -3   5 -20 29.9851  8.0392   1
  -4  -5 -20 -1.6555  5.1681   1
   4   5  20 1.29639 3.32613   1
  -4   5 -20 6.75317 5.87784   1
  -5   5 -20 11.8245  6.2884   1
  -6  -6  20 26.5983  7.5911   1
   6  -6 -20 27.2851  7.5054   1
   6  -6 -20 15.4481  5.7950   5
   6  -6 -20 31.5457  7.6573   2
   6   6 -20 20.5824  7.0223   2
   5  -6 -20 23.5251  6.2714   5
   5  -6 -20 19.6671  6.9914   1
  -5   6  20 22.9644  7.4412   1
   5   6 -20 14.8350  6.0249   2
   5   6 -20 29.7818  7.5135   1
  -4  -6  20 7.53678 5.37670   1
   4  -6 -20 17.0042  6.3916   2
   4  -6 -20 22.1776  7.2689   1
   4   6 -20 20.2146  6.7604   1
  -4   6  20 19.2237  6.2464   1
   4   6 -20 35.3470  7.5006   2
   3  -6 -20 22.3718  6.4152   2
   3  -6 -20 31.3432  8.0389   1
  -3  -6  20 40.8223  9.0319   1
  -3   6  20 31.7902  8.2255   1
   3   6 -20 30.1800  6.7889   2
   3   6 -20 44.6646  8.7606   1
   2  -6 -20 67.0535  9.9681   2
  -2  -6  20 76.4993 11.0054   1
   2  -6 -20 72.7680 10.5969   1
   2   6 -20 60.9701 10.2463   1
  -2   6  20 77.1897 11.4105   1
   2   6 -20 72.0811  9.1830   2
  -1  -6  20 12.9757  6.0259   1
   1  -6 -20 6.51938 5.72547   2
   1  -6 -20 4.13947 5.33545   1
  -1   6  20 3.92992 4.16694   1
   1   6 -20 -0.0640  3.9363   2
   1   6 -20 6.68129 5.10351   1
   0  -6  20 -1.1957  5.2619   1
   0  -6 -20 2.76232 4.85541   2
   0  -6 -20 3.43006 5.10702   1
   0   6 -20 0.75646 3.72068   1
  -1  -6 -20 18.5630  6.7244   2
  -1  -6 -20 14.7432  5.9551   1
   1   6  20 17.9473  6.6554   1
  -2  -6 -20 61.0133 10.4049   1
   2  -6  20 71.3980 10.3099   1
  -2   6 -20 68.7404 10.9817   1
   2   6  20 61.8346 10.1114   1
  -3  -6 -20 10.3930  6.3102   1
   3   6  20 8.71057 4.90057   1
   4  -6  20 181.235  16.321   1
  -4  -6 -20 168.816  16.144   1
  -4   6 -20 186.578  16.718   1
   4  -7 -20 2.95491 4.20791   5
   4  -7 -20 1.22443 4.50431   1
   4   7 -20 2.78618 5.17638   2
  -4   7  20 2.20116 5.13836   1
   4   7 -20 6.96582 4.59017   1
   3  -7 -20 21.1925  7.8782   1
  -3  -7  20 28.7027  7.9390   1
   3  -7 -20 24.6685  6.4631   2
   3   7 -20 23.3747  7.5178   1
   2  -7 -20 77.8381 11.7214   1
  -2  -7  20 54.3997 10.3234   1
   2  -7 -20 65.3946 10.1812   2
  -2   7  20 68.3890 11.2693   1
   2   7 -20 66.4932  8.7249   2
   2   7 -20 61.8638  9.8218   1
   1  -7 -20 26.1585  7.6317   2
  -1  -7  20 32.5509  8.4788   1
   0  -7  20 19.3404  7.2429   1
   0   7 -20 23.3839  7.7561   1
  -1  -7 -20 49.5374  9.8216   1
   1  -7  20 25.8608  7.9197   1
   1   7  20 42.1771  8.9881   1
  -1   7 -20 40.5160  9.0680   1
  -2  -7 -20 3.09674 5.59045   1
  -2   7 -20 2.88646 4.67200   1
   2   7  20 5.80076 4.36920   1
  -3  -7 -20 18.1865  6.7997   1
  -3   7 -20 9.82709 6.05616   1
   3   7  20 9.14339 5.61919   1
   1  -8 -20 3.61419 5.57496   1
   1   8 -20 -11.106   6.787   1
   8   0 -21 6.37760 5.44108   5
  -8   0  21 0.53615 4.51998   1
   7   0 -21 12.2345  5.8459   5
   7   0 -21 18.3165  5.6683   2
  -7   0  21 9.99868 5.28867   1
   6   0 -21 -3.1981  4.2418   1
  -6   0  21 0.32197 3.46065   1
   5   0 -21 19.6277  6.1762   1
   5   0 -21 0.71055 4.76893   2
  -5   0  21 8.11017 6.11741   1
   4   0 -21 -11.022   5.815   1
   4   0 -21 11.1245  4.6718   2
  -4   0  21 -0.6717  3.4431   1
   3   0 -21 71.6383  9.5470   2
  -3   0  21 58.2235  9.7962   1
   3   0 -21 65.9835 10.2621   1
  -2   0  21 -5.5084  4.1474   1
   2   0 -21 -2.0667  3.6204   2
  -1   0  21 84.6251 11.1010   1
   1   0 -21 64.8977  9.5791   1
   1   0 -21 73.1591  9.5481   2
   0   0 -21 3.22948 3.64474   1
   0   0  21 2.81460 4.65187   1
   0   0 -21 1.00184 4.23040   2
  -1   0 -21 3.81129 3.78812   1
   1   0  21 -5.7823  4.7556   1
  -1   0 -21 -1.0425  4.2206   2
   2   0  21 -2.0016  3.2700   1
  -2   0 -21 -2.4931  5.0679   1
  -2   0 -21 11.2709  4.4420   2
  -3   0 -21 53.5704  8.2631   2
   3   0  21 50.2805  9.0137   1
  -3   0 -21 69.9599 10.5363   1
  -4   0 -21 -0.8007  3.5111   2
  -4   0 -21 0.34829 4.39287   1
  -5   0 -21 24.5849  6.3443   1
  -6   0 -21 2.36888 3.43171   1
  -8  -1  21 -11.783   6.072   1
  -8  -1  21 16.1511  6.0696   1
   8  -1 -21 1.78618 4.67941   5
  -8   1  21 5.54729 5.24015   1
   8   1 -21 3.10641 5.03928   5
  -7  -1  21 10.5219  5.6977   1
   7  -1 -21 5.58608 5.49010   2
   7  -1 -21 1.45962 4.31125   5
  -7   1  21 14.9204  6.5443   1
   7   1 -21 8.16265 6.01521   2
  -6  -1  21 1.85789 4.83465   1
   6  -1 -21 13.3767  5.4456   1
   6   1 -21 -2.9192  4.7734   1
  -6   1  21 4.23617 5.13565   1
   6   1 -21 8.62103 4.35716   5
  -5  -1  21 -0.6270  5.2501   1
   5  -1 -21 -1.5946  3.9506   5
   5  -1 -21 -6.1190  5.4874   2
   5  -1 -21 -5.3842  4.9640   1
   5   1 -21 9.73383 4.92606   5
  -5   1  21 1.67307 4.71048   1
   5   1 -21 11.3516  5.8549   1
   4  -1 -21 25.2799  7.1504   2
  -4  -1  21 14.8320  6.4732   1
   4  -1 -21 16.2873  5.1768   5
   4  -1 -21 20.1677  6.7201   1
   4   1 -21 25.3705  6.8407   2
   4   1 -21 15.1565  5.9090   1
  -4   1  21 21.1097  6.8476   1
   3  -1 -21 95.9019 11.4355   1
  -3  -1  21 107.320  12.166   1
   3  -1 -21 115.365  11.270   2
   3   1 -21 120.971  11.747   2
   3   1 -21 106.462  12.501   1
  -3   1  21 115.809  13.021   1
  -3   1  21 132.630  13.652   1
  -2  -1  21 5.69905 5.45872   1
   2  -1 -21 1.92489 5.05386   2
   2  -1 -21 -0.9506  4.6188   1
  -2   1  21 2.33267 4.99943   1
   2   1 -21 -2.0560  4.8134   2
  -2   1  21 9.22776 4.74652   1
   1  -1 -21 72.4713 10.5489   1
   1  -1 -21 89.0362 10.3705   2
  -1  -1  21 101.427  12.252   1
  -1   1  21 83.4322 11.1701   1
   1   1 -21 78.2075  9.4983   2
   1   1 -21 86.9277 11.4263   1
   0  -1  21 -12.985   6.055   1
   0  -1 -21 1.66747 4.73242   1
   0   1 -21 11.7754  5.2206   2
   0   1  21 5.17890 4.23082   1
   0   1 -21 8.47421 5.61421   1
   1  -1  21 11.7308  5.6129   1
  -1  -1 -21 3.14871 4.21778   2
  -1   1 -21 3.28383 5.05879   1
   1   1  21 25.1184  6.8592   1
  -1   1 -21 21.1342  5.6704   2
  -2  -1 -21 56.4998  8.7172   2
   2  -1  21 36.8768  7.9112   1
  -2  -1 -21 54.7832  9.4358   1
   2   1  21 51.7584  8.5548   1
  -2   1 -21 53.3910  8.7731   1
  -2   1 -21 40.4465  7.0896   2
   2   1  21 44.5383  8.5850   1
  -3  -1 -21 45.4403  7.9675   2
  -3  -1 -21 59.6916  9.5628   1
   3  -1  21 53.4019  8.7166   1
  -3   1 -21 55.5053  8.2667   2
   3   1  21 40.6141  8.2653   1
   3   1  21 61.6704  9.4334   1
  -3   1 -21 48.1634  9.0615   1
  -4  -1 -21 1.88034 3.89510   2
  -4  -1 -21 19.1816  6.6284   1
  -4   1 -21 2.41479 4.11010   1
   4   1  21 10.4852  4.6824   1
  -5  -1 -21 73.6984 10.4302   1
  -5   1 -21 50.1365  9.1128   1
  -6  -1 -21 -3.6301  4.9246   1
  -6   1 -21 16.7830  6.4505   1
   7  -2 -21 -3.9976  5.4732   2
   7  -2 -21 0.56899 4.66731   5
  -7  -2  21 -8.3688  5.3466   1
   7   2 -21 3.10723 4.05438   2
  -7   2  21 12.5051  5.9565   1
   7   2 -21 -6.8561  5.2814   5
   6  -2 -21 18.3894  6.0419   5
  -6  -2  21 22.1924  6.4488   1
   6  -2 -21 32.0080  7.6487   1
   6   2 -21 20.5989  6.6903   1
   6   2 -21 24.1388  6.7125   5
  -6   2  21 29.7910  7.5666   1
   5  -2 -21 24.6786  7.2348   1
  -5  -2  21 20.1950  6.9752   1
   5  -2 -21 21.7907  6.0809   5
   5   2 -21 34.1955  7.5919   2
   5   2 -21 34.3673  7.8710   1
  -5   2  21 20.3627  6.1029   1
   5   2 -21 24.2107  6.6386   5
  -4  -2  21 8.58049 5.82724   1
   4  -2 -21 5.11496 5.31799   2
   4  -2 -21 9.92241 4.72296   1
   4   2 -21 4.74363 4.00386   2
   4   2 -21 -0.7509  4.5710   1
  -4   2  21 0.72845 5.08045   1
  -3  -2  21 23.4554  6.8727   1
   3  -2 -21 7.38893 5.38850   2
   3  -2 -21 17.7129  6.6900   1
   3   2 -21 8.59556 5.58137   1
   3   2 -21 18.6460  6.2111   2
  -2  -2  21 49.8934  9.2289   1
   2  -2 -21 31.1673  7.0825   1
   2  -2 -21 45.9923  8.2086   2
   2   2 -21 56.0240  9.6283   1
   2   2 -21 48.5879  7.4296   2
  -2   2  21 67.4750 10.2842   1
   1  -2 -21 38.7749  7.4616   2
   1  -2 -21 30.2396  7.3407   1
  -1  -2  21 12.6836  6.1991   1
   1   2 -21 29.1074  6.2402   2
   1   2 -21 23.8768  7.3393   1
  -1   2  21 25.5030  7.1495   1
   0  -2  21 94.5956 11.7654   1
   0  -2 -21 91.9876 11.5271   1
   0  -2 -21 102.789  11.318   2
   0   2  21 102.580  11.953   1
   0   2 -21 96.2553  9.7459   2
   0   2 -21 99.0875 12.0349   1
  -1  -2 -21 27.1187  6.8682   2
   1  -2  21 37.4734  8.2835   1
  -1  -2 -21 31.7020  7.1558   1
   1   2  21 28.7756  7.3229   1
  -1   2 -21 47.5988  8.9316   1
  -1   2 -21 40.7721  7.1590   2
   2  -2  21 14.4220  5.9022   1
  -2  -2 -21 11.5813  5.4996   2
  -2  -2 -21 6.89931 4.94651   1
  -2   2 -21 24.3027  5.9470   2
   2   2  21 16.9914  6.1888   1
  -2   2 -21 6.00224 5.26487   1
  -3  -2 -21 6.92598 4.31058   2
   3  -2  21 4.29298 4.70730   1
  -3  -2 -21 -0.7236  4.4802   1
   3   2  21 1.06856 3.86224   1
  -3   2 -21 3.87287 4.41997   1
  -3   2 -21 -0.8394  3.4454   2
  -4  -2 -21 46.9773  8.8700   1
   4  -2  21 45.5648  8.6780   1
  -4   2 -21 39.9169  8.4903   1
   4   2  21 60.9404  9.5045   1
  -5  -2 -21 -2.1803  3.8306   1
  -5   2 -21 -2.3939  5.0916   1
  -6  -2 -21 1.35498 3.74048   1
  -6   2 -21 0.82979 4.71506   1
  -7  -3  21 0.62040 4.40157   1
   7  -3 -21 0.44413 4.07129   5
   7  -3 -21 -1.4125  4.8083   2
   7   3 -21 -8.5803  5.7691   5
  -7   3  21 -1.5618  4.9058   1
   6  -3 -21 52.9721  8.7315   1
  -6  -3  21 38.6361  7.8084   1
   6  -3 -21 28.6908  6.9530   5
   6  -3 -21 37.3979  7.6426   2
   6   3 -21 37.9914  8.2448   1
   6   3 -21 35.2846  7.7268   5
  -6   3  21 19.1944  6.7581   1
   6   3 -21 35.5755  8.2115   2
   5  -3 -21 18.9326  6.3009   1
   5  -3 -21 16.5336  5.9738   2
   5  -3 -21 17.9940  5.6982   5
   5   3 -21 12.1809  6.0224   2
  -5   3  21 25.2680  7.3386   1
   5   3 -21 7.27674 5.68397   1
   4  -3 -21 5.00716 5.18266   1
   4  -3 -21 -3.0498  4.9349   2
  -4  -3  21 8.44294 5.64423   1
  -4   3  21 14.8704  6.6771   1
   4   3 -21 -0.2965  3.3971   5
   4   3 -21 -1.7622  5.1098   2
  -3  -3  21 30.2058  7.6607   1
   3  -3 -21 29.9342  6.9745   1
   3  -3 -21 25.8274  7.0411   2
   3   3 -21 41.8033  8.2898   1
  -3   3  21 35.2284  8.1734   1
   3   3 -21 45.9413  7.8970   2
  -2  -3  21 -1.9197  5.1431   1
   2  -3 -21 -1.8343  3.5251   2
   2  -3 -21 -2.6729  5.0798   1
  -2   3  21 3.95695 4.77012   1
   2   3 -21 4.01388 4.54861   2
   2   3 -21 -2.4872  5.4135   1
   1  -3 -21 -2.7550  4.6171   2
  -1  -3  21 10.3715  5.9700   1
   1  -3 -21 -0.3758  4.7555   1
  -1   3  21 -7.3648  5.3940   1
   1   3 -21 -4.4225  5.3271   1
   0  -3 -21 1.03121 4.51007   2
   0  -3 -21 7.54990 5.59631   1
   0   3 -21 3.88145 5.23452   1
   0   3 -21 4.70091 4.28692   2
   0   3  21 5.55646 4.97401   1
  -1  -3 -21 -0.2373  4.3791   1
  -1  -3 -21 1.22082 4.55830   2
   1  -3  21 -5.5657  5.2179   1
   1   3  21 7.79386 5.28488   1
  -1   3 -21 -0.3171  3.3432   2
  -1   3 -21 11.7122  5.9936   1
   2  -3  21 -2.7578  4.7652   1
  -2  -3 -21 6.75765 5.36445   1
  -2  -3 -21 -0.6985  4.2970   2
  -2   3 -21 -10.412   6.072   1
   2   3  21 2.13279 3.29329   1
   3  -3  21 -7.7941  5.2876   1
  -3  -3 -21 7.10130 5.15541   1
  -3  -3 -21 -8.4068  5.8240   2
  -3   3 -21 -0.5325  3.3014   1
   3   3  21 8.54057 5.42689   1
  -4  -3 -21 33.2295  7.8009   1
  -4   3 -21 30.1543  7.8197   1
   4   3  21 36.7774  7.4606   1
  -5  -3 -21 50.1792  9.1901   1
  -5   3 -21 38.1477  8.6611   1
   6  -4 -21 3.63559 3.54932   5
   6  -4 -21 3.08607 4.15516   2
  -6  -4  21 5.13422 5.22617   1
   6   4 -21 -6.8044  5.2106   5
   6   4 -21 -0.2971  4.8283   2
  -6   4  21 8.08954 5.83659   1
   5  -4 -21 3.05777 3.79066   2
   5  -4 -21 -8.7377  6.0891   1
  -5  -4  21 0.72086 5.02921   1
   5   4 -21 -2.5192  5.2945   2
   5   4 -21 1.44039 4.87817   1
  -5   4  21 10.6368  5.9513   1
   4  -4 -21 39.3734  7.9479   2
  -4  -4  21 17.3665  7.1008   1
   4  -4 -21 28.3276  7.0308   1
   4   4 -21 26.2024  7.2225   1
  -4   4  21 31.6991  8.0565   1
   3  -4 -21 6.60966 5.32193   1
   3  -4 -21 0.72001 4.88130   2
  -3  -4  21 2.18000 3.91742   1
   3   4 -21 0.50843 5.06659   1
  -3   4  21 11.3582  6.2208   1
   2  -4 -21 59.6712  9.4424   2
   2  -4 -21 56.9861  9.5459   1
  -2  -4  21 68.8695 10.9812   1
   2   4 -21 80.3757 11.2900   1
  -2   4  21 63.6223 10.2703   1
   2   4 -21 84.0651  9.9380   2
   1  -4 -21 16.5539  6.2023   2
  -1  -4  21 22.7627  7.5160   1
   1   4 -21 22.6504  7.3658   1
   1   4 -21 15.2299  5.4996   2
  -1   4  21 10.9031  5.6390   1
   0  -4  21 -4.7059  5.4256   1
   0  -4 -21 6.18559 4.29608   2
   0   4 -21 -14.609   6.510   1
   0   4 -21 2.56491 4.10157   2
   0   4  21 -4.5885  4.6703   1
  -1  -4 -21 41.4866  8.0430   1
   1  -4  21 30.9672  7.8509   1
  -1  -4 -21 29.2330  7.5646   2
   1   4  21 26.6592  7.3974   1
   2  -4  21 31.7907  8.0443   1
  -2  -4 -21 14.8188  6.5613   1
  -2   4 -21 29.4231  7.9245   1
   2   4  21 23.5740  7.0043   1
   3  -4  21 7.87286 5.40604   1
  -3  -4 -21 14.7728  6.1836   1
   3   4  21 10.8071  4.9234   1
  -3   4 -21 1.48322 4.83743   1
  -4  -4 -21 122.445  13.762   1
   4  -4  21 134.499  14.259   1
  -4   4 -21 123.493  13.874   1
  -5  -4 -21 0.51455 4.37905   1
  -5   4 -21 12.3823  6.6116   1
   5  -5 -21 16.0721  5.7984   1
   5  -5 -21 -0.6602  4.1336   5
   5  -5 -21 18.5740  5.6276   2
  -5  -5  21 3.44118 5.32359   1
  -5   5  21 9.06916 6.05891   1
   5   5 -21 16.1302  6.3492   1
   5   5 -21 7.18497 5.59419   2
   4  -5 -21 -7.1717  5.8848   1
   4  -5 -21 0.20875 3.79865   2
  -4  -5  21 3.49639 5.46489   1
  -4   5  21 6.52167 6.12218   1
   4   5 -21 -6.0694  5.3161   2
  -3  -5  21 -2.7657  5.6564   1
   3  -5 -21 9.11999 5.65434   2
   3  -5 -21 6.91947 5.09716   1
  -3   5  21 2.98754 5.04754   1
   3   5 -21 2.18673 3.60421   2
   2  -5 -21 2.14080 5.27237   1
  -2  -5  21 8.60871 6.04507   1
   2  -5 -21 -2.8042  5.1478   2
   2   5 -21 4.66635 5.42859   1
  -2   5  21 0.53430 5.00934   1
   1  -5 -21 23.0898  7.5601   1
  -1  -5  21 27.1122  7.7568   1
   1   5 -21 25.4005  6.2394   2
   1   5 -21 15.9804  6.4202   1
  -1   5  21 24.9493  7.4794   1
   0  -5  21 17.9164  6.8212   1
   0  -5 -21 15.1619  6.1987   2
   0   5  21 8.11237 5.80697   1
   0   5 -21 6.16454 4.21808   2
   0   5 -21 3.78378 5.56536   1
   1  -5  21 13.1093  6.3558   1
  -1  -5 -21 18.5316  7.2487   1
  -1  -5 -21 24.2561  7.4560   2
   1   5  21 29.0787  7.8549   1
  -1   5 -21 28.1919  7.7924   1
   2  -5  21 -2.1787  5.1090   1
  -2   5 -21 -4.6266  4.4846   1
   2   5  21 11.8332  5.1323   1
   3  -5  21 7.12162 5.11880   1
  -3  -5 -21 8.65424 5.86550   1
   3   5  21 11.6059  5.7189   1
  -3   5 -21 3.18213 5.38704   1
  -4  -5 -21 5.37785 5.62548   1
   4  -5  21 -10.216   6.120   1
  -4   5 -21 1.43561 3.81431   1
   4  -6 -21 -7.3032  5.7141   1
   4  -6 -21 -7.2918  5.3918   2
  -4   6  21 3.34286 4.23604   1
   4   6 -21 12.9739  5.7738   2
   4   6 -21 4.96083 5.56715   1
   3  -6 -21 44.6543  9.4924   1
  -3  -6  21 28.1562  8.1682   1
   3  -6 -21 20.3057  6.9101   2
   3   6 -21 34.9883  7.7611   1
  -3   6  21 33.1332  8.7570   1
   3   6 -21 22.0178  6.2448   2
  -2  -6  21 37.9272  9.2674   1
   2  -6 -21 43.5577  8.7427   2
   2  -6 -21 49.2161  9.1687   1
   2   6 -21 39.1572  8.8200   1
   2   6 -21 25.4134  6.4411   2
  -2   6  21 40.9379  9.1237   1
   1  -6 -21 1.28084 3.90522   2
  -1  -6  21 -3.7178  4.2525   1
   1  -6 -21 -6.9290  5.7333   1
   1   6 -21 -2.9122  5.2179   1
  -1   6  21 8.12723 5.60250   1
   1   6 -21 2.60548 4.15178   2
   0  -6 -21 5.35646 5.44852   1
   0  -6  21 10.7533  5.2341   1
   0   6  21 11.8415  5.8343   1
   0   6 -21 0.45221 5.01290   1
  -1  -6 -21 5.40579 4.58404   1
   1  -6  21 2.44595 3.92525   1
  -1  -6 -21 7.87757 4.72198   2
   1   6  21 11.5391  6.3456   1
  -1   6 -21 -1.4937  5.0737   1
  -2  -6 -21 32.0465  8.6483   1
   2   6  21 14.9956  6.5271   1
  -2   6 -21 30.4294  8.1984   1
   3  -6  21 8.13218 5.87186   1
  -6   0  22 18.8084  7.1685   1
   6   0 -22 10.8968  5.9059   2
   6   0 -22 25.1553  7.2539   1
   6   0 -22 27.0525  6.8776   5
   5   0 -22 5.69211 5.66839   2
  -5   0  22 -10.759   6.143   1
   5   0 -22 1.55785 5.09268   1
   4   0 -22 163.740  13.807   2
   4   0 -22 148.286  14.938   1
  -4   0  22 148.659  15.242   1
   3   0 -22 9.41819 6.28056   1
   3   0 -22 17.9530  6.4308   2
  -3   0  22 4.15178 4.40898   1
   2   0 -22 121.663  13.088   1
   2   0 -22 112.472  11.553   2
  -2   0  22 109.320  13.106   1
   1   0 -22 -3.7686  4.8644   2
   1   0 -22 2.40268 4.86988   1
  -1   0  22 6.49162 5.63584   1
   0   0 -22 23.0359  7.0871   1
   0   0  22 31.2161  7.9725   1
   0   0 -22 42.7071  7.7919   2
   1   0  22 -10.568   5.933   1
  -1   0 -22 -1.2771  4.4326   2
  -1   0 -22 3.10774 4.97695   1
   2   0  22 33.3357  7.9879   1
  -2   0 -22 33.5453  7.2607   2
  -2   0 -22 41.4422  8.0969   1
   3   0  22 -0.1627  3.8336   1
  -3   0 -22 2.02764 3.22054   2
  -3   0 -22 -5.2564  5.5533   1
  -4   0 -22 20.4115  6.0432   2
   4   0  22 16.3643  6.0652   1
  -4   0 -22 16.3267  5.6767   1
  -5   0 -22 -8.7513  5.8983   1
   6  -1 -22 12.7008  6.0167   1
   6  -1 -22 11.7916  6.2388   2
  -6  -1  22 17.6882  6.0425   1
   6   1 -22 19.8700  7.1280   2
   6   1 -22 7.40827 5.25152   1
  -6   1  22 9.41418 5.88041   1
  -5  -1  22 60.2450  9.5813   1
   5  -1 -22 57.3868  9.7302   1
   5  -1 -22 70.1421 10.1114   2
   5   1 -22 61.5006 10.1129   1
  -5   1  22 55.6590  9.3155   1
   5   1 -22 62.2888  9.7734   2
  -4  -1  22 134.383  14.421   1
   4  -1 -22 111.297  12.138   2
   4  -1 -22 117.894  13.156   1
  -4   1  22 123.877  13.962   1
   4   1 -22 120.971  12.405   2
   4   1 -22 123.162  13.768   1
   3  -1 -22 32.8357  8.4198   1
  -3  -1  22 46.3397  9.2986   1
  -3   1  22 47.5535  9.2299   1
   3   1 -22 38.9366  8.3528   1
   3   1 -22 44.2132  8.0633   2
   2  -1 -22 -9.7359  5.7712   1
  -2  -1  22 0.89360 5.07841   1
   2  -1 -22 -0.7328  4.8241   2
   2   1 -22 14.4591  6.5407   1
  -2   1  22 -1.1023  4.6015   1
  -2   1  22 -9.7724  5.0029   1
  -1  -1  22 -5.3466  5.5127   1
   1  -1 -22 9.05083 4.45017   2
   1  -1 -22 0.76963 3.34770   1
  -1   1  22 -9.2998  5.6231   1
   1   1 -22 -9.6674  6.1339   1
  -1   1  22 15.7058  6.3192   1
   1   1 -22 1.00240 4.49801   2
   0  -1 -22 17.4913  5.6868   1
   0  -1  22 24.7248  7.2777   1
   0  -1 -22 18.0822  6.1605   2
   0   1 -22 12.7938  6.2349   1
   0   1  22 25.3710  7.0918   1
   0   1 -22 27.2259  6.1470   2
   0   1  22 15.2954  6.1790   1
   1  -1  22 -11.075   6.216   1
  -1  -1 -22 6.06844 4.35714   1
  -1  -1 -22 7.10886 4.90100   2
   1   1  22 -4.7031  5.1145   1
   1   1  22 -0.2473  4.6566   1
  -1   1 -22 -2.1308  4.7502   1
   2  -1  22 -5.9176  5.5826   1
  -2  -1 -22 11.7422  6.1265   1
  -2  -1 -22 1.07401 3.78044   2
   2   1  22 6.07561 4.01818   1
  -2   1 -22 -2.2117  4.0651   2
   2   1  22 5.97009 5.08373   1
  -3  -1 -22 0.51914 4.81169   1
   3  -1  22 2.27202 4.30974   1
  -3  -1 -22 -8.5565  5.1415   2
   3   1  22 2.01928 3.43197   1
  -3   1 -22 -0.5720  4.6198   1
  -3   1 -22 8.87911 4.15354   2
   4  -1  22 20.5212  6.6228   1
  -4  -1 -22 23.0678  6.7782   2
  -4  -1 -22 40.1664  8.5856   1
  -4   1 -22 31.0481  6.7095   2
   4   1  22 25.2710  7.1294   1
  -4   1 -22 31.8651  8.1231   1
  -5  -1 -22 36.6557  7.7497   1
  -5   1 -22 32.9843  8.2061   1
   6  -2 -22 2.81885 4.43639   5
   6  -2 -22 1.10397 3.73296   1
   6  -2 -22 -3.7038  4.5232   2
  -6  -2  22 -3.2949  5.0839   1
  -6   2  22 -4.0059  4.9775   1
   6   2 -22 14.3581  6.1381   5
   6   2 -22 2.30857 4.52023   1
   6   2 -22 -5.2503  4.4002   2
   5  -2 -22 4.58262 4.80474   1
   5   2 -22 10.1927  6.0960   1
   5   2 -22 1.54895 3.94700   2
  -5   2  22 3.95028 5.23662   1
   4  -2 -22 14.5861  6.6185   1
   4  -2 -22 8.47525 5.81974   2
  -4  -2  22 3.14526 5.98370   1
   4   2 -22 16.7562  6.1564   2
   4   2 -22 -3.3853  5.5604   1
  -3  -2  22 88.7863 12.2290   1
   3  -2 -22 73.9612 10.0916   2
   3  -2 -22 56.9654  9.7543   1
   3   2 -22 64.8049  9.5606   2
  -3   2  22 57.0914  9.9325   1
   3   2 -22 70.0230 10.2076   1
   2  -2 -22 -4.8930  4.0025   2
  -2  -2  22 7.35506 6.01872   1
   2  -2 -22 2.76684 5.18902   1
  -2   2  22 13.3261  6.1218   1
   2   2 -22 0.19385 3.98682   2
   2   2 -22 -1.4304  5.2939   1
   1  -2 -22 46.2093  8.4313   2
  -1  -2  22 26.4308  7.3178   1
   1  -2 -22 37.7102  8.3159   1
   1   2 -22 35.5999  8.5460   1
  -1   2  22 22.7896  7.0439   1
   1   2 -22 34.3179  6.9403   2
   0  -2 -22 4.26154 5.07609   1
   0  -2 -22 -3.0233  5.0209   2
   0  -2  22 6.44892 4.46795   1
   0   2 -22 -3.6857  4.1891   2
   0   2 -22 12.1196  6.2482   1
   0   2  22 21.9716  6.8735   1
  -1  -2 -22 -1.5438  4.5066   2
   1  -2  22 9.41731 5.40013   1
  -1  -2 -22 -3.3049  5.0809   1
  -1   2 -22 -0.9250  3.1827   2
   1   2  22 -4.9532  5.1643   1
  -1   2 -22 0.54686 5.29928   1
  -2  -2 -22 3.00662 5.27409   1
  -2  -2 -22 -13.171   5.788   2
   2  -2  22 4.62032 5.35281   1
  -2   2 -22 3.36674 4.05251   2
   2   2  22 -0.7185  3.1567   1
  -2   2 -22 -7.1111  5.9545   1
  -3  -2 -22 51.4967  9.2720   1
  -3  -2 -22 55.5706  9.2501   2
   3  -2  22 55.7668  9.9289   1
   3   2  22 52.1417  9.3281   1
  -3   2 -22 45.4250  8.6141   1
  -3   2 -22 52.8610  7.9605   2
   4  -2  22 -10.996   5.898   1
  -4  -2 -22 1.23935 4.98643   1
  -4   2 -22 -2.9572  5.4322   1
  -6  -3  22 5.70587 5.12716   1
   6  -3 -22 8.42879 4.92370   5
   6  -3 -22 6.51622 5.63277   1
  -6   3  22 2.61852 4.93821   1
   6   3 -22 -1.5836  4.5935   5
   5  -3 -22 -7.8912  5.6831   1
  -5  -3  22 9.56022 5.20263   1
   5  -3 -22 13.1658  6.0336   2
  -5   3  22 4.71532 5.32129   1
   5   3 -22 12.3297  6.2482   1
  -4  -3  22 11.4062  6.5165   1
   4  -3 -22 11.3252  4.8242   2
   4  -3 -22 -7.3797  5.5231   1
  -4   3  22 0.67200 3.56799   1
   4   3 -22 -0.7007  3.7221   2
   4   3 -22 -6.5594  5.6365   1
   3  -3 -22 -0.8490  4.6452   2
  -3  -3  22 17.3950  6.7748   1
   3   3 -22 13.8796  5.7313   1
  -3   3  22 9.67135 6.04991   1
   3   3 -22 6.42684 5.16199   2
   2  -3 -22 5.30316 5.23631   2
  -2  -3  22 5.61170 5.76505   1
   2  -3 -22 -2.4092  3.6237   1
  -2   3  22 17.1502  6.7693   1
   2   3 -22 -4.9145  5.6650   1
   2   3 -22 9.01631 4.72067   2
   1  -3 -22 12.6738  5.6882   2
   1  -3 -22 7.87074 5.57577   1
   1   3 -22 14.1466  5.6191   2
   1   3 -22 11.4291  5.9281   1
   0  -3  22 14.5369  5.9089   1
   0  -3 -22 8.63912 5.21286   2
   0   3  22 -1.2386  3.3558   1
   0   3 -22 3.83662 4.16222   2
  -1  -3 -22 0.59626 4.86976   2
   1  -3  22 -1.4503  4.6382   1
  -1  -3 -22 1.78307 4.48229   1
   1   3  22 9.63480 5.21965   1
  -1   3 -22 7.13809 3.86871   2
   2  -3  22 -0.8898  4.5524   1
  -2  -3 -22 7.79416 5.46256   1
  -2  -3 -22 1.16413 4.60934   2
  -2   3 -22 -9.0025  4.6813   2
   2   3  22 -5.2142  5.1550   1
  -2   3 -22 -3.2561  5.1789   1
  -3  -3 -22 18.9814  7.0380   2
  -3   3 -22 22.5291  6.6286   1
   3   3  22 24.3888  7.0592   1
  -4  -3 -22 8.05635 5.55359   1
   4  -3  22 3.42401 4.98838   1
  -4   3 -22 -3.3250  5.4558   1
  -5  -4  22 3.84940 5.33077   1
   5  -4 -22 9.22102 5.76016   1
   5   4 -22 14.0594  6.2245   2
  -5   4  22 -6.2870  4.6834   1
   5   4 -22 2.98915 4.83130   1
   4  -4 -22 6.54202 5.38958   2
   4  -4 -22 0.44726 4.70342   1
  -4  -4  22 7.92275 5.65773   1
  -4   4  22 18.0531  6.8543   1
   4   4 -22 12.6965  6.0840   1
   4   4 -22 16.6195  6.0896   2
  -3  -4  22 31.8927  7.5342   1
   3  -4 -22 27.2147  6.4823   2
   3  -4 -22 26.3898  7.6904   1
   3   4 -22 14.0077  6.0786   2
  -3   4  22 28.3152  7.1755   1
  -2  -4  22 7.59804 6.13540   1
   2  -4 -22 13.3303  6.2775   2
   2  -4 -22 1.83453 4.84115   1
   2   4 -22 2.74634 4.90966   1
  -2   4  22 3.15062 5.19221   1
   1  -4 -22 4.49041 5.19657   2
   1  -4 -22 -1.8718  4.7700   1
  -1  -4  22 6.23836 5.89807   1
   1   4 -22 8.11685 5.99628   1
  -1   4  22 12.4426  6.0563   1
   1   4 -22 11.2620  5.0785   2
   0  -4 -22 25.7131  7.2461   2
   0  -4 -22 1.44463 4.40533   1
   0  -4  22 2.45777 5.45999   1
   0   4  22 9.87862 5.86537   1
   0   4 -22 7.10467 6.14509   1
   0   4 -22 15.1210  5.2004   2
  -1  -4 -22 12.4330  6.1715   1
  -1  -4 -22 -4.1018  4.7189   2
   1  -4  22 2.21287 5.27591   1
  -1   4 -22 -7.0754  4.3349   2
   1   4  22 3.84750 5.22758   1
  -1   4 -22 -2.6147  5.6957   1
  -2  -4 -22 55.6534  9.0902   2
  -2  -4 -22 70.2332 11.0731   1
   2  -4  22 72.4389 11.2586   1
   2   4  22 91.5597 12.0521   1
  -2   4 -22 65.7754 10.7616   1
   3  -4  22 63.6000 10.0561   1
  -3  -4 -22 48.4213  8.9628   1
   3   4  22 55.9839  9.9108   1
  -3   4 -22 69.6339 11.1197   1
   3  -5 -22 0.55698 3.69641   1
  -3  -5  22 -6.5788  5.9138   1
   3   5 -22 11.1764  6.4737   1
   3   5 -22 3.90655 4.97586   2
  -3   5  22 -7.9465  6.1356   1
  -2  -5  22 19.2083  6.5371   1
   2  -5 -22 6.07801 5.10908   2
   2  -5 -22 7.57256 5.96215   1
  -2   5  22 19.0899  6.2864   1
   2   5 -22 9.46173 4.77494   2
  -1  -5  22 117.883  14.040   1
   1  -5 -22 108.384  13.656   1
   1  -5 -22 118.131  13.370   2
   1   5 -22 88.0627 10.0324   2
  -1   5  22 126.989  14.246   1
   1   5 -22 93.4510 12.0040   1
   0  -5 -22 -2.5362  5.0485   1
   0  -5  22 5.50483 5.52421   1
   0  -5 -22 6.35518 4.45810   2
   0   5 -22 10.9228  5.1932   1
  -1  -5 -22 -10.372   6.222   2
  -1  -5 -22 0.81515 4.90255   1
   1  -5  22 0.39996 4.88747   1
  -1   5 -22 11.1650  5.3033   1
   2  -5  22 2.12884 4.39744   1
  -2  -5 -22 5.07178 4.50066   1
  -2   5 -22 8.33355 5.85682   1
   2   5  22 -11.665   6.317   1
   5   0 -23 35.9188  8.2588   1
  -5   0  23 38.3904  8.4946   1
  -4   0  23 3.61495 5.64405   1
   4   0 -23 -6.0998  4.5749   2
   4   0 -23 -5.4935  5.7972   1
   3   0 -23 2.69694 5.05100   2
   3   0 -23 6.68442 4.65263   1
  -2   0  23 3.40218 5.44536   1
   2   0 -23 -8.9079  5.6918   1
   2   0 -23 1.88014 4.94132   2
  -1   0  23 13.6402  6.3383   1
   1   0 -23 8.69474 5.86003   1
   1   0 -23 20.6992  6.3410   2
   0   0 -23 -4.1330  4.7167   2
   0   0  23 -0.6004  4.4066   1
   0   0 -23 9.54519 6.07725   1
   1   0  23 37.1516  8.4911   1
  -1   0 -23 25.9381  6.7338   2
  -2   0 -23 20.0773  7.0908   1
  -3   0 -23 46.9351  8.2930   2
   3   0  23 31.9660  7.8466   1
  -3   0 -23 36.5455  8.1624   1
  -5  -1  23 6.63401 5.79230   1
   5  -1 -23 -12.521   6.649   1
   5   1 -23 -1.5207  3.5826   1
  -5   1  23 -13.019   6.763   1
   4  -1 -23 13.9171  6.4240   1
   4  -1 -23 6.78088 5.75957   2
  -4  -1  23 -7.9482  6.0344   1
   4   1 -23 0.40620 5.12228   1
   4   1 -23 23.6354  7.2221   2
  -4   1  23 2.74174 4.13453   1
  -3  -1  23 14.6707  6.5910   1
   3  -1 -23 3.52463 4.95602   1
   3  -1 -23 0.07724 4.84690   2
  -3   1  23 -2.3599  5.2340   1
   3   1 -23 -0.3306  4.3536   2
   3   1 -23 8.12885 5.58815   1
   2  -1 -23 3.19746 4.80907   2
  -2  -1  23 0.76229 4.75561   1
   2  -1 -23 0.06056 4.47402   1
   2   1 -23 3.77323 5.21551   1
  -2   1  23 -1.2424  3.9358   1
   2   1 -23 -2.8455  4.9262   2
   1  -1 -23 3.70290 4.89478   2
  -1  -1  23 8.66933 4.75481   1
   1  -1 -23 6.78916 5.95032   1
   1   1 -23 10.4947  6.0209   1
  -1   1  23 22.8149  6.7818   1
   1   1 -23 11.8872  5.0552   2
   0  -1 -23 0.21963 4.65078   1
   0  -1  23 5.37624 4.34090   1
   0  -1 -23 0.12849 4.79826   2
   0   1 -23 9.27924 4.45048   2
   0   1 -23 4.73355 5.47377   1
   0   1  23 5.85205 5.40711   1
   1  -1  23 1.54681 3.58614   1
  -1  -1 -23 -3.6393  5.1938   1
  -1  -1 -23 7.25871 5.44631   2
   1   1  23 1.35473 3.36130   1
  -1   1 -23 -2.2646  5.5139   1
  -1   1 -23 7.31291 3.88110   2
   2  -1  23 0.13181 4.48976   1
  -2  -1 -23 13.4311  5.8625   2
  -2  -1 -23 9.73822 5.32132   1
  -2   1 -23 14.3362  6.5519   1
  -3  -1 -23 1.76731 4.77800   1
   3  -1  23 6.10006 5.26563   1
  -3   1 -23 4.48486 4.45999   2
   3   1  23 11.6615  6.0541   1
   4  -2 -23 11.2607  5.1728   2
  -4  -2  23 20.4938  6.9956   1
   4  -2 -23 30.6575  7.5602   1
  -4   2  23 15.4291  6.4790   1
   4   2 -23 26.3157  7.3527   2
   3   2 -23 28.6530  7.7599   1
  -3   2  23 22.6830  7.3800   1
  -2  -2  23 30.4230  8.1468   1
   2  -2 -23 27.5377  7.0553   1
  -2   2  23 29.9362  7.9202   1
   2   2 -23 39.5252  7.7220   2
   2   2 -23 34.4094  8.5343   1
   1  -2 -23 -1.5958  4.6717   1
  -1  -2  23 0.74095 3.31765   1
   1  -2 -23 -10.286   5.839   2
  -1   2  23 3.75265 4.82279   1
   1   2 -23 -1.7274  3.8578   2
   0  -2 -23 39.6583  8.7548   1
   0  -2  23 46.0619  8.9687   1
   0  -2 -23 53.9167  8.6504   2
   0   2 -23 37.2376  8.6414   1
   0   2 -23 41.4924  7.5229   2
   0   2  23 47.9974  9.3158   1
   1  -2  23 5.03655 4.34554   1
  -1  -2 -23 11.3614  5.1045   1
  -1  -2 -23 5.71897 5.40551   2
  -1   2 -23 2.31871 3.40229   2
   1   2  23 -2.6534  4.6725   1
  -1   2 -23 11.0919  6.3908   1
  -2  -2 -23 -1.3820  4.7082   2
   2  -2  23 0.81657 5.04969   1
  -2  -2 -23 5.33919 5.53672   1
   2   2  23 0.40462 4.36159   1
  -2   2 -23 0.42728 3.94325   2
  -2   2 -23 12.4070  6.1266   1
   3  -3 -23 11.7728  6.6787   1
  -3   3  23 3.02021 4.01265   1
   3   3 -23 2.18751 5.12052   2
   3   3 -23 3.22483 4.18702   1
   2  -3 -23 4.98754 5.24431   2
  -2  -3  23 -3.1672  5.2953   1
   2  -3 -23 9.41869 6.02464   1
   2   3 -23 0.48841 3.14175   2
   2   3 -23 5.45340 5.70150   1
  -2   3  23 2.37386 5.19957   1
   1  -3 -23 2.40971 5.14235   1
  -1  -3  23 13.8723  6.3886   1
  -1   3  23 6.80382 5.27439   1
   0  -3  23 -0.9170  3.7100   1
   0  -3 -23 6.11650 5.37684   1
   0   3  23 5.87033 5.28776   1
   0   3 -23 -7.0343  4.7719   2
   0   3 -23 2.02287 5.43962   1
   1  -3  23 8.46066 5.50215   1
  -1  -3 -23 11.8365  6.1351   1
   1   3  23 11.8714  6.1185   1
  -1   3 -23 -6.3402  5.7721   1
  -1   3 -23 -2.2976  3.0546   2
   2  -3  23 31.6152  8.2633   1
  -2  -3 -23 42.5392  8.0424   2
   2   3  23 42.1161  9.0494   1
  -1  -4  23 12.5203  6.7146   1
   1  -4 -23 5.09236 5.57497   1
   1   4 -23 -0.8329  4.2328   2
  -1   4  23 2.31875 4.99707   1
   1   4 -23 16.8904  7.0435   1
   0   0   0    0.00    0.00   0
;
_shelx_hkl_checksum              93244
_olex2_submission_special_instructions 'No special instructions were received'
loop_
_space_group_symop_operation_xyz
'x, y, z'
'-x+1/2, y+1/2, -z+1/2'
'-x, -y, -z'
'x-1/2, -y-1/2, z-1/2'
loop_
_atom_site_label
_atom_site_type_symbol
_atom_site_fract_x
_atom_site_fract_y
_atom_site_fract_z
_atom_site_U_iso_or_equiv
_atom_site_adp_type
_atom_site_occupancy
_atom_site_site_symmetry_order
_atom_site_calc_flag
_atom_site_refinement_flags_posn
C1 C 0.6742(2) 1.0578(2) 0.39136(14) 0.0388(5) Uani 1 1 d .
H1A H 0.7351 1.0787 0.4337 0.058 Uiso 1 1 calc GR
H1B H 0.5972 1.1001 0.4018 0.058 Uiso 1 1 calc GR
H1C H 0.7022 1.0886 0.3411 0.058 Uiso 1 1 calc GR
C2 C 0.57325(16) 0.87579(19) 0.33102(11) 0.0242(4) Uani 1 1 d .
C3 C 0.51373(16) 0.95266(18) 0.27354(11) 0.0232(4) Uani 1 1 d .
H3 H 0.5263 1.0435 0.2735 0.028 Uiso 1 1 calc R
C4 C 0.43565(16) 0.89565(19) 0.21599(11) 0.0239(4) Uani 1 1 d .
H4 H 0.3973 0.9479 0.1759 0.029 Uiso 1 1 calc R
C5 C 0.41333(16) 0.76320(18) 0.21664(10) 0.0222(4) Uani 1 1 d .
C6 C 0.47012(18) 0.68770(19) 0.27660(11) 0.0274(4) Uani 1 1 d .
H6 H 0.4534 0.5977 0.2789 0.033 Uiso 1 1 calc R
C7 C 0.55036(19) 0.7431(2) 0.33253(11) 0.0287(4) Uani 1 1 d .
H7 H 0.5899 0.6906 0.3720 0.034 Uiso 1 1 calc R
C8 C 0.21047(16) 0.75420(17) 0.15010(10) 0.0216(4) Uani 1 1 d .
C9 C 0.14599(17) 0.77580(18) 0.21658(11) 0.0243(4) Uani 1 1 d .
H9 H 0.1826 0.7565 0.2671 0.029 Uiso 1 1 calc R
C10 C 0.02810(16) 0.82552(18) 0.21011(11) 0.0239(4) Uani 1 1 d .
H10 H -0.0151 0.8404 0.2559 0.029 Uiso 1 1 calc R
C11 C -0.21406(19) 0.9110(3) 0.18982(13) 0.0392(5) Uani 1 1 d .
H11A H -0.2956 0.9412 0.1727 0.059 Uiso 1 1 calc GR
H11B H -0.1766 0.9725 0.2277 0.059 Uiso 1 1 calc GR
H11C H -0.2198 0.8260 0.2147 0.059 Uiso 1 1 calc GR
C12 C -0.02554(16) 0.85304(19) 0.13613(11) 0.0239(4) Uani 1 1 d .
C13 C 0.03837(17) 0.8307(2) 0.06903(11) 0.0299(4) Uani 1 1 d .
H13 H 0.0016 0.8495 0.0185 0.036 Uiso 1 1 calc R
C14 C 0.15548(17) 0.7810(2) 0.07598(11) 0.0287(4) Uani 1 1 d .
H14 H 0.1983 0.7652 0.0301 0.034 Uiso 1 1 calc R
C15 C 0.35919(16) 0.58252(17) 0.12793(10) 0.0212(3) Uani 1 1 d .
C16 C 0.26824(16) 0.48942(18) 0.11184(10) 0.0232(4) Uani 1 1 d .
H16 H 0.1857 0.5101 0.1192 0.028 Uiso 1 1 calc R
C17 C 0.29843(16) 0.36707(18) 0.08511(10) 0.0214(3) Uani 1 1 d .
H17 H 0.2358 0.3053 0.0749 0.026 Uiso 1 1 calc R
C19 C 0.50886(16) 0.42725(17) 0.08771(10) 0.0208(3) Uani 1 1 d .
H19 H 0.5911 0.4069 0.0793 0.025 Uiso 1 1 calc R
C20 C 0.47985(16) 0.54982(18) 0.11445(10) 0.0216(3) Uani 1 1 d .
H20 H 0.5423 0.6121 0.1237 0.026 Uiso 1 1 calc R
C21 C 0.41861(15) 0.33268(17) 0.07289(9) 0.0194(3) Uani 1 1 d .
C22 C 0.44929(15) 0.20283(18) 0.04485(10) 0.0202(3) Uani 1 1 d .
C23 C 0.37493(16) 0.11459(18) 0.00528(11) 0.0241(4) Uani 1 1 d .
H23 H 0.2912 0.1285 -0.0083 0.029 Uiso 1 1 calc R
C24 C 0.56065(16) 0.00026(18) 0.01272(10) 0.0220(4) Uani 1 1 d .
N1 N 0.33230(14) 0.70573(16) 0.15772(9) 0.0249(3) Uani 1 1 d .
O1 O -0.14134(12) 0.90134(16) 0.12310(8) 0.0347(4) Uani 1 1 d .
O2 O 0.65678(13) 0.92114(14) 0.38786(9) 0.0342(3) Uani 1 1 d .
S1 S 0.59770(4) 0.14380(5) 0.06105(3) 0.02577(13) Uani 1 1 d .
loop_
_atom_site_aniso_label
_atom_site_aniso_U_11
_atom_site_aniso_U_22
_atom_site_aniso_U_33
_atom_site_aniso_U_23
_atom_site_aniso_U_13
_atom_site_aniso_U_12
C1 0.0372(12) 0.0334(12) 0.0441(12) -0.0154(10) -0.0121(9) 0.0029(9)
C2 0.0202(8) 0.0284(10) 0.0237(8) -0.0065(7) -0.0014(7) 0.0039(7)
C3 0.0184(8) 0.0213(9) 0.0296(9) -0.0020(7) -0.0002(7) 0.0019(7)
C4 0.0195(8) 0.0251(9) 0.0267(9) 0.0012(7) -0.0011(7) 0.0046(7)
C5 0.0198(8) 0.0247(9) 0.0220(8) -0.0051(7) 0.0005(6) 0.0018(7)
C6 0.0348(10) 0.0208(9) 0.0262(9) -0.0004(7) 0.0000(8) 0.0010(7)
C7 0.0362(11) 0.0270(10) 0.0220(9) 0.0001(7) -0.0054(8) 0.0056(8)
C8 0.0197(8) 0.0202(9) 0.0249(8) -0.0036(7) 0.0000(7) 0.0007(6)
C9 0.0266(9) 0.0251(9) 0.0207(8) -0.0036(7) -0.0031(7) 0.0036(7)
C10 0.0244(9) 0.0261(10) 0.0213(8) -0.0066(7) 0.0022(7) 0.0019(7)
C11 0.0268(10) 0.0523(15) 0.0395(12) 0.0007(10) 0.0101(9) 0.0100(9)
C12 0.0183(8) 0.0262(9) 0.0272(9) -0.0023(7) 0.0008(7) 0.0002(7)
C13 0.0235(9) 0.0440(12) 0.0220(9) 0.0042(8) 0.0003(7) 0.0024(8)
C14 0.0233(9) 0.0411(12) 0.0221(9) 0.0009(8) 0.0055(7) 0.0021(8)
C15 0.0230(8) 0.0217(9) 0.0190(8) -0.0028(6) 0.0005(6) 0.0013(7)
C16 0.0188(8) 0.0278(10) 0.0231(8) -0.0028(7) 0.0027(6) 0.0010(7)
C17 0.0200(8) 0.0238(9) 0.0203(8) -0.0029(7) 0.0002(6) -0.0026(7)
C19 0.0186(8) 0.0245(9) 0.0193(8) -0.0021(6) 0.0009(6) 0.0011(6)
C20 0.0209(8) 0.0235(9) 0.0202(8) -0.0034(7) 0.0001(6) -0.0008(7)
C21 0.0219(8) 0.0216(9) 0.0147(7) -0.0010(6) 0.0012(6) 0.0011(6)
C22 0.0191(8) 0.0244(9) 0.0173(7) -0.0011(6) 0.0015(6) 0.0006(6)
C23 0.0201(8) 0.0265(10) 0.0255(9) -0.0052(7) -0.0007(7) 0.0023(7)
C24 0.0219(9) 0.0231(9) 0.0208(8) -0.0057(7) -0.0009(6) -0.0016(7)
N1 0.0207(7) 0.0243(8) 0.0290(8) -0.0088(6) -0.0038(6) 0.0036(6)
O1 0.0194(7) 0.0519(10) 0.0328(7) 0.0022(7) 0.0024(5) 0.0088(6)
O2 0.0347(8) 0.0322(8) 0.0338(8) -0.0090(6) -0.0146(6) 0.0054(6)
S1 0.0193(2) 0.0250(2) 0.0325(2) -0.00971(19) -0.00261(17) 0.00031(17)
loop_
_atom_type_symbol
_atom_type_description
_atom_type_scat_dispersion_real
_atom_type_scat_dispersion_imag
_atom_type_scat_source
C C 0.0033 0.0016 'International Tables Vol C Tables 4.2.6.8 and 6.1.1.4'
H H 0.0000 0.0000 'International Tables Vol C Tables 4.2.6.8 and 6.1.1.4'
N N 0.0061 0.0033 'International Tables Vol C Tables 4.2.6.8 and 6.1.1.4'
O O 0.0106 0.0060 'International Tables Vol C Tables 4.2.6.8 and 6.1.1.4'
S S 0.1246 0.1234 'International Tables Vol C Tables 4.2.6.8 and 6.1.1.4'
loop_
_geom_angle_atom_site_label_1
_geom_angle_atom_site_label_2
_geom_angle_atom_site_label_3
_geom_angle
_geom_angle_site_symmetry_1
_geom_angle_site_symmetry_3
H1A C1 H1B 109.5 . .
H1A C1 H1C 109.5 . .
H1B C1 H1C 109.5 . .
O2 C1 H1A 109.5 . .
O2 C1 H1B 109.5 . .
O2 C1 H1C 109.5 . .
C3 C2 C7 119.67(17) . .
O2 C2 C3 124.49(17) . .
O2 C2 C7 115.83(17) . .
C2 C3 H3 120.1 . .
C2 C3 C4 119.82(17) . .
C4 C3 H3 120.1 . .
C3 C4 H4 119.6 . .
C5 C4 C3 120.79(17) . .
C5 C4 H4 119.6 . .
C4 C5 C6 118.80(17) . .
C4 C5 N1 120.40(17) . .
C6 C5 N1 120.80(17) . .
C5 C6 H6 119.7 . .
C7 C6 C5 120.67(18) . .
C7 C6 H6 119.7 . .
C2 C7 H7 119.9 . .
C6 C7 C2 120.17(18) . .
C6 C7 H7 119.9 . .
C9 C8 C14 119.24(16) . .
C9 C8 N1 120.26(16) . .
C14 C8 N1 120.49(16) . .
C8 C9 H9 119.6 . .
C8 C9 C10 120.86(17) . .
C10 C9 H9 119.6 . .
C9 C10 H10 120.2 . .
C12 C10 C9 119.51(16) . .
C12 C10 H10 120.2 . .
H11A C11 H11B 109.5 . .
H11A C11 H11C 109.5 . .
H11B C11 H11C 109.5 . .
O1 C11 H11A 109.5 . .
O1 C11 H11B 109.5 . .
O1 C11 H11C 109.5 . .
C10 C12 C13 119.94(17) . .
O1 C12 C10 124.23(16) . .
O1 C12 C13 115.83(16) . .
C12 C13 H13 119.9 . .
C14 C13 C12 120.18(17) . .
C14 C13 H13 119.9 . .
C8 C14 H14 119.9 . .
C13 C14 C8 120.26(17) . .
C13 C14 H14 119.9 . .
C16 C15 N1 121.80(16) . .
C20 C15 C16 118.36(16) . .
C20 C15 N1 119.84(16) . .
C15 C16 H16 119.8 . .
C17 C16 C15 120.34(16) . .
C17 C16 H16 119.8 . .
C16 C17 H17 119.1 . .
C16 C17 C21 121.75(16) . .
C21 C17 H17 119.1 . .
C20 C19 H19 119.4 . .
C20 C19 C21 121.24(16) . .
C21 C19 H19 119.4 . .
C15 C20 H20 119.6 . .
C19 C20 C15 120.73(16) . .
C19 C20 H20 119.6 . .
C17 C21 C19 117.55(16) . .
C17 C21 C22 121.18(16) . .
C19 C21 C22 121.26(15) . .
C21 C22 S1 119.79(13) . .
C23 C22 C21 128.49(16) . .
C23 C22 S1 111.72(14) . .
C22 C23 H23 124.2 . .
C22 C23 C24 111.55(16) . 3_655
C24 C23 H23 124.2 3_655 .
C23 C24 S1 135.08(14) 3_655 .
C24 C24 C23 114.5(2) 3_655 3_655
C24 C24 S1 110.43(18) 3_655 .
C8 N1 C5 117.49(14) . .
C15 N1 C5 119.42(15) . .
C15 N1 C8 119.97(15) . .
C12 O1 C11 117.03(16) . .
C2 O2 C1 116.68(16) . .
C24 S1 C22 91.80(9) . .
loop_
_geom_bond_atom_site_label_1
_geom_bond_atom_site_label_2
_geom_bond_distance
_geom_bond_site_symmetry_2
C1 H1A 0.9800 .
C1 H1B 0.9800 .
C1 H1C 0.9800 .
C1 O2 1.428(3) .
C2 C3 1.395(3) .
C2 C7 1.396(3) .
C2 O2 1.379(2) .
C3 H3 0.9500 .
C3 C4 1.397(3) .
C4 H4 0.9500 .
C4 C5 1.392(3) .
C5 C6 1.404(3) .
C5 N1 1.433(2) .
C6 H6 0.9500 .
C6 C7 1.385(3) .
C7 H7 0.9500 .
C8 C9 1.389(2) .
C8 C14 1.396(3) .
C8 N1 1.433(2) .
C9 H9 0.9500 .
C9 C10 1.396(2) .
C10 H10 0.9500 .
C10 C12 1.389(3) .
C11 H11A 0.9800 .
C11 H11B 0.9800 .
C11 H11C 0.9800 .
C11 O1 1.431(2) .
C12 C13 1.396(3) .
C12 O1 1.377(2) .
C13 H13 0.9500 .
C13 C14 1.388(3) .
C14 H14 0.9500 .
C15 C16 1.406(3) .
C15 C20 1.404(2) .
C15 N1 1.409(2) .
C16 H16 0.9500 .
C16 C17 1.392(3) .
C17 H17 0.9500 .
C17 C21 1.399(2) .
C19 H19 0.9500 .
C19 C20 1.390(2) .
C19 C21 1.408(2) .
C20 H20 0.9500 .
C21 C22 1.471(2) .
C22 C23 1.377(2) .
C22 S1 1.7535(18) .
C23 H23 0.9500 .
C23 C24 1.426(2) 3_655
C24 C23 1.426(2) 3_655
C24 C24 1.382(3) 3_655
C24 S1 1.7347(18) .
loop_
_geom_torsion_atom_site_label_1
_geom_torsion_atom_site_label_2
_geom_torsion_atom_site_label_3
_geom_torsion_atom_site_label_4
_geom_torsion
_geom_torsion_site_symmetry_1
_geom_torsion_site_symmetry_4
C2 C3 C4 C5 2.0(3) . .
C3 C2 C7 C6 0.8(3) . .
C3 C2 O2 C1 5.8(3) . .
C3 C4 C5 C6 0.4(3) . .
C3 C4 C5 N1 179.49(16) . .
C4 C5 C6 C7 -2.3(3) . .
C4 C5 N1 C8 -57.3(2) . .
C4 C5 N1 C15 142.68(17) . .
C5 C6 C7 C2 1.7(3) . .
C6 C5 N1 C8 121.74(19) . .
C6 C5 N1 C15 -38.3(2) . .
C7 C2 C3 C4 -2.7(3) . .
C7 C2 O2 C1 -175.08(18) . .
C8 C9 C10 C12 0.4(3) . .
C9 C8 C14 C13 1.0(3) . .
C9 C8 N1 C5 -45.0(2) . .
C9 C8 N1 C15 114.9(2) . .
C9 C10 C12 C13 0.1(3) . .
C9 C10 C12 O1 179.52(18) . .
C10 C12 C13 C14 0.0(3) . .
C10 C12 O1 C11 -6.5(3) . .
C12 C13 C14 C8 -0.6(3) . .
C13 C12 O1 C11 172.9(2) . .
C14 C8 C9 C10 -0.9(3) . .
C14 C8 N1 C5 134.59(19) . .
C14 C8 N1 C15 -65.5(2) . .
C15 C16 C17 C21 -0.4(3) . .
C16 C15 C20 C19 -1.6(3) . .
C16 C15 N1 C5 140.42(18) . .
C16 C15 N1 C8 -19.1(3) . .
C16 C17 C21 C19 -0.8(3) . .
C16 C17 C21 C22 179.81(16) . .
C17 C21 C22 C23 21.4(3) . .
C17 C21 C22 S1 -158.58(14) . .
C19 C21 C22 C23 -157.98(18) . .
C19 C21 C22 S1 22.0(2) . .
C20 C15 C16 C17 1.6(3) . .
C20 C15 N1 C5 -38.9(2) . .
C20 C15 N1 C8 161.61(17) . .
C20 C19 C21 C17 0.8(2) . .
C20 C19 C21 C22 -179.80(16) . .
C21 C19 C20 C15 0.4(3) . .
C21 C22 C23 C24 179.20(16) . 3_655
C21 C22 S1 C24 -178.97(14) . .
C23 C22 S1 C24 1.02(14) . .
C23 C24 S1 C22 179.9(2) 3_655 .
C24 C24 S1 C22 -0.96(19) 3_655 .
N1 C5 C6 C7 178.65(17) . .
N1 C8 C9 C10 178.67(17) . .
N1 C8 C14 C13 -178.57(18) . .
N1 C15 C16 C17 -177.70(16) . .
N1 C15 C20 C19 177.72(16) . .
O1 C12 C13 C14 -179.46(19) . .
O2 C2 C3 C4 176.47(17) . .
O2 C2 C7 C6 -178.38(17) . .
S1 C22 C23 C24 -0.8(2) . 3_655
